MODEL 1
REMARK VINA RESULT:     -10.0      0.000      0.000
REMARK SMILES C[C@H](CCC[C@@H](C)[NH3+])C(=O)N1CCO[C@H](CC(=O)NCCCNC(=O)c2ccc(-c3c4nc(c(-c5ccc(S(=O)(=O)[O-])cc5)c5ccc([nH]5)c(-c5ccc(S(=O)(=O)[O-])cc5)c5nc(c(-c6ccc(S(=O)(=O)[O-])cc6)c6ccc3[nH]6)C=C5)C=C4)cc2)C1
REMARK SMILES IDX 17 1 18 2 19 3 16 5 15 6 11 7 12 8 86 9 13 10 14 11 9 12
REMARK SMILES IDX 10 13 2 14 1 15 3 16 4 17 5 18 6 19 7 20 8 21 20 25 21 26
REMARK SMILES IDX 22 27 23 28 24 29 25 31 26 32 27 33 85 34 28 35 84 36 29 37
REMARK SMILES IDX 30 38 31 39 78 40 32 41 83 42 77 43 79 44 33 45 82 46 76 47
REMARK SMILES IDX 75 48 34 50 64 51 45 52 63 53 46 54 49 55 62 56 80 57 47 58
REMARK SMILES IDX 48 59 61 61 81 62 50 63 35 64 36 65 44 66 37 67 43 68 38 69
REMARK SMILES IDX 39 70 40 71 41 72 42 73 65 74 66 75 74 76 67 77 73 78 68 79
REMARK SMILES IDX 69 80 70 81 71 82 72 83 51 84 52 85 60 86 53 87 59 88 54 89
REMARK SMILES IDX 55 90 56 91 57 92 58 93
REMARK H PARENT 19 4 8 22 8 23 8 24 23 30 79 49 49 60
REMARK Flexibility Score: inf
ROOT
ATOM      1  C   UNL A   1      33.004  28.931  24.690  1.00  0.00     0.222 C 
ATOM      2  O   UNL A   1      33.383  28.756  23.533  1.00  0.00    -0.275 OA
ATOM      3  N   UNL A   1      33.788  29.668  25.520  1.00  0.00    -0.356 N 
ATOM      4  H   UNL A   1      34.640  29.976  25.135  1.00  0.00     0.163 HD
ENDROOT
BRANCH   1   5
ATOM      5  C   UNL A   1      31.711  28.337  25.203  1.00  0.00     0.133 C 
BRANCH   5   6
ATOM      6  C   UNL A   1      31.935  27.386  26.381  1.00  0.00     0.147 C 
ATOM      7  N   UNL A   1      32.749  25.408  25.189  1.00  0.00    -0.338 N 
ATOM      8  C   UNL A   1      31.583  24.668  25.651  1.00  0.00     0.148 C 
ATOM      9  C   UNL A   1      33.121  26.423  26.165  1.00  0.00     0.152 C 
ATOM     10  C   UNL A   1      30.397  25.616  25.847  1.00  0.00     0.182 C 
ATOM     11  O   UNL A   1      30.721  26.688  26.739  1.00  0.00    -0.374 OA
BRANCH   7  12
ATOM     12  C   UNL A   1      33.747  24.850  24.412  1.00  0.00     0.225 C 
ATOM     13  O   UNL A   1      34.916  24.841  24.809  1.00  0.00    -0.275 OA
BRANCH  12  14
ATOM     14  C   UNL A   1      33.430  24.441  22.955  1.00  0.00     0.075 C 
ATOM     15  C   UNL A   1      32.669  25.516  22.173  1.00  0.00     0.018 C 
BRANCH  14  16
ATOM     16  C   UNL A   1      32.993  22.999  22.632  1.00  0.00     0.013 C 
BRANCH  16  17
ATOM     17  C   UNL A   1      32.863  21.898  23.688  1.00  0.00     0.007 C 
BRANCH  17  18
ATOM     18  C   UNL A   1      34.143  21.424  24.378  1.00  0.00     0.064 C 
BRANCH  18  19
ATOM     19  C   UNL A   1      33.934  20.851  25.782  1.00  0.00     0.177 C 
ATOM     20  C   UNL A   1      34.029  21.958  26.833  1.00  0.00     0.075 C 
BRANCH  19  21
ATOM     21  N   UNL A   1      32.603  20.243  25.849  1.00  0.00    -0.355 N 
ATOM     22  H   UNL A   1      32.580  19.409  25.262  1.00  0.00     0.344 HD
ATOM     23  H   UNL A   1      31.907  20.911  25.517  1.00  0.00     0.344 HD
ATOM     24  H   UNL A   1      32.394  19.987  26.814  1.00  0.00     0.344 HD
ENDBRANCH  19  21
ENDBRANCH  18  19
ENDBRANCH  17  18
ENDBRANCH  16  17
ENDBRANCH  14  16
ENDBRANCH  12  14
ENDBRANCH   7  12
ENDBRANCH   5   6
ENDBRANCH   1   5
BRANCH   3  25
ATOM     25  C   UNL A   1      33.549  30.065  26.894  1.00  0.00     0.117 C 
BRANCH  25  26
ATOM     26  C   UNL A   1      34.725  29.731  27.808  1.00  0.00     0.042 C 
BRANCH  26  27
ATOM     27  C   UNL A   1      35.529  30.945  28.244  1.00  0.00     0.118 C 
BRANCH  27  28
ATOM     28  N   UNL A   1      35.475  31.140  29.683  1.00  0.00    -0.352 N 
ATOM     29  C   UNL A   1      36.382  30.776  30.642  1.00  0.00     0.251 C 
ATOM     30  H   UNL A   1      34.672  31.601  30.015  1.00  0.00     0.163 HD
ATOM     31  O   UNL A   1      36.038  30.766  31.827  1.00  0.00    -0.269 OA
BRANCH  29  32
ATOM     32  C   UNL A   1      37.756  30.389  30.263  1.00  0.00     0.039 A 
ATOM     33  C   UNL A   1      38.576  29.768  31.209  1.00  0.00     0.014 A 
ATOM     34  C   UNL A   1      38.250  30.665  28.984  1.00  0.00     0.014 A 
ATOM     35  C   UNL A   1      39.869  29.380  30.856  1.00  0.00     0.010 A 
ATOM     36  C   UNL A   1      39.503  30.195  28.607  1.00  0.00     0.010 A 
ATOM     37  C   UNL A   1      40.333  29.563  29.543  1.00  0.00    -0.014 A 
BRANCH  37  38
ATOM     38  C   UNL A   1      41.692  29.128  29.131  1.00  0.00     0.031 A 
ATOM     39  C   UNL A   1      42.818  30.130  29.085  1.00  0.00     0.074 A 
ATOM     40  C   UNL A   1      41.897  27.856  28.736  1.00  0.00     0.049 A 
ATOM     41  N   UNL A   1      44.048  29.967  28.673  1.00  0.00    -0.248 NA
ATOM     42  C   UNL A   1      42.515  31.500  29.537  1.00  0.00     0.031 C 
ATOM     43  C   UNL A   1      40.877  26.804  28.697  1.00  0.00     0.029 A 
ATOM     44  N   UNL A   1      43.030  27.232  28.277  1.00  0.00    -0.354 N 
ATOM     45  C   UNL A   1      44.654  31.213  28.789  1.00  0.00     0.074 A 
ATOM     46  C   UNL A   1      43.649  32.132  29.271  1.00  0.00     0.031 C 
ATOM     47  C   UNL A   1      41.435  25.663  28.260  1.00  0.00     0.029 A 
ATOM     48  C   UNL A   1      42.838  25.911  27.942  1.00  0.00     0.049 A 
ATOM     49  H   UNL A   1      43.899  27.687  28.195  1.00  0.00     0.167 HD
ATOM     50  C   UNL A   1      45.939  31.555  28.533  1.00  0.00     0.031 A 
ATOM     51  C   UNL A   1      43.691  25.007  27.423  1.00  0.00     0.031 A 
ATOM     52  C   UNL A   1      46.943  30.630  28.083  1.00  0.00     0.049 A 
ATOM     53  C   UNL A   1      45.114  25.417  27.148  1.00  0.00     0.074 A 
ATOM     54  C   UNL A   1      48.288  30.864  27.866  1.00  0.00     0.029 A 
ATOM     55  N   UNL A   1      46.713  29.297  27.782  1.00  0.00    -0.354 N 
ATOM     56  N   UNL A   1      45.686  26.583  27.339  1.00  0.00    -0.248 NA
ATOM     57  C   UNL A   1      46.008  24.390  26.598  1.00  0.00     0.031 C 
ATOM     58  C   UNL A   1      48.863  29.687  27.379  1.00  0.00     0.029 A 
ATOM     59  C   UNL A   1      47.888  28.702  27.356  1.00  0.00     0.049 A 
ATOM     60  H   UNL A   1      45.844  28.840  27.860  1.00  0.00     0.167 HD
ATOM     61  C   UNL A   1      47.015  26.415  26.967  1.00  0.00     0.074 A 
ATOM     62  C   UNL A   1      47.165  25.035  26.554  1.00  0.00     0.031 C 
ATOM     63  C   UNL A   1      48.023  27.323  26.966  1.00  0.00     0.031 A 
BRANCH  50  64
ATOM     64  C   UNL A   1      46.343  32.992  28.734  1.00  0.00    -0.014 A 
ATOM     65  C   UNL A   1      46.214  33.936  27.700  1.00  0.00     0.010 A 
ATOM     66  C   UNL A   1      46.770  33.423  30.004  1.00  0.00     0.010 A 
ATOM     67  C   UNL A   1      46.521  35.280  27.927  1.00  0.00     0.020 A 
ATOM     68  C   UNL A   1      47.051  34.771  30.243  1.00  0.00     0.020 A 
ATOM     69  C   UNL A   1      46.931  35.690  29.200  1.00  0.00     0.054 A 
BRANCH  69  70
ATOM     70  S   UNL A   1      47.252  37.453  29.481  1.00  0.00     0.124 S 
ATOM     71  O   UNL A   1      47.465  37.942  28.121  1.00  0.00    -0.237 OA
ATOM     72  O   UNL A   1      46.020  37.903  30.124  1.00  0.00    -0.237 OA
ATOM     73  O   UNL A   1      48.436  37.458  30.336  1.00  0.00    -0.744 OA
ENDBRANCH  69  70
ENDBRANCH  50  64
BRANCH  51  74
ATOM     74  C   UNL A   1      43.229  23.624  27.117  1.00  0.00    -0.014 A 
ATOM     75  C   UNL A   1      43.129  22.658  28.135  1.00  0.00     0.010 A 
ATOM     76  C   UNL A   1      42.914  23.256  25.795  1.00  0.00     0.010 A 
ATOM     77  C   UNL A   1      42.766  21.342  27.831  1.00  0.00     0.020 A 
ATOM     78  C   UNL A   1      42.519  21.950  25.493  1.00  0.00     0.020 A 
ATOM     79  C   UNL A   1      42.468  20.995  26.510  1.00  0.00     0.054 A 
BRANCH  79  80
ATOM     80  S   UNL A   1      41.995  19.284  26.138  1.00  0.00     0.124 S 
ATOM     81  O   UNL A   1      42.378  18.591  27.363  1.00  0.00    -0.237 OA
ATOM     82  O   UNL A   1      40.558  19.400  25.897  1.00  0.00    -0.237 OA
ATOM     83  O   UNL A   1      42.792  18.959  24.957  1.00  0.00    -0.744 OA
ENDBRANCH  79  80
ENDBRANCH  51  74
BRANCH  63  84
ATOM     84  C   UNL A   1      49.391  26.846  26.558  1.00  0.00    -0.014 A 
ATOM     85  C   UNL A   1      50.303  26.343  27.502  1.00  0.00     0.010 A 
ATOM     86  C   UNL A   1      49.739  26.839  25.195  1.00  0.00     0.010 A 
ATOM     87  C   UNL A   1      51.552  25.868  27.092  1.00  0.00     0.020 A 
ATOM     88  C   UNL A   1      50.973  26.337  24.778  1.00  0.00     0.020 A 
ATOM     89  C   UNL A   1      51.877  25.866  25.732  1.00  0.00     0.054 A 
BRANCH  89  90
ATOM     90  S   UNL A   1      53.483  25.193  25.220  1.00  0.00     0.124 S 
ATOM     91  O   UNL A   1      54.374  25.719  26.250  1.00  0.00    -0.237 OA
ATOM     92  O   UNL A   1      53.254  23.751  25.264  1.00  0.00    -0.237 OA
ATOM     93  O   UNL A   1      53.681  25.746  23.882  1.00  0.00    -0.744 OA
ENDBRANCH  89  90
ENDBRANCH  63  84
ENDBRANCH  37  38
ENDBRANCH  29  32
ENDBRANCH  27  28
ENDBRANCH  26  27
ENDBRANCH  25  26
ENDBRANCH   3  25
TORSDOF 21
ENDMDL
MODEL 2
REMARK VINA RESULT:      -9.7      6.284      8.549
REMARK SMILES C[C@H](CCC[C@@H](C)[NH3+])C(=O)N1CCO[C@H](CC(=O)NCCCNC(=O)c2ccc(-c3c4nc(c(-c5ccc(S(=O)(=O)[O-])cc5)c5ccc([nH]5)c(-c5ccc(S(=O)(=O)[O-])cc5)c5nc(c(-c6ccc(S(=O)(=O)[O-])cc6)c6ccc3[nH]6)C=C5)C=C4)cc2)C1
REMARK SMILES IDX 17 1 18 2 19 3 16 5 15 6 11 7 12 8 86 9 13 10 14 11 9 12
REMARK SMILES IDX 10 13 2 14 1 15 3 16 4 17 5 18 6 19 7 20 8 21 20 25 21 26
REMARK SMILES IDX 22 27 23 28 24 29 25 31 26 32 27 33 85 34 28 35 84 36 29 37
REMARK SMILES IDX 30 38 31 39 78 40 32 41 83 42 77 43 79 44 33 45 82 46 76 47
REMARK SMILES IDX 75 48 34 50 64 51 45 52 63 53 46 54 49 55 62 56 80 57 47 58
REMARK SMILES IDX 48 59 61 61 81 62 50 63 35 64 36 65 44 66 37 67 43 68 38 69
REMARK SMILES IDX 39 70 40 71 41 72 42 73 65 74 66 75 74 76 67 77 73 78 68 79
REMARK SMILES IDX 69 80 70 81 71 82 72 83 51 84 52 85 60 86 53 87 59 88 54 89
REMARK SMILES IDX 55 90 56 91 57 92 58 93
REMARK H PARENT 19 4 8 22 8 23 8 24 23 30 79 49 49 60
REMARK Flexibility Score: inf
ROOT
ATOM      1  C   UNL A   1      35.549  30.228  28.444  1.00  0.00     0.222 C 
ATOM      2  O   UNL A   1      36.104  29.453  29.221  1.00  0.00    -0.275 OA
ATOM      3  N   UNL A   1      35.434  31.533  28.807  1.00  0.00    -0.356 N 
ATOM      4  H   UNL A   1      35.773  31.753  29.705  1.00  0.00     0.163 HD
ENDROOT
BRANCH   1   5
ATOM      5  C   UNL A   1      34.986  29.760  27.120  1.00  0.00     0.133 C 
BRANCH   5   6
ATOM      6  C   UNL A   1      33.648  29.035  27.281  1.00  0.00     0.147 C 
ATOM      7  N   UNL A   1      32.874  29.041  24.958  1.00  0.00    -0.338 N 
ATOM      8  C   UNL A   1      31.739  29.862  25.353  1.00  0.00     0.148 C 
ATOM      9  C   UNL A   1      33.276  28.173  26.056  1.00  0.00     0.152 C 
ATOM     10  C   UNL A   1      32.109  30.734  26.555  1.00  0.00     0.182 C 
ATOM     11  O   UNL A   1      32.589  29.946  27.650  1.00  0.00    -0.374 OA
BRANCH   7  12
ATOM     12  C   UNL A   1      33.081  28.598  23.664  1.00  0.00     0.225 C 
ATOM     13  O   UNL A   1      33.503  29.371  22.799  1.00  0.00    -0.275 OA
BRANCH  12  14
ATOM     14  C   UNL A   1      32.571  27.197  23.256  1.00  0.00     0.075 C 
ATOM     15  C   UNL A   1      33.244  26.647  21.995  1.00  0.00     0.018 C 
BRANCH  14  16
ATOM     16  C   UNL A   1      31.073  26.852  23.372  1.00  0.00     0.013 C 
BRANCH  16  17
ATOM     17  C   UNL A   1      29.983  27.895  23.632  1.00  0.00     0.007 C 
BRANCH  17  18
ATOM     18  C   UNL A   1      29.156  28.369  22.436  1.00  0.00     0.064 C 
BRANCH  18  19
ATOM     19  C   UNL A   1      29.325  29.851  22.092  1.00  0.00     0.177 C 
ATOM     20  C   UNL A   1      29.027  30.723  23.311  1.00  0.00     0.075 C 
BRANCH  19  21
ATOM     21  N   UNL A   1      30.709  30.080  21.668  1.00  0.00    -0.355 N 
ATOM     22  H   UNL A   1      31.160  30.727  22.316  1.00  0.00     0.344 HD
ATOM     23  H   UNL A   1      30.716  30.479  20.730  1.00  0.00     0.344 HD
ATOM     24  H   UNL A   1      31.214  29.194  21.665  1.00  0.00     0.344 HD
ENDBRANCH  19  21
ENDBRANCH  18  19
ENDBRANCH  17  18
ENDBRANCH  16  17
ENDBRANCH  14  16
ENDBRANCH  12  14
ENDBRANCH   7  12
ENDBRANCH   5   6
ENDBRANCH   1   5
BRANCH   3  25
ATOM     25  C   UNL A   1      34.881  32.647  28.062  1.00  0.00     0.117 C 
BRANCH  25  26
ATOM     26  C   UNL A   1      33.627  33.218  28.716  1.00  0.00     0.042 C 
BRANCH  26  27
ATOM     27  C   UNL A   1      33.638  34.732  28.851  1.00  0.00     0.118 C 
BRANCH  27  28
ATOM     28  N   UNL A   1      32.967  35.171  30.063  1.00  0.00    -0.352 N 
ATOM     29  C   UNL A   1      33.227  34.842  31.366  1.00  0.00     0.251 C 
ATOM     30  H   UNL A   1      32.218  35.796  29.926  1.00  0.00     0.163 HD
ATOM     31  O   UNL A   1      32.379  35.082  32.231  1.00  0.00    -0.269 OA
BRANCH  29  32
ATOM     32  C   UNL A   1      34.504  34.197  31.735  1.00  0.00     0.039 A 
ATOM     33  C   UNL A   1      35.690  34.927  31.636  1.00  0.00     0.014 A 
ATOM     34  C   UNL A   1      34.537  32.862  32.149  1.00  0.00     0.014 A 
ATOM     35  C   UNL A   1      36.900  34.334  32.001  1.00  0.00     0.010 A 
ATOM     36  C   UNL A   1      35.728  32.304  32.600  1.00  0.00     0.010 A 
ATOM     37  C   UNL A   1      36.926  33.028  32.515  1.00  0.00    -0.014 A 
BRANCH  37  38
ATOM     38  C   UNL A   1      38.194  32.385  32.943  1.00  0.00     0.031 A 
ATOM     39  C   UNL A   1      38.753  32.671  34.313  1.00  0.00     0.074 A 
ATOM     40  C   UNL A   1      38.875  31.606  32.079  1.00  0.00     0.049 A 
ATOM     41  N   UNL A   1      39.884  32.278  34.839  1.00  0.00    -0.248 NA
ATOM     42  C   UNL A   1      37.948  33.529  35.201  1.00  0.00     0.031 C 
ATOM     43  C   UNL A   1      38.457  31.289  30.710  1.00  0.00     0.029 A 
ATOM     44  N   UNL A   1      40.071  30.947  32.218  1.00  0.00    -0.354 N 
ATOM     45  C   UNL A   1      39.939  32.862  36.100  1.00  0.00     0.074 A 
ATOM     46  C   UNL A   1      38.749  33.668  36.248  1.00  0.00     0.031 C 
ATOM     47  C   UNL A   1      39.370  30.482  30.146  1.00  0.00     0.029 A 
ATOM     48  C   UNL A   1      40.460  30.261  31.091  1.00  0.00     0.049 A 
ATOM     49  H   UNL A   1      40.600  30.964  33.048  1.00  0.00     0.167 HD
ATOM     50  C   UNL A   1      40.888  32.723  37.055  1.00  0.00     0.031 A 
ATOM     51  C   UNL A   1      41.576  29.549  30.840  1.00  0.00     0.031 A 
ATOM     52  C   UNL A   1      42.055  31.895  36.915  1.00  0.00     0.049 A 
ATOM     53  C   UNL A   1      42.614  29.414  31.923  1.00  0.00     0.074 A 
ATOM     54  C   UNL A   1      43.036  31.632  37.853  1.00  0.00     0.029 A 
ATOM     55  N   UNL A   1      42.397  31.197  35.768  1.00  0.00    -0.354 N 
ATOM     56  N   UNL A   1      42.608  29.912  33.137  1.00  0.00    -0.248 NA
ATOM     57  C   UNL A   1      43.805  28.614  31.606  1.00  0.00     0.031 C 
ATOM     58  C   UNL A   1      44.004  30.820  37.254  1.00  0.00     0.029 A 
ATOM     59  C   UNL A   1      43.590  30.524  35.966  1.00  0.00     0.049 A 
ATOM     60  H   UNL A   1      41.871  31.182  34.936  1.00  0.00     0.167 HD
ATOM     61  C   UNL A   1      43.775  29.453  33.738  1.00  0.00     0.074 A 
ATOM     62  C   UNL A   1      44.454  28.627  32.761  1.00  0.00     0.031 C 
ATOM     63  C   UNL A   1      44.243  29.692  34.988  1.00  0.00     0.031 A 
BRANCH  50  64
ATOM     64  C   UNL A   1      40.711  33.480  38.345  1.00  0.00    -0.014 A 
ATOM     65  C   UNL A   1      41.298  34.743  38.535  1.00  0.00     0.010 A 
ATOM     66  C   UNL A   1      39.868  32.961  39.345  1.00  0.00     0.010 A 
ATOM     67  C   UNL A   1      41.061  35.465  39.707  1.00  0.00     0.020 A 
ATOM     68  C   UNL A   1      39.605  33.692  40.507  1.00  0.00     0.020 A 
ATOM     69  C   UNL A   1      40.209  34.938  40.683  1.00  0.00     0.054 A 
BRANCH  69  70
ATOM     70  S   UNL A   1      39.864  35.931  42.161  1.00  0.00     0.124 S 
ATOM     71  O   UNL A   1      41.209  36.258  42.626  1.00  0.00    -0.237 OA
ATOM     72  O   UNL A   1      39.097  37.051  41.620  1.00  0.00    -0.237 OA
ATOM     73  O   UNL A   1      39.111  35.022  43.022  1.00  0.00    -0.744 OA
ENDBRANCH  69  70
ENDBRANCH  50  64
BRANCH  51  74
ATOM     74  C   UNL A   1      41.782  28.914  29.508  1.00  0.00    -0.014 A 
ATOM     75  C   UNL A   1      41.524  27.544  29.318  1.00  0.00     0.010 A 
ATOM     76  C   UNL A   1      42.269  29.672  28.427  1.00  0.00     0.010 A 
ATOM     77  C   UNL A   1      41.789  26.937  28.087  1.00  0.00     0.020 A 
ATOM     78  C   UNL A   1      42.503  29.075  27.186  1.00  0.00     0.020 A 
ATOM     79  C   UNL A   1      42.282  27.706  27.030  1.00  0.00     0.054 A 
BRANCH  79  80
ATOM     80  S   UNL A   1      42.615  26.899  25.439  1.00  0.00     0.124 S 
ATOM     81  O   UNL A   1      42.677  28.038  24.529  1.00  0.00    -0.237 OA
ATOM     82  O   UNL A   1      43.883  26.217  25.690  1.00  0.00    -0.237 OA
ATOM     83  O   UNL A   1      41.466  26.014  25.259  1.00  0.00    -0.744 OA
ENDBRANCH  79  80
ENDBRANCH  51  74
BRANCH  63  84
ATOM     84  C   UNL A   1      45.523  29.014  35.396  1.00  0.00    -0.014 A 
ATOM     85  C   UNL A   1      46.770  29.644  35.234  1.00  0.00     0.010 A 
ATOM     86  C   UNL A   1      45.466  27.753  36.017  1.00  0.00     0.010 A 
ATOM     87  C   UNL A   1      47.940  29.010  35.660  1.00  0.00     0.020 A 
ATOM     88  C   UNL A   1      46.630  27.130  36.472  1.00  0.00     0.020 A 
ATOM     89  C   UNL A   1      47.862  27.758  36.279  1.00  0.00     0.054 A 
BRANCH  89  90
ATOM     90  S   UNL A   1      49.390  26.981  36.872  1.00  0.00     0.124 S 
ATOM     91  O   UNL A   1      49.512  25.832  35.981  1.00  0.00    -0.237 OA
ATOM     92  O   UNL A   1      50.381  28.036  36.678  1.00  0.00    -0.237 OA
ATOM     93  O   UNL A   1      49.097  26.659  38.267  1.00  0.00    -0.744 OA
ENDBRANCH  89  90
ENDBRANCH  63  84
ENDBRANCH  37  38
ENDBRANCH  29  32
ENDBRANCH  27  28
ENDBRANCH  26  27
ENDBRANCH  25  26
ENDBRANCH   3  25
TORSDOF 21
ENDMDL
MODEL 3
REMARK VINA RESULT:      -9.3      6.409     13.464
REMARK SMILES C[C@H](CCC[C@@H](C)[NH3+])C(=O)N1CCO[C@H](CC(=O)NCCCNC(=O)c2ccc(-c3c4nc(c(-c5ccc(S(=O)(=O)[O-])cc5)c5ccc([nH]5)c(-c5ccc(S(=O)(=O)[O-])cc5)c5nc(c(-c6ccc(S(=O)(=O)[O-])cc6)c6ccc3[nH]6)C=C5)C=C4)cc2)C1
REMARK SMILES IDX 17 1 18 2 19 3 16 5 15 6 11 7 12 8 86 9 13 10 14 11 9 12
REMARK SMILES IDX 10 13 2 14 1 15 3 16 4 17 5 18 6 19 7 20 8 21 20 25 21 26
REMARK SMILES IDX 22 27 23 28 24 29 25 31 26 32 27 33 85 34 28 35 84 36 29 37
REMARK SMILES IDX 30 38 31 39 78 40 32 41 83 42 77 43 79 44 33 45 82 46 76 47
REMARK SMILES IDX 75 48 34 50 64 51 45 52 63 53 46 54 49 55 62 56 80 57 47 58
REMARK SMILES IDX 48 59 61 61 81 62 50 63 35 64 36 65 44 66 37 67 43 68 38 69
REMARK SMILES IDX 39 70 40 71 41 72 42 73 65 74 66 75 74 76 67 77 73 78 68 79
REMARK SMILES IDX 69 80 70 81 71 82 72 83 51 84 52 85 60 86 53 87 59 88 54 89
REMARK SMILES IDX 55 90 56 91 57 92 58 93
REMARK H PARENT 19 4 8 22 8 23 8 24 23 30 79 49 49 60
REMARK Flexibility Score: inf
ROOT
ATOM      1  C   UNL A   1      45.233  22.012  25.754  1.00  0.00     0.222 C 
ATOM      2  O   UNL A   1      46.323  21.504  25.500  1.00  0.00    -0.275 OA
ATOM      3  N   UNL A   1      44.143  21.202  25.822  1.00  0.00    -0.356 N 
ATOM      4  H   UNL A   1      44.309  20.254  25.614  1.00  0.00     0.163 HD
ENDROOT
BRANCH   1   5
ATOM      5  C   UNL A   1      45.080  23.501  25.972  1.00  0.00     0.133 C 
BRANCH   5   6
ATOM      6  C   UNL A   1      46.425  24.200  26.181  1.00  0.00     0.147 C 
ATOM      7  N   UNL A   1      45.693  26.181  27.421  1.00  0.00    -0.338 N 
ATOM      8  C   UNL A   1      46.160  27.020  26.328  1.00  0.00     0.148 C 
ATOM      9  C   UNL A   1      46.504  24.975  27.514  1.00  0.00     0.152 C 
ATOM     10  C   UNL A   1      46.064  26.264  25.001  1.00  0.00     0.182 C 
ATOM     11  O   UNL A   1      46.779  25.024  25.048  1.00  0.00    -0.374 OA
BRANCH   7  12
ATOM     12  C   UNL A   1      45.132  26.682  28.581  1.00  0.00     0.225 C 
ATOM     13  O   UNL A   1      44.876  27.886  28.682  1.00  0.00    -0.275 OA
BRANCH  12  14
ATOM     14  C   UNL A   1      45.034  25.772  29.827  1.00  0.00     0.075 C 
ATOM     15  C   UNL A   1      46.309  25.763  30.676  1.00  0.00     0.018 C 
BRANCH  14  16
ATOM     16  C   UNL A   1      44.329  24.405  29.736  1.00  0.00     0.013 C 
BRANCH  16  17
ATOM     17  C   UNL A   1      43.779  23.654  30.952  1.00  0.00     0.007 C 
BRANCH  17  18
ATOM     18  C   UNL A   1      44.667  23.571  32.194  1.00  0.00     0.064 C 
BRANCH  18  19
ATOM     19  C   UNL A   1      44.128  24.324  33.413  1.00  0.00     0.177 C 
ATOM     20  C   UNL A   1      43.538  23.347  34.431  1.00  0.00     0.075 C 
BRANCH  19  21
ATOM     21  N   UNL A   1      45.232  25.056  34.039  1.00  0.00    -0.355 N 
ATOM     22  H   UNL A   1      45.904  24.392  34.425  1.00  0.00     0.344 HD
ATOM     23  H   UNL A   1      44.869  25.645  34.788  1.00  0.00     0.344 HD
ATOM     24  H   UNL A   1      45.693  25.639  33.341  1.00  0.00     0.344 HD
ENDBRANCH  19  21
ENDBRANCH  18  19
ENDBRANCH  17  18
ENDBRANCH  16  17
ENDBRANCH  14  16
ENDBRANCH  12  14
ENDBRANCH   7  12
ENDBRANCH   5   6
ENDBRANCH   1   5
BRANCH   3  25
ATOM     25  C   UNL A   1      42.772  21.535  26.154  1.00  0.00     0.117 C 
BRANCH  25  26
ATOM     26  C   UNL A   1      42.584  21.801  27.645  1.00  0.00     0.042 C 
BRANCH  26  27
ATOM     27  C   UNL A   1      41.646  22.958  27.950  1.00  0.00     0.118 C 
BRANCH  27  28
ATOM     28  N   UNL A   1      41.147  23.582  26.736  1.00  0.00    -0.352 N 
ATOM     29  C   UNL A   1      40.475  24.766  26.584  1.00  0.00     0.251 C 
ATOM     30  H   UNL A   1      41.316  23.083  25.905  1.00  0.00     0.163 HD
ATOM     31  O   UNL A   1      39.883  24.993  25.525  1.00  0.00    -0.269 OA
BRANCH  29  32
ATOM     32  C   UNL A   1      40.451  25.758  27.677  1.00  0.00     0.039 A 
ATOM     33  C   UNL A   1      41.463  26.718  27.751  1.00  0.00     0.014 A 
ATOM     34  C   UNL A   1      39.446  25.726  28.650  1.00  0.00     0.014 A 
ATOM     35  C   UNL A   1      41.438  27.674  28.769  1.00  0.00     0.010 A 
ATOM     36  C   UNL A   1      39.372  26.733  29.606  1.00  0.00     0.010 A 
ATOM     37  C   UNL A   1      40.376  27.707  29.687  1.00  0.00    -0.014 A 
BRANCH  37  38
ATOM     38  C   UNL A   1      40.308  28.734  30.758  1.00  0.00     0.031 A 
ATOM     39  C   UNL A   1      41.196  28.613  31.970  1.00  0.00     0.074 A 
ATOM     40  C   UNL A   1      39.403  29.730  30.674  1.00  0.00     0.049 A 
ATOM     41  N   UNL A   1      41.225  29.355  33.046  1.00  0.00    -0.248 NA
ATOM     42  C   UNL A   1      42.161  27.499  31.985  1.00  0.00     0.031 C 
ATOM     43  C   UNL A   1      38.459  29.929  29.570  1.00  0.00     0.029 A 
ATOM     44  N   UNL A   1      39.119  30.757  31.539  1.00  0.00    -0.354 N 
ATOM     45  C   UNL A   1      42.185  28.783  33.874  1.00  0.00     0.074 A 
ATOM     46  C   UNL A   1      42.689  27.611  33.196  1.00  0.00     0.031 C 
ATOM     47  C   UNL A   1      37.717  31.021  29.816  1.00  0.00     0.029 A 
ATOM     48  C   UNL A   1      38.096  31.572  31.112  1.00  0.00     0.049 A 
ATOM     49  H   UNL A   1      39.602  30.896  32.386  1.00  0.00     0.167 HD
ATOM     50  C   UNL A   1      42.620  29.209  35.083  1.00  0.00     0.031 A 
ATOM     51  C   UNL A   1      37.518  32.635  31.706  1.00  0.00     0.031 A 
ATOM     52  C   UNL A   1      42.138  30.394  35.739  1.00  0.00     0.049 A 
ATOM     53  C   UNL A   1      38.023  33.084  33.052  1.00  0.00     0.074 A 
ATOM     54  C   UNL A   1      42.568  30.949  36.931  1.00  0.00     0.029 A 
ATOM     55  N   UNL A   1      41.122  31.206  35.261  1.00  0.00    -0.354 N 
ATOM     56  N   UNL A   1      38.987  32.574  33.783  1.00  0.00    -0.248 NA
ATOM     57  C   UNL A   1      37.372  34.257  33.649  1.00  0.00     0.031 C 
ATOM     58  C   UNL A   1      41.773  32.066  37.204  1.00  0.00     0.029 A 
ATOM     59  C   UNL A   1      40.893  32.243  36.148  1.00  0.00     0.049 A 
ATOM     60  H   UNL A   1      40.635  31.066  34.417  1.00  0.00     0.167 HD
ATOM     61  C   UNL A   1      39.079  33.388  34.906  1.00  0.00     0.074 A 
ATOM     62  C   UNL A   1      38.085  34.430  34.753  1.00  0.00     0.031 C 
ATOM     63  C   UNL A   1      39.912  33.282  35.971  1.00  0.00     0.031 A 
BRANCH  50  64
ATOM     64  C   UNL A   1      43.675  28.395  35.784  1.00  0.00    -0.014 A 
ATOM     65  C   UNL A   1      45.031  28.764  35.736  1.00  0.00     0.010 A 
ATOM     66  C   UNL A   1      43.293  27.299  36.579  1.00  0.00     0.010 A 
ATOM     67  C   UNL A   1      45.987  28.042  36.455  1.00  0.00     0.020 A 
ATOM     68  C   UNL A   1      44.242  26.591  37.323  1.00  0.00     0.020 A 
ATOM     69  C   UNL A   1      45.585  26.964  37.250  1.00  0.00     0.054 A 
BRANCH  69  70
ATOM     70  S   UNL A   1      46.839  26.092  38.227  1.00  0.00     0.124 S 
ATOM     71  O   UNL A   1      46.341  24.719  38.204  1.00  0.00    -0.237 OA
ATOM     72  O   UNL A   1      48.061  26.329  37.462  1.00  0.00    -0.237 OA
ATOM     73  O   UNL A   1      46.786  26.751  39.530  1.00  0.00    -0.744 OA
ENDBRANCH  69  70
ENDBRANCH  50  64
BRANCH  51  74
ATOM     74  C   UNL A   1      36.389  33.347  31.044  1.00  0.00    -0.014 A 
ATOM     75  C   UNL A   1      36.496  33.777  29.708  1.00  0.00     0.010 A 
ATOM     76  C   UNL A   1      35.209  33.627  31.757  1.00  0.00     0.010 A 
ATOM     77  C   UNL A   1      35.464  34.510  29.114  1.00  0.00     0.020 A 
ATOM     78  C   UNL A   1      34.162  34.330  31.156  1.00  0.00     0.020 A 
ATOM     79  C   UNL A   1      34.305  34.786  29.845  1.00  0.00     0.054 A 
BRANCH  79  80
ATOM     80  S   UNL A   1      32.975  35.734  29.054  1.00  0.00     0.124 S 
ATOM     81  O   UNL A   1      32.164  36.131  30.200  1.00  0.00    -0.237 OA
ATOM     82  O   UNL A   1      33.707  36.811  28.391  1.00  0.00    -0.237 OA
ATOM     83  O   UNL A   1      32.356  34.765  28.151  1.00  0.00    -0.744 OA
ENDBRANCH  79  80
ENDBRANCH  51  74
BRANCH  63  84
ATOM     84  C   UNL A   1      39.828  34.347  37.032  1.00  0.00    -0.014 A 
ATOM     85  C   UNL A   1      38.997  34.198  38.156  1.00  0.00     0.010 A 
ATOM     86  C   UNL A   1      40.649  35.485  36.931  1.00  0.00     0.010 A 
ATOM     87  C   UNL A   1      38.969  35.182  39.147  1.00  0.00     0.020 A 
ATOM     88  C   UNL A   1      40.647  36.456  37.934  1.00  0.00     0.020 A 
ATOM     89  C   UNL A   1      39.797  36.304  39.031  1.00  0.00     0.054 A 
BRANCH  89  90
ATOM     90  S   UNL A   1      39.782  37.540  40.358  1.00  0.00     0.124 S 
ATOM     91  O   UNL A   1      38.385  37.966  40.361  1.00  0.00    -0.237 OA
ATOM     92  O   UNL A   1      40.206  36.766  41.522  1.00  0.00    -0.237 OA
ATOM     93  O   UNL A   1      40.739  38.548  39.905  1.00  0.00    -0.744 OA
ENDBRANCH  89  90
ENDBRANCH  63  84
ENDBRANCH  37  38
ENDBRANCH  29  32
ENDBRANCH  27  28
ENDBRANCH  26  27
ENDBRANCH  25  26
ENDBRANCH   3  25
TORSDOF 21
ENDMDL
