MODEL 1
REMARK VINA RESULT:     -10.9      0.000      0.000
REMARK SMILES C[C@]1(C(=O)NCCCNC(=O)c2ccc(-c3c4nc(c(-c5ccc(S(=O)(=O)[O-])cc5)c5ccc([nH]5)c(-c5ccc(S(=O)(=O)[O-])cc5)c5nc(c(-c6ccc(S(=O)(=O)[O-])cc6)c6ccc3[nH]6)C=C5)C=C4)cc2)COC[C@@H]1NC(=O)[C@H]1C=C[C@@H]([NH3+])C1
REMARK SMILES IDX 7 1 6 2 5 3 3 4 4 5 2 7 1 8 72 9 75 10 73 11 74 12 76 13
REMARK SMILES IDX 77 14 78 16 79 17 80 18 84 19 81 20 82 21 83 22 8 26 9 27
REMARK SMILES IDX 10 28 11 30 12 31 13 32 71 33 14 34 70 35 15 36 16 37 17 38
REMARK SMILES IDX 64 39 18 40 69 41 63 42 65 43 19 44 68 45 62 46 61 47 20 49
REMARK SMILES IDX 50 50 31 51 49 52 32 53 35 54 48 55 66 56 33 57 34 58 47 60
REMARK SMILES IDX 67 61 36 62 21 63 22 64 30 65 23 66 29 67 24 68 25 69 26 70
REMARK SMILES IDX 27 71 28 72 51 73 52 74 60 75 53 76 59 77 54 78 55 79 56 80
REMARK SMILES IDX 57 81 58 82 37 83 38 84 46 85 39 86 45 87 40 88 41 89 42 90
REMARK SMILES IDX 43 91 44 92
REMARK H PARENT 5 6 76 15 83 23 83 24 83 25 9 29 65 48 35 59
REMARK Flexibility Score: inf
ROOT
ATOM      1  C   UNL A   1      33.232  28.086  26.852  1.00  0.00     0.042 C 
ENDROOT
BRANCH   1   2
ATOM      2  C   UNL A   1      31.731  28.152  26.607  1.00  0.00     0.117 C 
BRANCH   2   3
ATOM      3  N   UNL A   1      31.109  26.862  26.781  1.00  0.00    -0.355 N 
ATOM      4  C   UNL A   1      30.488  26.018  25.937  1.00  0.00     0.230 C 
ATOM      5  O   UNL A   1      29.652  25.298  26.501  1.00  0.00    -0.274 OA
ATOM      6  H   UNL A   1      31.146  26.531  27.707  1.00  0.00     0.163 HD
BRANCH   4   7
ATOM      7  C   UNL A   1      30.686  25.959  24.406  1.00  0.00     0.092 C 
ATOM      8  C   UNL A   1      30.437  24.461  24.068  1.00  0.00     0.026 C 
ATOM      9  C   UNL A   1      29.643  26.902  23.788  1.00  0.00     0.179 C 
ATOM     10  C   UNL A   1      32.026  26.507  23.844  1.00  0.00     0.125 C 
ATOM     11  O   UNL A   1      30.281  27.701  22.777  1.00  0.00    -0.378 OA
ATOM     12  C   UNL A   1      31.669  27.782  23.080  1.00  0.00     0.186 C 
BRANCH  10  13
ATOM     13  N   UNL A   1      32.876  25.599  23.042  1.00  0.00    -0.349 N 
ATOM     14  C   UNL A   1      33.971  24.813  23.277  1.00  0.00     0.227 C 
ATOM     15  H   UNL A   1      32.579  25.547  22.105  1.00  0.00     0.163 HD
ATOM     16  O   UNL A   1      34.340  24.120  22.321  1.00  0.00    -0.274 OA
BRANCH  14  17
ATOM     17  C   UNL A   1      34.678  24.739  24.644  1.00  0.00     0.107 C 
ATOM     18  C   UNL A   1      33.807  24.138  25.729  1.00  0.00    -0.012 C 
ATOM     19  C   UNL A   1      35.832  23.746  24.686  1.00  0.00     0.087 C 
ATOM     20  C   UNL A   1      34.494  23.302  26.522  1.00  0.00     0.033 C 
ATOM     21  C   UNL A   1      35.925  23.236  26.117  1.00  0.00     0.205 C 
BRANCH  21  22
ATOM     22  N   UNL A   1      36.504  21.910  26.131  1.00  0.00    -0.352 N 
ATOM     23  H   UNL A   1      36.545  21.566  27.091  1.00  0.00     0.345 HD
ATOM     24  H   UNL A   1      37.448  21.946  25.743  1.00  0.00     0.345 HD
ATOM     25  H   UNL A   1      35.930  21.282  25.569  1.00  0.00     0.345 HD
ENDBRANCH  21  22
ENDBRANCH  14  17
ENDBRANCH  10  13
ENDBRANCH   4   7
ENDBRANCH   2   3
ENDBRANCH   1   2
BRANCH   1  26
ATOM     26  C   UNL A   1      34.012  29.159  26.105  1.00  0.00     0.118 C 
BRANCH  26  27
ATOM     27  N   UNL A   1      33.703  30.498  26.588  1.00  0.00    -0.352 N 
ATOM     28  C   UNL A   1      34.249  31.202  27.630  1.00  0.00     0.251 C 
ATOM     29  H   UNL A   1      32.995  30.969  26.091  1.00  0.00     0.163 HD
ATOM     30  O   UNL A   1      33.676  32.198  28.055  1.00  0.00    -0.269 OA
BRANCH  28  31
ATOM     31  C   UNL A   1      35.515  30.743  28.232  1.00  0.00     0.039 A 
ATOM     32  C   UNL A   1      36.694  31.423  27.930  1.00  0.00     0.014 A 
ATOM     33  C   UNL A   1      35.533  29.641  29.091  1.00  0.00     0.014 A 
ATOM     34  C   UNL A   1      37.884  31.028  28.537  1.00  0.00     0.010 A 
ATOM     35  C   UNL A   1      36.695  29.321  29.779  1.00  0.00     0.010 A 
ATOM     36  C   UNL A   1      37.887  29.997  29.494  1.00  0.00    -0.014 A 
BRANCH  36  37
ATOM     37  C   UNL A   1      39.138  29.621  30.196  1.00  0.00     0.031 A 
ATOM     38  C   UNL A   1      39.542  30.324  31.464  1.00  0.00     0.074 A 
ATOM     39  C   UNL A   1      39.921  28.660  29.667  1.00  0.00     0.049 A 
ATOM     40  N   UNL A   1      40.573  30.095  32.236  1.00  0.00    -0.248 NA
ATOM     41  C   UNL A   1      38.701  31.448  31.910  1.00  0.00     0.031 C 
ATOM     42  C   UNL A   1      39.667  27.960  28.404  1.00  0.00     0.029 A 
ATOM     43  N   UNL A   1      41.080  28.095  30.130  1.00  0.00    -0.354 N 
ATOM     44  C   UNL A   1      40.506  31.045  33.249  1.00  0.00     0.074 A 
ATOM     45  C   UNL A   1      39.376  31.896  32.957  1.00  0.00     0.031 C 
ATOM     46  C   UNL A   1      40.608  27.020  28.225  1.00  0.00     0.029 A 
ATOM     47  C   UNL A   1      41.553  27.078  29.335  1.00  0.00     0.049 A 
ATOM     48  H   UNL A   1      41.532  28.390  30.954  1.00  0.00     0.167 HD
ATOM     49  C   UNL A   1      41.297  31.179  34.339  1.00  0.00     0.031 A 
ATOM     50  C   UNL A   1      42.621  26.273  29.489  1.00  0.00     0.031 A 
ATOM     51  C   UNL A   1      42.418  30.323  34.624  1.00  0.00     0.049 A 
ATOM     52  C   UNL A   1      43.474  26.431  30.716  1.00  0.00     0.074 A 
ATOM     53  C   UNL A   1      43.253  30.335  35.728  1.00  0.00     0.029 A 
ATOM     54  N   UNL A   1      42.864  29.302  33.797  1.00  0.00    -0.354 N 
ATOM     55  N   UNL A   1      43.347  27.284  31.705  1.00  0.00    -0.248 NA
ATOM     56  C   UNL A   1      44.600  25.501  30.859  1.00  0.00     0.031 C 
ATOM     57  C   UNL A   1      44.238  29.360  35.540  1.00  0.00     0.029 A 
ATOM     58  C   UNL A   1      43.975  28.692  34.353  1.00  0.00     0.049 A 
ATOM     59  H   UNL A   1      42.450  29.048  32.941  1.00  0.00     0.167 HD
ATOM     60  C   UNL A   1      44.364  26.976  32.602  1.00  0.00     0.074 A 
ATOM     61  C   UNL A   1      45.075  25.841  32.048  1.00  0.00     0.031 C 
ATOM     62  C   UNL A   1      44.682  27.576  33.777  1.00  0.00     0.031 A 
BRANCH  49  63
ATOM     63  C   UNL A   1      40.975  32.295  35.301  1.00  0.00    -0.014 A 
ATOM     64  C   UNL A   1      40.150  32.078  36.420  1.00  0.00     0.010 A 
ATOM     65  C   UNL A   1      41.535  33.571  35.106  1.00  0.00     0.010 A 
ATOM     66  C   UNL A   1      39.857  33.123  37.300  1.00  0.00     0.020 A 
ATOM     67  C   UNL A   1      41.272  34.611  36.002  1.00  0.00     0.020 A 
ATOM     68  C   UNL A   1      40.421  34.383  37.085  1.00  0.00     0.054 A 
BRANCH  68  69
ATOM     69  S   UNL A   1      40.048  35.713  38.262  1.00  0.00     0.124 S 
ATOM     70  O   UNL A   1      41.313  35.842  38.981  1.00  0.00    -0.237 OA
ATOM     71  O   UNL A   1      39.708  36.830  37.383  1.00  0.00    -0.237 OA
ATOM     72  O   UNL A   1      38.938  35.182  39.047  1.00  0.00    -0.744 OA
ENDBRANCH  68  69
ENDBRANCH  49  63
BRANCH  50  73
ATOM     73  C   UNL A   1      42.918  25.228  28.470  1.00  0.00    -0.014 A 
ATOM     74  C   UNL A   1      42.382  23.933  28.592  1.00  0.00     0.010 A 
ATOM     75  C   UNL A   1      43.729  25.529  27.360  1.00  0.00     0.010 A 
ATOM     76  C   UNL A   1      42.669  22.955  27.637  1.00  0.00     0.020 A 
ATOM     77  C   UNL A   1      43.992  24.562  26.386  1.00  0.00     0.020 A 
ATOM     78  C   UNL A   1      43.471  23.276  26.538  1.00  0.00     0.054 A 
BRANCH  78  79
ATOM     79  S   UNL A   1      43.790  22.004  25.285  1.00  0.00     0.124 S 
ATOM     80  O   UNL A   1      45.154  21.596  25.607  1.00  0.00    -0.237 OA
ATOM     81  O   UNL A   1      42.750  21.018  25.566  1.00  0.00    -0.237 OA
ATOM     82  O   UNL A   1      43.632  22.722  24.022  1.00  0.00    -0.744 OA
ENDBRANCH  78  79
ENDBRANCH  50  73
BRANCH  62  83
ATOM     83  C   UNL A   1      45.833  26.989  34.552  1.00  0.00    -0.014 A 
ATOM     84  C   UNL A   1      47.156  27.411  34.332  1.00  0.00     0.010 A 
ATOM     85  C   UNL A   1      45.582  25.997  35.517  1.00  0.00     0.010 A 
ATOM     86  C   UNL A   1      48.213  26.804  35.015  1.00  0.00     0.020 A 
ATOM     87  C   UNL A   1      46.632  25.414  36.229  1.00  0.00     0.020 A 
ATOM     88  C   UNL A   1      47.945  25.802  35.951  1.00  0.00     0.054 A 
BRANCH  88  89
ATOM     89  S   UNL A   1      49.333  25.019  36.815  1.00  0.00     0.124 S 
ATOM     90  O   UNL A   1      48.877  23.637  36.928  1.00  0.00    -0.237 OA
ATOM     91  O   UNL A   1      50.447  25.240  35.897  1.00  0.00    -0.237 OA
ATOM     92  O   UNL A   1      49.416  25.754  38.075  1.00  0.00    -0.744 OA
ENDBRANCH  88  89
ENDBRANCH  62  83
ENDBRANCH  36  37
ENDBRANCH  28  31
ENDBRANCH  26  27
ENDBRANCH   1  26
TORSDOF 16
ENDMDL
MODEL 2
REMARK VINA RESULT:     -10.8      4.495     11.020
REMARK SMILES C[C@]1(C(=O)NCCCNC(=O)c2ccc(-c3c4nc(c(-c5ccc(S(=O)(=O)[O-])cc5)c5ccc([nH]5)c(-c5ccc(S(=O)(=O)[O-])cc5)c5nc(c(-c6ccc(S(=O)(=O)[O-])cc6)c6ccc3[nH]6)C=C5)C=C4)cc2)COC[C@@H]1NC(=O)[C@H]1C=C[C@@H]([NH3+])C1
REMARK SMILES IDX 7 1 6 2 5 3 3 4 4 5 2 7 1 8 72 9 75 10 73 11 74 12 76 13
REMARK SMILES IDX 77 14 78 16 79 17 80 18 84 19 81 20 82 21 83 22 8 26 9 27
REMARK SMILES IDX 10 28 11 30 12 31 13 32 71 33 14 34 70 35 15 36 16 37 17 38
REMARK SMILES IDX 64 39 18 40 69 41 63 42 65 43 19 44 68 45 62 46 61 47 20 49
REMARK SMILES IDX 50 50 31 51 49 52 32 53 35 54 48 55 66 56 33 57 34 58 47 60
REMARK SMILES IDX 67 61 36 62 21 63 22 64 30 65 23 66 29 67 24 68 25 69 26 70
REMARK SMILES IDX 27 71 28 72 51 73 52 74 60 75 53 76 59 77 54 78 55 79 56 80
REMARK SMILES IDX 57 81 58 82 37 83 38 84 46 85 39 86 45 87 40 88 41 89 42 90
REMARK SMILES IDX 43 91 44 92
REMARK H PARENT 5 6 76 15 83 23 83 24 83 25 9 29 65 48 35 59
REMARK Flexibility Score: inf
ROOT
ATOM      1  C   UNL A   1      41.073  20.503  26.204  1.00  0.00     0.042 C 
ENDROOT
BRANCH   1   2
ATOM      2  C   UNL A   1      42.394  20.239  26.913  1.00  0.00     0.117 C 
BRANCH   2   3
ATOM      3  N   UNL A   1      43.449  19.945  25.973  1.00  0.00    -0.355 N 
ATOM      4  C   UNL A   1      44.202  20.714  25.165  1.00  0.00     0.230 C 
ATOM      5  O   UNL A   1      44.609  20.109  24.163  1.00  0.00    -0.274 OA
ATOM      6  H   UNL A   1      43.661  18.986  25.910  1.00  0.00     0.163 HD
BRANCH   4   7
ATOM      7  C   UNL A   1      44.499  22.218  25.363  1.00  0.00     0.092 C 
ATOM      8  C   UNL A   1      45.815  22.433  24.562  1.00  0.00     0.026 C 
ATOM      9  C   UNL A   1      43.302  22.985  24.783  1.00  0.00     0.179 C 
ATOM     10  C   UNL A   1      44.571  22.739  26.825  1.00  0.00     0.125 C 
ATOM     11  O   UNL A   1      42.924  24.020  25.704  1.00  0.00    -0.378 OA
ATOM     12  C   UNL A   1      43.347  23.637  27.008  1.00  0.00     0.186 C 
BRANCH  10  13
ATOM     13  N   UNL A   1      45.817  23.398  27.276  1.00  0.00    -0.349 N 
ATOM     14  C   UNL A   1      46.296  24.678  27.307  1.00  0.00     0.227 C 
ATOM     15  H   UNL A   1      46.462  22.753  27.646  1.00  0.00     0.163 HD
ATOM     16  O   UNL A   1      47.393  24.819  27.861  1.00  0.00    -0.274 OA
BRANCH  14  17
ATOM     17  C   UNL A   1      45.517  25.884  26.746  1.00  0.00     0.107 C 
ATOM     18  C   UNL A   1      46.022  27.212  27.275  1.00  0.00    -0.012 C 
ATOM     19  C   UNL A   1      45.737  26.119  25.258  1.00  0.00     0.087 C 
ATOM     20  C   UNL A   1      46.069  28.151  26.317  1.00  0.00     0.033 C 
ATOM     21  C   UNL A   1      45.578  27.613  25.018  1.00  0.00     0.205 C 
BRANCH  21  22
ATOM     22  N   UNL A   1      46.351  28.012  23.861  1.00  0.00    -0.352 N 
ATOM     23  H   UNL A   1      45.970  27.566  23.026  1.00  0.00     0.345 HD
ATOM     24  H   UNL A   1      47.323  27.726  23.986  1.00  0.00     0.345 HD
ATOM     25  H   UNL A   1      46.307  29.026  23.755  1.00  0.00     0.345 HD
ENDBRANCH  21  22
ENDBRANCH  14  17
ENDBRANCH  10  13
ENDBRANCH   4   7
ENDBRANCH   2   3
ENDBRANCH   1   2
BRANCH   1  26
ATOM     26  C   UNL A   1      40.260  21.621  26.843  1.00  0.00     0.118 C 
BRANCH  26  27
ATOM     27  N   UNL A   1      39.226  22.127  25.950  1.00  0.00    -0.352 N 
ATOM     28  C   UNL A   1      38.585  23.339  25.948  1.00  0.00     0.251 C 
ATOM     29  H   UNL A   1      38.945  21.506  25.240  1.00  0.00     0.163 HD
ATOM     30  O   UNL A   1      37.558  23.481  25.296  1.00  0.00    -0.269 OA
BRANCH  28  31
ATOM     31  C   UNL A   1      39.137  24.453  26.742  1.00  0.00     0.039 A 
ATOM     32  C   UNL A   1      39.980  25.375  26.121  1.00  0.00     0.014 A 
ATOM     33  C   UNL A   1      38.821  24.583  28.098  1.00  0.00     0.014 A 
ATOM     34  C   UNL A   1      40.461  26.458  26.852  1.00  0.00     0.010 A 
ATOM     35  C   UNL A   1      39.209  25.721  28.791  1.00  0.00     0.010 A 
ATOM     36  C   UNL A   1      40.050  26.660  28.183  1.00  0.00    -0.014 A 
BRANCH  36  37
ATOM     37  C   UNL A   1      40.502  27.851  28.941  1.00  0.00     0.031 A 
ATOM     38  C   UNL A   1      41.885  27.898  29.534  1.00  0.00     0.074 A 
ATOM     39  C   UNL A   1      39.648  28.879  29.115  1.00  0.00     0.049 A 
ATOM     40  N   UNL A   1      42.466  28.874  30.183  1.00  0.00    -0.248 NA
ATOM     41  C   UNL A   1      42.713  26.686  29.410  1.00  0.00     0.031 C 
ATOM     42  C   UNL A   1      38.259  28.915  28.647  1.00  0.00     0.029 A 
ATOM     43  N   UNL A   1      39.825  30.097  29.718  1.00  0.00    -0.354 N 
ATOM     44  C   UNL A   1      43.718  28.392  30.548  1.00  0.00     0.074 A 
ATOM     45  C   UNL A   1      43.788  27.017  30.109  1.00  0.00     0.031 C 
ATOM     46  C   UNL A   1      37.731  30.116  28.929  1.00  0.00     0.029 A 
ATOM     47  C   UNL A   1      38.726  30.918  29.630  1.00  0.00     0.049 A 
ATOM     48  H   UNL A   1      40.659  30.358  30.170  1.00  0.00     0.167 HD
ATOM     49  C   UNL A   1      44.731  29.045  31.166  1.00  0.00     0.031 A 
ATOM     50  C   UNL A   1      38.545  32.183  30.057  1.00  0.00     0.031 A 
ATOM     51  C   UNL A   1      44.654  30.416  31.595  1.00  0.00     0.049 A 
ATOM     52  C   UNL A   1      39.690  32.891  30.725  1.00  0.00     0.074 A 
ATOM     53  C   UNL A   1      45.639  31.191  32.180  1.00  0.00     0.029 A 
ATOM     54  N   UNL A   1      43.526  31.216  31.486  1.00  0.00    -0.354 N 
ATOM     55  N   UNL A   1      40.895  32.445  30.989  1.00  0.00    -0.248 NA
ATOM     56  C   UNL A   1      39.455  34.281  31.131  1.00  0.00     0.031 C 
ATOM     57  C   UNL A   1      45.088  32.443  32.479  1.00  0.00     0.029 A 
ATOM     58  C   UNL A   1      43.782  32.470  32.015  1.00  0.00     0.049 A 
ATOM     59  H   UNL A   1      42.671  30.935  31.090  1.00  0.00     0.167 HD
ATOM     60  C   UNL A   1      41.573  33.511  31.571  1.00  0.00     0.074 A 
ATOM     61  C   UNL A   1      40.649  34.627  31.592  1.00  0.00     0.031 C 
ATOM     62  C   UNL A   1      42.843  33.563  32.045  1.00  0.00     0.031 A 
BRANCH  49  63
ATOM     63  C   UNL A   1      46.005  28.278  31.416  1.00  0.00    -0.014 A 
ATOM     64  C   UNL A   1      46.148  27.452  32.546  1.00  0.00     0.010 A 
ATOM     65  C   UNL A   1      47.061  28.353  30.490  1.00  0.00     0.010 A 
ATOM     66  C   UNL A   1      47.337  26.750  32.767  1.00  0.00     0.020 A 
ATOM     67  C   UNL A   1      48.239  27.626  30.689  1.00  0.00     0.020 A 
ATOM     68  C   UNL A   1      48.375  26.842  31.836  1.00  0.00     0.054 A 
BRANCH  68  69
ATOM     69  S   UNL A   1      49.894  25.896  32.133  1.00  0.00     0.124 S 
ATOM     70  O   UNL A   1      49.534  25.110  33.311  1.00  0.00    -0.237 OA
ATOM     71  O   UNL A   1      50.043  25.136  30.894  1.00  0.00    -0.237 OA
ATOM     72  O   UNL A   1      50.906  26.924  32.357  1.00  0.00    -0.744 OA
ENDBRANCH  68  69
ENDBRANCH  49  63
BRANCH  50  73
ATOM     73  C   UNL A   1      37.240  32.864  29.831  1.00  0.00    -0.014 A 
ATOM     74  C   UNL A   1      36.355  33.093  30.900  1.00  0.00     0.010 A 
ATOM     75  C   UNL A   1      36.883  33.304  28.543  1.00  0.00     0.010 A 
ATOM     76  C   UNL A   1      35.129  33.727  30.681  1.00  0.00     0.020 A 
ATOM     77  C   UNL A   1      35.672  33.967  28.326  1.00  0.00     0.020 A 
ATOM     78  C   UNL A   1      34.796  34.163  29.395  1.00  0.00     0.054 A 
BRANCH  78  79
ATOM     79  S   UNL A   1      33.222  35.027  29.143  1.00  0.00     0.124 S 
ATOM     80  O   UNL A   1      33.667  36.359  28.743  1.00  0.00    -0.237 OA
ATOM     81  O   UNL A   1      32.587  34.229  28.097  1.00  0.00    -0.237 OA
ATOM     82  O   UNL A   1      32.576  34.950  30.453  1.00  0.00    -0.744 OA
ENDBRANCH  78  79
ENDBRANCH  50  73
BRANCH  62  83
ATOM     83  C   UNL A   1      43.310  34.885  32.596  1.00  0.00    -0.014 A 
ATOM     84  C   UNL A   1      43.148  35.211  33.954  1.00  0.00     0.010 A 
ATOM     85  C   UNL A   1      43.923  35.815  31.737  1.00  0.00     0.010 A 
ATOM     86  C   UNL A   1      43.528  36.470  34.428  1.00  0.00     0.020 A 
ATOM     87  C   UNL A   1      44.339  37.059  32.215  1.00  0.00     0.020 A 
ATOM     88  C   UNL A   1      44.112  37.389  33.552  1.00  0.00     0.054 A 
BRANCH  88  89
ATOM     89  S   UNL A   1      44.584  39.020  34.186  1.00  0.00     0.124 S 
ATOM     90  O   UNL A   1      46.027  39.023  33.968  1.00  0.00    -0.237 OA
ATOM     91  O   UNL A   1      43.818  39.929  33.337  1.00  0.00    -0.237 OA
ATOM     92  O   UNL A   1      44.165  38.983  35.586  1.00  0.00    -0.744 OA
ENDBRANCH  88  89
ENDBRANCH  62  83
ENDBRANCH  36  37
ENDBRANCH  28  31
ENDBRANCH  26  27
ENDBRANCH   1  26
TORSDOF 16
ENDMDL
MODEL 3
REMARK VINA RESULT:     -10.7      2.568      4.278
REMARK SMILES C[C@]1(C(=O)NCCCNC(=O)c2ccc(-c3c4nc(c(-c5ccc(S(=O)(=O)[O-])cc5)c5ccc([nH]5)c(-c5ccc(S(=O)(=O)[O-])cc5)c5nc(c(-c6ccc(S(=O)(=O)[O-])cc6)c6ccc3[nH]6)C=C5)C=C4)cc2)COC[C@@H]1NC(=O)[C@H]1C=C[C@@H]([NH3+])C1
REMARK SMILES IDX 7 1 6 2 5 3 3 4 4 5 2 7 1 8 72 9 75 10 73 11 74 12 76 13
REMARK SMILES IDX 77 14 78 16 79 17 80 18 84 19 81 20 82 21 83 22 8 26 9 27
REMARK SMILES IDX 10 28 11 30 12 31 13 32 71 33 14 34 70 35 15 36 16 37 17 38
REMARK SMILES IDX 64 39 18 40 69 41 63 42 65 43 19 44 68 45 62 46 61 47 20 49
REMARK SMILES IDX 50 50 31 51 49 52 32 53 35 54 48 55 66 56 33 57 34 58 47 60
REMARK SMILES IDX 67 61 36 62 21 63 22 64 30 65 23 66 29 67 24 68 25 69 26 70
REMARK SMILES IDX 27 71 28 72 51 73 52 74 60 75 53 76 59 77 54 78 55 79 56 80
REMARK SMILES IDX 57 81 58 82 37 83 38 84 46 85 39 86 45 87 40 88 41 89 42 90
REMARK SMILES IDX 43 91 44 92
REMARK H PARENT 5 6 76 15 83 23 83 24 83 25 9 29 65 48 35 59
REMARK Flexibility Score: inf
ROOT
ATOM      1  C   UNL A   1      31.751  32.042  26.986  1.00  0.00     0.042 C 
ENDROOT
BRANCH   1   2
ATOM      2  C   UNL A   1      31.938  30.684  26.324  1.00  0.00     0.117 C 
BRANCH   2   3
ATOM      3  N   UNL A   1      32.019  29.625  27.302  1.00  0.00    -0.355 N 
ATOM      4  C   UNL A   1      31.806  28.298  27.241  1.00  0.00     0.230 C 
ATOM      5  O   UNL A   1      31.462  27.814  28.328  1.00  0.00    -0.274 OA
ATOM      6  H   UNL A   1      32.284  29.938  28.197  1.00  0.00     0.163 HD
BRANCH   4   7
ATOM      7  C   UNL A   1      31.883  27.425  25.968  1.00  0.00     0.092 C 
ATOM      8  C   UNL A   1      33.247  27.827  25.338  1.00  0.00     0.026 C 
ATOM      9  C   UNL A   1      31.836  25.962  26.432  1.00  0.00     0.179 C 
ATOM     10  C   UNL A   1      30.692  27.514  24.975  1.00  0.00     0.125 C 
ATOM     11  O   UNL A   1      30.919  25.239  25.594  1.00  0.00    -0.378 OA
ATOM     12  C   UNL A   1      29.981  26.163  25.055  1.00  0.00     0.186 C 
BRANCH  10  13
ATOM     13  N   UNL A   1      30.970  27.915  23.578  1.00  0.00    -0.349 N 
ATOM     14  C   UNL A   1      30.410  28.772  22.671  1.00  0.00     0.227 C 
ATOM     15  H   UNL A   1      31.753  27.447  23.209  1.00  0.00     0.163 HD
ATOM     16  O   UNL A   1      31.019  28.879  21.599  1.00  0.00    -0.274 OA
BRANCH  14  17
ATOM     17  C   UNL A   1      29.143  29.599  22.962  1.00  0.00     0.107 C 
ATOM     18  C   UNL A   1      29.406  30.787  23.865  1.00  0.00    -0.012 C 
ATOM     19  C   UNL A   1      28.599  30.338  21.747  1.00  0.00     0.087 C 
ATOM     20  C   UNL A   1      28.740  31.882  23.466  1.00  0.00     0.033 C 
ATOM     21  C   UNL A   1      27.911  31.593  22.264  1.00  0.00     0.205 C 
BRANCH  21  22
ATOM     22  N   UNL A   1      27.931  32.622  21.246  1.00  0.00    -0.352 N 
ATOM     23  H   UNL A   1      27.825  33.537  21.684  1.00  0.00     0.345 HD
ATOM     24  H   UNL A   1      27.164  32.468  20.591  1.00  0.00     0.345 HD
ATOM     25  H   UNL A   1      28.818  32.585  20.744  1.00  0.00     0.345 HD
ENDBRANCH  21  22
ENDBRANCH  14  17
ENDBRANCH  10  13
ENDBRANCH   4   7
ENDBRANCH   2   3
ENDBRANCH   1   2
BRANCH   1  26
ATOM     26  C   UNL A   1      33.062  32.769  27.249  1.00  0.00     0.118 C 
BRANCH  26  27
ATOM     27  N   UNL A   1      32.852  34.073  27.866  1.00  0.00    -0.352 N 
ATOM     28  C   UNL A   1      33.398  34.601  29.007  1.00  0.00     0.251 C 
ATOM     29  H   UNL A   1      32.223  34.663  27.392  1.00  0.00     0.163 HD
ATOM     30  O   UNL A   1      32.897  35.597  29.514  1.00  0.00    -0.269 OA
BRANCH  28  31
ATOM     31  C   UNL A   1      34.576  33.955  29.615  1.00  0.00     0.039 A 
ATOM     32  C   UNL A   1      35.850  34.336  29.194  1.00  0.00     0.014 A 
ATOM     33  C   UNL A   1      34.419  32.973  30.597  1.00  0.00     0.014 A 
ATOM     34  C   UNL A   1      36.967  33.768  29.801  1.00  0.00     0.010 A 
ATOM     35  C   UNL A   1      35.530  32.494  31.278  1.00  0.00     0.010 A 
ATOM     36  C   UNL A   1      36.816  32.870  30.873  1.00  0.00    -0.014 A 
BRANCH  36  37
ATOM     37  C   UNL A   1      38.003  32.318  31.571  1.00  0.00     0.031 A 
ATOM     38  C   UNL A   1      38.416  32.856  32.914  1.00  0.00     0.074 A 
ATOM     39  C   UNL A   1      38.721  31.348  30.971  1.00  0.00     0.049 A 
ATOM     40  N   UNL A   1      39.394  32.462  33.690  1.00  0.00    -0.248 NA
ATOM     41  C   UNL A   1      37.656  34.001  33.445  1.00  0.00     0.031 C 
ATOM     42  C   UNL A   1      38.457  30.800  29.637  1.00  0.00     0.029 A 
ATOM     43  N   UNL A   1      39.810  30.641  31.409  1.00  0.00    -0.354 N 
ATOM     44  C   UNL A   1      39.368  33.311  34.790  1.00  0.00     0.074 A 
ATOM     45  C   UNL A   1      38.327  34.283  34.552  1.00  0.00     0.031 C 
ATOM     46  C   UNL A   1      39.322  29.803  29.393  1.00  0.00     0.029 A 
ATOM     47  C   UNL A   1      40.224  29.669  30.530  1.00  0.00     0.049 A 
ATOM     48  H   UNL A   1      40.253  30.813  32.272  1.00  0.00     0.167 HD
ATOM     49  C   UNL A   1      40.125  33.268  35.912  1.00  0.00     0.031 A 
ATOM     50  C   UNL A   1      41.214  28.761  30.634  1.00  0.00     0.031 A 
ATOM     51  C   UNL A   1      41.158  32.293  36.142  1.00  0.00     0.049 A 
ATOM     52  C   UNL A   1      42.029  28.723  31.896  1.00  0.00     0.074 A 
ATOM     53  C   UNL A   1      41.947  32.123  37.266  1.00  0.00     0.029 A 
ATOM     54  N   UNL A   1      41.547  31.322  35.230  1.00  0.00    -0.354 N 
ATOM     55  N   UNL A   1      41.937  29.483  32.961  1.00  0.00    -0.248 NA
ATOM     56  C   UNL A   1      43.066  27.687  31.978  1.00  0.00     0.031 C 
ATOM     57  C   UNL A   1      42.853  31.088  37.010  1.00  0.00     0.029 A 
ATOM     58  C   UNL A   1      42.580  30.565  35.755  1.00  0.00     0.049 A 
ATOM     59  H   UNL A   1      41.146  31.190  34.342  1.00  0.00     0.167 HD
ATOM     60  C   UNL A   1      42.889  29.000  33.853  1.00  0.00     0.074 A 
ATOM     61  C   UNL A   1      43.522  27.867  33.209  1.00  0.00     0.031 C 
ATOM     62  C   UNL A   1      43.212  29.452  35.091  1.00  0.00     0.031 A 
BRANCH  49  63
ATOM     63  C   UNL A   1      39.863  34.309  36.971  1.00  0.00    -0.014 A 
ATOM     64  C   UNL A   1      39.130  33.998  38.132  1.00  0.00     0.010 A 
ATOM     65  C   UNL A   1      40.387  35.606  36.823  1.00  0.00     0.010 A 
ATOM     66  C   UNL A   1      38.891  34.975  39.103  1.00  0.00     0.020 A 
ATOM     67  C   UNL A   1      40.179  36.576  37.807  1.00  0.00     0.020 A 
ATOM     68  C   UNL A   1      39.418  36.258  38.934  1.00  0.00     0.054 A 
BRANCH  68  69
ATOM     69  S   UNL A   1      39.118  37.497  40.226  1.00  0.00     0.124 S 
ATOM     70  O   UNL A   1      40.457  38.039  40.439  1.00  0.00    -0.237 OA
ATOM     71  O   UNL A   1      38.169  38.403  39.584  1.00  0.00    -0.237 OA
ATOM     72  O   UNL A   1      38.578  36.717  41.336  1.00  0.00    -0.744 OA
ENDBRANCH  68  69
ENDBRANCH  49  63
BRANCH  50  73
ATOM     73  C   UNL A   1      41.460  27.798  29.525  1.00  0.00    -0.014 A 
ATOM     74  C   UNL A   1      40.586  26.718  29.304  1.00  0.00     0.010 A 
ATOM     75  C   UNL A   1      42.565  27.968  28.671  1.00  0.00     0.010 A 
ATOM     76  C   UNL A   1      40.826  25.814  28.266  1.00  0.00     0.020 A 
ATOM     77  C   UNL A   1      42.789  27.084  27.612  1.00  0.00     0.020 A 
ATOM     78  C   UNL A   1      41.925  26.004  27.424  1.00  0.00     0.054 A 
BRANCH  78  79
ATOM     79  S   UNL A   1      42.188  24.847  26.053  1.00  0.00     0.124 S 
ATOM     80  O   UNL A   1      41.974  25.701  24.889  1.00  0.00    -0.237 OA
ATOM     81  O   UNL A   1      43.564  24.406  26.272  1.00  0.00    -0.237 OA
ATOM     82  O   UNL A   1      41.172  23.820  26.273  1.00  0.00    -0.744 OA
ENDBRANCH  78  79
ENDBRANCH  50  73
BRANCH  62  83
ATOM     83  C   UNL A   1      44.278  28.693  35.837  1.00  0.00    -0.014 A 
ATOM     84  C   UNL A   1      45.634  29.051  35.743  1.00  0.00     0.010 A 
ATOM     85  C   UNL A   1      43.912  27.603  36.647  1.00  0.00     0.010 A 
ATOM     86  C   UNL A   1      46.612  28.290  36.390  1.00  0.00     0.020 A 
ATOM     87  C   UNL A   1      44.882  26.863  37.326  1.00  0.00     0.020 A 
ATOM     88  C   UNL A   1      46.229  27.195  37.169  1.00  0.00     0.054 A 
BRANCH  88  89
ATOM     89  S   UNL A   1      47.515  26.214  37.988  1.00  0.00     0.124 S 
ATOM     90  O   UNL A   1      48.722  26.663  37.299  1.00  0.00    -0.237 OA
ATOM     91  O   UNL A   1      47.396  26.629  39.383  1.00  0.00    -0.237 OA
ATOM     92  O   UNL A   1      47.121  24.832  37.719  1.00  0.00    -0.744 OA
ENDBRANCH  88  89
ENDBRANCH  62  83
ENDBRANCH  36  37
ENDBRANCH  28  31
ENDBRANCH  26  27
ENDBRANCH   1  26
TORSDOF 16
ENDMDL
