MODEL 1
REMARK VINA RESULT:     -12.4      0.000      0.000
REMARK SMILES COc1cc(C)cc2c1[C@@H](C)[C@@H](CC(=O)N[C@@H](Cc1c[nH]c3ccccc13)C(=O)NCCCNC(=O)c1ccc(-c3c4nc(c(-c5ccc(S(=O)(=O)[O-])cc5)c5ccc([nH]5)c(-c5ccc(S(=O)(=O)[O-])cc5)c5nc(c(-c6ccc(S(=O)(=O)[O-])cc6)c6ccc3[nH]6)C=C5)C=C4)cc1)C(=O)O2
REMARK SMILES IDX 31 1 30 2 28 3 29 4 17 6 16 7 14 8 15 9 13 11 12 12 3 13
REMARK SMILES IDX 4 14 9 15 5 16 8 17 10 18 6 19 7 20 99 21 11 22 97 23 98 24
REMARK SMILES IDX 2 25 1 26 18 27 19 28 20 29 27 30 21 31 22 32 26 33 23 35
REMARK SMILES IDX 25 36 24 37 32 38 33 39 34 40 35 41 36 43 37 44 38 45 96 46
REMARK SMILES IDX 39 47 95 48 40 49 41 50 42 51 89 52 43 53 94 54 88 55 90 56
REMARK SMILES IDX 44 57 93 58 87 59 86 60 45 62 75 63 56 64 74 65 57 66 60 67
REMARK SMILES IDX 73 68 91 69 58 70 59 71 72 73 92 74 61 75 46 76 47 77 55 78
REMARK SMILES IDX 48 79 54 80 49 81 50 82 51 83 52 84 53 85 76 86 77 87 85 88
REMARK SMILES IDX 78 89 84 90 79 91 80 92 81 93 82 94 83 95 62 96 63 97 71 98
REMARK SMILES IDX 64 99 70 100 65 101 66 102 67 103 68 104 69 105
REMARK H PARENT 30 5 16 10 21 34 34 42 90 61 60 72
REMARK Flexibility Score: inf
ROOT
ATOM      1  C   UNL A   1      37.444  20.717  24.591  1.00  0.00     0.117 C 
ENDROOT
BRANCH   1   2
ATOM      2  N   UNL A   1      37.523  21.834  25.500  1.00  0.00    -0.354 N 
ATOM      3  C   UNL A   1      36.629  22.821  25.743  1.00  0.00     0.242 C 
ATOM      4  O   UNL A   1      37.049  23.782  26.403  1.00  0.00    -0.273 OA
ATOM      5  H   UNL A   1      38.354  21.887  26.025  1.00  0.00     0.163 HD
BRANCH   3   6
ATOM      6  C   UNL A   1      35.144  22.781  25.318  1.00  0.00     0.175 C 
BRANCH   6   7
ATOM      7  N   UNL A   1      34.846  23.250  23.976  1.00  0.00    -0.344 N 
ATOM      8  C   UNL A   1      33.711  23.918  23.601  1.00  0.00     0.221 C 
ATOM      9  O   UNL A   1      33.252  23.750  22.475  1.00  0.00    -0.275 OA
ATOM     10  H   UNL A   1      35.516  23.074  23.276  1.00  0.00     0.164 HD
BRANCH   8  11
ATOM     11  C   UNL A   1      33.130  24.961  24.546  1.00  0.00     0.116 C 
BRANCH  11  12
ATOM     12  C   UNL A   1      31.594  24.999  24.753  1.00  0.00     0.116 C 
ATOM     13  C   UNL A   1      31.556  28.792  24.565  1.00  0.00     0.126 A 
ATOM     14  C   UNL A   1      32.247  29.763  25.312  1.00  0.00     0.050 A 
ATOM     15  C   UNL A   1      31.480  27.474  25.021  1.00  0.00     0.041 A 
ATOM     16  C   UNL A   1      32.863  29.440  26.531  1.00  0.00    -0.044 A 
ATOM     17  C   UNL A   1      31.968  27.222  26.314  1.00  0.00     0.138 A 
ATOM     18  C   UNL A   1      30.924  26.298  24.224  1.00  0.00     0.038 C 
ATOM     19  C   UNL A   1      33.644  30.469  27.292  1.00  0.00     0.044 C 
ATOM     20  C   UNL A   1      32.680  28.164  27.053  1.00  0.00     0.051 A 
ATOM     21  O   UNL A   1      31.724  26.003  26.964  1.00  0.00    -0.426 OA
ATOM     22  C   UNL A   1      31.061  26.367  22.699  1.00  0.00     0.014 C 
ATOM     23  C   UNL A   1      31.154  25.007  26.198  1.00  0.00     0.315 C 
ATOM     24  O   UNL A   1      30.357  24.209  26.677  1.00  0.00    -0.251 OA
BRANCH  13  25
ATOM     25  O   UNL A   1      30.827  29.115  23.454  1.00  0.00    -0.496 OA
ATOM     26  C   UNL A   1      29.764  30.029  23.688  1.00  0.00     0.278 C 
ENDBRANCH  13  25
ENDBRANCH  11  12
ENDBRANCH   8  11
ENDBRANCH   6   7
BRANCH   6  27
ATOM     27  C   UNL A   1      34.131  21.757  25.807  1.00  0.00     0.072 C 
BRANCH  27  28
ATOM     28  C   UNL A   1      33.439  20.669  25.034  1.00  0.00    -0.020 A 
ATOM     29  C   UNL A   1      32.229  20.977  24.426  1.00  0.00     0.087 A 
ATOM     30  C   UNL A   1      33.794  19.349  24.561  1.00  0.00     0.003 A 
ATOM     31  N   UNL A   1      32.010  20.080  23.429  1.00  0.00    -0.361 N 
ATOM     32  C   UNL A   1      32.855  19.015  23.574  1.00  0.00     0.046 A 
ATOM     33  C   UNL A   1      34.811  18.394  24.796  1.00  0.00     0.010 A 
ATOM     34  H   UNL A   1      31.344  20.183  22.711  1.00  0.00     0.166 HD
ATOM     35  C   UNL A   1      32.860  17.813  22.857  1.00  0.00     0.026 A 
ATOM     36  C   UNL A   1      34.805  17.162  24.116  1.00  0.00     0.001 A 
ATOM     37  C   UNL A   1      33.837  16.874  23.165  1.00  0.00     0.002 A 
ENDBRANCH  27  28
ENDBRANCH   6  27
ENDBRANCH   3   6
ENDBRANCH   1   2
BRANCH   1  38
ATOM     38  C   UNL A   1      38.336  19.580  25.061  1.00  0.00     0.042 C 
BRANCH  38  39
ATOM     39  C   UNL A   1      39.319  20.035  26.126  1.00  0.00     0.118 C 
BRANCH  39  40
ATOM     40  N   UNL A   1      40.531  19.224  26.133  1.00  0.00    -0.352 N 
ATOM     41  C   UNL A   1      41.846  19.624  26.204  1.00  0.00     0.251 C 
ATOM     42  H   UNL A   1      40.389  18.252  26.080  1.00  0.00     0.163 HD
ATOM     43  O   UNL A   1      42.742  18.824  26.002  1.00  0.00    -0.269 OA
BRANCH  41  44
ATOM     44  C   UNL A   1      42.143  21.043  26.496  1.00  0.00     0.039 A 
ATOM     45  C   UNL A   1      42.162  21.981  25.464  1.00  0.00     0.014 A 
ATOM     46  C   UNL A   1      42.458  21.419  27.802  1.00  0.00     0.014 A 
ATOM     47  C   UNL A   1      42.693  23.239  25.698  1.00  0.00     0.010 A 
ATOM     48  C   UNL A   1      42.877  22.726  28.057  1.00  0.00     0.010 A 
ATOM     49  C   UNL A   1      43.052  23.630  26.998  1.00  0.00    -0.014 A 
BRANCH  49  50
ATOM     50  C   UNL A   1      43.617  24.986  27.213  1.00  0.00     0.031 A 
ATOM     51  C   UNL A   1      42.785  26.074  27.838  1.00  0.00     0.074 A 
ATOM     52  C   UNL A   1      44.913  25.208  26.910  1.00  0.00     0.049 A 
ATOM     53  N   UNL A   1      43.124  27.307  28.114  1.00  0.00    -0.248 NA
ATOM     54  C   UNL A   1      41.393  25.746  28.195  1.00  0.00     0.031 C 
ATOM     55  C   UNL A   1      45.820  24.213  26.331  1.00  0.00     0.029 A 
ATOM     56  N   UNL A   1      45.705  26.314  27.082  1.00  0.00    -0.354 N 
ATOM     57  C   UNL A   1      41.989  27.904  28.654  1.00  0.00     0.074 A 
ATOM     58  C   UNL A   1      40.939  26.912  28.634  1.00  0.00     0.031 C 
ATOM     59  C   UNL A   1      47.056  24.725  26.273  1.00  0.00     0.029 A 
ATOM     60  C   UNL A   1      47.017  26.113  26.720  1.00  0.00     0.049 A 
ATOM     61  H   UNL A   1      45.367  27.171  27.430  1.00  0.00     0.167 HD
ATOM     62  C   UNL A   1      41.848  29.160  29.138  1.00  0.00     0.031 A 
ATOM     63  C   UNL A   1      48.075  26.948  26.732  1.00  0.00     0.031 A 
ATOM     64  C   UNL A   1      42.916  30.125  29.177  1.00  0.00     0.049 A 
ATOM     65  C   UNL A   1      47.878  28.350  27.233  1.00  0.00     0.074 A 
ATOM     66  C   UNL A   1      42.874  31.424  29.655  1.00  0.00     0.029 A 
ATOM     67  N   UNL A   1      44.213  29.900  28.742  1.00  0.00    -0.354 N 
ATOM     68  N   UNL A   1      46.794  28.898  27.728  1.00  0.00    -0.248 NA
ATOM     69  C   UNL A   1      49.040  29.247  27.182  1.00  0.00     0.031 C 
ATOM     70  C   UNL A   1      44.125  32.005  29.443  1.00  0.00     0.029 A 
ATOM     71  C   UNL A   1      44.974  31.044  28.917  1.00  0.00     0.049 A 
ATOM     72  H   UNL A   1      44.543  29.053  28.364  1.00  0.00     0.167 HD
ATOM     73  C   UNL A   1      47.148  30.198  28.068  1.00  0.00     0.074 A 
ATOM     74  C   UNL A   1      48.551  30.349  27.739  1.00  0.00     0.031 C 
ATOM     75  C   UNL A   1      46.375  31.176  28.600  1.00  0.00     0.031 A 
BRANCH  62  76
ATOM     76  C   UNL A   1      40.503  29.580  29.676  1.00  0.00    -0.014 A 
ATOM     77  C   UNL A   1      39.522  30.072  28.792  1.00  0.00     0.010 A 
ATOM     78  C   UNL A   1      40.252  29.619  31.060  1.00  0.00     0.010 A 
ATOM     79  C   UNL A   1      38.341  30.634  29.280  1.00  0.00     0.020 A 
ATOM     80  C   UNL A   1      39.055  30.150  31.551  1.00  0.00     0.020 A 
ATOM     81  C   UNL A   1      38.119  30.679  30.659  1.00  0.00     0.054 A 
BRANCH  81  82
ATOM     82  S   UNL A   1      36.599  31.453  31.275  1.00  0.00     0.124 S 
ATOM     83  O   UNL A   1      36.012  30.386  32.078  1.00  0.00    -0.237 OA
ATOM     84  O   UNL A   1      37.107  32.601  32.024  1.00  0.00    -0.237 OA
ATOM     85  O   UNL A   1      35.869  31.792  30.056  1.00  0.00    -0.744 OA
ENDBRANCH  81  82
ENDBRANCH  62  76
BRANCH  63  86
ATOM     86  C   UNL A   1      49.402  26.449  26.272  1.00  0.00    -0.014 A 
ATOM     87  C   UNL A   1      50.238  25.735  27.152  1.00  0.00     0.010 A 
ATOM     88  C   UNL A   1      49.879  26.766  24.988  1.00  0.00     0.010 A 
ATOM     89  C   UNL A   1      51.545  25.409  26.787  1.00  0.00     0.020 A 
ATOM     90  C   UNL A   1      51.175  26.406  24.603  1.00  0.00     0.020 A 
ATOM     91  C   UNL A   1      52.011  25.760  25.517  1.00  0.00     0.054 A 
BRANCH  91  92
ATOM     92  S   UNL A   1      53.730  25.377  25.088  1.00  0.00     0.124 S 
ATOM     93  O   UNL A   1      54.468  26.187  26.054  1.00  0.00    -0.237 OA
ATOM     94  O   UNL A   1      53.797  23.933  25.296  1.00  0.00    -0.237 OA
ATOM     95  O   UNL A   1      53.840  25.809  23.697  1.00  0.00    -0.744 OA
ENDBRANCH  91  92
ENDBRANCH  63  86
BRANCH  75  96
ATOM     96  C   UNL A   1      47.013  32.510  28.891  1.00  0.00    -0.014 A 
ATOM     97  C   UNL A   1      47.064  33.488  27.879  1.00  0.00     0.010 A 
ATOM     98  C   UNL A   1      47.694  32.738  30.100  1.00  0.00     0.010 A 
ATOM     99  C   UNL A   1      47.824  34.646  28.049  1.00  0.00     0.020 A 
ATOM    100  C   UNL A   1      48.427  33.913  30.287  1.00  0.00     0.020 A 
ATOM    101  C   UNL A   1      48.513  34.845  29.249  1.00  0.00     0.054 A 
BRANCH 101 102
ATOM    102  S   UNL A   1      49.541  36.328  29.429  1.00  0.00     0.124 S 
ATOM    103  O   UNL A   1      48.633  37.385  28.995  1.00  0.00    -0.237 OA
ATOM    104  O   UNL A   1      49.866  36.321  30.853  1.00  0.00    -0.237 OA
ATOM    105  O   UNL A   1      50.671  36.071  28.539  1.00  0.00    -0.744 OA
ENDBRANCH 101 102
ENDBRANCH  75  96
ENDBRANCH  49  50
ENDBRANCH  41  44
ENDBRANCH  39  40
ENDBRANCH  38  39
ENDBRANCH   1  38
TORSDOF 19
ENDMDL
MODEL 2
REMARK VINA RESULT:     -12.4      0.562      7.648
REMARK SMILES COc1cc(C)cc2c1[C@@H](C)[C@@H](CC(=O)N[C@@H](Cc1c[nH]c3ccccc13)C(=O)NCCCNC(=O)c1ccc(-c3c4nc(c(-c5ccc(S(=O)(=O)[O-])cc5)c5ccc([nH]5)c(-c5ccc(S(=O)(=O)[O-])cc5)c5nc(c(-c6ccc(S(=O)(=O)[O-])cc6)c6ccc3[nH]6)C=C5)C=C4)cc1)C(=O)O2
REMARK SMILES IDX 31 1 30 2 28 3 29 4 17 6 16 7 14 8 15 9 13 11 12 12 3 13
REMARK SMILES IDX 4 14 9 15 5 16 8 17 10 18 6 19 7 20 99 21 11 22 97 23 98 24
REMARK SMILES IDX 2 25 1 26 18 27 19 28 20 29 27 30 21 31 22 32 26 33 23 35
REMARK SMILES IDX 25 36 24 37 32 38 33 39 34 40 35 41 36 43 37 44 38 45 96 46
REMARK SMILES IDX 39 47 95 48 40 49 41 50 42 51 89 52 43 53 94 54 88 55 90 56
REMARK SMILES IDX 44 57 93 58 87 59 86 60 45 62 75 63 56 64 74 65 57 66 60 67
REMARK SMILES IDX 73 68 91 69 58 70 59 71 72 73 92 74 61 75 46 76 47 77 55 78
REMARK SMILES IDX 48 79 54 80 49 81 50 82 51 83 52 84 53 85 76 86 77 87 85 88
REMARK SMILES IDX 78 89 84 90 79 91 80 92 81 93 82 94 83 95 62 96 63 97 71 98
REMARK SMILES IDX 64 99 70 100 65 101 66 102 67 103 68 104 69 105
REMARK H PARENT 30 5 16 10 21 34 34 42 90 61 60 72
REMARK Flexibility Score: inf
ROOT
ATOM      1  C   UNL A   1      37.642  20.707  24.724  1.00  0.00     0.117 C 
ENDROOT
BRANCH   1   2
ATOM      2  N   UNL A   1      37.703  21.886  25.552  1.00  0.00    -0.354 N 
ATOM      3  C   UNL A   1      36.778  22.853  25.757  1.00  0.00     0.242 C 
ATOM      4  O   UNL A   1      37.180  23.872  26.336  1.00  0.00    -0.273 OA
ATOM      5  H   UNL A   1      38.546  22.006  26.046  1.00  0.00     0.163 HD
BRANCH   3   6
ATOM      6  C   UNL A   1      35.284  22.729  25.383  1.00  0.00     0.175 C 
BRANCH   6   7
ATOM      7  N   UNL A   1      34.920  23.149  24.041  1.00  0.00    -0.344 N 
ATOM      8  C   UNL A   1      33.728  23.719  23.684  1.00  0.00     0.221 C 
ATOM      9  O   UNL A   1      33.256  23.495  22.572  1.00  0.00    -0.275 OA
ATOM     10  H   UNL A   1      35.585  23.013  23.328  1.00  0.00     0.164 HD
BRANCH   8  11
ATOM     11  C   UNL A   1      33.088  24.731  24.625  1.00  0.00     0.116 C 
BRANCH  11  12
ATOM     12  C   UNL A   1      31.585  24.572  24.973  1.00  0.00     0.116 C 
ATOM     13  C   UNL A   1      31.002  28.309  24.624  1.00  0.00     0.126 A 
ATOM     14  C   UNL A   1      31.612  29.404  25.260  1.00  0.00     0.050 A 
ATOM     15  C   UNL A   1      31.151  27.020  25.143  1.00  0.00     0.041 A 
ATOM     16  C   UNL A   1      32.371  29.236  26.429  1.00  0.00    -0.044 A 
ATOM     17  C   UNL A   1      31.779  26.910  26.394  1.00  0.00     0.138 A 
ATOM     18  C   UNL A   1      30.697  25.737  24.453  1.00  0.00     0.038 C 
ATOM     19  C   UNL A   1      33.063  30.403  27.068  1.00  0.00     0.044 C 
ATOM     20  C   UNL A   1      32.414  27.979  27.021  1.00  0.00     0.051 A 
ATOM     21  O   UNL A   1      31.765  25.707  27.117  1.00  0.00    -0.426 OA
ATOM     22  C   UNL A   1      30.691  25.738  22.920  1.00  0.00     0.014 C 
ATOM     23  C   UNL A   1      31.276  24.601  26.451  1.00  0.00     0.315 C 
ATOM     24  O   UNL A   1      30.642  23.731  27.037  1.00  0.00    -0.251 OA
BRANCH  13  25
ATOM     25  O   UNL A   1      30.142  28.468  23.573  1.00  0.00    -0.496 OA
ATOM     26  C   UNL A   1      29.678  29.798  23.383  1.00  0.00     0.278 C 
ENDBRANCH  13  25
ENDBRANCH  11  12
ENDBRANCH   8  11
ENDBRANCH   6   7
BRANCH   6  27
ATOM     27  C   UNL A   1      34.341  21.668  25.930  1.00  0.00     0.072 C 
BRANCH  27  28
ATOM     28  C   UNL A   1      33.591  20.598  25.188  1.00  0.00    -0.020 A 
ATOM     29  C   UNL A   1      32.332  20.915  24.693  1.00  0.00     0.087 A 
ATOM     30  C   UNL A   1      33.910  19.295  24.648  1.00  0.00     0.003 A 
ATOM     31  N   UNL A   1      32.033  20.046  23.694  1.00  0.00    -0.361 N 
ATOM     32  C   UNL A   1      32.891  18.982  23.735  1.00  0.00     0.046 A 
ATOM     33  C   UNL A   1      34.947  18.340  24.768  1.00  0.00     0.010 A 
ATOM     34  H   UNL A   1      31.307  20.164  23.038  1.00  0.00     0.166 HD
ATOM     35  C   UNL A   1      32.841  17.801  22.985  1.00  0.00     0.026 A 
ATOM     36  C   UNL A   1      34.889  17.128  24.056  1.00  0.00     0.001 A 
ATOM     37  C   UNL A   1      33.845  16.860  23.183  1.00  0.00     0.002 A 
ENDBRANCH  27  28
ENDBRANCH   6  27
ENDBRANCH   3   6
ENDBRANCH   1   2
BRANCH   1  38
ATOM     38  C   UNL A   1      38.575  19.631  25.253  1.00  0.00     0.042 C 
BRANCH  38  39
ATOM     39  C   UNL A   1      39.682  20.215  26.114  1.00  0.00     0.118 C 
BRANCH  39  40
ATOM     40  N   UNL A   1      40.928  19.469  25.982  1.00  0.00    -0.352 N 
ATOM     41  C   UNL A   1      42.226  19.923  26.042  1.00  0.00     0.251 C 
ATOM     42  H   UNL A   1      40.827  18.502  25.828  1.00  0.00     0.163 HD
ATOM     43  O   UNL A   1      43.146  19.195  25.717  1.00  0.00    -0.269 OA
BRANCH  41  44
ATOM     44  C   UNL A   1      42.472  21.315  26.476  1.00  0.00     0.039 A 
ATOM     45  C   UNL A   1      42.503  22.346  25.538  1.00  0.00     0.014 A 
ATOM     46  C   UNL A   1      42.730  21.573  27.823  1.00  0.00     0.014 A 
ATOM     47  C   UNL A   1      42.989  23.589  25.909  1.00  0.00     0.010 A 
ATOM     48  C   UNL A   1      43.103  22.860  28.215  1.00  0.00     0.010 A 
ATOM     49  C   UNL A   1      43.290  23.864  27.252  1.00  0.00    -0.014 A 
BRANCH  49  50
ATOM     50  C   UNL A   1      43.810  25.208  27.615  1.00  0.00     0.031 A 
ATOM     51  C   UNL A   1      45.248  25.570  27.351  1.00  0.00     0.074 A 
ATOM     52  C   UNL A   1      42.956  26.125  28.114  1.00  0.00     0.049 A 
ATOM     53  N   UNL A   1      45.863  26.701  27.587  1.00  0.00    -0.248 NA
ATOM     54  C   UNL A   1      46.112  24.537  26.752  1.00  0.00     0.031 C 
ATOM     55  C   UNL A   1      41.534  25.888  28.378  1.00  0.00     0.029 A 
ATOM     56  N   UNL A   1      43.138  27.442  28.448  1.00  0.00    -0.354 N 
ATOM     57  C   UNL A   1      47.181  26.509  27.189  1.00  0.00     0.074 A 
ATOM     58  C   UNL A   1      47.290  25.144  26.728  1.00  0.00     0.031 C 
ATOM     59  C   UNL A   1      40.958  27.038  28.752  1.00  0.00     0.029 A 
ATOM     60  C   UNL A   1      41.982  28.073  28.848  1.00  0.00     0.049 A 
ATOM     61  H   UNL A   1      44.012  27.893  28.407  1.00  0.00     0.167 HD
ATOM     62  C   UNL A   1      48.199  27.401  27.190  1.00  0.00     0.031 A 
ATOM     63  C   UNL A   1      41.763  29.338  29.258  1.00  0.00     0.031 A 
ATOM     64  C   UNL A   1      48.064  28.767  27.625  1.00  0.00     0.049 A 
ATOM     65  C   UNL A   1      42.921  30.293  29.293  1.00  0.00     0.074 A 
ATOM     66  C   UNL A   1      49.036  29.752  27.659  1.00  0.00     0.029 A 
ATOM     67  N   UNL A   1      46.890  29.348  28.082  1.00  0.00    -0.354 N 
ATOM     68  N   UNL A   1      44.162  30.089  28.922  1.00  0.00    -0.248 NA
ATOM     69  C   UNL A   1      42.655  31.647  29.794  1.00  0.00     0.031 C 
ATOM     70  C   UNL A   1      48.467  30.904  28.202  1.00  0.00     0.029 A 
ATOM     71  C   UNL A   1      47.119  30.669  28.423  1.00  0.00     0.049 A 
ATOM     72  H   UNL A   1      46.022  28.887  28.153  1.00  0.00     0.167 HD
ATOM     73  C   UNL A   1      44.822  31.294  29.127  1.00  0.00     0.074 A 
ATOM     74  C   UNL A   1      43.838  32.228  29.636  1.00  0.00     0.031 C 
ATOM     75  C   UNL A   1      46.127  31.594  28.915  1.00  0.00     0.031 A 
BRANCH  62  76
ATOM     76  C   UNL A   1      49.555  26.951  26.706  1.00  0.00    -0.014 A 
ATOM     77  C   UNL A   1      49.883  27.073  25.341  1.00  0.00     0.010 A 
ATOM     78  C   UNL A   1      50.450  26.287  27.564  1.00  0.00     0.010 A 
ATOM     79  C   UNL A   1      51.054  26.503  24.837  1.00  0.00     0.020 A 
ATOM     80  C   UNL A   1      51.641  25.743  27.068  1.00  0.00     0.020 A 
ATOM     81  C   UNL A   1      51.921  25.831  25.703  1.00  0.00     0.054 A 
BRANCH  81  82
ATOM     82  S   UNL A   1      53.413  25.059  25.021  1.00  0.00     0.124 S 
ATOM     83  O   UNL A   1      54.471  25.675  25.815  1.00  0.00    -0.237 OA
ATOM     84  O   UNL A   1      53.180  23.639  25.272  1.00  0.00    -0.237 OA
ATOM     85  O   UNL A   1      53.384  25.444  23.611  1.00  0.00    -0.744 OA
ENDBRANCH  81  82
ENDBRANCH  62  76
BRANCH  63  86
ATOM     86  C   UNL A   1      40.383  29.750  29.640  1.00  0.00    -0.014 A 
ATOM     87  C   UNL A   1      39.477  30.198  28.659  1.00  0.00     0.010 A 
ATOM     88  C   UNL A   1      39.996  29.790  30.991  1.00  0.00     0.010 A 
ATOM     89  C   UNL A   1      38.243  30.742  29.022  1.00  0.00     0.020 A 
ATOM     90  C   UNL A   1      38.744  30.298  31.357  1.00  0.00     0.020 A 
ATOM     91  C   UNL A   1      37.891  30.801  30.373  1.00  0.00     0.054 A 
BRANCH  91  92
ATOM     92  S   UNL A   1      36.309  31.565  30.824  1.00  0.00     0.124 S 
ATOM     93  O   UNL A   1      35.468  31.208  29.684  1.00  0.00    -0.237 OA
ATOM     94  O   UNL A   1      35.980  30.899  32.081  1.00  0.00    -0.237 OA
ATOM     95  O   UNL A   1      36.635  32.984  30.940  1.00  0.00    -0.744 OA
ENDBRANCH  91  92
ENDBRANCH  63  86
BRANCH  75  96
ATOM     96  C   UNL A   1      46.593  32.998  29.207  1.00  0.00    -0.014 A 
ATOM     97  C   UNL A   1      46.535  33.970  28.191  1.00  0.00     0.010 A 
ATOM     98  C   UNL A   1      47.224  33.311  30.423  1.00  0.00     0.010 A 
ATOM     99  C   UNL A   1      47.146  35.213  28.364  1.00  0.00     0.020 A 
ATOM    100  C   UNL A   1      47.806  34.568  30.612  1.00  0.00     0.020 A 
ATOM    101  C   UNL A   1      47.790  35.500  29.571  1.00  0.00     0.054 A 
BRANCH 101 102
ATOM    102  S   UNL A   1      48.626  37.098  29.755  1.00  0.00     0.124 S 
ATOM    103  O   UNL A   1      49.650  37.030  28.717  1.00  0.00    -0.237 OA
ATOM    104  O   UNL A   1      47.547  38.054  29.514  1.00  0.00    -0.237 OA
ATOM    105  O   UNL A   1      49.125  37.067  31.128  1.00  0.00    -0.744 OA
ENDBRANCH 101 102
ENDBRANCH  75  96
ENDBRANCH  49  50
ENDBRANCH  41  44
ENDBRANCH  39  40
ENDBRANCH  38  39
ENDBRANCH   1  38
TORSDOF 19
ENDMDL
MODEL 3
REMARK VINA RESULT:     -12.0      5.211      9.725
REMARK SMILES COc1cc(C)cc2c1[C@@H](C)[C@@H](CC(=O)N[C@@H](Cc1c[nH]c3ccccc13)C(=O)NCCCNC(=O)c1ccc(-c3c4nc(c(-c5ccc(S(=O)(=O)[O-])cc5)c5ccc([nH]5)c(-c5ccc(S(=O)(=O)[O-])cc5)c5nc(c(-c6ccc(S(=O)(=O)[O-])cc6)c6ccc3[nH]6)C=C5)C=C4)cc1)C(=O)O2
REMARK SMILES IDX 31 1 30 2 28 3 29 4 17 6 16 7 14 8 15 9 13 11 12 12 3 13
REMARK SMILES IDX 4 14 9 15 5 16 8 17 10 18 6 19 7 20 99 21 11 22 97 23 98 24
REMARK SMILES IDX 2 25 1 26 18 27 19 28 20 29 27 30 21 31 22 32 26 33 23 35
REMARK SMILES IDX 25 36 24 37 32 38 33 39 34 40 35 41 36 43 37 44 38 45 96 46
REMARK SMILES IDX 39 47 95 48 40 49 41 50 42 51 89 52 43 53 94 54 88 55 90 56
REMARK SMILES IDX 44 57 93 58 87 59 86 60 45 62 75 63 56 64 74 65 57 66 60 67
REMARK SMILES IDX 73 68 91 69 58 70 59 71 72 73 92 74 61 75 46 76 47 77 55 78
REMARK SMILES IDX 48 79 54 80 49 81 50 82 51 83 52 84 53 85 76 86 77 87 85 88
REMARK SMILES IDX 78 89 84 90 79 91 80 92 81 93 82 94 83 95 62 96 63 97 71 98
REMARK SMILES IDX 64 99 70 100 65 101 66 102 67 103 68 104 69 105
REMARK H PARENT 30 5 16 10 21 34 34 42 90 61 60 72
REMARK Flexibility Score: inf
ROOT
ATOM      1  C   UNL A   1      37.820  24.125  26.463  1.00  0.00     0.117 C 
ENDROOT
BRANCH   1   2
ATOM      2  N   UNL A   1      37.904  22.774  25.966  1.00  0.00    -0.354 N 
ATOM      3  C   UNL A   1      36.922  21.933  25.564  1.00  0.00     0.242 C 
ATOM      4  O   UNL A   1      37.255  20.751  25.403  1.00  0.00    -0.273 OA
ATOM      5  H   UNL A   1      38.815  22.406  25.909  1.00  0.00     0.163 HD
BRANCH   3   6
ATOM      6  C   UNL A   1      35.476  22.369  25.237  1.00  0.00     0.175 C 
BRANCH   6   7
ATOM      7  N   UNL A   1      35.294  23.119  24.006  1.00  0.00    -0.344 N 
ATOM      8  C   UNL A   1      34.173  23.829  23.668  1.00  0.00     0.221 C 
ATOM      9  O   UNL A   1      33.837  23.907  22.489  1.00  0.00    -0.275 OA
ATOM     10  H   UNL A   1      36.037  23.118  23.361  1.00  0.00     0.164 HD
BRANCH   8  11
ATOM     11  C   UNL A   1      33.454  24.623  24.750  1.00  0.00     0.116 C 
BRANCH  11  12
ATOM     12  C   UNL A   1      31.986  24.256  25.086  1.00  0.00     0.116 C 
ATOM     13  C   UNL A   1      30.842  27.825  24.473  1.00  0.00     0.126 A 
ATOM     14  C   UNL A   1      31.260  29.041  25.040  1.00  0.00     0.050 A 
ATOM     15  C   UNL A   1      31.175  26.613  25.080  1.00  0.00     0.041 A 
ATOM     16  C   UNL A   1      32.006  29.071  26.229  1.00  0.00    -0.044 A 
ATOM     17  C   UNL A   1      31.781  26.684  26.345  1.00  0.00     0.138 A 
ATOM     18  C   UNL A   1      30.942  25.231  24.474  1.00  0.00     0.038 C 
ATOM     19  C   UNL A   1      32.493  30.371  26.795  1.00  0.00     0.044 C 
ATOM     20  C   UNL A   1      32.228  27.878  26.906  1.00  0.00     0.051 A 
ATOM     21  O   UNL A   1      31.935  25.543  27.149  1.00  0.00    -0.426 OA
ATOM     22  C   UNL A   1      30.973  25.131  22.945  1.00  0.00     0.014 C 
ATOM     23  C   UNL A   1      31.639  24.334  26.554  1.00  0.00     0.315 C 
ATOM     24  O   UNL A   1      31.133  23.416  27.189  1.00  0.00    -0.251 OA
BRANCH  13  25
ATOM     25  O   UNL A   1      29.993  27.779  23.401  1.00  0.00    -0.496 OA
ATOM     26  C   UNL A   1      30.204  28.800  22.434  1.00  0.00     0.278 C 
ENDBRANCH  13  25
ENDBRANCH  11  12
ENDBRANCH   8  11
ENDBRANCH   6   7
BRANCH   6  27
ATOM     27  C   UNL A   1      34.228  21.592  25.626  1.00  0.00     0.072 C 
BRANCH  27  28
ATOM     28  C   UNL A   1      33.547  20.469  24.895  1.00  0.00    -0.020 A 
ATOM     29  C   UNL A   1      32.358  20.754  24.236  1.00  0.00     0.087 A 
ATOM     30  C   UNL A   1      33.902  19.122  24.506  1.00  0.00     0.003 A 
ATOM     31  N   UNL A   1      32.158  19.806  23.284  1.00  0.00    -0.361 N 
ATOM     32  C   UNL A   1      32.987  18.742  23.511  1.00  0.00     0.046 A 
ATOM     33  C   UNL A   1      34.901  18.172  24.821  1.00  0.00     0.010 A 
ATOM     34  H   UNL A   1      31.514  19.875  22.542  1.00  0.00     0.166 HD
ATOM     35  C   UNL A   1      33.001  17.503  22.861  1.00  0.00     0.026 A 
ATOM     36  C   UNL A   1      34.902  16.905  24.210  1.00  0.00     0.001 A 
ATOM     37  C   UNL A   1      33.958  16.574  23.249  1.00  0.00     0.002 A 
ENDBRANCH  27  28
ENDBRANCH   6  27
ENDBRANCH   3   6
ENDBRANCH   1   2
BRANCH   1  38
ATOM     38  C   UNL A   1      39.205  24.735  26.593  1.00  0.00     0.042 C 
BRANCH  38  39
ATOM     39  C   UNL A   1      40.277  23.674  26.766  1.00  0.00     0.118 C 
BRANCH  39  40
ATOM     40  N   UNL A   1      41.461  23.956  25.960  1.00  0.00    -0.352 N 
ATOM     41  C   UNL A   1      42.364  24.989  26.071  1.00  0.00     0.251 C 
ATOM     42  H   UNL A   1      41.639  23.316  25.234  1.00  0.00     0.163 HD
ATOM     43  O   UNL A   1      43.185  25.181  25.193  1.00  0.00    -0.269 OA
BRANCH  41  44
ATOM     44  C   UNL A   1      42.293  25.871  27.255  1.00  0.00     0.039 A 
ATOM     45  C   UNL A   1      42.208  25.321  28.534  1.00  0.00     0.014 A 
ATOM     46  C   UNL A   1      42.253  27.254  27.074  1.00  0.00     0.014 A 
ATOM     47  C   UNL A   1      41.879  26.136  29.604  1.00  0.00     0.010 A 
ATOM     48  C   UNL A   1      42.042  28.084  28.176  1.00  0.00     0.010 A 
ATOM     49  C   UNL A   1      41.797  27.528  29.442  1.00  0.00    -0.014 A 
BRANCH  49  50
ATOM     50  C   UNL A   1      41.442  28.372  30.611  1.00  0.00     0.031 A 
ATOM     51  C   UNL A   1      42.300  28.368  31.848  1.00  0.00     0.074 A 
ATOM     52  C   UNL A   1      40.381  29.200  30.519  1.00  0.00     0.049 A 
ATOM     53  N   UNL A   1      42.148  29.055  32.952  1.00  0.00    -0.248 NA
ATOM     54  C   UNL A   1      43.477  27.480  31.858  1.00  0.00     0.031 C 
ATOM     55  C   UNL A   1      39.501  29.307  29.353  1.00  0.00     0.029 A 
ATOM     56  N   UNL A   1      39.885  30.133  31.393  1.00  0.00    -0.354 N 
ATOM     57  C   UNL A   1      43.189  28.668  33.789  1.00  0.00     0.074 A 
ATOM     58  C   UNL A   1      43.947  27.661  33.084  1.00  0.00     0.031 C 
ATOM     59  C   UNL A   1      38.629  30.305  29.549  1.00  0.00     0.029 A 
ATOM     60  C   UNL A   1      38.822  30.848  30.889  1.00  0.00     0.049 A 
ATOM     61  H   UNL A   1      40.253  30.279  32.294  1.00  0.00     0.167 HD
ATOM     62  C   UNL A   1      43.491  29.130  35.025  1.00  0.00     0.031 A 
ATOM     63  C   UNL A   1      38.073  31.823  31.441  1.00  0.00     0.031 A 
ATOM     64  C   UNL A   1      42.740  30.158  35.699  1.00  0.00     0.049 A 
ATOM     65  C   UNL A   1      38.403  32.284  32.830  1.00  0.00     0.074 A 
ATOM     66  C   UNL A   1      42.970  30.699  36.952  1.00  0.00     0.029 A 
ATOM     67  N   UNL A   1      41.632  30.810  35.178  1.00  0.00    -0.354 N 
ATOM     68  N   UNL A   1      39.385  31.898  33.610  1.00  0.00    -0.248 NA
ATOM     69  C   UNL A   1      37.534  33.312  33.418  1.00  0.00     0.031 C 
ATOM     70  C   UNL A   1      41.961  31.625  37.217  1.00  0.00     0.029 A 
ATOM     71  C   UNL A   1      41.153  31.730  36.095  1.00  0.00     0.049 A 
ATOM     72  H   UNL A   1      41.244  30.642  34.289  1.00  0.00     0.167 HD
ATOM     73  C   UNL A   1      39.264  32.649  34.772  1.00  0.00     0.074 A 
ATOM     74  C   UNL A   1      38.125  33.526  34.587  1.00  0.00     0.031 C 
ATOM     75  C   UNL A   1      40.027  32.609  35.892  1.00  0.00     0.031 A 
BRANCH  62  76
ATOM     76  C   UNL A   1      44.683  28.547  35.743  1.00  0.00    -0.014 A 
ATOM     77  C   UNL A   1      45.965  29.084  35.515  1.00  0.00     0.010 A 
ATOM     78  C   UNL A   1      44.561  27.391  36.534  1.00  0.00     0.010 A 
ATOM     79  C   UNL A   1      47.102  28.454  36.024  1.00  0.00     0.020 A 
ATOM     80  C   UNL A   1      45.695  26.775  37.074  1.00  0.00     0.020 A 
ATOM     81  C   UNL A   1      46.960  27.295  36.791  1.00  0.00     0.054 A 
BRANCH  81  82
ATOM     82  S   UNL A   1      48.452  26.465  37.405  1.00  0.00     0.124 S 
ATOM     83  O   UNL A   1      49.437  26.807  36.386  1.00  0.00    -0.237 OA
ATOM     84  O   UNL A   1      48.650  27.091  38.711  1.00  0.00    -0.237 OA
ATOM     85  O   UNL A   1      48.064  25.057  37.454  1.00  0.00    -0.744 OA
ENDBRANCH  81  82
ENDBRANCH  62  76
BRANCH  63  86
ATOM     86  C   UNL A   1      36.963  32.424  30.648  1.00  0.00    -0.014 A 
ATOM     87  C   UNL A   1      37.173  33.607  29.912  1.00  0.00     0.010 A 
ATOM     88  C   UNL A   1      35.670  31.876  30.699  1.00  0.00     0.010 A 
ATOM     89  C   UNL A   1      36.104  34.268  29.304  1.00  0.00     0.020 A 
ATOM     90  C   UNL A   1      34.602  32.514  30.057  1.00  0.00     0.020 A 
ATOM     91  C   UNL A   1      34.821  33.723  29.393  1.00  0.00     0.054 A 
BRANCH  91  92
ATOM     92  S   UNL A   1      33.440  34.630  28.645  1.00  0.00     0.124 S 
ATOM     93  O   UNL A   1      34.122  35.775  28.047  1.00  0.00    -0.237 OA
ATOM     94  O   UNL A   1      32.895  33.658  27.700  1.00  0.00    -0.237 OA
ATOM     95  O   UNL A   1      32.578  34.941  29.782  1.00  0.00    -0.744 OA
ENDBRANCH  91  92
ENDBRANCH  63  86
BRANCH  75  96
ATOM     96  C   UNL A   1      39.689  33.550  37.020  1.00  0.00    -0.014 A 
ATOM     97  C   UNL A   1      40.406  34.754  37.153  1.00  0.00     0.010 A 
ATOM     98  C   UNL A   1      38.781  33.177  38.026  1.00  0.00     0.010 A 
ATOM     99  C   UNL A   1      40.261  35.543  38.295  1.00  0.00     0.020 A 
ATOM    100  C   UNL A   1      38.608  33.983  39.155  1.00  0.00     0.020 A 
ATOM    101  C   UNL A   1      39.371  35.144  39.296  1.00  0.00     0.054 A 
BRANCH 101 102
ATOM    102  S   UNL A   1      39.239  36.152  40.798  1.00  0.00     0.124 S 
ATOM    103  O   UNL A   1      40.639  36.325  41.175  1.00  0.00    -0.237 OA
ATOM    104  O   UNL A   1      38.563  37.355  40.318  1.00  0.00    -0.237 OA
ATOM    105  O   UNL A   1      38.447  35.320  41.701  1.00  0.00    -0.744 OA
ENDBRANCH 101 102
ENDBRANCH  75  96
ENDBRANCH  49  50
ENDBRANCH  41  44
ENDBRANCH  39  40
ENDBRANCH  38  39
ENDBRANCH   1  38
TORSDOF 19
ENDMDL
