MODEL 1
REMARK VINA RESULT:     -13.0      0.000      0.000
REMARK SMILES O=C(NCCCNC(=O)[C@H](c1c[nH]c2ccc(Cl)cc12)[NH+]1CCN(c2ncc(Br)cn2)CC1)c1ccc(-c2c3nc(c(-c4ccc(S(=O)(=O)[O-])cc4)c4ccc([nH]4)c(-c4ccc(S(=O)(=O)[O-])cc4)c4nc(c(-c5ccc(S(=O)(=O)[O-])cc5)c5ccc2[nH]5)C=C4)C=C3)cc1
REMARK SMILES IDX 4 1 3 2 1 3 2 4 34 6 35 7 93 8 36 9 92 10 37 11 38 12 39 13
REMARK SMILES IDX 86 14 40 15 91 16 85 17 87 18 41 19 90 20 84 21 83 22 42 24
REMARK SMILES IDX 72 25 53 26 71 27 54 28 57 29 70 30 88 31 55 32 56 33 69 35
REMARK SMILES IDX 89 36 58 37 43 38 44 39 52 40 45 41 51 42 46 43 47 44 48 45
REMARK SMILES IDX 49 46 50 47 73 48 74 49 82 50 75 51 81 52 76 53 77 54 78 55
REMARK SMILES IDX 79 56 80 57 59 58 60 59 68 60 61 61 67 62 62 63 63 64 64 65
REMARK SMILES IDX 65 66 66 67 5 68 6 69 7 70 8 71 9 73 10 74 21 75 22 76 33 77
REMARK SMILES IDX 23 79 32 80 24 81 25 82 26 83 31 84 27 85 30 86 28 87 29 88
REMARK SMILES IDX 11 89 12 90 20 91 13 92 14 93 19 94 15 96 17 97 16 98 18 99
REMARK H PARENT 3 5 87 23 57 34 7 72 21 78 13 95
REMARK Flexibility Score: inf
ROOT
ATOM      1  C   UNL A   1      33.040  28.352  27.543  1.00  0.00     0.118 C 
ENDROOT
BRANCH   1   2
ATOM      2  N   UNL A   1      33.203  29.803  27.530  1.00  0.00    -0.352 N 
ATOM      3  O   UNL A   1      34.009  31.830  27.993  1.00  0.00    -0.269 OA
ATOM      4  C   UNL A   1      34.243  30.625  27.895  1.00  0.00     0.251 C 
ATOM      5  H   UNL A   1      32.413  30.287  27.198  1.00  0.00     0.163 HD
BRANCH   4   6
ATOM      6  C   UNL A   1      35.619  30.132  28.175  1.00  0.00     0.039 A 
ATOM      7  C   UNL A   1      36.654  30.192  27.241  1.00  0.00     0.014 A 
ATOM      8  C   UNL A   1      35.919  29.708  29.479  1.00  0.00     0.014 A 
ATOM      9  C   UNL A   1      37.934  29.726  27.563  1.00  0.00     0.010 A 
ATOM     10  C   UNL A   1      37.225  29.335  29.829  1.00  0.00     0.010 A 
ATOM     11  C   UNL A   1      38.246  29.317  28.869  1.00  0.00    -0.014 A 
BRANCH  11  12
ATOM     12  C   UNL A   1      39.651  28.973  29.235  1.00  0.00     0.031 A 
ATOM     13  C   UNL A   1      40.559  29.963  29.915  1.00  0.00     0.074 A 
ATOM     14  C   UNL A   1      40.139  27.756  28.915  1.00  0.00     0.049 A 
ATOM     15  N   UNL A   1      41.793  29.804  30.328  1.00  0.00    -0.248 NA
ATOM     16  C   UNL A   1      40.022  31.312  30.142  1.00  0.00     0.031 C 
ATOM     17  C   UNL A   1      39.400  26.705  28.214  1.00  0.00     0.029 A 
ATOM     18  N   UNL A   1      41.378  27.205  29.127  1.00  0.00    -0.354 N 
ATOM     19  C   UNL A   1      42.169  31.022  30.881  1.00  0.00     0.074 A 
ATOM     20  C   UNL A   1      41.071  31.930  30.665  1.00  0.00     0.031 C 
ATOM     21  C   UNL A   1      40.192  25.633  28.067  1.00  0.00     0.029 A 
ATOM     22  C   UNL A   1      41.511  25.937  28.614  1.00  0.00     0.049 A 
ATOM     23  H   UNL A   1      42.103  27.673  29.601  1.00  0.00     0.167 HD
ATOM     24  C   UNL A   1      43.311  31.364  31.527  1.00  0.00     0.031 A 
ATOM     25  C   UNL A   1      42.575  25.113  28.561  1.00  0.00     0.031 A 
ATOM     26  C   UNL A   1      44.453  30.505  31.657  1.00  0.00     0.049 A 
ATOM     27  C   UNL A   1      43.880  25.544  29.167  1.00  0.00     0.074 A 
ATOM     28  C   UNL A   1      45.657  30.758  32.289  1.00  0.00     0.029 A 
ATOM     29  N   UNL A   1      44.548  29.240  31.100  1.00  0.00    -0.354 N 
ATOM     30  N   UNL A   1      44.166  26.660  29.791  1.00  0.00    -0.248 NA
ATOM     31  C   UNL A   1      45.001  24.601  29.067  1.00  0.00     0.031 C 
ATOM     32  C   UNL A   1      46.508  29.673  32.051  1.00  0.00     0.029 A 
ATOM     33  C   UNL A   1      45.808  28.718  31.330  1.00  0.00     0.049 A 
ATOM     34  H   UNL A   1      43.826  28.781  30.613  1.00  0.00     0.167 HD
ATOM     35  C   UNL A   1      45.494  26.544  30.185  1.00  0.00     0.074 A 
ATOM     36  C   UNL A   1      45.954  25.247  29.730  1.00  0.00     0.031 C 
ATOM     37  C   UNL A   1      46.259  27.429  30.870  1.00  0.00     0.031 A 
BRANCH  24  38
ATOM     38  C   UNL A   1      43.377  32.747  32.125  1.00  0.00    -0.014 A 
ATOM     39  C   UNL A   1      42.952  32.980  33.446  1.00  0.00     0.010 A 
ATOM     40  C   UNL A   1      43.876  33.823  31.369  1.00  0.00     0.010 A 
ATOM     41  C   UNL A   1      42.972  34.270  33.982  1.00  0.00     0.020 A 
ATOM     42  C   UNL A   1      43.917  35.113  31.908  1.00  0.00     0.020 A 
ATOM     43  C   UNL A   1      43.442  35.332  33.204  1.00  0.00     0.054 A 
BRANCH  43  44
ATOM     44  S   UNL A   1      43.430  37.003  33.911  1.00  0.00     0.124 S 
ATOM     45  O   UNL A   1      43.514  37.836  32.715  1.00  0.00    -0.237 OA
ATOM     46  O   UNL A   1      42.149  37.044  34.615  1.00  0.00    -0.237 OA
ATOM     47  O   UNL A   1      44.610  37.026  34.771  1.00  0.00    -0.744 OA
ENDBRANCH  43  44
ENDBRANCH  24  38
BRANCH  25  48
ATOM     48  C   UNL A   1      42.434  23.795  27.885  1.00  0.00    -0.014 A 
ATOM     49  C   UNL A   1      42.751  23.648  26.524  1.00  0.00     0.010 A 
ATOM     50  C   UNL A   1      42.044  22.662  28.625  1.00  0.00     0.010 A 
ATOM     51  C   UNL A   1      42.684  22.392  25.916  1.00  0.00     0.020 A 
ATOM     52  C   UNL A   1      42.004  21.400  28.027  1.00  0.00     0.020 A 
ATOM     53  C   UNL A   1      42.320  21.274  26.673  1.00  0.00     0.054 A 
BRANCH  53  54
ATOM     54  S   UNL A   1      42.330  19.641  25.886  1.00  0.00     0.124 S 
ATOM     55  O   UNL A   1      40.951  19.518  25.423  1.00  0.00    -0.237 OA
ATOM     56  O   UNL A   1      43.337  19.801  24.839  1.00  0.00    -0.237 OA
ATOM     57  O   UNL A   1      42.711  18.740  26.971  1.00  0.00    -0.744 OA
ENDBRANCH  53  54
ENDBRANCH  25  48
BRANCH  37  58
ATOM     58  C   UNL A   1      47.666  27.024  31.211  1.00  0.00    -0.014 A 
ATOM     59  C   UNL A   1      47.936  26.153  32.280  1.00  0.00     0.010 A 
ATOM     60  C   UNL A   1      48.724  27.457  30.391  1.00  0.00     0.010 A 
ATOM     61  C   UNL A   1      49.246  25.735  32.534  1.00  0.00     0.020 A 
ATOM     62  C   UNL A   1      50.030  27.020  30.626  1.00  0.00     0.020 A 
ATOM     63  C   UNL A   1      50.284  26.169  31.703  1.00  0.00     0.054 A 
BRANCH  63  64
ATOM     64  S   UNL A   1      51.964  25.559  32.009  1.00  0.00     0.124 S 
ATOM     65  O   UNL A   1      51.720  24.168  32.378  1.00  0.00    -0.237 OA
ATOM     66  O   UNL A   1      52.619  25.763  30.719  1.00  0.00    -0.237 OA
ATOM     67  O   UNL A   1      52.451  26.414  33.089  1.00  0.00    -0.744 OA
ENDBRANCH  63  64
ENDBRANCH  37  58
ENDBRANCH  11  12
ENDBRANCH   4   6
ENDBRANCH   1   2
BRANCH   1  68
ATOM     68  C   UNL A   1      32.386  27.825  26.267  1.00  0.00     0.042 C 
BRANCH  68  69
ATOM     69  C   UNL A   1      31.099  27.041  26.511  1.00  0.00     0.118 C 
BRANCH  69  70
ATOM     70  N   UNL A   1      31.311  25.685  26.979  1.00  0.00    -0.351 N 
ATOM     71  C   UNL A   1      31.835  24.517  26.558  1.00  0.00     0.283 C 
ATOM     72  H   UNL A   1      30.963  25.588  27.895  1.00  0.00     0.163 HD
ATOM     73  O   UNL A   1      31.826  23.685  27.492  1.00  0.00    -0.268 OA
BRANCH  71  74
ATOM     74  C   UNL A   1      32.320  24.013  25.166  1.00  0.00     0.307 C 
BRANCH  74  75
ATOM     75  N   UNL A   1      31.970  24.631  23.907  1.00  0.00    -0.318 N 
ATOM     76  C   UNL A   1      30.650  24.347  23.351  1.00  0.00     0.285 C 
ATOM     77  C   UNL A   1      32.768  25.427  23.014  1.00  0.00     0.285 C 
ATOM     78  H   UNL A   1      32.568  25.015  24.639  1.00  0.00     0.349 HD
ATOM     79  C   UNL A   1      29.862  25.656  23.390  1.00  0.00     0.181 C 
ATOM     80  C   UNL A   1      32.054  26.773  22.695  1.00  0.00     0.181 C 
ATOM     81  N   UNL A   1      30.587  26.704  22.678  1.00  0.00    -0.330 N 
BRANCH  81  82
ATOM     82  C   UNL A   1      29.929  27.906  22.513  1.00  0.00     0.225 A 
ATOM     83  N   UNL A   1      28.682  28.013  23.001  1.00  0.00    -0.220 NA
ATOM     84  N   UNL A   1      30.569  28.925  21.910  1.00  0.00    -0.220 NA
ATOM     85  C   UNL A   1      28.125  29.239  23.008  1.00  0.00     0.132 A 
ATOM     86  C   UNL A   1      29.962  30.130  21.911  1.00  0.00     0.132 A 
ATOM     87  C   UNL A   1      28.748  30.349  22.506  1.00  0.00     0.054 A 
ATOM     88  Br  UNL A   1      28.034  32.057  22.737  1.00  0.00    -0.047 Br
ENDBRANCH  81  82
ENDBRANCH  74  75
BRANCH  74  89
ATOM     89  C   UNL A   1      33.810  23.727  25.201  1.00  0.00     0.044 A 
ATOM     90  C   UNL A   1      34.831  24.629  25.451  1.00  0.00     0.094 A 
ATOM     91  C   UNL A   1      34.434  22.435  25.065  1.00  0.00     0.011 A 
ATOM     92  N   UNL A   1      36.012  23.942  25.512  1.00  0.00    -0.361 N 
ATOM     93  C   UNL A   1      35.802  22.602  25.284  1.00  0.00     0.046 A 
ATOM     94  C   UNL A   1      33.955  21.132  24.801  1.00  0.00     0.031 A 
ATOM     95  H   UNL A   1      36.890  24.349  25.696  1.00  0.00     0.166 HD
ATOM     96  C   UNL A   1      36.714  21.538  25.268  1.00  0.00     0.028 A 
ATOM     97  C   UNL A   1      34.857  20.064  24.769  1.00  0.00     0.041 A 
ATOM     98  C   UNL A   1      36.214  20.260  25.004  1.00  0.00     0.022 A 
ATOM     99  Cl  UNL A   1      34.277  18.475  24.437  1.00  0.00    -0.084 Cl
ENDBRANCH  74  89
ENDBRANCH  71  74
ENDBRANCH  69  70
ENDBRANCH  68  69
ENDBRANCH   1  68
TORSDOF 16
ENDMDL
MODEL 2
REMARK VINA RESULT:     -12.9      4.042      9.625
REMARK SMILES O=C(NCCCNC(=O)[C@H](c1c[nH]c2ccc(Cl)cc12)[NH+]1CCN(c2ncc(Br)cn2)CC1)c1ccc(-c2c3nc(c(-c4ccc(S(=O)(=O)[O-])cc4)c4ccc([nH]4)c(-c4ccc(S(=O)(=O)[O-])cc4)c4nc(c(-c5ccc(S(=O)(=O)[O-])cc5)c5ccc2[nH]5)C=C4)C=C3)cc1
REMARK SMILES IDX 4 1 3 2 1 3 2 4 34 6 35 7 93 8 36 9 92 10 37 11 38 12 39 13
REMARK SMILES IDX 86 14 40 15 91 16 85 17 87 18 41 19 90 20 84 21 83 22 42 24
REMARK SMILES IDX 72 25 53 26 71 27 54 28 57 29 70 30 88 31 55 32 56 33 69 35
REMARK SMILES IDX 89 36 58 37 43 38 44 39 52 40 45 41 51 42 46 43 47 44 48 45
REMARK SMILES IDX 49 46 50 47 73 48 74 49 82 50 75 51 81 52 76 53 77 54 78 55
REMARK SMILES IDX 79 56 80 57 59 58 60 59 68 60 61 61 67 62 62 63 63 64 64 65
REMARK SMILES IDX 65 66 66 67 5 68 6 69 7 70 8 71 9 73 10 74 21 75 22 76 33 77
REMARK SMILES IDX 23 79 32 80 24 81 25 82 26 83 31 84 27 85 30 86 28 87 29 88
REMARK SMILES IDX 11 89 12 90 20 91 13 92 14 93 19 94 15 96 17 97 16 98 18 99
REMARK H PARENT 3 5 87 23 57 34 7 72 21 78 13 95
REMARK Flexibility Score: inf
ROOT
ATOM      1  C   UNL A   1      38.065  24.074  26.031  1.00  0.00     0.118 C 
ENDROOT
BRANCH   1   2
ATOM      2  N   UNL A   1      39.501  23.811  26.067  1.00  0.00    -0.352 N 
ATOM      3  O   UNL A   1      41.692  24.144  26.320  1.00  0.00    -0.269 OA
ATOM      4  C   UNL A   1      40.553  24.475  26.653  1.00  0.00     0.251 C 
ATOM      5  H   UNL A   1      39.768  23.001  25.575  1.00  0.00     0.163 HD
BRANCH   4   6
ATOM      6  C   UNL A   1      40.382  25.561  27.657  1.00  0.00     0.039 A 
ATOM      7  C   UNL A   1      39.387  25.543  28.634  1.00  0.00     0.014 A 
ATOM      8  C   UNL A   1      41.345  26.580  27.701  1.00  0.00     0.014 A 
ATOM      9  C   UNL A   1      39.280  26.586  29.562  1.00  0.00     0.010 A 
ATOM     10  C   UNL A   1      41.296  27.571  28.693  1.00  0.00     0.010 A 
ATOM     11  C   UNL A   1      40.249  27.600  29.624  1.00  0.00    -0.014 A 
BRANCH  11  12
ATOM     12  C   UNL A   1      40.209  28.615  30.716  1.00  0.00     0.031 A 
ATOM     13  C   UNL A   1      41.076  28.495  31.942  1.00  0.00     0.074 A 
ATOM     14  C   UNL A   1      39.347  29.649  30.628  1.00  0.00     0.049 A 
ATOM     15  N   UNL A   1      41.182  29.313  32.962  1.00  0.00    -0.248 NA
ATOM     16  C   UNL A   1      41.917  27.295  32.048  1.00  0.00     0.031 C 
ATOM     17  C   UNL A   1      38.408  29.877  29.529  1.00  0.00     0.029 A 
ATOM     18  N   UNL A   1      39.111  30.694  31.487  1.00  0.00    -0.354 N 
ATOM     19  C   UNL A   1      42.113  28.735  33.816  1.00  0.00     0.074 A 
ATOM     20  C   UNL A   1      42.468  27.462  33.242  1.00  0.00     0.031 C 
ATOM     21  C   UNL A   1      37.712  30.997  29.770  1.00  0.00     0.029 A 
ATOM     22  C   UNL A   1      38.112  31.538  31.065  1.00  0.00     0.049 A 
ATOM     23  H   UNL A   1      39.610  30.826  32.325  1.00  0.00     0.167 HD
ATOM     24  C   UNL A   1      42.648  29.216  34.966  1.00  0.00     0.031 A 
ATOM     25  C   UNL A   1      37.555  32.612  31.657  1.00  0.00     0.031 A 
ATOM     26  C   UNL A   1      42.228  30.431  35.605  1.00  0.00     0.049 A 
ATOM     27  C   UNL A   1      38.063  33.071  32.993  1.00  0.00     0.074 A 
ATOM     28  C   UNL A   1      42.704  31.001  36.772  1.00  0.00     0.029 A 
ATOM     29  N   UNL A   1      41.197  31.238  35.152  1.00  0.00    -0.354 N 
ATOM     30  N   UNL A   1      39.033  32.570  33.719  1.00  0.00    -0.248 NA
ATOM     31  C   UNL A   1      37.407  34.244  33.585  1.00  0.00     0.031 C 
ATOM     32  C   UNL A   1      41.909  32.116  37.064  1.00  0.00     0.029 A 
ATOM     33  C   UNL A   1      40.986  32.275  36.042  1.00  0.00     0.049 A 
ATOM     34  H   UNL A   1      40.690  31.093  34.321  1.00  0.00     0.167 HD
ATOM     35  C   UNL A   1      39.123  33.383  34.843  1.00  0.00     0.074 A 
ATOM     36  C   UNL A   1      38.111  34.411  34.699  1.00  0.00     0.031 C 
ATOM     37  C   UNL A   1      39.975  33.291  35.894  1.00  0.00     0.031 A 
BRANCH  24  38
ATOM     38  C   UNL A   1      43.738  28.399  35.614  1.00  0.00    -0.014 A 
ATOM     39  C   UNL A   1      45.083  28.566  35.235  1.00  0.00     0.010 A 
ATOM     40  C   UNL A   1      43.422  27.464  36.616  1.00  0.00     0.010 A 
ATOM     41  C   UNL A   1      46.084  27.776  35.805  1.00  0.00     0.020 A 
ATOM     42  C   UNL A   1      44.424  26.684  37.203  1.00  0.00     0.020 A 
ATOM     43  C   UNL A   1      45.746  26.830  36.776  1.00  0.00     0.054 A 
BRANCH  43  44
ATOM     44  S   UNL A   1      47.061  25.795  37.479  1.00  0.00     0.124 S 
ATOM     45  O   UNL A   1      48.259  26.403  36.908  1.00  0.00    -0.237 OA
ATOM     46  O   UNL A   1      46.886  25.986  38.917  1.00  0.00    -0.237 OA
ATOM     47  O   UNL A   1      46.748  24.455  36.989  1.00  0.00    -0.744 OA
ENDBRANCH  43  44
ENDBRANCH  24  38
BRANCH  25  48
ATOM     48  C   UNL A   1      36.434  33.312  30.973  1.00  0.00    -0.014 A 
ATOM     49  C   UNL A   1      35.146  33.318  31.532  1.00  0.00     0.010 A 
ATOM     50  C   UNL A   1      36.673  34.036  29.789  1.00  0.00     0.010 A 
ATOM     51  C   UNL A   1      34.116  34.039  30.920  1.00  0.00     0.020 A 
ATOM     52  C   UNL A   1      35.653  34.779  29.191  1.00  0.00     0.020 A 
ATOM     53  C   UNL A   1      34.378  34.772  29.759  1.00  0.00     0.054 A 
BRANCH  53  54
ATOM     54  S   UNL A   1      33.049  35.772  29.036  1.00  0.00     0.124 S 
ATOM     55  O   UNL A   1      32.308  36.194  30.220  1.00  0.00    -0.237 OA
ATOM     56  O   UNL A   1      33.788  36.825  28.342  1.00  0.00    -0.237 OA
ATOM     57  O   UNL A   1      32.352  34.833  28.160  1.00  0.00    -0.744 OA
ENDBRANCH  53  54
ENDBRANCH  25  48
BRANCH  37  58
ATOM     58  C   UNL A   1      39.888  34.344  36.963  1.00  0.00    -0.014 A 
ATOM     59  C   UNL A   1      40.490  35.603  36.798  1.00  0.00     0.010 A 
ATOM     60  C   UNL A   1      39.116  34.095  38.113  1.00  0.00     0.010 A 
ATOM     61  C   UNL A   1      40.335  36.590  37.776  1.00  0.00     0.020 A 
ATOM     62  C   UNL A   1      38.938  35.088  39.078  1.00  0.00     0.020 A 
ATOM     63  C   UNL A   1      39.557  36.327  38.908  1.00  0.00     0.054 A 
BRANCH  63  64
ATOM     64  S   UNL A   1      39.314  37.646  40.129  1.00  0.00     0.124 S 
ATOM     65  O   UNL A   1      38.964  36.889  41.327  1.00  0.00    -0.237 OA
ATOM     66  O   UNL A   1      40.618  38.302  40.157  1.00  0.00    -0.237 OA
ATOM     67  O   UNL A   1      38.232  38.448  39.561  1.00  0.00    -0.744 OA
ENDBRANCH  63  64
ENDBRANCH  37  58
ENDBRANCH  11  12
ENDBRANCH   4   6
ENDBRANCH   1   2
BRANCH   1  68
ATOM     68  C   UNL A   1      37.234  22.795  26.095  1.00  0.00     0.042 C 
BRANCH  68  69
ATOM     69  C   UNL A   1      36.970  22.160  24.731  1.00  0.00     0.118 C 
BRANCH  69  70
ATOM     70  N   UNL A   1      36.057  22.914  23.894  1.00  0.00    -0.351 N 
ATOM     71  C   UNL A   1      34.834  23.479  23.947  1.00  0.00     0.283 C 
ATOM     72  H   UNL A   1      36.457  23.059  23.006  1.00  0.00     0.163 HD
ATOM     73  O   UNL A   1      34.614  24.117  22.894  1.00  0.00    -0.268 OA
BRANCH  71  74
ATOM     74  C   UNL A   1      33.671  23.394  24.980  1.00  0.00     0.307 C 
BRANCH  74  75
ATOM     75  N   UNL A   1      32.334  23.888  24.745  1.00  0.00    -0.318 N 
ATOM     76  C   UNL A   1      31.623  24.492  25.869  1.00  0.00     0.285 C 
ATOM     77  C   UNL A   1      31.503  23.790  23.576  1.00  0.00     0.285 C 
ATOM     78  H   UNL A   1      33.111  23.870  24.085  1.00  0.00     0.349 HD
ATOM     79  C   UNL A   1      31.453  25.975  25.541  1.00  0.00     0.181 C 
ATOM     80  C   UNL A   1      30.988  25.196  23.151  1.00  0.00     0.181 C 
ATOM     81  N   UNL A   1      30.773  26.135  24.259  1.00  0.00    -0.330 N 
BRANCH  81  82
ATOM     82  C   UNL A   1      30.429  27.422  23.900  1.00  0.00     0.225 A 
ATOM     83  N   UNL A   1      29.392  27.584  23.060  1.00  0.00    -0.220 NA
ATOM     84  N   UNL A   1      31.112  28.455  24.427  1.00  0.00    -0.220 NA
ATOM     85  C   UNL A   1      28.943  28.840  22.869  1.00  0.00     0.132 A 
ATOM     86  C   UNL A   1      30.648  29.698  24.185  1.00  0.00     0.132 A 
ATOM     87  C   UNL A   1      29.519  29.939  23.448  1.00  0.00     0.054 A 
ATOM     88  Br  UNL A   1      28.732  31.626  23.332  1.00  0.00    -0.047 Br
ENDBRANCH  81  82
ENDBRANCH  74  75
BRANCH  74  89
ATOM     89  C   UNL A   1      33.607  22.004  25.585  1.00  0.00     0.044 A 
ATOM     90  C   UNL A   1      33.823  21.655  26.907  1.00  0.00     0.094 A 
ATOM     91  C   UNL A   1      33.219  20.794  24.903  1.00  0.00     0.011 A 
ATOM     92  N   UNL A   1      33.546  20.323  27.056  1.00  0.00    -0.361 N 
ATOM     93  C   UNL A   1      33.172  19.772  25.853  1.00  0.00     0.046 A 
ATOM     94  C   UNL A   1      32.877  20.481  23.569  1.00  0.00     0.031 A 
ATOM     95  H   UNL A   1      33.605  19.829  27.906  1.00  0.00     0.166 HD
ATOM     96  C   UNL A   1      32.790  18.460  25.544  1.00  0.00     0.028 A 
ATOM     97  C   UNL A   1      32.507  19.171  23.246  1.00  0.00     0.041 A 
ATOM     98  C   UNL A   1      32.458  18.176  24.216  1.00  0.00     0.022 A 
ATOM     99  Cl  UNL A   1      32.100  18.784  21.616  1.00  0.00    -0.084 Cl
ENDBRANCH  74  89
ENDBRANCH  71  74
ENDBRANCH  69  70
ENDBRANCH  68  69
ENDBRANCH   1  68
TORSDOF 16
ENDMDL
MODEL 3
REMARK VINA RESULT:     -12.8      3.567      5.597
REMARK SMILES O=C(NCCCNC(=O)[C@H](c1c[nH]c2ccc(Cl)cc12)[NH+]1CCN(c2ncc(Br)cn2)CC1)c1ccc(-c2c3nc(c(-c4ccc(S(=O)(=O)[O-])cc4)c4ccc([nH]4)c(-c4ccc(S(=O)(=O)[O-])cc4)c4nc(c(-c5ccc(S(=O)(=O)[O-])cc5)c5ccc2[nH]5)C=C4)C=C3)cc1
REMARK SMILES IDX 4 1 3 2 1 3 2 4 34 6 35 7 93 8 36 9 92 10 37 11 38 12 39 13
REMARK SMILES IDX 86 14 40 15 91 16 85 17 87 18 41 19 90 20 84 21 83 22 42 24
REMARK SMILES IDX 72 25 53 26 71 27 54 28 57 29 70 30 88 31 55 32 56 33 69 35
REMARK SMILES IDX 89 36 58 37 43 38 44 39 52 40 45 41 51 42 46 43 47 44 48 45
REMARK SMILES IDX 49 46 50 47 73 48 74 49 82 50 75 51 81 52 76 53 77 54 78 55
REMARK SMILES IDX 79 56 80 57 59 58 60 59 68 60 61 61 67 62 62 63 63 64 64 65
REMARK SMILES IDX 65 66 66 67 5 68 6 69 7 70 8 71 9 73 10 74 21 75 22 76 33 77
REMARK SMILES IDX 23 79 32 80 24 81 25 82 26 83 31 84 27 85 30 86 28 87 29 88
REMARK SMILES IDX 11 89 12 90 20 91 13 92 14 93 19 94 15 96 17 97 16 98 18 99
REMARK H PARENT 3 5 87 23 57 34 7 72 21 78 13 95
REMARK Flexibility Score: inf
ROOT
ATOM      1  C   UNL A   1      34.720  28.984  27.469  1.00  0.00     0.118 C 
ENDROOT
BRANCH   1   2
ATOM      2  N   UNL A   1      34.954  29.968  28.522  1.00  0.00    -0.352 N 
ATOM      3  O   UNL A   1      35.896  31.001  30.260  1.00  0.00    -0.269 OA
ATOM      4  C   UNL A   1      36.060  30.273  29.280  1.00  0.00     0.251 C 
ATOM      5  H   UNL A   1      34.167  30.521  28.731  1.00  0.00     0.163 HD
BRANCH   4   6
ATOM      6  C   UNL A   1      37.427  29.769  28.977  1.00  0.00     0.039 A 
ATOM      7  C   UNL A   1      37.980  29.791  27.696  1.00  0.00     0.014 A 
ATOM      8  C   UNL A   1      38.242  29.375  30.050  1.00  0.00     0.014 A 
ATOM      9  C   UNL A   1      39.277  29.315  27.470  1.00  0.00     0.010 A 
ATOM     10  C   UNL A   1      39.575  28.993  29.837  1.00  0.00     0.010 A 
ATOM     11  C   UNL A   1      40.104  28.936  28.539  1.00  0.00    -0.014 A 
BRANCH  11  12
ATOM     12  C   UNL A   1      41.533  28.583  28.299  1.00  0.00     0.031 A 
ATOM     13  C   UNL A   1      42.621  29.623  28.319  1.00  0.00     0.074 A 
ATOM     14  C   UNL A   1      41.859  27.305  28.015  1.00  0.00     0.049 A 
ATOM     15  N   UNL A   1      43.915  29.468  28.163  1.00  0.00    -0.248 NA
ATOM     16  C   UNL A   1      42.207  31.018  28.519  1.00  0.00     0.031 C 
ATOM     17  C   UNL A   1      40.914  26.192  27.912  1.00  0.00     0.029 A 
ATOM     18  N   UNL A   1      43.077  26.730  27.749  1.00  0.00    -0.354 N 
ATOM     19  C   UNL A   1      44.464  30.740  28.267  1.00  0.00     0.074 A 
ATOM     20  C   UNL A   1      43.361  31.657  28.405  1.00  0.00     0.031 C 
ATOM     21  C   UNL A   1      41.586  25.069  27.620  1.00  0.00     0.029 A 
ATOM     22  C   UNL A   1      43.001  25.388  27.463  1.00  0.00     0.049 A 
ATOM     23  H   UNL A   1      43.925  27.231  27.761  1.00  0.00     0.167 HD
ATOM     24  C   UNL A   1      45.765  31.123  28.268  1.00  0.00     0.031 A 
ATOM     25  C   UNL A   1      43.951  24.510  27.088  1.00  0.00     0.031 A 
ATOM     26  C   UNL A   1      46.868  30.236  28.027  1.00  0.00     0.049 A 
ATOM     27  C   UNL A   1      45.377  24.964  26.966  1.00  0.00     0.074 A 
ATOM     28  C   UNL A   1      48.221  30.527  28.003  1.00  0.00     0.029 A 
ATOM     29  N   UNL A   1      46.739  28.892  27.718  1.00  0.00    -0.354 N 
ATOM     30  N   UNL A   1      45.882  26.153  27.192  1.00  0.00    -0.248 NA
ATOM     31  C   UNL A   1      46.361  23.958  26.547  1.00  0.00     0.031 C 
ATOM     32  C   UNL A   1      48.904  29.372  27.607  1.00  0.00     0.029 A 
ATOM     33  C   UNL A   1      47.982  28.349  27.453  1.00  0.00     0.049 A 
ATOM     34  H   UNL A   1      45.887  28.398  27.691  1.00  0.00     0.167 HD
ATOM     35  C   UNL A   1      47.249  26.032  26.969  1.00  0.00     0.074 A 
ATOM     36  C   UNL A   1      47.492  24.654  26.593  1.00  0.00     0.031 C 
ATOM     37  C   UNL A   1      48.215  26.978  27.076  1.00  0.00     0.031 A 
BRANCH  24  38
ATOM     38  C   UNL A   1      46.054  32.582  28.521  1.00  0.00    -0.014 A 
ATOM     39  C   UNL A   1      46.127  33.495  27.453  1.00  0.00     0.010 A 
ATOM     40  C   UNL A   1      46.247  33.049  29.832  1.00  0.00     0.010 A 
ATOM     41  C   UNL A   1      46.440  34.837  27.686  1.00  0.00     0.020 A 
ATOM     42  C   UNL A   1      46.541  34.396  30.072  1.00  0.00     0.020 A 
ATOM     43  C   UNL A   1      46.659  35.276  28.994  1.00  0.00     0.054 A 
BRANCH  43  44
ATOM     44  S   UNL A   1      47.094  37.016  29.268  1.00  0.00     0.124 S 
ATOM     45  O   UNL A   1      46.312  37.338  30.458  1.00  0.00    -0.237 OA
ATOM     46  O   UNL A   1      48.541  36.958  29.466  1.00  0.00    -0.237 OA
ATOM     47  O   UNL A   1      46.663  37.679  28.041  1.00  0.00    -0.744 OA
ENDBRANCH  43  44
ENDBRANCH  24  38
BRANCH  25  48
ATOM     48  C   UNL A   1      43.559  23.106  26.789  1.00  0.00    -0.014 A 
ATOM     49  C   UNL A   1      43.939  22.496  25.582  1.00  0.00     0.010 A 
ATOM     50  C   UNL A   1      42.858  22.350  27.748  1.00  0.00     0.010 A 
ATOM     51  C   UNL A   1      43.628  21.155  25.341  1.00  0.00     0.020 A 
ATOM     52  C   UNL A   1      42.570  21.003  27.522  1.00  0.00     0.020 A 
ATOM     53  C   UNL A   1      42.953  20.414  26.317  1.00  0.00     0.054 A 
BRANCH  53  54
ATOM     54  S   UNL A   1      42.643  18.652  26.019  1.00  0.00     0.124 S 
ATOM     55  O   UNL A   1      43.032  18.056  27.293  1.00  0.00    -0.237 OA
ATOM     56  O   UNL A   1      41.213  18.630  25.720  1.00  0.00    -0.237 OA
ATOM     57  O   UNL A   1      43.512  18.338  24.888  1.00  0.00    -0.744 OA
ENDBRANCH  53  54
ENDBRANCH  25  48
BRANCH  37  58
ATOM     58  C   UNL A   1      49.636  26.559  26.822  1.00  0.00    -0.014 A 
ATOM     59  C   UNL A   1      50.476  26.153  27.873  1.00  0.00     0.010 A 
ATOM     60  C   UNL A   1      50.109  26.493  25.498  1.00  0.00     0.010 A 
ATOM     61  C   UNL A   1      51.772  25.701  27.604  1.00  0.00     0.020 A 
ATOM     62  C   UNL A   1      51.393  26.018  25.225  1.00  0.00     0.020 A 
ATOM     63  C   UNL A   1      52.220  25.633  26.281  1.00  0.00     0.054 A 
BRANCH  63  64
ATOM     64  S   UNL A   1      53.879  24.980  25.951  1.00  0.00     0.124 S 
ATOM     65  O   UNL A   1      54.398  25.942  24.984  1.00  0.00    -0.237 OA
ATOM     66  O   UNL A   1      54.506  25.013  27.270  1.00  0.00    -0.237 OA
ATOM     67  O   UNL A   1      53.625  23.641  25.423  1.00  0.00    -0.744 OA
ENDBRANCH  63  64
ENDBRANCH  37  58
ENDBRANCH  11  12
ENDBRANCH   4   6
ENDBRANCH   1   2
BRANCH   1  68
ATOM     68  C   UNL A   1      33.817  29.518  26.360  1.00  0.00     0.042 C 
BRANCH  68  69
ATOM     69  C   UNL A   1      32.327  29.453  26.690  1.00  0.00     0.118 C 
BRANCH  69  70
ATOM     70  N   UNL A   1      31.763  28.118  26.620  1.00  0.00    -0.351 N 
ATOM     71  C   UNL A   1      31.730  27.053  25.795  1.00  0.00     0.283 C 
ATOM     72  H   UNL A   1      31.240  27.932  27.433  1.00  0.00     0.163 HD
ATOM     73  O   UNL A   1      31.139  26.102  26.352  1.00  0.00    -0.268 OA
BRANCH  71  74
ATOM     74  C   UNL A   1      32.174  26.843  24.317  1.00  0.00     0.307 C 
BRANCH  74  75
ATOM     75  N   UNL A   1      32.000  25.612  23.579  1.00  0.00    -0.318 N 
ATOM     76  C   UNL A   1      33.099  25.166  22.727  1.00  0.00     0.285 C 
ATOM     77  C   UNL A   1      30.843  24.768  23.448  1.00  0.00     0.285 C 
ATOM     78  H   UNL A   1      31.616  25.843  24.496  1.00  0.00     0.349 HD
ATOM     79  C   UNL A   1      33.642  23.877  23.344  1.00  0.00     0.181 C 
ATOM     80  C   UNL A   1      31.197  23.296  23.810  1.00  0.00     0.181 C 
ATOM     81  N   UNL A   1      32.572  22.895  23.487  1.00  0.00    -0.330 N 
BRANCH  81  82
ATOM     82  C   UNL A   1      32.944  21.633  23.903  1.00  0.00     0.225 A 
ATOM     83  N   UNL A   1      32.189  20.593  23.512  1.00  0.00    -0.220 NA
ATOM     84  N   UNL A   1      34.059  21.489  24.644  1.00  0.00    -0.220 NA
ATOM     85  C   UNL A   1      32.664  19.357  23.758  1.00  0.00     0.132 A 
ATOM     86  C   UNL A   1      34.483  20.234  24.895  1.00  0.00     0.132 A 
ATOM     87  C   UNL A   1      33.840  19.123  24.418  1.00  0.00     0.054 A 
ATOM     88  Br  UNL A   1      34.566  17.409  24.540  1.00  0.00    -0.047 Br
ENDBRANCH  81  82
ENDBRANCH  74  75
BRANCH  74  89
ATOM     89  C   UNL A   1      31.737  28.019  23.464  1.00  0.00     0.044 A 
ATOM     90  C   UNL A   1      32.545  28.861  22.719  1.00  0.00     0.094 A 
ATOM     91  C   UNL A   1      30.378  28.425  23.203  1.00  0.00     0.011 A 
ATOM     92  N   UNL A   1      31.746  29.709  22.003  1.00  0.00    -0.361 N 
ATOM     93  C   UNL A   1      30.420  29.466  22.275  1.00  0.00     0.046 A 
ATOM     94  C   UNL A   1      29.114  27.982  23.652  1.00  0.00     0.031 A 
ATOM     95  H   UNL A   1      32.074  30.397  21.379  1.00  0.00     0.166 HD
ATOM     96  C   UNL A   1      29.269  30.078  21.761  1.00  0.00     0.028 A 
ATOM     97  C   UNL A   1      27.958  28.595  23.158  1.00  0.00     0.041 A 
ATOM     98  C   UNL A   1      28.031  29.622  22.223  1.00  0.00     0.022 A 
ATOM     99  Cl  UNL A   1      26.414  28.064  23.713  1.00  0.00    -0.084 Cl
ENDBRANCH  74  89
ENDBRANCH  71  74
ENDBRANCH  69  70
ENDBRANCH  68  69
ENDBRANCH   1  68
TORSDOF 16
ENDMDL
