MODEL 1
REMARK VINA RESULT:     -14.0      0.000      0.000
REMARK SMILES COc1cc([C@@H]2CC(=O)Nc3c(C(=O)NCCCNC(=O)c4ccc(-c5c6nc(c(-c7ccc(S(=O)(=O)[O-])cc7)c7ccc([nH]7)c(-c7ccc(S(=O)(=O)[O-])cc7)c7nc(c(-c8ccc(S(=O)(=O)[O-])cc8)c8ccc5[nH]8)C=C7)C=C6)cc4)cn(-c4ccc(F)cc4)c32)c(OC)c2c1OCO2
REMARK SMILES IDX 17 1 16 2 15 3 13 4 14 5 12 7 6 8 7 9 91 10 8 11 11 12 83 13
REMARK SMILES IDX 9 14 10 15 82 16 5 18 3 19 4 20 96 21 95 22 97 23 92 24
REMARK SMILES IDX 99 25 98 26 2 27 1 28 93 29 94 30 84 31 85 32 90 33 86 34
REMARK SMILES IDX 89 35 87 36 88 37 18 38 19 39 20 40 21 42 22 43 23 44 81 45
REMARK SMILES IDX 24 46 80 47 25 48 26 49 27 50 74 51 28 52 79 53 73 54 75 55
REMARK SMILES IDX 29 56 78 57 72 58 71 59 30 61 60 62 41 63 59 64 42 65 45 66
REMARK SMILES IDX 58 67 76 68 43 69 44 70 57 72 77 73 46 74 31 75 32 76 40 77
REMARK SMILES IDX 33 78 39 79 34 80 35 81 36 82 37 83 38 84 61 85 62 86 70 87
REMARK SMILES IDX 63 88 69 89 64 90 65 91 66 92 67 93 68 94 47 95 48 96 56 97
REMARK SMILES IDX 49 98 55 99 50 100 51 101 52 102 53 103 54 104
REMARK H PARENT 15 6 10 17 19 41 75 60 45 71
REMARK Flexibility Score: inf
ROOT
ATOM      1  C   UNL A   1      36.988  21.841  24.479  1.00  0.00     0.042 C 
ENDROOT
BRANCH   1   2
ATOM      2  C   UNL A   1      35.598  22.424  24.170  1.00  0.00     0.118 C 
BRANCH   2   3
ATOM      3  N   UNL A   1      34.755  22.481  25.342  1.00  0.00    -0.352 N 
ATOM      4  C   UNL A   1      33.885  23.414  25.840  1.00  0.00     0.254 C 
ATOM      5  O   UNL A   1      33.254  23.045  26.836  1.00  0.00    -0.269 OA
ATOM      6  H   UNL A   1      34.821  21.676  25.904  1.00  0.00     0.163 HD
BRANCH   4   7
ATOM      7  C   UNL A   1      33.638  24.744  25.261  1.00  0.00     0.081 A 
ATOM      8  C   UNL A   1      32.760  27.554  22.963  1.00  0.00     0.082 C 
ATOM      9  C   UNL A   1      33.373  27.038  21.660  1.00  0.00     0.115 C 
ATOM     10  C   UNL A   1      33.128  26.651  24.110  1.00  0.00     0.055 A 
ATOM     11  C   UNL A   1      33.317  25.539  21.545  1.00  0.00     0.225 C 
ATOM     12  C   UNL A   1      33.448  25.320  23.969  1.00  0.00     0.076 A 
ATOM     13  N   UNL A   1      33.213  26.977  25.441  1.00  0.00    -0.317 N 
ATOM     14  O   UNL A   1      33.271  24.965  20.456  1.00  0.00    -0.275 OA
ATOM     15  N   UNL A   1      33.450  24.813  22.694  1.00  0.00    -0.324 N 
ATOM     16  C   UNL A   1      33.581  25.846  26.122  1.00  0.00     0.107 A 
ATOM     17  H   UNL A   1      33.558  23.839  22.598  1.00  0.00     0.170 HD
BRANCH   8  18
ATOM     18  C   UNL A   1      31.252  27.804  22.846  1.00  0.00     0.012 A 
ATOM     19  C   UNL A   1      29.571  29.558  22.516  1.00  0.00     0.165 A 
ATOM     20  C   UNL A   1      30.871  29.080  22.362  1.00  0.00     0.059 A 
ATOM     21  C   UNL A   1      28.638  28.707  23.075  1.00  0.00     0.211 A 
ATOM     22  C   UNL A   1      28.966  27.417  23.449  1.00  0.00     0.211 A 
ATOM     23  O   UNL A   1      27.331  28.998  23.330  1.00  0.00    -0.449 OA
ATOM     24  C   UNL A   1      30.257  26.920  23.330  1.00  0.00     0.168 A 
ATOM     25  O   UNL A   1      27.888  26.760  23.968  1.00  0.00    -0.449 OA
ATOM     26  C   UNL A   1      26.876  27.773  23.923  1.00  0.00     0.468 C 
BRANCH  19  27
ATOM     27  O   UNL A   1      29.373  30.846  22.117  1.00  0.00    -0.493 OA
ATOM     28  C   UNL A   1      28.852  31.706  23.125  1.00  0.00     0.278 C 
ENDBRANCH  19  27
BRANCH  24  29
ATOM     29  O   UNL A   1      30.652  25.657  23.647  1.00  0.00    -0.492 OA
ATOM     30  C   UNL A   1      30.001  24.545  23.053  1.00  0.00     0.278 C 
ENDBRANCH  24  29
ENDBRANCH   8  18
BRANCH  13  31
ATOM     31  C   UNL A   1      32.985  28.239  26.027  1.00  0.00     0.046 A 
ATOM     32  C   UNL A   1      31.681  28.731  26.112  1.00  0.00     0.029 A 
ATOM     33  C   UNL A   1      34.068  29.009  26.456  1.00  0.00     0.029 A 
ATOM     34  C   UNL A   1      31.461  30.046  26.512  1.00  0.00     0.041 A 
ATOM     35  C   UNL A   1      33.839  30.326  26.865  1.00  0.00     0.041 A 
ATOM     36  C   UNL A   1      32.544  30.839  26.864  1.00  0.00     0.123 A 
ATOM     37  F   UNL A   1      32.336  32.116  27.207  1.00  0.00    -0.207 F 
ENDBRANCH  13  31
ENDBRANCH   4   7
ENDBRANCH   2   3
ENDBRANCH   1   2
BRANCH   1  38
ATOM     38  C   UNL A   1      37.795  22.695  25.424  1.00  0.00     0.118 C 
BRANCH  38  39
ATOM     39  N   UNL A   1      38.668  21.862  26.267  1.00  0.00    -0.352 N 
ATOM     40  C   UNL A   1      39.814  22.230  26.946  1.00  0.00     0.251 C 
ATOM     41  H   UNL A   1      38.400  20.919  26.360  1.00  0.00     0.163 HD
ATOM     42  O   UNL A   1      40.633  21.390  27.309  1.00  0.00    -0.269 OA
BRANCH  40  43
ATOM     43  C   UNL A   1      40.016  23.656  27.213  1.00  0.00     0.039 A 
ATOM     44  C   UNL A   1      38.988  24.597  27.128  1.00  0.00     0.014 A 
ATOM     45  C   UNL A   1      41.265  23.998  27.706  1.00  0.00     0.014 A 
ATOM     46  C   UNL A   1      39.225  25.872  27.635  1.00  0.00     0.010 A 
ATOM     47  C   UNL A   1      41.370  25.115  28.473  1.00  0.00     0.010 A 
ATOM     48  C   UNL A   1      40.419  26.111  28.331  1.00  0.00    -0.014 A 
BRANCH  48  49
ATOM     49  C   UNL A   1      40.716  27.375  28.980  1.00  0.00     0.031 A 
ATOM     50  C   UNL A   1      41.768  28.184  28.323  1.00  0.00     0.074 A 
ATOM     51  C   UNL A   1      39.936  27.878  29.963  1.00  0.00     0.049 A 
ATOM     52  N   UNL A   1      42.980  28.349  28.729  1.00  0.00    -0.248 NA
ATOM     53  C   UNL A   1      41.505  28.742  26.987  1.00  0.00     0.031 C 
ATOM     54  C   UNL A   1      38.665  27.366  30.501  1.00  0.00     0.029 A 
ATOM     55  N   UNL A   1      40.060  29.061  30.606  1.00  0.00    -0.354 N 
ATOM     56  C   UNL A   1      43.567  29.233  27.832  1.00  0.00     0.074 A 
ATOM     57  C   UNL A   1      42.695  29.266  26.683  1.00  0.00     0.031 C 
ATOM     58  C   UNL A   1      38.021  28.354  31.161  1.00  0.00     0.029 A 
ATOM     59  C   UNL A   1      38.915  29.490  31.265  1.00  0.00     0.049 A 
ATOM     60  H   UNL A   1      40.898  29.580  30.608  1.00  0.00     0.167 HD
ATOM     61  C   UNL A   1      44.580  30.059  28.213  1.00  0.00     0.031 A 
ATOM     62  C   UNL A   1      38.715  30.713  31.818  1.00  0.00     0.031 A 
ATOM     63  C   UNL A   1      45.081  29.714  29.523  1.00  0.00     0.049 A 
ATOM     64  C   UNL A   1      40.067  31.289  32.055  1.00  0.00     0.074 A 
ATOM     65  C   UNL A   1      45.612  28.567  30.082  1.00  0.00     0.029 A 
ATOM     66  N   UNL A   1      44.648  30.483  30.582  1.00  0.00    -0.354 N 
ATOM     67  N   UNL A   1      40.923  30.767  32.894  1.00  0.00    -0.248 NA
ATOM     68  C   UNL A   1      40.652  32.110  31.004  1.00  0.00     0.031 C 
ATOM     69  C   UNL A   1      45.004  28.479  31.370  1.00  0.00     0.029 A 
ATOM     70  C   UNL A   1      44.220  29.620  31.560  1.00  0.00     0.049 A 
ATOM     71  H   UNL A   1      44.647  31.467  30.629  1.00  0.00     0.167 HD
ATOM     72  C   UNL A   1      42.146  30.821  32.239  1.00  0.00     0.074 A 
ATOM     73  C   UNL A   1      41.932  31.740  31.118  1.00  0.00     0.031 C 
ATOM     74  C   UNL A   1      43.131  29.901  32.476  1.00  0.00     0.031 A 
BRANCH  61  75
ATOM     75  C   UNL A   1      44.844  31.411  27.603  1.00  0.00    -0.014 A 
ATOM     76  C   UNL A   1      46.123  31.674  27.072  1.00  0.00     0.010 A 
ATOM     77  C   UNL A   1      43.981  32.512  27.776  1.00  0.00     0.010 A 
ATOM     78  C   UNL A   1      46.540  32.981  26.800  1.00  0.00     0.020 A 
ATOM     79  C   UNL A   1      44.371  33.815  27.465  1.00  0.00     0.020 A 
ATOM     80  C   UNL A   1      45.664  34.045  27.012  1.00  0.00     0.054 A 
BRANCH  80  81
ATOM     81  S   UNL A   1      46.250  35.737  26.764  1.00  0.00     0.124 S 
ATOM     82  O   UNL A   1      45.001  36.493  26.790  1.00  0.00    -0.237 OA
ATOM     83  O   UNL A   1      47.132  35.929  27.912  1.00  0.00    -0.237 OA
ATOM     84  O   UNL A   1      46.922  35.680  25.469  1.00  0.00    -0.744 OA
ENDBRANCH  80  81
ENDBRANCH  61  75
BRANCH  62  85
ATOM     85  C   UNL A   1      37.459  31.508  31.815  1.00  0.00    -0.014 A 
ATOM     86  C   UNL A   1      36.683  31.645  32.980  1.00  0.00     0.010 A 
ATOM     87  C   UNL A   1      37.160  32.362  30.731  1.00  0.00     0.010 A 
ATOM     88  C   UNL A   1      35.696  32.645  33.082  1.00  0.00     0.020 A 
ATOM     89  C   UNL A   1      36.176  33.354  30.822  1.00  0.00     0.020 A 
ATOM     90  C   UNL A   1      35.466  33.510  32.008  1.00  0.00     0.054 A 
BRANCH  90  91
ATOM     91  S   UNL A   1      34.335  34.920  32.215  1.00  0.00     0.124 S 
ATOM     92  O   UNL A   1      33.213  34.318  32.928  1.00  0.00    -0.237 OA
ATOM     93  O   UNL A   1      35.141  35.863  32.985  1.00  0.00    -0.237 OA
ATOM     94  O   UNL A   1      34.047  35.335  30.843  1.00  0.00    -0.744 OA
ENDBRANCH  90  91
ENDBRANCH  62  85
BRANCH  74  95
ATOM     95  C   UNL A   1      42.979  28.939  33.637  1.00  0.00    -0.014 A 
ATOM     96  C   UNL A   1      43.495  29.173  34.928  1.00  0.00     0.010 A 
ATOM     97  C   UNL A   1      42.119  27.840  33.456  1.00  0.00     0.010 A 
ATOM     98  C   UNL A   1      43.177  28.318  35.997  1.00  0.00     0.020 A 
ATOM     99  C   UNL A   1      41.783  26.997  34.518  1.00  0.00     0.020 A 
ATOM    100  C   UNL A   1      42.321  27.233  35.783  1.00  0.00     0.054 A 
BRANCH 100 101
ATOM    101  S   UNL A   1      41.877  26.152  37.172  1.00  0.00     0.124 S 
ATOM    102  O   UNL A   1      41.849  24.831  36.550  1.00  0.00    -0.237 OA
ATOM    103  O   UNL A   1      42.964  26.377  38.122  1.00  0.00    -0.237 OA
ATOM    104  O   UNL A   1      40.574  26.657  37.605  1.00  0.00    -0.744 OA
ENDBRANCH 100 101
ENDBRANCH  74  95
ENDBRANCH  48  49
ENDBRANCH  40  43
ENDBRANCH  38  39
ENDBRANCH   1  38
TORSDOF 17
ENDMDL
MODEL 2
REMARK VINA RESULT:     -13.6      3.408      9.745
REMARK SMILES COc1cc([C@@H]2CC(=O)Nc3c(C(=O)NCCCNC(=O)c4ccc(-c5c6nc(c(-c7ccc(S(=O)(=O)[O-])cc7)c7ccc([nH]7)c(-c7ccc(S(=O)(=O)[O-])cc7)c7nc(c(-c8ccc(S(=O)(=O)[O-])cc8)c8ccc5[nH]8)C=C7)C=C6)cc4)cn(-c4ccc(F)cc4)c32)c(OC)c2c1OCO2
REMARK SMILES IDX 17 1 16 2 15 3 13 4 14 5 12 7 6 8 7 9 91 10 8 11 11 12 83 13
REMARK SMILES IDX 9 14 10 15 82 16 5 18 3 19 4 20 96 21 95 22 97 23 92 24
REMARK SMILES IDX 99 25 98 26 2 27 1 28 93 29 94 30 84 31 85 32 90 33 86 34
REMARK SMILES IDX 89 35 87 36 88 37 18 38 19 39 20 40 21 42 22 43 23 44 81 45
REMARK SMILES IDX 24 46 80 47 25 48 26 49 27 50 74 51 28 52 79 53 73 54 75 55
REMARK SMILES IDX 29 56 78 57 72 58 71 59 30 61 60 62 41 63 59 64 42 65 45 66
REMARK SMILES IDX 58 67 76 68 43 69 44 70 57 72 77 73 46 74 31 75 32 76 40 77
REMARK SMILES IDX 33 78 39 79 34 80 35 81 36 82 37 83 38 84 61 85 62 86 70 87
REMARK SMILES IDX 63 88 69 89 64 90 65 91 66 92 67 93 68 94 47 95 48 96 56 97
REMARK SMILES IDX 49 98 55 99 50 100 51 101 52 102 53 103 54 104
REMARK H PARENT 15 6 10 17 19 41 75 60 45 71
REMARK Flexibility Score: inf
ROOT
ATOM      1  C   UNL A   1      32.892  29.339  26.474  1.00  0.00     0.042 C 
ENDROOT
BRANCH   1   2
ATOM      2  C   UNL A   1      33.392  27.892  26.319  1.00  0.00     0.118 C 
BRANCH   2   3
ATOM      3  N   UNL A   1      33.628  27.539  24.938  1.00  0.00    -0.352 N 
ATOM      4  C   UNL A   1      33.847  26.354  24.287  1.00  0.00     0.254 C 
ATOM      5  O   UNL A   1      33.900  26.449  23.056  1.00  0.00    -0.269 OA
ATOM      6  H   UNL A   1      33.633  28.317  24.336  1.00  0.00     0.163 HD
BRANCH   4   7
ATOM      7  C   UNL A   1      33.973  25.038  24.931  1.00  0.00     0.081 A 
ATOM      8  C   UNL A   1      33.258  21.764  26.579  1.00  0.00     0.082 C 
ATOM      9  C   UNL A   1      32.120  22.175  27.513  1.00  0.00     0.115 C 
ATOM     10  C   UNL A   1      33.845  22.973  25.903  1.00  0.00     0.055 A 
ATOM     11  C   UNL A   1      31.256  23.262  26.934  1.00  0.00     0.225 C 
ATOM     12  C   UNL A   1      33.155  24.145  25.687  1.00  0.00     0.076 A 
ATOM     13  N   UNL A   1      35.117  23.124  25.405  1.00  0.00    -0.317 N 
ATOM     14  O   UNL A   1      30.069  23.389  27.235  1.00  0.00    -0.275 OA
ATOM     15  N   UNL A   1      31.865  24.199  26.148  1.00  0.00    -0.324 N 
ATOM     16  C   UNL A   1      35.210  24.385  24.880  1.00  0.00     0.107 A 
ATOM     17  H   UNL A   1      31.329  24.984  25.891  1.00  0.00     0.170 HD
BRANCH   8  18
ATOM     18  C   UNL A   1      32.847  20.659  25.600  1.00  0.00     0.012 A 
ATOM     19  C   UNL A   1      33.106  18.271  25.109  1.00  0.00     0.165 A 
ATOM     20  C   UNL A   1      33.118  19.331  26.013  1.00  0.00     0.059 A 
ATOM     21  C   UNL A   1      32.731  18.543  23.808  1.00  0.00     0.211 A 
ATOM     22  C   UNL A   1      32.353  19.813  23.413  1.00  0.00     0.211 A 
ATOM     23  O   UNL A   1      32.683  17.651  22.778  1.00  0.00    -0.449 OA
ATOM     24  C   UNL A   1      32.376  20.893  24.285  1.00  0.00     0.168 A 
ATOM     25  O   UNL A   1      32.016  19.844  22.090  1.00  0.00    -0.449 OA
ATOM     26  C   UNL A   1      32.263  18.490  21.693  1.00  0.00     0.468 C 
BRANCH  19  27
ATOM     27  O   UNL A   1      33.505  17.069  25.614  1.00  0.00    -0.493 OA
ATOM     28  C   UNL A   1      32.468  16.101  25.732  1.00  0.00     0.278 C 
ENDBRANCH  19  27
BRANCH  24  29
ATOM     29  O   UNL A   1      31.993  22.163  23.982  1.00  0.00    -0.492 OA
ATOM     30  C   UNL A   1      32.292  22.704  22.704  1.00  0.00     0.278 C 
ENDBRANCH  24  29
ENDBRANCH   8  18
BRANCH  13  31
ATOM     31  C   UNL A   1      36.161  22.176  25.433  1.00  0.00     0.046 A 
ATOM     32  C   UNL A   1      37.419  22.554  25.906  1.00  0.00     0.029 A 
ATOM     33  C   UNL A   1      35.944  20.892  24.929  1.00  0.00     0.029 A 
ATOM     34  C   UNL A   1      38.501  21.690  25.765  1.00  0.00     0.041 A 
ATOM     35  C   UNL A   1      37.033  20.026  24.797  1.00  0.00     0.041 A 
ATOM     36  C   UNL A   1      38.303  20.442  25.191  1.00  0.00     0.123 A 
ATOM     37  F   UNL A   1      39.352  19.629  25.016  1.00  0.00    -0.207 F 
ENDBRANCH  13  31
ENDBRANCH   4   7
ENDBRANCH   2   3
ENDBRANCH   1   2
BRANCH   1  38
ATOM     38  C   UNL A   1      33.452  30.035  27.689  1.00  0.00     0.118 C 
BRANCH  38  39
ATOM     39  N   UNL A   1      33.955  31.374  27.341  1.00  0.00    -0.352 N 
ATOM     40  C   UNL A   1      35.145  31.970  27.712  1.00  0.00     0.251 C 
ATOM     41  H   UNL A   1      33.365  31.916  26.768  1.00  0.00     0.163 HD
ATOM     42  O   UNL A   1      35.286  33.189  27.662  1.00  0.00    -0.269 OA
BRANCH  40  43
ATOM     43  C   UNL A   1      36.228  31.095  28.168  1.00  0.00     0.039 A 
ATOM     44  C   UNL A   1      36.428  29.809  27.663  1.00  0.00     0.014 A 
ATOM     45  C   UNL A   1      37.141  31.679  29.032  1.00  0.00     0.014 A 
ATOM     46  C   UNL A   1      37.619  29.160  27.981  1.00  0.00     0.010 A 
ATOM     47  C   UNL A   1      38.404  31.181  29.065  1.00  0.00     0.010 A 
ATOM     48  C   UNL A   1      38.614  29.872  28.666  1.00  0.00    -0.014 A 
BRANCH  48  49
ATOM     49  C   UNL A   1      39.923  29.317  28.958  1.00  0.00     0.031 A 
ATOM     50  C   UNL A   1      40.209  29.111  30.397  1.00  0.00     0.074 A 
ATOM     51  C   UNL A   1      40.721  28.814  27.991  1.00  0.00     0.049 A 
ATOM     52  N   UNL A   1      40.982  29.826  31.140  1.00  0.00    -0.248 NA
ATOM     53  C   UNL A   1      39.434  28.103  31.137  1.00  0.00     0.031 C 
ATOM     54  C   UNL A   1      40.449  28.633  26.555  1.00  0.00     0.029 A 
ATOM     55  N   UNL A   1      41.927  28.217  28.128  1.00  0.00    -0.354 N 
ATOM     56  C   UNL A   1      40.986  29.214  32.387  1.00  0.00     0.074 A 
ATOM     57  C   UNL A   1      39.867  28.304  32.385  1.00  0.00     0.031 C 
ATOM     58  C   UNL A   1      41.321  27.741  26.036  1.00  0.00     0.029 A 
ATOM     59  C   UNL A   1      42.325  27.449  27.041  1.00  0.00     0.049 A 
ATOM     60  H   UNL A   1      42.482  28.318  28.936  1.00  0.00     0.167 HD
ATOM     61  C   UNL A   1      42.059  29.313  33.220  1.00  0.00     0.031 A 
ATOM     62  C   UNL A   1      43.387  26.605  26.997  1.00  0.00     0.031 A 
ATOM     63  C   UNL A   1      43.009  30.292  32.746  1.00  0.00     0.049 A 
ATOM     64  C   UNL A   1      44.309  27.040  28.081  1.00  0.00     0.074 A 
ATOM     65  C   UNL A   1      42.937  31.638  32.442  1.00  0.00     0.029 A 
ATOM     66  N   UNL A   1      44.124  29.817  32.088  1.00  0.00    -0.354 N 
ATOM     67  N   UNL A   1      44.908  28.201  28.078  1.00  0.00    -0.248 NA
ATOM     68  C   UNL A   1      44.160  26.423  29.391  1.00  0.00     0.031 C 
ATOM     69  C   UNL A   1      43.680  31.774  31.231  1.00  0.00     0.029 A 
ATOM     70  C   UNL A   1      44.242  30.532  30.923  1.00  0.00     0.049 A 
ATOM     71  H   UNL A   1      44.724  29.100  32.397  1.00  0.00     0.167 HD
ATOM     72  C   UNL A   1      44.814  28.657  29.387  1.00  0.00     0.074 A 
ATOM     73  C   UNL A   1      44.425  27.479  30.168  1.00  0.00     0.031 C 
ATOM     74  C   UNL A   1      44.766  29.992  29.683  1.00  0.00     0.031 A 
BRANCH  61  75
ATOM     75  C   UNL A   1      42.452  28.260  34.222  1.00  0.00    -0.014 A 
ATOM     76  C   UNL A   1      42.627  28.640  35.568  1.00  0.00     0.010 A 
ATOM     77  C   UNL A   1      42.918  26.982  33.850  1.00  0.00     0.010 A 
ATOM     78  C   UNL A   1      43.301  27.813  36.474  1.00  0.00     0.020 A 
ATOM     79  C   UNL A   1      43.550  26.131  34.756  1.00  0.00     0.020 A 
ATOM     80  C   UNL A   1      43.771  26.569  36.056  1.00  0.00     0.054 A 
BRANCH  80  81
ATOM     81  S   UNL A   1      44.737  25.557  37.202  1.00  0.00     0.124 S 
ATOM     82  O   UNL A   1      44.111  25.876  38.482  1.00  0.00    -0.237 OA
ATOM     83  O   UNL A   1      44.498  24.208  36.698  1.00  0.00    -0.237 OA
ATOM     84  O   UNL A   1      46.100  26.052  37.029  1.00  0.00    -0.744 OA
ENDBRANCH  80  81
ENDBRANCH  61  75
BRANCH  62  85
ATOM     85  C   UNL A   1      43.457  25.282  26.322  1.00  0.00    -0.014 A 
ATOM     86  C   UNL A   1      44.278  25.083  25.198  1.00  0.00     0.010 A 
ATOM     87  C   UNL A   1      42.924  24.134  26.949  1.00  0.00     0.010 A 
ATOM     88  C   UNL A   1      44.611  23.786  24.761  1.00  0.00     0.020 A 
ATOM     89  C   UNL A   1      43.244  22.841  26.516  1.00  0.00     0.020 A 
ATOM     90  C   UNL A   1      44.110  22.671  25.440  1.00  0.00     0.054 A 
BRANCH  90  91
ATOM     91  S   UNL A   1      44.698  21.008  24.997  1.00  0.00     0.124 S 
ATOM     92  O   UNL A   1      46.057  21.005  25.530  1.00  0.00    -0.237 OA
ATOM     93  O   UNL A   1      43.747  20.141  25.686  1.00  0.00    -0.237 OA
ATOM     94  O   UNL A   1      44.604  20.987  23.538  1.00  0.00    -0.744 OA
ENDBRANCH  90  91
ENDBRANCH  62  85
BRANCH  74  95
ATOM     95  C   UNL A   1      45.050  31.001  28.590  1.00  0.00    -0.014 A 
ATOM     96  C   UNL A   1      44.095  31.434  27.648  1.00  0.00     0.010 A 
ATOM     97  C   UNL A   1      46.285  31.674  28.637  1.00  0.00     0.010 A 
ATOM     98  C   UNL A   1      44.379  32.491  26.766  1.00  0.00     0.020 A 
ATOM     99  C   UNL A   1      46.568  32.738  27.776  1.00  0.00     0.020 A 
ATOM    100  C   UNL A   1      45.617  33.136  26.837  1.00  0.00     0.054 A 
BRANCH 100 101
ATOM    101  S   UNL A   1      45.969  34.529  25.727  1.00  0.00     0.124 S 
ATOM    102  O   UNL A   1      47.397  34.371  25.463  1.00  0.00    -0.237 OA
ATOM    103  O   UNL A   1      45.088  34.272  24.591  1.00  0.00    -0.237 OA
ATOM    104  O   UNL A   1      45.616  35.707  26.520  1.00  0.00    -0.744 OA
ENDBRANCH 100 101
ENDBRANCH  74  95
ENDBRANCH  48  49
ENDBRANCH  40  43
ENDBRANCH  38  39
ENDBRANCH   1  38
TORSDOF 17
ENDMDL
MODEL 3
REMARK VINA RESULT:     -13.3      2.680      6.797
REMARK SMILES COc1cc([C@@H]2CC(=O)Nc3c(C(=O)NCCCNC(=O)c4ccc(-c5c6nc(c(-c7ccc(S(=O)(=O)[O-])cc7)c7ccc([nH]7)c(-c7ccc(S(=O)(=O)[O-])cc7)c7nc(c(-c8ccc(S(=O)(=O)[O-])cc8)c8ccc5[nH]8)C=C7)C=C6)cc4)cn(-c4ccc(F)cc4)c32)c(OC)c2c1OCO2
REMARK SMILES IDX 17 1 16 2 15 3 13 4 14 5 12 7 6 8 7 9 91 10 8 11 11 12 83 13
REMARK SMILES IDX 9 14 10 15 82 16 5 18 3 19 4 20 96 21 95 22 97 23 92 24
REMARK SMILES IDX 99 25 98 26 2 27 1 28 93 29 94 30 84 31 85 32 90 33 86 34
REMARK SMILES IDX 89 35 87 36 88 37 18 38 19 39 20 40 21 42 22 43 23 44 81 45
REMARK SMILES IDX 24 46 80 47 25 48 26 49 27 50 74 51 28 52 79 53 73 54 75 55
REMARK SMILES IDX 29 56 78 57 72 58 71 59 30 61 60 62 41 63 59 64 42 65 45 66
REMARK SMILES IDX 58 67 76 68 43 69 44 70 57 72 77 73 46 74 31 75 32 76 40 77
REMARK SMILES IDX 33 78 39 79 34 80 35 81 36 82 37 83 38 84 61 85 62 86 70 87
REMARK SMILES IDX 63 88 69 89 64 90 65 91 66 92 67 93 68 94 47 95 48 96 56 97
REMARK SMILES IDX 49 98 55 99 50 100 51 101 52 102 53 103 54 104
REMARK H PARENT 15 6 10 17 19 41 75 60 45 71
REMARK Flexibility Score: inf
ROOT
ATOM      1  C   UNL A   1      36.948  20.991  24.702  1.00  0.00     0.042 C 
ENDROOT
BRANCH   1   2
ATOM      2  C   UNL A   1      36.051  22.240  24.628  1.00  0.00     0.118 C 
BRANCH   2   3
ATOM      3  N   UNL A   1      35.151  22.335  25.754  1.00  0.00    -0.352 N 
ATOM      4  C   UNL A   1      34.201  23.245  26.134  1.00  0.00     0.254 C 
ATOM      5  O   UNL A   1      33.547  22.917  27.130  1.00  0.00    -0.269 OA
ATOM      6  H   UNL A   1      35.240  21.584  26.384  1.00  0.00     0.163 HD
BRANCH   4   7
ATOM      7  C   UNL A   1      33.899  24.505  25.437  1.00  0.00     0.081 A 
ATOM      8  C   UNL A   1      32.856  27.050  22.910  1.00  0.00     0.082 C 
ATOM      9  C   UNL A   1      33.418  26.414  21.639  1.00  0.00     0.115 C 
ATOM     10  C   UNL A   1      33.296  26.275  24.124  1.00  0.00     0.055 A 
ATOM     11  C   UNL A   1      33.389  24.910  21.679  1.00  0.00     0.225 C 
ATOM     12  C   UNL A   1      33.638  24.942  24.103  1.00  0.00     0.076 A 
ATOM     13  N   UNL A   1      33.436  26.737  25.410  1.00  0.00    -0.317 N 
ATOM     14  O   UNL A   1      33.303  24.227  20.658  1.00  0.00    -0.275 OA
ATOM     15  N   UNL A   1      33.590  24.308  22.888  1.00  0.00    -0.324 N 
ATOM     16  C   UNL A   1      33.860  25.688  26.183  1.00  0.00     0.107 A 
ATOM     17  H   UNL A   1      33.714  23.331  22.886  1.00  0.00     0.170 HD
BRANCH   8  18
ATOM     18  C   UNL A   1      31.339  27.263  22.842  1.00  0.00     0.012 A 
ATOM     19  C   UNL A   1      29.608  28.949  22.430  1.00  0.00     0.165 A 
ATOM     20  C   UNL A   1      30.909  28.481  22.261  1.00  0.00     0.059 A 
ATOM     21  C   UNL A   1      28.720  28.138  23.110  1.00  0.00     0.211 A 
ATOM     22  C   UNL A   1      29.091  26.894  23.586  1.00  0.00     0.211 A 
ATOM     23  O   UNL A   1      27.419  28.429  23.398  1.00  0.00    -0.449 OA
ATOM     24  C   UNL A   1      30.386  26.411  23.452  1.00  0.00     0.168 A 
ATOM     25  O   UNL A   1      28.052  26.270  24.214  1.00  0.00    -0.449 OA
ATOM     26  C   UNL A   1      27.018  27.258  24.123  1.00  0.00     0.468 C 
BRANCH  19  27
ATOM     27  O   UNL A   1      29.364  30.191  21.924  1.00  0.00    -0.493 OA
ATOM     28  C   UNL A   1      29.072  31.183  22.901  1.00  0.00     0.278 C 
ENDBRANCH  19  27
BRANCH  24  29
ATOM     29  O   UNL A   1      30.822  25.190  23.866  1.00  0.00    -0.492 OA
ATOM     30  C   UNL A   1      30.295  24.014  23.271  1.00  0.00     0.278 C 
ENDBRANCH  24  29
ENDBRANCH   8  18
BRANCH  13  31
ATOM     31  C   UNL A   1      33.209  28.049  25.874  1.00  0.00     0.046 A 
ATOM     32  C   UNL A   1      34.300  28.863  26.191  1.00  0.00     0.029 A 
ATOM     33  C   UNL A   1      31.902  28.498  26.073  1.00  0.00     0.029 A 
ATOM     34  C   UNL A   1      34.092  30.084  26.824  1.00  0.00     0.041 A 
ATOM     35  C   UNL A   1      31.700  29.729  26.702  1.00  0.00     0.041 A 
ATOM     36  C   UNL A   1      32.794  30.497  27.095  1.00  0.00     0.123 A 
ATOM     37  F   UNL A   1      32.597  31.652  27.742  1.00  0.00    -0.207 F 
ENDBRANCH  13  31
ENDBRANCH   4   7
ENDBRANCH   2   3
ENDBRANCH   1   2
BRANCH   1  38
ATOM     38  C   UNL A   1      38.258  21.241  25.404  1.00  0.00     0.118 C 
BRANCH  38  39
ATOM     39  N   UNL A   1      39.004  19.985  25.583  1.00  0.00    -0.352 N 
ATOM     40  C   UNL A   1      40.344  19.813  25.875  1.00  0.00     0.251 C 
ATOM     41  H   UNL A   1      38.479  19.157  25.484  1.00  0.00     0.163 HD
ATOM     42  O   UNL A   1      40.911  18.748  25.648  1.00  0.00    -0.269 OA
BRANCH  40  43
ATOM     43  C   UNL A   1      41.061  20.949  26.461  1.00  0.00     0.039 A 
ATOM     44  C   UNL A   1      41.763  21.879  25.695  1.00  0.00     0.014 A 
ATOM     45  C   UNL A   1      40.875  21.131  27.823  1.00  0.00     0.014 A 
ATOM     46  C   UNL A   1      42.199  23.045  26.319  1.00  0.00     0.010 A 
ATOM     47  C   UNL A   1      41.015  22.385  28.328  1.00  0.00     0.010 A 
ATOM     48  C   UNL A   1      41.793  23.297  27.638  1.00  0.00    -0.014 A 
BRANCH  48  49
ATOM     49  C   UNL A   1      42.113  24.526  28.341  1.00  0.00     0.031 A 
ATOM     50  C   UNL A   1      41.114  25.609  28.196  1.00  0.00     0.074 A 
ATOM     51  C   UNL A   1      43.119  24.597  29.242  1.00  0.00     0.049 A 
ATOM     52  N   UNL A   1      41.226  26.671  27.474  1.00  0.00    -0.248 NA
ATOM     53  C   UNL A   1      39.777  25.426  28.783  1.00  0.00     0.031 C 
ATOM     54  C   UNL A   1      43.992  23.527  29.754  1.00  0.00     0.029 A 
ATOM     55  N   UNL A   1      43.484  25.650  30.007  1.00  0.00    -0.354 N 
ATOM     56  C   UNL A   1      40.076  27.414  27.706  1.00  0.00     0.074 A 
ATOM     57  C   UNL A   1      39.143  26.513  28.337  1.00  0.00     0.031 C 
ATOM     58  C   UNL A   1      44.566  23.924  30.911  1.00  0.00     0.029 A 
ATOM     59  C   UNL A   1      44.266  25.328  31.109  1.00  0.00     0.049 A 
ATOM     60  H   UNL A   1      43.216  26.576  29.800  1.00  0.00     0.167 HD
ATOM     61  C   UNL A   1      40.078  28.772  27.598  1.00  0.00     0.031 A 
ATOM     62  C   UNL A   1      44.603  26.159  32.127  1.00  0.00     0.031 A 
ATOM     63  C   UNL A   1      41.300  29.254  26.999  1.00  0.00     0.049 A 
ATOM     64  C   UNL A   1      44.446  27.543  31.604  1.00  0.00     0.074 A 
ATOM     65  C   UNL A   1      41.950  29.013  25.803  1.00  0.00     0.029 A 
ATOM     66  N   UNL A   1      42.258  29.764  27.851  1.00  0.00    -0.354 N 
ATOM     67  N   UNL A   1      45.178  28.022  30.634  1.00  0.00    -0.248 NA
ATOM     68  C   UNL A   1      43.161  28.201  31.793  1.00  0.00     0.031 C 
ATOM     69  C   UNL A   1      43.326  28.894  26.159  1.00  0.00     0.029 A 
ATOM     70  C   UNL A   1      43.449  29.166  27.524  1.00  0.00     0.049 A 
ATOM     71  H   UNL A   1      42.113  30.431  28.560  1.00  0.00     0.167 HD
ATOM     72  C   UNL A   1      44.290  28.721  29.825  1.00  0.00     0.074 A 
ATOM     73  C   UNL A   1      43.081  28.872  30.639  1.00  0.00     0.031 C 
ATOM     74  C   UNL A   1      44.495  28.855  28.479  1.00  0.00     0.031 A 
BRANCH  61  75
ATOM     75  C   UNL A   1      39.179  29.685  28.390  1.00  0.00    -0.014 A 
ATOM     76  C   UNL A   1      37.893  29.969  27.888  1.00  0.00     0.010 A 
ATOM     77  C   UNL A   1      39.642  30.481  29.457  1.00  0.00     0.010 A 
ATOM     78  C   UNL A   1      37.144  31.044  28.378  1.00  0.00     0.020 A 
ATOM     79  C   UNL A   1      38.885  31.527  29.984  1.00  0.00     0.020 A 
ATOM     80  C   UNL A   1      37.653  31.825  29.415  1.00  0.00     0.054 A 
BRANCH  80  81
ATOM     81  S   UNL A   1      36.728  33.278  29.966  1.00  0.00     0.124 S 
ATOM     82  O   UNL A   1      36.637  33.047  31.404  1.00  0.00    -0.237 OA
ATOM     83  O   UNL A   1      37.600  34.373  29.553  1.00  0.00    -0.237 OA
ATOM     84  O   UNL A   1      35.468  33.179  29.232  1.00  0.00    -0.744 OA
ENDBRANCH  80  81
ENDBRANCH  61  75
BRANCH  62  85
ATOM     85  C   UNL A   1      44.702  25.819  33.571  1.00  0.00    -0.014 A 
ATOM     86  C   UNL A   1      45.904  25.995  34.279  1.00  0.00     0.010 A 
ATOM     87  C   UNL A   1      43.533  25.575  34.326  1.00  0.00     0.010 A 
ATOM     88  C   UNL A   1      45.925  25.999  35.687  1.00  0.00     0.020 A 
ATOM     89  C   UNL A   1      43.547  25.570  35.727  1.00  0.00     0.020 A 
ATOM     90  C   UNL A   1      44.739  25.811  36.403  1.00  0.00     0.054 A 
BRANCH  90  91
ATOM     91  S   UNL A   1      44.737  26.014  38.210  1.00  0.00     0.124 S 
ATOM     92  O   UNL A   1      45.023  24.662  38.677  1.00  0.00    -0.237 OA
ATOM     93  O   UNL A   1      45.800  26.994  38.421  1.00  0.00    -0.237 OA
ATOM     94  O   UNL A   1      43.389  26.499  38.501  1.00  0.00    -0.744 OA
ENDBRANCH  90  91
ENDBRANCH  62  85
BRANCH  74  95
ATOM     95  C   UNL A   1      45.825  28.434  27.889  1.00  0.00    -0.014 A 
ATOM     96  C   UNL A   1      46.094  27.143  27.390  1.00  0.00     0.010 A 
ATOM     97  C   UNL A   1      46.780  29.443  27.664  1.00  0.00     0.010 A 
ATOM     98  C   UNL A   1      47.293  26.868  26.709  1.00  0.00     0.020 A 
ATOM     99  C   UNL A   1      47.965  29.182  26.972  1.00  0.00     0.020 A 
ATOM    100  C   UNL A   1      48.221  27.893  26.505  1.00  0.00     0.054 A 
BRANCH 100 101
ATOM    101  S   UNL A   1      49.751  27.548  25.589  1.00  0.00     0.124 S 
ATOM    102  O   UNL A   1      49.387  27.903  24.219  1.00  0.00    -0.237 OA
ATOM    103  O   UNL A   1      50.721  28.431  26.231  1.00  0.00    -0.237 OA
ATOM    104  O   UNL A   1      49.980  26.121  25.815  1.00  0.00    -0.744 OA
ENDBRANCH 100 101
ENDBRANCH  74  95
ENDBRANCH  48  49
ENDBRANCH  40  43
ENDBRANCH  38  39
ENDBRANCH   1  38
TORSDOF 17
ENDMDL
