MODEL 1
REMARK VINA RESULT:     -11.0      0.000      0.000
REMARK SMILES O=C(NCCCNC(=O)[C@@H]1CC(=O)N(CCS(=O)(=O)c2ccc(F)cc2)C1)c1ccc(-c2c3nc(c(-c4ccc(S(=O)(=O)[O-])cc4)c4ccc([nH]4)c(-c4ccc(S(=O)(=O)[O-])cc4)c4nc(c(-c5ccc(S(=O)(=O)[O-])cc5)c5ccc2[nH]5)C=C4)C=C3)cc1
REMARK SMILES IDX 5 1 4 2 3 3 1 4 2 5 28 7 29 8 87 9 30 10 86 11 31 12 32 13
REMARK SMILES IDX 33 14 80 15 34 16 85 17 79 18 81 19 35 20 84 21 78 22 77 23
REMARK SMILES IDX 36 25 66 26 47 27 65 28 48 29 51 30 64 31 82 32 49 33 50 34
REMARK SMILES IDX 63 36 83 37 52 38 37 39 38 40 46 41 39 42 45 43 40 44 41 45
REMARK SMILES IDX 42 46 43 47 44 48 67 49 68 50 76 51 69 52 75 53 70 54 71 55
REMARK SMILES IDX 72 56 73 57 74 58 53 59 54 60 62 61 55 62 61 63 56 64 57 65
REMARK SMILES IDX 58 66 59 67 60 68 6 69 7 70 8 71 9 73 10 74 11 75 27 76
REMARK SMILES IDX 12 77 14 78 13 79 15 80 16 81 17 82 18 83 19 84 20 85 21 86
REMARK SMILES IDX 26 87 22 88 25 89 23 90 24 91
REMARK H PARENT 3 6 81 24 51 35 7 72
REMARK Flexibility Score: inf
ROOT
ATOM      1  C   UNL A   1      38.189  19.402  25.032  1.00  0.00     0.042 C 
ENDROOT
BRANCH   1   2
ATOM      2  C   UNL A   1      39.307  20.036  25.850  1.00  0.00     0.118 C 
BRANCH   2   3
ATOM      3  N   UNL A   1      40.448  19.152  26.038  1.00  0.00    -0.352 N 
ATOM      4  O   UNL A   1      42.592  18.519  26.221  1.00  0.00    -0.269 OA
ATOM      5  C   UNL A   1      41.773  19.434  26.261  1.00  0.00     0.251 C 
ATOM      6  H   UNL A   1      40.234  18.192  26.001  1.00  0.00     0.163 HD
BRANCH   5   7
ATOM      7  C   UNL A   1      42.222  20.817  26.531  1.00  0.00     0.039 A 
ATOM      8  C   UNL A   1      42.320  21.304  27.835  1.00  0.00     0.014 A 
ATOM      9  C   UNL A   1      42.613  21.624  25.456  1.00  0.00     0.014 A 
ATOM     10  C   UNL A   1      42.682  22.629  28.059  1.00  0.00     0.010 A 
ATOM     11  C   UNL A   1      43.062  22.928  25.689  1.00  0.00     0.010 A 
ATOM     12  C   UNL A   1      43.083  23.448  26.991  1.00  0.00    -0.014 A 
BRANCH  12  13
ATOM     13  C   UNL A   1      43.626  24.802  27.269  1.00  0.00     0.031 A 
ATOM     14  C   UNL A   1      42.734  25.926  27.717  1.00  0.00     0.074 A 
ATOM     15  C   UNL A   1      44.947  25.012  27.096  1.00  0.00     0.049 A 
ATOM     16  N   UNL A   1      43.050  27.168  27.980  1.00  0.00    -0.248 NA
ATOM     17  C   UNL A   1      41.304  25.623  27.890  1.00  0.00     0.031 C 
ATOM     18  C   UNL A   1      45.910  23.997  26.651  1.00  0.00     0.029 A 
ATOM     19  N   UNL A   1      45.713  26.136  27.272  1.00  0.00    -0.354 N 
ATOM     20  C   UNL A   1      41.863  27.803  28.323  1.00  0.00     0.074 A 
ATOM     21  C   UNL A   1      40.813  26.811  28.224  1.00  0.00     0.031 C 
ATOM     22  C   UNL A   1      47.135  24.538  26.616  1.00  0.00     0.029 A 
ATOM     23  C   UNL A   1      47.040  25.950  26.965  1.00  0.00     0.049 A 
ATOM     24  H   UNL A   1      45.346  26.993  27.588  1.00  0.00     0.167 HD
ATOM     25  C   UNL A   1      41.670  29.094  28.683  1.00  0.00     0.031 A 
ATOM     26  C   UNL A   1      48.064  26.823  26.927  1.00  0.00     0.031 A 
ATOM     27  C   UNL A   1      42.723  30.073  28.778  1.00  0.00     0.049 A 
ATOM     28  C   UNL A   1      47.810  28.259  27.288  1.00  0.00     0.074 A 
ATOM     29  C   UNL A   1      42.635  31.389  29.195  1.00  0.00     0.029 A 
ATOM     30  N   UNL A   1      44.048  29.851  28.434  1.00  0.00    -0.354 N 
ATOM     31  N   UNL A   1      46.693  28.819  27.685  1.00  0.00    -0.248 NA
ATOM     32  C   UNL A   1      48.950  29.179  27.196  1.00  0.00     0.031 C 
ATOM     33  C   UNL A   1      43.890  31.984  29.035  1.00  0.00     0.029 A 
ATOM     34  C   UNL A   1      44.777  31.019  28.585  1.00  0.00     0.049 A 
ATOM     35  H   UNL A   1      44.418  28.991  28.130  1.00  0.00     0.167 HD
ATOM     36  C   UNL A   1      46.999  30.157  27.903  1.00  0.00     0.074 A 
ATOM     37  C   UNL A   1      48.411  30.314  27.621  1.00  0.00     0.031 C 
ATOM     38  C   UNL A   1      46.182  31.163  28.297  1.00  0.00     0.031 A 
BRANCH  25  39
ATOM     39  C   UNL A   1      40.263  29.552  28.971  1.00  0.00    -0.014 A 
ATOM     40  C   UNL A   1      39.881  29.993  30.250  1.00  0.00     0.010 A 
ATOM     41  C   UNL A   1      39.331  29.625  27.917  1.00  0.00     0.010 A 
ATOM     42  C   UNL A   1      38.587  30.476  30.475  1.00  0.00     0.020 A 
ATOM     43  C   UNL A   1      38.046  30.131  28.132  1.00  0.00     0.020 A 
ATOM     44  C   UNL A   1      37.679  30.544  29.414  1.00  0.00     0.054 A 
BRANCH  44  45
ATOM     45  S   UNL A   1      36.022  31.215  29.727  1.00  0.00     0.124 S 
ATOM     46  O   UNL A   1      35.808  30.847  31.124  1.00  0.00    -0.237 OA
ATOM     47  O   UNL A   1      36.204  32.643  29.475  1.00  0.00    -0.237 OA
ATOM     48  O   UNL A   1      35.175  30.518  28.763  1.00  0.00    -0.744 OA
ENDBRANCH  44  45
ENDBRANCH  25  39
BRANCH  26  49
ATOM     49  C   UNL A   1      49.410  26.368  26.483  1.00  0.00    -0.014 A 
ATOM     50  C   UNL A   1      49.833  26.550  25.156  1.00  0.00     0.010 A 
ATOM     51  C   UNL A   1      50.282  25.750  27.400  1.00  0.00     0.010 A 
ATOM     52  C   UNL A   1      51.092  26.098  24.747  1.00  0.00     0.020 A 
ATOM     53  C   UNL A   1      51.553  25.329  27.005  1.00  0.00     0.020 A 
ATOM     54  C   UNL A   1      51.944  25.491  25.676  1.00  0.00     0.054 A 
BRANCH  54  55
ATOM     55  S   UNL A   1      53.583  24.939  25.130  1.00  0.00     0.124 S 
ATOM     56  O   UNL A   1      53.716  25.614  23.842  1.00  0.00    -0.237 OA
ATOM     57  O   UNL A   1      54.452  25.430  26.196  1.00  0.00    -0.237 OA
ATOM     58  O   UNL A   1      53.450  23.486  25.064  1.00  0.00    -0.744 OA
ENDBRANCH  54  55
ENDBRANCH  26  49
BRANCH  38  59
ATOM     59  C   UNL A   1      46.797  32.527  28.467  1.00  0.00    -0.014 A 
ATOM     60  C   UNL A   1      47.407  32.904  29.675  1.00  0.00     0.010 A 
ATOM     61  C   UNL A   1      46.825  33.418  27.378  1.00  0.00     0.010 A 
ATOM     62  C   UNL A   1      48.019  34.153  29.798  1.00  0.00     0.020 A 
ATOM     63  C   UNL A   1      47.462  34.655  27.487  1.00  0.00     0.020 A 
ATOM     64  C   UNL A   1      48.048  35.019  28.700  1.00  0.00     0.054 A 
BRANCH  64  65
ATOM     65  S   UNL A   1      48.910  36.606  28.866  1.00  0.00     0.124 S 
ATOM     66  O   UNL A   1      48.186  37.233  29.968  1.00  0.00    -0.237 OA
ATOM     67  O   UNL A   1      50.280  36.195  29.166  1.00  0.00    -0.237 OA
ATOM     68  O   UNL A   1      48.727  37.238  27.561  1.00  0.00    -0.744 OA
ENDBRANCH  64  65
ENDBRANCH  38  59
ENDBRANCH  12  13
ENDBRANCH   5   7
ENDBRANCH   2   3
ENDBRANCH   1   2
BRANCH   1  69
ATOM     69  C   UNL A   1      36.852  20.126  25.095  1.00  0.00     0.117 C 
BRANCH  69  70
ATOM     70  N   UNL A   1      35.693  19.257  25.015  1.00  0.00    -0.356 N 
ATOM     71  C   UNL A   1      34.365  19.515  24.896  1.00  0.00     0.225 C 
ATOM     72  H   UNL A   1      35.911  18.296  25.053  1.00  0.00     0.163 HD
ATOM     73  O   UNL A   1      33.624  18.553  24.682  1.00  0.00    -0.275 OA
BRANCH  71  74
ATOM     74  C   UNL A   1      33.805  20.892  25.167  1.00  0.00     0.107 C 
ATOM     75  C   UNL A   1      33.718  21.178  26.679  1.00  0.00     0.115 C 
ATOM     76  C   UNL A   1      32.400  21.200  24.681  1.00  0.00     0.133 C 
ATOM     77  C   UNL A   1      32.631  22.213  26.787  1.00  0.00     0.223 C 
ATOM     78  N   UNL A   1      31.952  22.235  25.583  1.00  0.00    -0.341 N 
ATOM     79  O   UNL A   1      32.408  22.924  27.746  1.00  0.00    -0.275 OA
BRANCH  78  80
ATOM     80  C   UNL A   1      30.857  23.141  25.281  1.00  0.00     0.136 C 
BRANCH  80  81
ATOM     81  C   UNL A   1      30.871  23.663  23.850  1.00  0.00     0.163 C 
BRANCH  81  82
ATOM     82  S   UNL A   1      31.947  25.039  23.569  1.00  0.00     0.180 S 
ATOM     83  O   UNL A   1      31.966  25.299  22.139  1.00  0.00    -0.224 OA
ATOM     84  O   UNL A   1      31.555  26.081  24.499  1.00  0.00    -0.224 OA
BRANCH  82  85
ATOM     85  C   UNL A   1      33.622  24.625  24.010  1.00  0.00     0.067 A 
ATOM     86  C   UNL A   1      34.348  23.854  23.088  1.00  0.00     0.023 A 
ATOM     87  C   UNL A   1      34.209  25.008  25.217  1.00  0.00     0.023 A 
ATOM     88  C   UNL A   1      35.636  23.416  23.399  1.00  0.00     0.040 A 
ATOM     89  C   UNL A   1      35.495  24.551  25.530  1.00  0.00     0.040 A 
ATOM     90  C   UNL A   1      36.188  23.748  24.629  1.00  0.00     0.123 A 
ATOM     91  F   UNL A   1      37.393  23.272  24.964  1.00  0.00    -0.207 F 
ENDBRANCH  82  85
ENDBRANCH  81  82
ENDBRANCH  80  81
ENDBRANCH  78  80
ENDBRANCH  71  74
ENDBRANCH  69  70
ENDBRANCH   1  69
TORSDOF 17
ENDMDL
MODEL 2
REMARK VINA RESULT:     -11.0      0.501      8.150
REMARK SMILES O=C(NCCCNC(=O)[C@@H]1CC(=O)N(CCS(=O)(=O)c2ccc(F)cc2)C1)c1ccc(-c2c3nc(c(-c4ccc(S(=O)(=O)[O-])cc4)c4ccc([nH]4)c(-c4ccc(S(=O)(=O)[O-])cc4)c4nc(c(-c5ccc(S(=O)(=O)[O-])cc5)c5ccc2[nH]5)C=C4)C=C3)cc1
REMARK SMILES IDX 5 1 4 2 3 3 1 4 2 5 28 7 29 8 87 9 30 10 86 11 31 12 32 13
REMARK SMILES IDX 33 14 80 15 34 16 85 17 79 18 81 19 35 20 84 21 78 22 77 23
REMARK SMILES IDX 36 25 66 26 47 27 65 28 48 29 51 30 64 31 82 32 49 33 50 34
REMARK SMILES IDX 63 36 83 37 52 38 37 39 38 40 46 41 39 42 45 43 40 44 41 45
REMARK SMILES IDX 42 46 43 47 44 48 67 49 68 50 76 51 69 52 75 53 70 54 71 55
REMARK SMILES IDX 72 56 73 57 74 58 53 59 54 60 62 61 55 62 61 63 56 64 57 65
REMARK SMILES IDX 58 66 59 67 60 68 6 69 7 70 8 71 9 73 10 74 11 75 27 76
REMARK SMILES IDX 12 77 14 78 13 79 15 80 16 81 17 82 18 83 19 84 20 85 21 86
REMARK SMILES IDX 26 87 22 88 25 89 23 90 24 91
REMARK H PARENT 3 6 81 24 51 35 7 72
REMARK Flexibility Score: inf
ROOT
ATOM      1  C   UNL A   1      38.169  19.536  24.961  1.00  0.00     0.042 C 
ENDROOT
BRANCH   1   2
ATOM      2  C   UNL A   1      39.274  20.229  25.747  1.00  0.00     0.118 C 
BRANCH   2   3
ATOM      3  N   UNL A   1      40.348  19.327  26.138  1.00  0.00    -0.352 N 
ATOM      4  O   UNL A   1      42.429  18.642  26.616  1.00  0.00    -0.269 OA
ATOM      5  C   UNL A   1      41.651  19.584  26.487  1.00  0.00     0.251 C 
ATOM      6  H   UNL A   1      40.098  18.376  26.155  1.00  0.00     0.163 HD
BRANCH   5   7
ATOM      7  C   UNL A   1      42.125  20.970  26.690  1.00  0.00     0.039 A 
ATOM      8  C   UNL A   1      42.445  21.445  27.964  1.00  0.00     0.014 A 
ATOM      9  C   UNL A   1      42.314  21.792  25.574  1.00  0.00     0.014 A 
ATOM     10  C   UNL A   1      42.827  22.772  28.136  1.00  0.00     0.010 A 
ATOM     11  C   UNL A   1      42.783  23.099  25.740  1.00  0.00     0.010 A 
ATOM     12  C   UNL A   1      43.027  23.606  27.025  1.00  0.00    -0.014 A 
BRANCH  12  13
ATOM     13  C   UNL A   1      43.596  24.964  27.220  1.00  0.00     0.031 A 
ATOM     14  C   UNL A   1      45.043  25.255  26.935  1.00  0.00     0.074 A 
ATOM     15  C   UNL A   1      42.783  25.940  27.674  1.00  0.00     0.049 A 
ATOM     16  N   UNL A   1      45.694  26.381  27.073  1.00  0.00    -0.248 NA
ATOM     17  C   UNL A   1      45.868  24.143  26.436  1.00  0.00     0.031 C 
ATOM     18  C   UNL A   1      41.361  25.772  27.996  1.00  0.00     0.029 A 
ATOM     19  N   UNL A   1      43.026  27.264  27.942  1.00  0.00    -0.354 N 
ATOM     20  C   UNL A   1      47.007  26.112  26.706  1.00  0.00     0.074 A 
ATOM     21  C   UNL A   1      47.064  24.711  26.349  1.00  0.00     0.031 C 
ATOM     22  C   UNL A   1      40.857  26.948  28.392  1.00  0.00     0.029 A 
ATOM     23  C   UNL A   1      41.927  27.937  28.420  1.00  0.00     0.049 A 
ATOM     24  H   UNL A   1      43.903  27.689  27.806  1.00  0.00     0.167 HD
ATOM     25  C   UNL A   1      48.065  26.959  26.673  1.00  0.00     0.031 A 
ATOM     26  C   UNL A   1      41.797  29.200  28.870  1.00  0.00     0.031 A 
ATOM     27  C   UNL A   1      47.994  28.353  27.031  1.00  0.00     0.049 A 
ATOM     28  C   UNL A   1      42.998  30.101  28.865  1.00  0.00     0.074 A 
ATOM     29  C   UNL A   1      48.997  29.305  26.971  1.00  0.00     0.029 A 
ATOM     30  N   UNL A   1      46.870  28.990  27.533  1.00  0.00    -0.354 N 
ATOM     31  N   UNL A   1      44.212  29.847  28.439  1.00  0.00    -0.248 NA
ATOM     32  C   UNL A   1      42.815  31.456  29.400  1.00  0.00     0.031 C 
ATOM     33  C   UNL A   1      48.501  30.498  27.504  1.00  0.00     0.029 A 
ATOM     34  C   UNL A   1      47.168  30.310  27.831  1.00  0.00     0.049 A 
ATOM     35  H   UNL A   1      45.989  28.569  27.659  1.00  0.00     0.167 HD
ATOM     36  C   UNL A   1      44.935  31.016  28.643  1.00  0.00     0.074 A 
ATOM     37  C   UNL A   1      44.015  31.984  29.204  1.00  0.00     0.031 C 
ATOM     38  C   UNL A   1      46.243  31.263  28.392  1.00  0.00     0.031 A 
BRANCH  25  39
ATOM     39  C   UNL A   1      49.408  26.407  26.272  1.00  0.00    -0.014 A 
ATOM     40  C   UNL A   1      49.956  26.657  25.001  1.00  0.00     0.010 A 
ATOM     41  C   UNL A   1      50.175  25.700  27.218  1.00  0.00     0.010 A 
ATOM     42  C   UNL A   1      51.233  26.189  24.677  1.00  0.00     0.020 A 
ATOM     43  C   UNL A   1      51.463  25.254  26.907  1.00  0.00     0.020 A 
ATOM     44  C   UNL A   1      51.980  25.493  25.633  1.00  0.00     0.054 A 
BRANCH  44  45
ATOM     45  S   UNL A   1      53.652  24.938  25.197  1.00  0.00     0.124 S 
ATOM     46  O   UNL A   1      54.418  25.339  26.373  1.00  0.00    -0.237 OA
ATOM     47  O   UNL A   1      53.475  23.498  25.025  1.00  0.00    -0.237 OA
ATOM     48  O   UNL A   1      53.957  25.676  23.974  1.00  0.00    -0.744 OA
ENDBRANCH  44  45
ENDBRANCH  25  39
BRANCH  26  49
ATOM     49  C   UNL A   1      40.489  29.664  29.409  1.00  0.00    -0.014 A 
ATOM     50  C   UNL A   1      39.456  30.070  28.549  1.00  0.00     0.010 A 
ATOM     51  C   UNL A   1      40.273  29.696  30.801  1.00  0.00     0.010 A 
ATOM     52  C   UNL A   1      38.240  30.524  29.070  1.00  0.00     0.020 A 
ATOM     53  C   UNL A   1      39.049  30.116  31.324  1.00  0.00     0.020 A 
ATOM     54  C   UNL A   1      38.044  30.543  30.455  1.00  0.00     0.054 A 
BRANCH  54  55
ATOM     55  S   UNL A   1      36.449  31.109  31.107  1.00  0.00     0.124 S 
ATOM     56  O   UNL A   1      36.831  32.314  31.836  1.00  0.00    -0.237 OA
ATOM     57  O   UNL A   1      35.670  31.324  29.890  1.00  0.00    -0.237 OA
ATOM     58  O   UNL A   1      36.003  29.991  31.934  1.00  0.00    -0.744 OA
ENDBRANCH  54  55
ENDBRANCH  26  49
BRANCH  38  59
ATOM     59  C   UNL A   1      46.760  32.642  28.704  1.00  0.00    -0.014 A 
ATOM     60  C   UNL A   1      47.339  32.936  29.950  1.00  0.00     0.010 A 
ATOM     61  C   UNL A   1      46.731  33.637  27.709  1.00  0.00     0.010 A 
ATOM     62  C   UNL A   1      47.862  34.206  30.204  1.00  0.00     0.020 A 
ATOM     63  C   UNL A   1      47.280  34.898  27.948  1.00  0.00     0.020 A 
ATOM     64  C   UNL A   1      47.834  35.178  29.198  1.00  0.00     0.054 A 
BRANCH  64  65
ATOM     65  S   UNL A   1      48.584  36.795  29.530  1.00  0.00     0.124 S 
ATOM     66  O   UNL A   1      49.172  36.593  30.852  1.00  0.00    -0.237 OA
ATOM     67  O   UNL A   1      49.537  36.938  28.432  1.00  0.00    -0.237 OA
ATOM     68  O   UNL A   1      47.452  37.718  29.488  1.00  0.00    -0.744 OA
ENDBRANCH  64  65
ENDBRANCH  38  59
ENDBRANCH  12  13
ENDBRANCH   5   7
ENDBRANCH   2   3
ENDBRANCH   1   2
BRANCH   1  69
ATOM     69  C   UNL A   1      36.818  20.236  24.990  1.00  0.00     0.117 C 
BRANCH  69  70
ATOM     70  N   UNL A   1      35.676  19.341  24.975  1.00  0.00    -0.356 N 
ATOM     71  C   UNL A   1      34.338  19.569  24.912  1.00  0.00     0.225 C 
ATOM     72  H   UNL A   1      35.917  18.386  25.018  1.00  0.00     0.163 HD
ATOM     73  O   UNL A   1      33.610  18.588  24.746  1.00  0.00    -0.275 OA
BRANCH  71  74
ATOM     74  C   UNL A   1      33.761  20.939  25.187  1.00  0.00     0.107 C 
ATOM     75  C   UNL A   1      33.576  21.180  26.698  1.00  0.00     0.115 C 
ATOM     76  C   UNL A   1      32.390  21.262  24.619  1.00  0.00     0.133 C 
ATOM     77  C   UNL A   1      32.483  22.213  26.764  1.00  0.00     0.223 C 
ATOM     78  N   UNL A   1      31.884  22.270  25.520  1.00  0.00    -0.341 N 
ATOM     79  O   UNL A   1      32.198  22.895  27.728  1.00  0.00    -0.275 OA
BRANCH  78  80
ATOM     80  C   UNL A   1      30.810  23.187  25.174  1.00  0.00     0.136 C 
BRANCH  80  81
ATOM     81  C   UNL A   1      30.916  23.749  23.762  1.00  0.00     0.163 C 
BRANCH  81  82
ATOM     82  S   UNL A   1      32.100  25.050  23.565  1.00  0.00     0.180 S 
ATOM     83  O   UNL A   1      32.128  25.410  22.158  1.00  0.00    -0.224 OA
ATOM     84  O   UNL A   1      31.804  26.050  24.573  1.00  0.00    -0.224 OA
BRANCH  82  85
ATOM     85  C   UNL A   1      33.739  24.469  23.950  1.00  0.00     0.067 A 
ATOM     86  C   UNL A   1      34.263  24.836  25.200  1.00  0.00     0.023 A 
ATOM     87  C   UNL A   1      34.505  23.707  23.067  1.00  0.00     0.023 A 
ATOM     88  C   UNL A   1      35.572  24.493  25.540  1.00  0.00     0.040 A 
ATOM     89  C   UNL A   1      35.823  23.381  23.408  1.00  0.00     0.040 A 
ATOM     90  C   UNL A   1      36.349  23.790  24.630  1.00  0.00     0.123 A 
ATOM     91  F   UNL A   1      37.628  23.521  24.919  1.00  0.00    -0.207 F 
ENDBRANCH  82  85
ENDBRANCH  81  82
ENDBRANCH  80  81
ENDBRANCH  78  80
ENDBRANCH  71  74
ENDBRANCH  69  70
ENDBRANCH   1  69
TORSDOF 17
ENDMDL
MODEL 3
REMARK VINA RESULT:     -11.0      6.265      8.603
REMARK SMILES O=C(NCCCNC(=O)[C@@H]1CC(=O)N(CCS(=O)(=O)c2ccc(F)cc2)C1)c1ccc(-c2c3nc(c(-c4ccc(S(=O)(=O)[O-])cc4)c4ccc([nH]4)c(-c4ccc(S(=O)(=O)[O-])cc4)c4nc(c(-c5ccc(S(=O)(=O)[O-])cc5)c5ccc2[nH]5)C=C4)C=C3)cc1
REMARK SMILES IDX 5 1 4 2 3 3 1 4 2 5 28 7 29 8 87 9 30 10 86 11 31 12 32 13
REMARK SMILES IDX 33 14 80 15 34 16 85 17 79 18 81 19 35 20 84 21 78 22 77 23
REMARK SMILES IDX 36 25 66 26 47 27 65 28 48 29 51 30 64 31 82 32 49 33 50 34
REMARK SMILES IDX 63 36 83 37 52 38 37 39 38 40 46 41 39 42 45 43 40 44 41 45
REMARK SMILES IDX 42 46 43 47 44 48 67 49 68 50 76 51 69 52 75 53 70 54 71 55
REMARK SMILES IDX 72 56 73 57 74 58 53 59 54 60 62 61 55 62 61 63 56 64 57 65
REMARK SMILES IDX 58 66 59 67 60 68 6 69 7 70 8 71 9 73 10 74 11 75 27 76
REMARK SMILES IDX 12 77 14 78 13 79 15 80 16 81 17 82 18 83 19 84 20 85 21 86
REMARK SMILES IDX 26 87 22 88 25 89 23 90 24 91
REMARK H PARENT 3 6 81 24 51 35 7 72
REMARK Flexibility Score: inf
ROOT
ATOM      1  C   UNL A   1      39.662  22.271  26.291  1.00  0.00     0.042 C 
ENDROOT
BRANCH   1   2
ATOM      2  C   UNL A   1      39.935  23.706  26.721  1.00  0.00     0.118 C 
BRANCH   2   3
ATOM      3  N   UNL A   1      40.880  24.393  25.852  1.00  0.00    -0.352 N 
ATOM      4  O   UNL A   1      42.101  26.075  25.010  1.00  0.00    -0.269 OA
ATOM      5  C   UNL A   1      41.458  25.633  25.959  1.00  0.00     0.251 C 
ATOM      6  H   UNL A   1      41.149  23.882  25.055  1.00  0.00     0.163 HD
BRANCH   5   7
ATOM      7  C   UNL A   1      41.303  26.441  27.188  1.00  0.00     0.039 A 
ATOM      8  C   UNL A   1      42.029  27.619  27.375  1.00  0.00     0.014 A 
ATOM      9  C   UNL A   1      40.364  26.044  28.147  1.00  0.00     0.014 A 
ATOM     10  C   UNL A   1      41.914  28.326  28.568  1.00  0.00     0.010 A 
ATOM     11  C   UNL A   1      40.185  26.804  29.306  1.00  0.00     0.010 A 
ATOM     12  C   UNL A   1      40.971  27.943  29.535  1.00  0.00    -0.014 A 
BRANCH  12  13
ATOM     13  C   UNL A   1      40.746  28.806  30.723  1.00  0.00     0.031 A 
ATOM     14  C   UNL A   1      39.646  29.831  30.748  1.00  0.00     0.074 A 
ATOM     15  C   UNL A   1      41.563  28.660  31.786  1.00  0.00     0.049 A 
ATOM     16  N   UNL A   1      39.334  30.673  31.699  1.00  0.00    -0.248 NA
ATOM     17  C   UNL A   1      38.790  29.931  29.555  1.00  0.00     0.031 C 
ATOM     18  C   UNL A   1      42.674  27.704  31.870  1.00  0.00     0.029 A 
ATOM     19  N   UNL A   1      41.592  29.305  32.996  1.00  0.00    -0.354 N 
ATOM     20  C   UNL A   1      38.266  31.419  31.216  1.00  0.00     0.074 A 
ATOM     21  C   UNL A   1      37.990  30.939  29.879  1.00  0.00     0.031 C 
ATOM     22  C   UNL A   1      43.254  27.808  33.074  1.00  0.00     0.029 A 
ATOM     23  C   UNL A   1      42.609  28.881  33.820  1.00  0.00     0.049 A 
ATOM     24  H   UNL A   1      40.947  30.003  33.250  1.00  0.00     0.167 HD
ATOM     25  C   UNL A   1      37.583  32.414  31.833  1.00  0.00     0.031 A 
ATOM     26  C   UNL A   1      43.007  29.328  35.026  1.00  0.00     0.031 A 
ATOM     27  C   UNL A   1      37.869  32.884  33.165  1.00  0.00     0.049 A 
ATOM     28  C   UNL A   1      42.259  30.463  35.664  1.00  0.00     0.074 A 
ATOM     29  C   UNL A   1      37.193  33.843  33.898  1.00  0.00     0.029 A 
ATOM     30  N   UNL A   1      38.921  32.446  33.955  1.00  0.00    -0.354 N 
ATOM     31  N   UNL A   1      41.203  31.101  35.221  1.00  0.00    -0.248 NA
ATOM     32  C   UNL A   1      42.755  30.939  36.961  1.00  0.00     0.031 C 
ATOM     33  C   UNL A   1      37.878  34.039  35.101  1.00  0.00     0.029 A 
ATOM     34  C   UNL A   1      38.941  33.150  35.148  1.00  0.00     0.049 A 
ATOM     35  H   UNL A   1      39.559  31.739  33.706  1.00  0.00     0.167 HD
ATOM     36  C   UNL A   1      40.899  32.047  36.193  1.00  0.00     0.074 A 
ATOM     37  C   UNL A   1      41.866  31.878  37.258  1.00  0.00     0.031 C 
ATOM     38  C   UNL A   1      39.911  32.974  36.199  1.00  0.00     0.031 A 
BRANCH  25  39
ATOM     39  C   UNL A   1      36.479  33.100  31.071  1.00  0.00    -0.014 A 
ATOM     40  C   UNL A   1      35.138  33.014  31.484  1.00  0.00     0.010 A 
ATOM     41  C   UNL A   1      36.804  33.921  29.973  1.00  0.00     0.010 A 
ATOM     42  C   UNL A   1      34.140  33.715  30.798  1.00  0.00     0.020 A 
ATOM     43  C   UNL A   1      35.813  34.643  29.301  1.00  0.00     0.020 A 
ATOM     44  C   UNL A   1      34.485  34.527  29.713  1.00  0.00     0.054 A 
BRANCH  44  45
ATOM     45  S   UNL A   1      33.174  35.458  28.871  1.00  0.00     0.124 S 
ATOM     46  O   UNL A   1      33.943  36.431  28.101  1.00  0.00    -0.237 OA
ATOM     47  O   UNL A   1      32.503  34.425  28.085  1.00  0.00    -0.237 OA
ATOM     48  O   UNL A   1      32.383  36.015  29.966  1.00  0.00    -0.744 OA
ENDBRANCH  44  45
ENDBRANCH  25  39
BRANCH  26  49
ATOM     49  C   UNL A   1      44.204  28.731  35.679  1.00  0.00    -0.014 A 
ATOM     50  C   UNL A   1      44.079  27.646  36.563  1.00  0.00     0.010 A 
ATOM     51  C   UNL A   1      45.485  29.251  35.412  1.00  0.00     0.010 A 
ATOM     52  C   UNL A   1      45.209  27.109  37.187  1.00  0.00     0.020 A 
ATOM     53  C   UNL A   1      46.620  28.695  36.006  1.00  0.00     0.020 A 
ATOM     54  C   UNL A   1      46.473  27.637  36.903  1.00  0.00     0.054 A 
BRANCH  54  55
ATOM     55  S   UNL A   1      47.927  26.905  37.702  1.00  0.00     0.124 S 
ATOM     56  O   UNL A   1      48.997  27.278  36.782  1.00  0.00    -0.237 OA
ATOM     57  O   UNL A   1      47.944  27.576  39.000  1.00  0.00    -0.237 OA
ATOM     58  O   UNL A   1      47.610  25.480  37.749  1.00  0.00    -0.744 OA
ENDBRANCH  54  55
ENDBRANCH  26  49
BRANCH  38  59
ATOM     59  C   UNL A   1      39.810  33.870  37.404  1.00  0.00    -0.014 A 
ATOM     60  C   UNL A   1      40.401  35.145  37.413  1.00  0.00     0.010 A 
ATOM     61  C   UNL A   1      39.052  33.457  38.516  1.00  0.00     0.010 A 
ATOM     62  C   UNL A   1      40.252  35.984  38.520  1.00  0.00     0.020 A 
ATOM     63  C   UNL A   1      38.875  34.305  39.611  1.00  0.00     0.020 A 
ATOM     64  C   UNL A   1      39.484  35.561  39.610  1.00  0.00     0.054 A 
BRANCH  64  65
ATOM     65  S   UNL A   1      39.249  36.699  41.002  1.00  0.00     0.124 S 
ATOM     66  O   UNL A   1      38.363  35.933  41.875  1.00  0.00    -0.237 OA
ATOM     67  O   UNL A   1      40.611  36.888  41.495  1.00  0.00    -0.237 OA
ATOM     68  O   UNL A   1      38.646  37.880  40.387  1.00  0.00    -0.744 OA
ENDBRANCH  64  65
ENDBRANCH  38  59
ENDBRANCH  12  13
ENDBRANCH   5   7
ENDBRANCH   2   3
ENDBRANCH   1   2
BRANCH   1  69
ATOM     69  C   UNL A   1      38.212  21.964  25.946  1.00  0.00     0.117 C 
BRANCH  69  70
ATOM     70  N   UNL A   1      37.844  22.264  24.576  1.00  0.00    -0.356 N 
ATOM     71  C   UNL A   1      36.753  22.867  24.035  1.00  0.00     0.225 C 
ATOM     72  H   UNL A   1      38.511  21.976  23.910  1.00  0.00     0.163 HD
ATOM     73  O   UNL A   1      36.799  23.133  22.832  1.00  0.00    -0.275 OA
BRANCH  71  74
ATOM     74  C   UNL A   1      35.485  23.061  24.835  1.00  0.00     0.107 C 
ATOM     75  C   UNL A   1      34.465  21.939  24.557  1.00  0.00     0.115 C 
ATOM     76  C   UNL A   1      34.677  24.324  24.596  1.00  0.00     0.133 C 
ATOM     77  C   UNL A   1      33.139  22.572  24.882  1.00  0.00     0.223 C 
ATOM     78  N   UNL A   1      33.335  23.938  24.964  1.00  0.00    -0.341 N 
ATOM     79  O   UNL A   1      32.090  21.988  25.067  1.00  0.00    -0.275 OA
BRANCH  78  80
ATOM     80  C   UNL A   1      32.294  24.892  25.307  1.00  0.00     0.136 C 
BRANCH  80  81
ATOM     81  C   UNL A   1      32.607  26.321  24.882  1.00  0.00     0.163 C 
BRANCH  81  82
ATOM     82  S   UNL A   1      31.637  27.566  25.684  1.00  0.00     0.180 S 
ATOM     83  O   UNL A   1      30.850  28.235  24.663  1.00  0.00    -0.224 OA
ATOM     84  O   UNL A   1      30.987  26.934  26.816  1.00  0.00    -0.224 OA
BRANCH  82  85
ATOM     85  C   UNL A   1      32.687  28.820  26.389  1.00  0.00     0.067 A 
ATOM     86  C   UNL A   1      34.014  28.452  26.668  1.00  0.00     0.023 A 
ATOM     87  C   UNL A   1      32.240  30.108  26.688  1.00  0.00     0.023 A 
ATOM     88  C   UNL A   1      34.873  29.352  27.300  1.00  0.00     0.040 A 
ATOM     89  C   UNL A   1      33.103  30.999  27.338  1.00  0.00     0.040 A 
ATOM     90  C   UNL A   1      34.402  30.609  27.652  1.00  0.00     0.123 A 
ATOM     91  F   UNL A   1      35.197  31.451  28.323  1.00  0.00    -0.207 F 
ENDBRANCH  82  85
ENDBRANCH  81  82
ENDBRANCH  80  81
ENDBRANCH  78  80
ENDBRANCH  71  74
ENDBRANCH  69  70
ENDBRANCH   1  69
TORSDOF 17
ENDMDL
