MODEL 1
REMARK VINA RESULT:     -12.8      0.000      0.000
REMARK SMILES O=C(NCCCNC(=O)[C@@H]1CC2(CC[NH2+]CC2)C[N@@H+]1Cc1cccc2nonc12)c1ccc(-c2c3nc(c(-c4ccc(S(=O)(=O)[O-])cc4)c4ccc([nH]4)c(-c4ccc(S(=O)(=O)[O-])cc4)c4nc(c(-c5ccc(S(=O)(=O)[O-])cc5)c5ccc2[nH]5)C=C4)C=C3)cc1
REMARK SMILES IDX 4 1 3 2 1 3 2 4 30 6 31 7 89 8 32 9 88 10 33 11 34 12 35 13
REMARK SMILES IDX 82 14 36 15 87 16 81 17 83 18 37 19 86 20 80 21 79 22 38 24
REMARK SMILES IDX 68 25 49 26 67 27 50 28 53 29 66 30 84 31 51 32 52 33 65 35
REMARK SMILES IDX 85 36 54 37 39 38 40 39 48 40 41 41 47 42 42 43 43 44 44 45
REMARK SMILES IDX 45 46 46 47 69 48 70 49 78 50 71 51 77 52 72 53 73 54 74 55
REMARK SMILES IDX 75 56 76 57 55 58 56 59 64 60 57 61 63 62 58 63 59 64 60 65
REMARK SMILES IDX 61 66 62 67 5 68 6 69 7 70 8 71 9 73 10 74 11 75 19 76 12 77
REMARK SMILES IDX 18 78 13 80 17 81 14 82 16 83 15 84 20 87 21 88 22 89 29 90
REMARK SMILES IDX 23 91 25 92 28 93 24 94 26 95 27 96
REMARK H PARENT 3 5 83 23 53 34 7 72 19 79 15 85 15 86
REMARK Flexibility Score: inf
ROOT
ATOM      1  C   UNL A   1      39.186  21.501  25.938  1.00  0.00     0.118 C 
ENDROOT
BRANCH   1   2
ATOM      2  N   UNL A   1      40.405  21.061  26.595  1.00  0.00    -0.352 N 
ATOM      3  O   UNL A   1      42.595  20.944  26.901  1.00  0.00    -0.269 OA
ATOM      4  C   UNL A   1      41.610  21.676  26.793  1.00  0.00     0.251 C 
ATOM      5  H   UNL A   1      40.355  20.150  26.965  1.00  0.00     0.163 HD
BRANCH   4   6
ATOM      6  C   UNL A   1      41.789  23.143  26.952  1.00  0.00     0.039 A 
ATOM      7  C   UNL A   1      42.591  23.790  25.997  1.00  0.00     0.014 A 
ATOM      8  C   UNL A   1      41.398  23.845  28.094  1.00  0.00     0.014 A 
ATOM      9  C   UNL A   1      43.007  25.112  26.175  1.00  0.00     0.010 A 
ATOM     10  C   UNL A   1      41.820  25.174  28.272  1.00  0.00     0.010 A 
ATOM     11  C   UNL A   1      42.627  25.820  27.316  1.00  0.00    -0.014 A 
BRANCH  11  12
ATOM     12  C   UNL A   1      43.000  27.258  27.399  1.00  0.00     0.031 A 
ATOM     13  C   UNL A   1      41.834  28.182  27.318  1.00  0.00     0.074 A 
ATOM     14  C   UNL A   1      44.123  27.702  28.013  1.00  0.00     0.049 A 
ATOM     15  N   UNL A   1      41.062  28.332  28.350  1.00  0.00    -0.248 NA
ATOM     16  C   UNL A   1      41.276  28.751  26.096  1.00  0.00     0.031 C 
ATOM     17  C   UNL A   1      44.832  26.940  29.053  1.00  0.00     0.029 A 
ATOM     18  N   UNL A   1      44.744  28.937  28.030  1.00  0.00    -0.354 N 
ATOM     19  C   UNL A   1      39.903  28.961  27.937  1.00  0.00     0.074 A 
ATOM     20  C   UNL A   1      40.088  29.216  26.526  1.00  0.00     0.031 C 
ATOM     21  C   UNL A   1      45.677  27.766  29.704  1.00  0.00     0.029 A 
ATOM     22  C   UNL A   1      45.692  29.072  29.047  1.00  0.00     0.049 A 
ATOM     23  H   UNL A   1      44.538  29.653  27.387  1.00  0.00     0.167 HD
ATOM     24  C   UNL A   1      38.919  29.251  28.834  1.00  0.00     0.031 A 
ATOM     25  C   UNL A   1      46.020  30.229  29.687  1.00  0.00     0.031 A 
ATOM     26  C   UNL A   1      39.238  28.935  30.210  1.00  0.00     0.049 A 
ATOM     27  C   UNL A   1      44.763  30.522  30.462  1.00  0.00     0.074 A 
ATOM     28  C   UNL A   1      38.721  28.263  31.293  1.00  0.00     0.029 A 
ATOM     29  N   UNL A   1      40.462  29.395  30.606  1.00  0.00    -0.354 N 
ATOM     30  N   UNL A   1      44.401  29.952  31.579  1.00  0.00    -0.248 NA
ATOM     31  C   UNL A   1      43.719  31.350  29.836  1.00  0.00     0.031 C 
ATOM     32  C   UNL A   1      39.724  28.297  32.326  1.00  0.00     0.029 A 
ATOM     33  C   UNL A   1      40.821  29.013  31.860  1.00  0.00     0.049 A 
ATOM     34  H   UNL A   1      41.035  29.955  30.033  1.00  0.00     0.167 HD
ATOM     35  C   UNL A   1      43.023  30.107  31.630  1.00  0.00     0.074 A 
ATOM     36  C   UNL A   1      42.695  31.123  30.650  1.00  0.00     0.031 C 
ATOM     37  C   UNL A   1      42.192  29.237  32.277  1.00  0.00     0.031 A 
BRANCH  24  38
ATOM     38  C   UNL A   1      37.773  30.146  28.540  1.00  0.00    -0.014 A 
ATOM     39  C   UNL A   1      36.533  29.698  28.069  1.00  0.00     0.010 A 
ATOM     40  C   UNL A   1      37.919  31.502  28.896  1.00  0.00     0.010 A 
ATOM     41  C   UNL A   1      35.456  30.595  27.970  1.00  0.00     0.020 A 
ATOM     42  C   UNL A   1      36.855  32.397  28.801  1.00  0.00     0.020 A 
ATOM     43  C   UNL A   1      35.625  31.937  28.341  1.00  0.00     0.054 A 
BRANCH  43  44
ATOM     44  S   UNL A   1      34.205  33.066  28.256  1.00  0.00     0.124 S 
ATOM     45  O   UNL A   1      34.751  34.187  27.498  1.00  0.00    -0.237 OA
ATOM     46  O   UNL A   1      33.204  32.263  27.560  1.00  0.00    -0.237 OA
ATOM     47  O   UNL A   1      33.903  33.353  29.658  1.00  0.00    -0.744 OA
ENDBRANCH  43  44
ENDBRANCH  24  38
BRANCH  25  48
ATOM     48  C   UNL A   1      46.744  31.289  28.911  1.00  0.00    -0.014 A 
ATOM     49  C   UNL A   1      46.868  32.627  29.327  1.00  0.00     0.010 A 
ATOM     50  C   UNL A   1      47.358  30.938  27.690  1.00  0.00     0.010 A 
ATOM     51  C   UNL A   1      47.346  33.613  28.457  1.00  0.00     0.020 A 
ATOM     52  C   UNL A   1      47.882  31.911  26.829  1.00  0.00     0.020 A 
ATOM     53  C   UNL A   1      47.798  33.252  27.189  1.00  0.00     0.054 A 
BRANCH  53  54
ATOM     54  S   UNL A   1      48.187  34.561  25.998  1.00  0.00     0.124 S 
ATOM     55  O   UNL A   1      47.001  34.543  25.145  1.00  0.00    -0.237 OA
ATOM     56  O   UNL A   1      48.339  35.736  26.846  1.00  0.00    -0.237 OA
ATOM     57  O   UNL A   1      49.417  34.089  25.357  1.00  0.00    -0.744 OA
ENDBRANCH  53  54
ENDBRANCH  25  48
BRANCH  37  58
ATOM     58  C   UNL A   1      42.795  28.423  33.371  1.00  0.00    -0.014 A 
ATOM     59  C   UNL A   1      43.124  27.069  33.199  1.00  0.00     0.010 A 
ATOM     60  C   UNL A   1      42.909  28.998  34.650  1.00  0.00     0.010 A 
ATOM     61  C   UNL A   1      43.482  26.287  34.300  1.00  0.00     0.020 A 
ATOM     62  C   UNL A   1      43.277  28.228  35.749  1.00  0.00     0.020 A 
ATOM     63  C   UNL A   1      43.524  26.868  35.573  1.00  0.00     0.054 A 
BRANCH  63  64
ATOM     64  S   UNL A   1      43.826  25.807  37.008  1.00  0.00     0.124 S 
ATOM     65  O   UNL A   1      45.150  26.246  37.442  1.00  0.00    -0.237 OA
ATOM     66  O   UNL A   1      42.725  26.150  37.901  1.00  0.00    -0.237 OA
ATOM     67  O   UNL A   1      43.777  24.450  36.458  1.00  0.00    -0.744 OA
ENDBRANCH  63  64
ENDBRANCH  37  58
ENDBRANCH  11  12
ENDBRANCH   4   6
ENDBRANCH   1   2
BRANCH   1  68
ATOM     68  C   UNL A   1      38.378  20.288  25.427  1.00  0.00     0.042 C 
BRANCH  68  69
ATOM     69  C   UNL A   1      37.001  20.615  24.822  1.00  0.00     0.118 C 
BRANCH  69  70
ATOM     70  N   UNL A   1      36.244  21.483  25.699  1.00  0.00    -0.351 N 
ATOM     71  C   UNL A   1      35.188  22.305  25.450  1.00  0.00     0.278 C 
ATOM     72  H   UNL A   1      36.546  21.478  26.636  1.00  0.00     0.163 HD
ATOM     73  O   UNL A   1      35.023  23.209  26.270  1.00  0.00    -0.268 OA
BRANCH  71  74
ATOM     74  C   UNL A   1      34.270  22.083  24.226  1.00  0.00     0.275 C 
ATOM     75  C   UNL A   1      34.241  23.325  23.328  1.00  0.00     0.089 C 
ATOM     76  N   UNL A   1      32.852  21.890  24.551  1.00  0.00    -0.320 N 
ATOM     77  C   UNL A   1      32.951  24.104  23.692  1.00  0.00     0.036 C 
ATOM     78  C   UNL A   1      32.002  22.986  24.144  1.00  0.00     0.270 C 
ATOM     79  H   UNL A   1      32.661  21.076  23.966  1.00  0.00     0.349 HD
ATOM     80  C   UNL A   1      32.370  24.870  22.487  1.00  0.00     0.074 C 
ATOM     81  C   UNL A   1      33.153  25.145  24.820  1.00  0.00     0.074 C 
ATOM     82  C   UNL A   1      33.235  26.070  22.100  1.00  0.00     0.261 C 
ATOM     83  C   UNL A   1      34.016  26.324  24.375  1.00  0.00     0.261 C 
ATOM     84  N   UNL A   1      33.429  26.998  23.213  1.00  0.00    -0.346 N 
ATOM     85  H   UNL A   1      32.525  27.391  23.479  1.00  0.00     0.346 HD
ATOM     86  H   UNL A   1      34.067  27.734  22.911  1.00  0.00     0.346 HD
BRANCH  76  87
ATOM     87  C   UNL A   1      32.376  20.898  25.491  1.00  0.00     0.302 C 
BRANCH  87  88
ATOM     88  C   UNL A   1      32.518  19.482  25.015  1.00  0.00     0.038 A 
ATOM     89  C   UNL A   1      32.899  18.417  25.875  1.00  0.00     0.012 A 
ATOM     90  C   UNL A   1      32.432  19.094  23.657  1.00  0.00     0.144 A 
ATOM     91  C   UNL A   1      33.254  17.118  25.422  1.00  0.00     0.003 A 
ATOM     92  C   UNL A   1      32.793  17.760  23.195  1.00  0.00     0.135 A 
ATOM     93  N   UNL A   1      32.076  19.822  22.588  1.00  0.00    -0.049 NA
ATOM     94  C   UNL A   1      33.230  16.748  24.068  1.00  0.00     0.034 A 
ATOM     95  N   UNL A   1      32.645  17.723  21.866  1.00  0.00    -0.050 NA
ATOM     96  O   UNL A   1      32.203  18.980  21.498  1.00  0.00    -0.243 OA
ENDBRANCH  87  88
ENDBRANCH  76  87
ENDBRANCH  71  74
ENDBRANCH  69  70
ENDBRANCH  68  69
ENDBRANCH   1  68
TORSDOF 15
ENDMDL
MODEL 2
REMARK VINA RESULT:     -12.7      3.186      9.073
REMARK SMILES O=C(NCCCNC(=O)[C@@H]1CC2(CC[NH2+]CC2)C[N@@H+]1Cc1cccc2nonc12)c1ccc(-c2c3nc(c(-c4ccc(S(=O)(=O)[O-])cc4)c4ccc([nH]4)c(-c4ccc(S(=O)(=O)[O-])cc4)c4nc(c(-c5ccc(S(=O)(=O)[O-])cc5)c5ccc2[nH]5)C=C4)C=C3)cc1
REMARK SMILES IDX 4 1 3 2 1 3 2 4 30 6 31 7 89 8 32 9 88 10 33 11 34 12 35 13
REMARK SMILES IDX 82 14 36 15 87 16 81 17 83 18 37 19 86 20 80 21 79 22 38 24
REMARK SMILES IDX 68 25 49 26 67 27 50 28 53 29 66 30 84 31 51 32 52 33 65 35
REMARK SMILES IDX 85 36 54 37 39 38 40 39 48 40 41 41 47 42 42 43 43 44 44 45
REMARK SMILES IDX 45 46 46 47 69 48 70 49 78 50 71 51 77 52 72 53 73 54 74 55
REMARK SMILES IDX 75 56 76 57 55 58 56 59 64 60 57 61 63 62 58 63 59 64 60 65
REMARK SMILES IDX 61 66 62 67 5 68 6 69 7 70 8 71 9 73 10 74 11 75 19 76 12 77
REMARK SMILES IDX 18 78 13 80 17 81 14 82 16 83 15 84 20 87 21 88 22 89 29 90
REMARK SMILES IDX 23 91 25 92 28 93 24 94 26 95 27 96
REMARK H PARENT 3 5 83 23 53 34 7 72 19 79 15 85 15 86
REMARK Flexibility Score: inf
ROOT
ATOM      1  C   UNL A   1      33.326  31.547  27.699  1.00  0.00     0.118 C 
ENDROOT
BRANCH   1   2
ATOM      2  N   UNL A   1      33.870  32.858  28.009  1.00  0.00    -0.352 N 
ATOM      3  O   UNL A   1      34.683  34.436  29.333  1.00  0.00    -0.269 OA
ATOM      4  C   UNL A   1      34.781  33.272  28.941  1.00  0.00     0.251 C 
ATOM      5  H   UNL A   1      33.518  33.582  27.444  1.00  0.00     0.163 HD
BRANCH   4   6
ATOM      6  C   UNL A   1      35.902  32.439  29.449  1.00  0.00     0.039 A 
ATOM      7  C   UNL A   1      35.733  31.855  30.716  1.00  0.00     0.014 A 
ATOM      8  C   UNL A   1      37.161  32.398  28.848  1.00  0.00     0.014 A 
ATOM      9  C   UNL A   1      36.799  31.245  31.382  1.00  0.00     0.010 A 
ATOM     10  C   UNL A   1      38.234  31.786  29.521  1.00  0.00     0.010 A 
ATOM     11  C   UNL A   1      38.064  31.205  30.792  1.00  0.00    -0.014 A 
BRANCH  11  12
ATOM     12  C   UNL A   1      39.134  30.443  31.491  1.00  0.00     0.031 A 
ATOM     13  C   UNL A   1      39.282  29.041  31.007  1.00  0.00     0.074 A 
ATOM     14  C   UNL A   1      40.204  31.031  32.079  1.00  0.00     0.049 A 
ATOM     15  N   UNL A   1      39.873  28.815  29.874  1.00  0.00    -0.248 NA
ATOM     16  C   UNL A   1      38.583  27.875  31.534  1.00  0.00     0.031 C 
ATOM     17  C   UNL A   1      40.701  32.365  31.707  1.00  0.00     0.029 A 
ATOM     18  N   UNL A   1      41.178  30.543  32.930  1.00  0.00    -0.354 N 
ATOM     19  C   UNL A   1      39.602  27.513  29.498  1.00  0.00     0.074 A 
ATOM     20  C   UNL A   1      38.806  26.962  30.570  1.00  0.00     0.031 C 
ATOM     21  C   UNL A   1      41.947  32.522  32.199  1.00  0.00     0.029 A 
ATOM     22  C   UNL A   1      42.291  31.380  33.044  1.00  0.00     0.049 A 
ATOM     23  H   UNL A   1      41.096  29.687  33.410  1.00  0.00     0.167 HD
ATOM     24  C   UNL A   1      40.117  27.009  28.341  1.00  0.00     0.031 A 
ATOM     25  C   UNL A   1      43.572  30.981  33.280  1.00  0.00     0.031 A 
ATOM     26  C   UNL A   1      41.009  27.902  27.632  1.00  0.00     0.049 A 
ATOM     27  C   UNL A   1      43.914  30.265  32.000  1.00  0.00     0.074 A 
ATOM     28  C   UNL A   1      41.207  28.433  26.378  1.00  0.00     0.029 A 
ATOM     29  N   UNL A   1      41.965  28.466  28.430  1.00  0.00    -0.354 N 
ATOM     30  N   UNL A   1      44.248  30.830  30.873  1.00  0.00    -0.248 NA
ATOM     31  C   UNL A   1      43.650  28.820  31.902  1.00  0.00     0.031 C 
ATOM     32  C   UNL A   1      42.285  29.381  26.488  1.00  0.00     0.029 A 
ATOM     33  C   UNL A   1      42.740  29.388  27.802  1.00  0.00     0.049 A 
ATOM     34  H   UNL A   1      42.081  28.225  29.378  1.00  0.00     0.167 HD
ATOM     35  C   UNL A   1      43.947  29.889  29.897  1.00  0.00     0.074 A 
ATOM     36  C   UNL A   1      43.772  28.631  30.594  1.00  0.00     0.031 C 
ATOM     37  C   UNL A   1      43.611  30.217  28.615  1.00  0.00     0.031 A 
BRANCH  24  38
ATOM     38  C   UNL A   1      40.101  25.568  27.989  1.00  0.00    -0.014 A 
ATOM     39  C   UNL A   1      39.093  24.960  27.231  1.00  0.00     0.010 A 
ATOM     40  C   UNL A   1      41.245  24.819  28.330  1.00  0.00     0.010 A 
ATOM     41  C   UNL A   1      39.240  23.627  26.812  1.00  0.00     0.020 A 
ATOM     42  C   UNL A   1      41.398  23.497  27.918  1.00  0.00     0.020 A 
ATOM     43  C   UNL A   1      40.394  22.907  27.155  1.00  0.00     0.054 A 
BRANCH  43  44
ATOM     44  S   UNL A   1      40.586  21.203  26.558  1.00  0.00     0.124 S 
ATOM     45  O   UNL A   1      40.777  20.463  27.801  1.00  0.00    -0.237 OA
ATOM     46  O   UNL A   1      39.321  20.964  25.871  1.00  0.00    -0.237 OA
ATOM     47  O   UNL A   1      41.760  21.269  25.689  1.00  0.00    -0.744 OA
ENDBRANCH  43  44
ENDBRANCH  24  38
BRANCH  25  48
ATOM     48  C   UNL A   1      43.901  30.408  34.627  1.00  0.00    -0.014 A 
ATOM     49  C   UNL A   1      43.220  30.737  35.812  1.00  0.00     0.010 A 
ATOM     50  C   UNL A   1      44.947  29.465  34.728  1.00  0.00     0.010 A 
ATOM     51  C   UNL A   1      43.720  30.354  37.063  1.00  0.00     0.020 A 
ATOM     52  C   UNL A   1      45.427  29.037  35.972  1.00  0.00     0.020 A 
ATOM     53  C   UNL A   1      44.857  29.550  37.133  1.00  0.00     0.054 A 
BRANCH  53  54
ATOM     54  S   UNL A   1      45.622  29.264  38.750  1.00  0.00     0.124 S 
ATOM     55  O   UNL A   1      44.725  30.004  39.634  1.00  0.00    -0.237 OA
ATOM     56  O   UNL A   1      45.580  27.813  38.876  1.00  0.00    -0.237 OA
ATOM     57  O   UNL A   1      46.961  29.839  38.604  1.00  0.00    -0.744 OA
ENDBRANCH  53  54
ENDBRANCH  25  48
BRANCH  37  58
ATOM     58  C   UNL A   1      44.080  31.542  28.116  1.00  0.00    -0.014 A 
ATOM     59  C   UNL A   1      45.214  31.671  27.299  1.00  0.00     0.010 A 
ATOM     60  C   UNL A   1      43.444  32.701  28.594  1.00  0.00     0.010 A 
ATOM     61  C   UNL A   1      45.747  32.935  27.031  1.00  0.00     0.020 A 
ATOM     62  C   UNL A   1      43.962  33.963  28.321  1.00  0.00     0.020 A 
ATOM     63  C   UNL A   1      45.132  34.070  27.573  1.00  0.00     0.054 A 
BRANCH  63  64
ATOM     64  S   UNL A   1      45.928  35.682  27.356  1.00  0.00     0.124 S 
ATOM     65  O   UNL A   1      46.332  36.011  28.719  1.00  0.00    -0.237 OA
ATOM     66  O   UNL A   1      47.014  35.383  26.430  1.00  0.00    -0.237 OA
ATOM     67  O   UNL A   1      44.863  36.527  26.809  1.00  0.00    -0.744 OA
ENDBRANCH  63  64
ENDBRANCH  37  58
ENDBRANCH  11  12
ENDBRANCH   4   6
ENDBRANCH   1   2
BRANCH   1  68
ATOM     68  C   UNL A   1      34.440  30.602  27.199  1.00  0.00     0.042 C 
BRANCH  68  69
ATOM     69  C   UNL A   1      33.992  29.170  26.855  1.00  0.00     0.118 C 
BRANCH  69  70
ATOM     70  N   UNL A   1      34.067  28.934  25.429  1.00  0.00    -0.351 N 
ATOM     71  C   UNL A   1      33.640  27.885  24.673  1.00  0.00     0.278 C 
ATOM     72  H   UNL A   1      34.501  29.654  24.918  1.00  0.00     0.163 HD
ATOM     73  O   UNL A   1      34.194  27.768  23.579  1.00  0.00    -0.268 OA
BRANCH  71  74
ATOM     74  C   UNL A   1      32.526  26.936  25.173  1.00  0.00     0.275 C 
ATOM     75  C   UNL A   1      33.098  25.856  26.097  1.00  0.00     0.089 C 
ATOM     76  N   UNL A   1      31.877  26.146  24.121  1.00  0.00    -0.320 N 
ATOM     77  C   UNL A   1      33.283  24.584  25.230  1.00  0.00     0.036 C 
ATOM     78  C   UNL A   1      32.176  24.733  24.178  1.00  0.00     0.270 C 
ATOM     79  H   UNL A   1      30.902  26.298  24.382  1.00  0.00     0.349 HD
ATOM     80  C   UNL A   1      33.101  23.288  26.045  1.00  0.00     0.074 C 
ATOM     81  C   UNL A   1      34.674  24.490  24.557  1.00  0.00     0.074 C 
ATOM     82  C   UNL A   1      34.263  23.051  27.011  1.00  0.00     0.261 C 
ATOM     83  C   UNL A   1      35.793  24.244  25.567  1.00  0.00     0.261 C 
ATOM     84  N   UNL A   1      35.555  23.015  26.328  1.00  0.00    -0.346 N 
ATOM     85  H   UNL A   1      35.570  22.220  25.688  1.00  0.00     0.346 HD
ATOM     86  H   UNL A   1      36.288  22.925  27.032  1.00  0.00     0.346 HD
BRANCH  76  87
ATOM     87  C   UNL A   1      31.291  26.728  22.931  1.00  0.00     0.302 C 
BRANCH  87  88
ATOM     88  C   UNL A   1      29.940  27.343  23.149  1.00  0.00     0.038 A 
ATOM     89  C   UNL A   1      28.914  26.699  23.893  1.00  0.00     0.012 A 
ATOM     90  C   UNL A   1      29.507  28.537  22.526  1.00  0.00     0.144 A 
ATOM     91  C   UNL A   1      27.566  27.144  23.935  1.00  0.00     0.003 A 
ATOM     92  C   UNL A   1      28.124  28.994  22.575  1.00  0.00     0.135 A 
ATOM     93  N   UNL A   1      30.206  29.407  21.781  1.00  0.00    -0.049 NA
ATOM     94  C   UNL A   1      27.119  28.295  23.266  1.00  0.00     0.034 A 
ATOM     95  N   UNL A   1      28.030  30.121  21.861  1.00  0.00    -0.050 NA
ATOM     96  O   UNL A   1      29.302  30.374  21.381  1.00  0.00    -0.243 OA
ENDBRANCH  87  88
ENDBRANCH  76  87
ENDBRANCH  71  74
ENDBRANCH  69  70
ENDBRANCH  68  69
ENDBRANCH   1  68
TORSDOF 15
ENDMDL
MODEL 3
REMARK VINA RESULT:     -12.5      1.307      3.289
REMARK SMILES O=C(NCCCNC(=O)[C@@H]1CC2(CC[NH2+]CC2)C[N@@H+]1Cc1cccc2nonc12)c1ccc(-c2c3nc(c(-c4ccc(S(=O)(=O)[O-])cc4)c4ccc([nH]4)c(-c4ccc(S(=O)(=O)[O-])cc4)c4nc(c(-c5ccc(S(=O)(=O)[O-])cc5)c5ccc2[nH]5)C=C4)C=C3)cc1
REMARK SMILES IDX 4 1 3 2 1 3 2 4 30 6 31 7 89 8 32 9 88 10 33 11 34 12 35 13
REMARK SMILES IDX 82 14 36 15 87 16 81 17 83 18 37 19 86 20 80 21 79 22 38 24
REMARK SMILES IDX 68 25 49 26 67 27 50 28 53 29 66 30 84 31 51 32 52 33 65 35
REMARK SMILES IDX 85 36 54 37 39 38 40 39 48 40 41 41 47 42 42 43 43 44 44 45
REMARK SMILES IDX 45 46 46 47 69 48 70 49 78 50 71 51 77 52 72 53 73 54 74 55
REMARK SMILES IDX 75 56 76 57 55 58 56 59 64 60 57 61 63 62 58 63 59 64 60 65
REMARK SMILES IDX 61 66 62 67 5 68 6 69 7 70 8 71 9 73 10 74 11 75 19 76 12 77
REMARK SMILES IDX 18 78 13 80 17 81 14 82 16 83 15 84 20 87 21 88 22 89 29 90
REMARK SMILES IDX 23 91 25 92 28 93 24 94 26 95 27 96
REMARK H PARENT 3 5 83 23 53 34 7 72 19 79 15 85 15 86
REMARK Flexibility Score: inf
ROOT
ATOM      1  C   UNL A   1      38.997  21.420  26.520  1.00  0.00     0.118 C 
ENDROOT
BRANCH   1   2
ATOM      2  N   UNL A   1      40.385  20.996  26.442  1.00  0.00    -0.352 N 
ATOM      3  O   UNL A   1      42.450  21.011  25.642  1.00  0.00    -0.269 OA
ATOM      4  C   UNL A   1      41.531  21.673  26.127  1.00  0.00     0.251 C 
ATOM      5  H   UNL A   1      40.526  20.045  26.652  1.00  0.00     0.163 HD
BRANCH   4   6
ATOM      6  C   UNL A   1      41.754  23.117  26.394  1.00  0.00     0.039 A 
ATOM      7  C   UNL A   1      42.510  23.827  25.446  1.00  0.00     0.014 A 
ATOM      8  C   UNL A   1      41.453  23.728  27.613  1.00  0.00     0.014 A 
ATOM      9  C   UNL A   1      42.968  25.122  25.705  1.00  0.00     0.010 A 
ATOM     10  C   UNL A   1      41.916  25.030  27.872  1.00  0.00     0.010 A 
ATOM     11  C   UNL A   1      42.677  25.739  26.923  1.00  0.00    -0.014 A 
BRANCH  11  12
ATOM     12  C   UNL A   1      43.088  27.157  27.101  1.00  0.00     0.031 A 
ATOM     13  C   UNL A   1      41.948  28.116  27.082  1.00  0.00     0.074 A 
ATOM     14  C   UNL A   1      44.223  27.529  27.741  1.00  0.00     0.049 A 
ATOM     15  N   UNL A   1      41.180  28.218  28.122  1.00  0.00    -0.248 NA
ATOM     16  C   UNL A   1      41.407  28.779  25.900  1.00  0.00     0.031 C 
ATOM     17  C   UNL A   1      44.911  26.682  28.728  1.00  0.00     0.029 A 
ATOM     18  N   UNL A   1      44.878  28.743  27.839  1.00  0.00    -0.354 N 
ATOM     19  C   UNL A   1      40.039  28.904  27.752  1.00  0.00     0.074 A 
ATOM     20  C   UNL A   1      40.232  29.246  26.361  1.00  0.00     0.031 C 
ATOM     21  C   UNL A   1      45.777  27.440  29.431  1.00  0.00     0.029 A 
ATOM     22  C   UNL A   1      45.828  28.786  28.861  1.00  0.00     0.049 A 
ATOM     23  H   UNL A   1      44.691  29.506  27.244  1.00  0.00     0.167 HD
ATOM     24  C   UNL A   1      39.062  29.162  28.667  1.00  0.00     0.031 A 
ATOM     25  C   UNL A   1      46.187  29.889  29.576  1.00  0.00     0.031 A 
ATOM     26  C   UNL A   1      39.371  28.747  30.020  1.00  0.00     0.049 A 
ATOM     27  C   UNL A   1      44.937  30.164  30.369  1.00  0.00     0.074 A 
ATOM     28  C   UNL A   1      38.836  28.019  31.057  1.00  0.00     0.029 A 
ATOM     29  N   UNL A   1      40.608  29.147  30.444  1.00  0.00    -0.354 N 
ATOM     30  N   UNL A   1      44.560  29.531  31.447  1.00  0.00    -0.248 NA
ATOM     31  C   UNL A   1      43.917  31.059  29.800  1.00  0.00     0.031 C 
ATOM     32  C   UNL A   1      39.839  27.958  32.089  1.00  0.00     0.029 A 
ATOM     33  C   UNL A   1      40.955  28.673  31.670  1.00  0.00     0.049 A 
ATOM     34  H   UNL A   1      41.196  29.727  29.908  1.00  0.00     0.167 HD
ATOM     35  C   UNL A   1      43.186  29.720  31.509  1.00  0.00     0.074 A 
ATOM     36  C   UNL A   1      42.887  30.807  30.599  1.00  0.00     0.031 C 
ATOM     37  C   UNL A   1      42.331  28.832  32.099  1.00  0.00     0.031 A 
BRANCH  24  38
ATOM     38  C   UNL A   1      37.941  30.104  28.435  1.00  0.00    -0.014 A 
ATOM     39  C   UNL A   1      36.807  29.797  27.673  1.00  0.00     0.010 A 
ATOM     40  C   UNL A   1      37.977  31.321  29.146  1.00  0.00     0.010 A 
ATOM     41  C   UNL A   1      35.724  30.691  27.637  1.00  0.00     0.020 A 
ATOM     42  C   UNL A   1      36.906  32.212  29.116  1.00  0.00     0.020 A 
ATOM     43  C   UNL A   1      35.780  31.890  28.363  1.00  0.00     0.054 A 
BRANCH  43  44
ATOM     44  S   UNL A   1      34.348  33.005  28.346  1.00  0.00     0.124 S 
ATOM     45  O   UNL A   1      34.147  33.267  29.768  1.00  0.00    -0.237 OA
ATOM     46  O   UNL A   1      34.836  34.135  27.561  1.00  0.00    -0.237 OA
ATOM     47  O   UNL A   1      33.298  32.215  27.706  1.00  0.00    -0.744 OA
ENDBRANCH  43  44
ENDBRANCH  24  38
BRANCH  25  48
ATOM     48  C   UNL A   1      46.939  30.978  28.870  1.00  0.00    -0.014 A 
ATOM     49  C   UNL A   1      46.925  32.329  29.261  1.00  0.00     0.010 A 
ATOM     50  C   UNL A   1      47.729  30.643  27.750  1.00  0.00     0.010 A 
ATOM     51  C   UNL A   1      47.451  33.327  28.433  1.00  0.00     0.020 A 
ATOM     52  C   UNL A   1      48.300  31.630  26.937  1.00  0.00     0.020 A 
ATOM     53  C   UNL A   1      48.087  32.970  27.245  1.00  0.00     0.054 A 
BRANCH  53  54
ATOM     54  S   UNL A   1      48.547  34.277  26.077  1.00  0.00     0.124 S 
ATOM     55  O   UNL A   1      49.672  33.662  25.376  1.00  0.00    -0.237 OA
ATOM     56  O   UNL A   1      47.332  34.454  25.293  1.00  0.00    -0.237 OA
ATOM     57  O   UNL A   1      48.900  35.404  26.944  1.00  0.00    -0.744 OA
ENDBRANCH  53  54
ENDBRANCH  25  48
BRANCH  37  58
ATOM     58  C   UNL A   1      42.912  27.931  33.137  1.00  0.00    -0.014 A 
ATOM     59  C   UNL A   1      43.498  26.698  32.810  1.00  0.00     0.010 A 
ATOM     60  C   UNL A   1      42.740  28.272  34.491  1.00  0.00     0.010 A 
ATOM     61  C   UNL A   1      43.832  25.790  33.818  1.00  0.00     0.020 A 
ATOM     62  C   UNL A   1      43.083  27.378  35.500  1.00  0.00     0.020 A 
ATOM     63  C   UNL A   1      43.592  26.127  35.156  1.00  0.00     0.054 A 
BRANCH  63  64
ATOM     64  S   UNL A   1      43.875  24.879  36.436  1.00  0.00     0.124 S 
ATOM     65  O   UNL A   1      42.594  24.859  37.136  1.00  0.00    -0.237 OA
ATOM     66  O   UNL A   1      44.187  23.685  35.658  1.00  0.00    -0.237 OA
ATOM     67  O   UNL A   1      44.993  25.421  37.212  1.00  0.00    -0.744 OA
ENDBRANCH  63  64
ENDBRANCH  37  58
ENDBRANCH  11  12
ENDBRANCH   4   6
ENDBRANCH   1   2
BRANCH   1  68
ATOM     68  C   UNL A   1      38.607  22.230  25.265  1.00  0.00     0.042 C 
BRANCH  68  69
ATOM     69  C   UNL A   1      37.600  23.371  25.497  1.00  0.00     0.118 C 
BRANCH  69  70
ATOM     70  N   UNL A   1      36.478  23.263  24.588  1.00  0.00    -0.351 N 
ATOM     71  C   UNL A   1      35.563  22.271  24.412  1.00  0.00     0.278 C 
ATOM     72  H   UNL A   1      36.358  24.039  23.994  1.00  0.00     0.163 HD
ATOM     73  O   UNL A   1      34.997  22.267  23.318  1.00  0.00    -0.268 OA
BRANCH  71  74
ATOM     74  C   UNL A   1      35.263  21.248  25.532  1.00  0.00     0.275 C 
ATOM     75  C   UNL A   1      34.738  19.932  24.947  1.00  0.00     0.089 C 
ATOM     76  N   UNL A   1      34.189  21.642  26.451  1.00  0.00    -0.320 N 
ATOM     77  C   UNL A   1      33.194  19.974  25.080  1.00  0.00     0.036 C 
ATOM     78  C   UNL A   1      32.989  20.845  26.327  1.00  0.00     0.270 C 
ATOM     79  H   UNL A   1      34.648  21.430  27.337  1.00  0.00     0.349 HD
ATOM     80  C   UNL A   1      32.584  18.572  25.278  1.00  0.00     0.074 C 
ATOM     81  C   UNL A   1      32.484  20.594  23.852  1.00  0.00     0.074 C 
ATOM     82  C   UNL A   1      32.660  17.729  24.004  1.00  0.00     0.261 C 
ATOM     83  C   UNL A   1      32.584  19.706  22.613  1.00  0.00     0.261 C 
ATOM     84  N   UNL A   1      32.012  18.381  22.867  1.00  0.00    -0.346 N 
ATOM     85  H   UNL A   1      31.016  18.482  23.065  1.00  0.00     0.346 HD
ATOM     86  H   UNL A   1      32.159  17.804  22.039  1.00  0.00     0.346 HD
BRANCH  76  87
ATOM     87  C   UNL A   1      34.166  22.905  27.158  1.00  0.00     0.302 C 
BRANCH  87  88
ATOM     88  C   UNL A   1      33.328  23.962  26.500  1.00  0.00     0.038 A 
ATOM     89  C   UNL A   1      33.888  25.017  25.731  1.00  0.00     0.012 A 
ATOM     90  C   UNL A   1      31.933  24.097  26.694  1.00  0.00     0.144 A 
ATOM     91  C   UNL A   1      33.155  26.148  25.281  1.00  0.00     0.003 A 
ATOM     92  C   UNL A   1      31.182  25.255  26.228  1.00  0.00     0.135 A 
ATOM     93  N   UNL A   1      31.083  23.281  27.336  1.00  0.00    -0.049 NA
ATOM     94  C   UNL A   1      31.783  26.316  25.527  1.00  0.00     0.034 A 
ATOM     95  N   UNL A   1      29.906  25.105  26.601  1.00  0.00    -0.050 NA
ATOM     96  O   UNL A   1      29.846  23.898  27.272  1.00  0.00    -0.243 OA
ENDBRANCH  87  88
ENDBRANCH  76  87
ENDBRANCH  71  74
ENDBRANCH  69  70
ENDBRANCH  68  69
ENDBRANCH   1  68
TORSDOF 15
ENDMDL
