MODEL 1
REMARK VINA RESULT:     -13.5      0.000      0.000
REMARK SMILES Cc1ccc(S(=O)(=O)n2cc(C(=O)C(=O)N[C@@H](Cc3cnc[nH]3)C(=O)NCCCNC(=O)c3ccc(-c4c5nc(c(-c6ccc(S(=O)(=O)[O-])cc6)c6ccc([nH]6)c(-c6ccc(S(=O)(=O)[O-])cc6)c6nc(c(-c7ccc(S(=O)(=O)[O-])cc7)c7ccc4[nH]7)C=C6)C=C5)cc3)c3ccccc32)cc1
REMARK SMILES IDX 27 1 26 2 24 3 25 4 17 6 16 7 14 8 15 9 12 11 13 12 11 13
REMARK SMILES IDX 9 14 10 15 98 16 93 17 97 18 94 19 96 20 95 21 6 22 7 23
REMARK SMILES IDX 8 24 5 25 1 26 2 27 3 28 100 29 4 30 99 31 18 32 19 33 20 34
REMARK SMILES IDX 23 35 21 36 22 37 28 39 29 40 30 41 31 42 32 44 33 45 34 46
REMARK SMILES IDX 92 47 35 48 91 49 36 50 37 51 38 52 85 53 39 54 90 55 84 56
REMARK SMILES IDX 86 57 40 58 89 59 83 60 82 61 41 63 71 64 52 65 70 66 53 67
REMARK SMILES IDX 56 68 69 69 87 70 54 71 55 72 68 74 88 75 57 76 42 77 43 78
REMARK SMILES IDX 51 79 44 80 50 81 45 82 46 83 47 84 48 85 49 86 72 87 73 88
REMARK SMILES IDX 81 89 74 90 80 91 75 92 76 93 77 94 78 95 79 96 58 97 59 98
REMARK SMILES IDX 67 99 60 100 66 101 61 102 62 103 63 104 64 105 65 106
REMARK H PARENT 26 5 16 10 23 38 30 43 86 62 56 73
REMARK Flexibility Score: inf
ROOT
ATOM      1  C   UNL A   1      33.073  28.861  24.651  1.00  0.00     0.117 C 
ENDROOT
BRANCH   1   2
ATOM      2  N   UNL A   1      31.955  29.772  24.809  1.00  0.00    -0.354 N 
ATOM      3  C   UNL A   1      30.738  29.777  24.194  1.00  0.00     0.242 C 
ATOM      4  O   UNL A   1      29.838  30.439  24.725  1.00  0.00    -0.273 OA
ATOM      5  H   UNL A   1      32.097  30.499  25.459  1.00  0.00     0.163 HD
BRANCH   3   6
ATOM      6  C   UNL A   1      30.424  28.933  22.933  1.00  0.00     0.177 C 
BRANCH   6   7
ATOM      7  N   UNL A   1      29.290  28.015  23.136  1.00  0.00    -0.337 N 
ATOM      8  C   UNL A   1      29.123  26.961  24.019  1.00  0.00     0.293 C 
ATOM      9  O   UNL A   1      27.994  26.497  24.154  1.00  0.00    -0.265 OA
ATOM     10  H   UNL A   1      28.520  28.178  22.545  1.00  0.00     0.164 HD
BRANCH   8  11
ATOM     11  C   UNL A   1      30.318  26.323  24.788  1.00  0.00     0.252 C 
ATOM     12  O   UNL A   1      30.683  26.842  25.837  1.00  0.00    -0.283 OA
BRANCH  11  13
ATOM     13  C   UNL A   1      31.073  25.162  24.267  1.00  0.00     0.054 A 
ATOM     14  N   UNL A   1      31.966  23.131  23.974  1.00  0.00    -0.240 N 
ATOM     15  C   UNL A   1      31.261  23.920  24.850  1.00  0.00     0.117 A 
ATOM     16  C   UNL A   1      32.265  23.810  22.814  1.00  0.00     0.065 A 
ATOM     17  C   UNL A   1      31.760  25.106  22.993  1.00  0.00     0.012 A 
ATOM     18  C   UNL A   1      32.941  23.429  21.639  1.00  0.00     0.028 A 
ATOM     19  C   UNL A   1      31.975  26.049  21.962  1.00  0.00     0.011 A 
ATOM     20  C   UNL A   1      33.137  24.390  20.644  1.00  0.00     0.002 A 
ATOM     21  C   UNL A   1      32.668  25.686  20.805  1.00  0.00     0.001 A 
BRANCH  14  22
ATOM     22  S   UNL A   1      32.399  21.511  24.283  1.00  0.00     0.268 S 
ATOM     23  O   UNL A   1      32.206  20.820  23.028  1.00  0.00    -0.201 OA
ATOM     24  O   UNL A   1      31.682  21.126  25.490  1.00  0.00    -0.201 OA
BRANCH  22  25
ATOM     25  C   UNL A   1      34.131  21.454  24.666  1.00  0.00     0.088 A 
ATOM     26  C   UNL A   1      38.357  21.050  25.376  1.00  0.00     0.044 C 
ATOM     27  C   UNL A   1      36.883  21.198  25.135  1.00  0.00    -0.051 A 
ATOM     28  C   UNL A   1      36.080  20.058  25.012  1.00  0.00     0.005 A 
ATOM     29  C   UNL A   1      36.289  22.464  25.051  1.00  0.00     0.005 A 
ATOM     30  C   UNL A   1      34.711  20.184  24.772  1.00  0.00     0.022 A 
ATOM     31  C   UNL A   1      34.915  22.598  24.827  1.00  0.00     0.022 A 
ENDBRANCH  22  25
ENDBRANCH  14  22
ENDBRANCH  11  13
ENDBRANCH   8  11
ENDBRANCH   6   7
BRANCH   6  32
ATOM     32  C   UNL A   1      30.401  29.727  21.604  1.00  0.00     0.090 C 
BRANCH  32  33
ATOM     33  C   UNL A   1      29.351  30.777  21.445  1.00  0.00     0.037 A 
ATOM     34  C   UNL A   1      28.112  30.761  20.838  1.00  0.00     0.134 A 
ATOM     35  N   UNL A   1      29.461  32.050  21.967  1.00  0.00    -0.348 N 
ATOM     36  N   UNL A   1      27.443  31.935  21.061  1.00  0.00    -0.245 NA
ATOM     37  C   UNL A   1      28.266  32.683  21.760  1.00  0.00     0.196 A 
ATOM     38  H   UNL A   1      30.254  32.433  22.407  1.00  0.00     0.167 HD
ENDBRANCH  32  33
ENDBRANCH   6  32
ENDBRANCH   3   6
ENDBRANCH   1   2
BRANCH   1  39
ATOM     39  C   UNL A   1      33.993  28.774  25.847  1.00  0.00     0.042 C 
BRANCH  39  40
ATOM     40  C   UNL A   1      33.453  29.565  27.018  1.00  0.00     0.118 C 
BRANCH  40  41
ATOM     41  N   UNL A   1      33.994  30.917  27.158  1.00  0.00    -0.352 N 
ATOM     42  C   UNL A   1      35.194  31.297  27.749  1.00  0.00     0.251 C 
ATOM     43  H   UNL A   1      33.442  31.645  26.790  1.00  0.00     0.163 HD
ATOM     44  O   UNL A   1      35.463  32.475  27.941  1.00  0.00    -0.269 OA
BRANCH  42  45
ATOM     45  C   UNL A   1      36.164  30.230  28.087  1.00  0.00     0.039 A 
ATOM     46  C   UNL A   1      36.138  29.665  29.366  1.00  0.00     0.014 A 
ATOM     47  C   UNL A   1      37.251  30.030  27.249  1.00  0.00     0.014 A 
ATOM     48  C   UNL A   1      37.302  29.095  29.883  1.00  0.00     0.010 A 
ATOM     49  C   UNL A   1      38.440  29.651  27.824  1.00  0.00     0.010 A 
ATOM     50  C   UNL A   1      38.481  29.200  29.149  1.00  0.00    -0.014 A 
BRANCH  50  51
ATOM     51  C   UNL A   1      39.824  28.902  29.639  1.00  0.00     0.031 A 
ATOM     52  C   UNL A   1      40.492  27.654  29.178  1.00  0.00     0.074 A 
ATOM     53  C   UNL A   1      40.528  29.838  30.320  1.00  0.00     0.049 A 
ATOM     54  N   UNL A   1      41.603  27.200  29.644  1.00  0.00    -0.248 NA
ATOM     55  C   UNL A   1      39.922  26.785  28.147  1.00  0.00     0.031 C 
ATOM     56  C   UNL A   1      41.980  29.889  30.480  1.00  0.00     0.029 A 
ATOM     57  N   UNL A   1      40.070  30.835  31.186  1.00  0.00    -0.354 N 
ATOM     58  C   UNL A   1      42.032  26.189  28.811  1.00  0.00     0.074 A 
ATOM     59  C   UNL A   1      40.928  25.937  27.921  1.00  0.00     0.031 C 
ATOM     60  C   UNL A   1      42.270  30.608  31.574  1.00  0.00     0.029 A 
ATOM     61  C   UNL A   1      41.011  30.904  32.231  1.00  0.00     0.049 A 
ATOM     62  H   UNL A   1      39.256  31.378  31.085  1.00  0.00     0.167 HD
ATOM     63  C   UNL A   1      43.319  25.755  28.897  1.00  0.00     0.031 A 
ATOM     64  C   UNL A   1      40.730  30.631  33.540  1.00  0.00     0.031 A 
ATOM     65  C   UNL A   1      43.999  26.353  30.041  1.00  0.00     0.049 A 
ATOM     66  C   UNL A   1      41.572  29.506  34.108  1.00  0.00     0.074 A 
ATOM     67  C   UNL A   1      44.872  27.418  30.187  1.00  0.00     0.029 A 
ATOM     68  N   UNL A   1      43.556  26.023  31.314  1.00  0.00    -0.354 N 
ATOM     69  N   UNL A   1      42.295  28.702  33.378  1.00  0.00    -0.248 NA
ATOM     70  C   UNL A   1      41.641  29.165  35.528  1.00  0.00     0.031 C 
ATOM     71  C   UNL A   1      44.876  27.787  31.560  1.00  0.00     0.029 A 
ATOM     72  C   UNL A   1      44.038  26.924  32.243  1.00  0.00     0.049 A 
ATOM     73  H   UNL A   1      42.979  25.254  31.525  1.00  0.00     0.167 HD
ATOM     74  C   UNL A   1      42.893  27.758  34.169  1.00  0.00     0.074 A 
ATOM     75  C   UNL A   1      42.464  28.100  35.513  1.00  0.00     0.031 C 
ATOM     76  C   UNL A   1      43.673  26.768  33.644  1.00  0.00     0.031 A 
BRANCH  63  77
ATOM     77  C   UNL A   1      44.033  24.958  27.831  1.00  0.00    -0.014 A 
ATOM     78  C   UNL A   1      44.458  25.610  26.655  1.00  0.00     0.010 A 
ATOM     79  C   UNL A   1      44.274  23.573  27.891  1.00  0.00     0.010 A 
ATOM     80  C   UNL A   1      45.021  24.914  25.575  1.00  0.00     0.020 A 
ATOM     81  C   UNL A   1      44.808  22.856  26.809  1.00  0.00     0.020 A 
ATOM     82  C   UNL A   1      45.172  23.532  25.651  1.00  0.00     0.054 A 
BRANCH  82  83
ATOM     83  S   UNL A   1      45.848  22.638  24.229  1.00  0.00     0.124 S 
ATOM     84  O   UNL A   1      44.654  22.369  23.431  1.00  0.00    -0.237 OA
ATOM     85  O   UNL A   1      46.780  23.606  23.662  1.00  0.00    -0.237 OA
ATOM     86  O   UNL A   1      46.468  21.455  24.826  1.00  0.00    -0.744 OA
ENDBRANCH  82  83
ENDBRANCH  63  77
BRANCH  64  87
ATOM     87  C   UNL A   1      39.337  30.966  33.947  1.00  0.00    -0.014 A 
ATOM     88  C   UNL A   1      39.095  32.311  34.297  1.00  0.00     0.010 A 
ATOM     89  C   UNL A   1      38.264  30.168  33.511  1.00  0.00     0.010 A 
ATOM     90  C   UNL A   1      37.870  32.908  33.997  1.00  0.00     0.020 A 
ATOM     91  C   UNL A   1      37.028  30.765  33.219  1.00  0.00     0.020 A 
ATOM     92  C   UNL A   1      36.877  32.146  33.381  1.00  0.00     0.054 A 
BRANCH  92  93
ATOM     93  S   UNL A   1      35.520  33.038  32.561  1.00  0.00     0.124 S 
ATOM     94  O   UNL A   1      34.551  33.199  33.640  1.00  0.00    -0.237 OA
ATOM     95  O   UNL A   1      36.193  34.264  32.134  1.00  0.00    -0.237 OA
ATOM     96  O   UNL A   1      35.127  32.133  31.486  1.00  0.00    -0.744 OA
ENDBRANCH  92  93
ENDBRANCH  64  87
BRANCH  76  97
ATOM     97  C   UNL A   1      44.213  25.562  34.375  1.00  0.00    -0.014 A 
ATOM     98  C   UNL A   1      43.416  24.553  34.936  1.00  0.00     0.010 A 
ATOM     99  C   UNL A   1      45.615  25.344  34.374  1.00  0.00     0.010 A 
ATOM    100  C   UNL A   1      43.991  23.407  35.507  1.00  0.00     0.020 A 
ATOM    101  C   UNL A   1      46.193  24.185  34.896  1.00  0.00     0.020 A 
ATOM    102  C   UNL A   1      45.376  23.231  35.483  1.00  0.00     0.054 A 
BRANCH 102 103
ATOM    103  S   UNL A   1      46.105  21.714  36.153  1.00  0.00     0.124 S 
ATOM    104  O   UNL A   1      45.759  21.815  37.567  1.00  0.00    -0.237 OA
ATOM    105  O   UNL A   1      45.412  20.662  35.413  1.00  0.00    -0.237 OA
ATOM    106  O   UNL A   1      47.524  21.852  35.840  1.00  0.00    -0.744 OA
ENDBRANCH 102 103
ENDBRANCH  76  97
ENDBRANCH  50  51
ENDBRANCH  42  45
ENDBRANCH  40  41
ENDBRANCH  39  40
ENDBRANCH   1  39
TORSDOF 20
ENDMDL
MODEL 2
REMARK VINA RESULT:     -13.3      1.661      2.223
REMARK SMILES Cc1ccc(S(=O)(=O)n2cc(C(=O)C(=O)N[C@@H](Cc3cnc[nH]3)C(=O)NCCCNC(=O)c3ccc(-c4c5nc(c(-c6ccc(S(=O)(=O)[O-])cc6)c6ccc([nH]6)c(-c6ccc(S(=O)(=O)[O-])cc6)c6nc(c(-c7ccc(S(=O)(=O)[O-])cc7)c7ccc4[nH]7)C=C6)C=C5)cc3)c3ccccc32)cc1
REMARK SMILES IDX 27 1 26 2 24 3 25 4 17 6 16 7 14 8 15 9 12 11 13 12 11 13
REMARK SMILES IDX 9 14 10 15 98 16 93 17 97 18 94 19 96 20 95 21 6 22 7 23
REMARK SMILES IDX 8 24 5 25 1 26 2 27 3 28 100 29 4 30 99 31 18 32 19 33 20 34
REMARK SMILES IDX 23 35 21 36 22 37 28 39 29 40 30 41 31 42 32 44 33 45 34 46
REMARK SMILES IDX 92 47 35 48 91 49 36 50 37 51 38 52 85 53 39 54 90 55 84 56
REMARK SMILES IDX 86 57 40 58 89 59 83 60 82 61 41 63 71 64 52 65 70 66 53 67
REMARK SMILES IDX 56 68 69 69 87 70 54 71 55 72 68 74 88 75 57 76 42 77 43 78
REMARK SMILES IDX 51 79 44 80 50 81 45 82 46 83 47 84 48 85 49 86 72 87 73 88
REMARK SMILES IDX 81 89 74 90 80 91 75 92 76 93 77 94 78 95 79 96 58 97 59 98
REMARK SMILES IDX 67 99 60 100 66 101 61 102 62 103 63 104 64 105 65 106
REMARK H PARENT 26 5 16 10 23 38 30 43 86 62 56 73
REMARK Flexibility Score: inf
ROOT
ATOM      1  C   UNL A   1      33.410  29.019  24.756  1.00  0.00     0.117 C 
ENDROOT
BRANCH   1   2
ATOM      2  N   UNL A   1      32.234  29.863  24.848  1.00  0.00    -0.354 N 
ATOM      3  C   UNL A   1      31.013  29.728  24.255  1.00  0.00     0.242 C 
ATOM      4  O   UNL A   1      30.075  30.374  24.738  1.00  0.00    -0.273 OA
ATOM      5  H   UNL A   1      32.332  30.655  25.425  1.00  0.00     0.163 HD
BRANCH   3   6
ATOM      6  C   UNL A   1      30.745  28.751  23.083  1.00  0.00     0.177 C 
BRANCH   6   7
ATOM      7  N   UNL A   1      29.785  27.691  23.439  1.00  0.00    -0.337 N 
ATOM      8  C   UNL A   1      29.748  26.827  24.522  1.00  0.00     0.293 C 
ATOM      9  O   UNL A   1      28.715  26.191  24.714  1.00  0.00    -0.265 OA
ATOM     10  H   UNL A   1      29.045  27.578  22.800  1.00  0.00     0.164 HD
BRANCH   8  11
ATOM     11  C   UNL A   1      30.978  26.604  25.450  1.00  0.00     0.252 C 
ATOM     12  O   UNL A   1      31.194  27.417  26.343  1.00  0.00    -0.283 OA
BRANCH  11  13
ATOM     13  C   UNL A   1      31.936  25.492  25.252  1.00  0.00     0.054 A 
ATOM     14  N   UNL A   1      33.284  23.733  25.560  1.00  0.00    -0.240 N 
ATOM     15  C   UNL A   1      32.521  24.676  26.204  1.00  0.00     0.117 A 
ATOM     16  C   UNL A   1      33.234  23.896  24.193  1.00  0.00     0.065 A 
ATOM     17  C   UNL A   1      32.434  25.027  23.975  1.00  0.00     0.012 A 
ATOM     18  C   UNL A   1      33.822  23.182  23.131  1.00  0.00     0.028 A 
ATOM     19  C   UNL A   1      32.252  25.463  22.643  1.00  0.00     0.011 A 
ATOM     20  C   UNL A   1      33.622  23.646  21.828  1.00  0.00     0.002 A 
ATOM     21  C   UNL A   1      32.855  24.776  21.585  1.00  0.00     0.001 A 
BRANCH  14  22
ATOM     22  S   UNL A   1      34.166  22.510  26.354  1.00  0.00     0.268 S 
ATOM     23  O   UNL A   1      33.578  22.412  27.671  1.00  0.00    -0.201 OA
ATOM     24  O   UNL A   1      35.571  22.839  26.164  1.00  0.00    -0.201 OA
BRANCH  22  25
ATOM     25  C   UNL A   1      33.874  20.971  25.520  1.00  0.00     0.088 A 
ATOM     26  C   UNL A   1      33.441  17.114  23.660  1.00  0.00     0.044 C 
ATOM     27  C   UNL A   1      33.585  18.462  24.303  1.00  0.00    -0.051 A 
ATOM     28  C   UNL A   1      34.857  19.019  24.477  1.00  0.00     0.005 A 
ATOM     29  C   UNL A   1      32.460  19.187  24.717  1.00  0.00     0.005 A 
ATOM     30  C   UNL A   1      35.003  20.265  25.088  1.00  0.00     0.022 A 
ATOM     31  C   UNL A   1      32.598  20.444  25.315  1.00  0.00     0.022 A 
ENDBRANCH  22  25
ENDBRANCH  14  22
ENDBRANCH  11  13
ENDBRANCH   8  11
ENDBRANCH   6   7
BRANCH   6  32
ATOM     32  C   UNL A   1      30.504  29.426  21.711  1.00  0.00     0.090 C 
BRANCH  32  33
ATOM     33  C   UNL A   1      29.413  30.441  21.623  1.00  0.00     0.037 A 
ATOM     34  C   UNL A   1      28.084  30.341  21.264  1.00  0.00     0.134 A 
ATOM     35  N   UNL A   1      29.578  31.770  21.957  1.00  0.00    -0.348 N 
ATOM     36  N   UNL A   1      27.433  31.529  21.463  1.00  0.00    -0.245 NA
ATOM     37  C   UNL A   1      28.347  32.365  21.900  1.00  0.00     0.196 A 
ATOM     38  H   UNL A   1      30.427  32.210  22.192  1.00  0.00     0.167 HD
ENDBRANCH  32  33
ENDBRANCH   6  32
ENDBRANCH   3   6
ENDBRANCH   1   2
BRANCH   1  39
ATOM     39  C   UNL A   1      34.307  29.049  25.973  1.00  0.00     0.042 C 
BRANCH  39  40
ATOM     40  C   UNL A   1      33.729  29.922  27.064  1.00  0.00     0.118 C 
BRANCH  40  41
ATOM     41  N   UNL A   1      34.404  31.204  27.259  1.00  0.00    -0.352 N 
ATOM     42  C   UNL A   1      35.658  31.430  27.818  1.00  0.00     0.251 C 
ATOM     43  H   UNL A   1      33.913  32.003  26.959  1.00  0.00     0.163 HD
ATOM     44  O   UNL A   1      36.048  32.563  28.066  1.00  0.00    -0.269 OA
BRANCH  42  45
ATOM     45  C   UNL A   1      36.531  30.257  28.049  1.00  0.00     0.039 A 
ATOM     46  C   UNL A   1      36.535  29.648  29.308  1.00  0.00     0.014 A 
ATOM     47  C   UNL A   1      37.529  29.979  27.127  1.00  0.00     0.014 A 
ATOM     48  C   UNL A   1      37.667  28.942  29.719  1.00  0.00     0.010 A 
ATOM     49  C   UNL A   1      38.709  29.457  27.599  1.00  0.00     0.010 A 
ATOM     50  C   UNL A   1      38.795  28.953  28.903  1.00  0.00    -0.014 A 
BRANCH  50  51
ATOM     51  C   UNL A   1      40.131  28.499  29.283  1.00  0.00     0.031 A 
ATOM     52  C   UNL A   1      40.557  27.127  28.891  1.00  0.00     0.074 A 
ATOM     53  C   UNL A   1      41.034  29.375  29.785  1.00  0.00     0.049 A 
ATOM     54  N   UNL A   1      41.639  26.553  29.287  1.00  0.00    -0.248 NA
ATOM     55  C   UNL A   1      39.754  26.266  28.022  1.00  0.00     0.031 C 
ATOM     56  C   UNL A   1      42.487  29.217  29.789  1.00  0.00     0.029 A 
ATOM     57  N   UNL A   1      40.826  30.503  30.582  1.00  0.00    -0.354 N 
ATOM     58  C   UNL A   1      41.821  25.418  28.527  1.00  0.00     0.074 A 
ATOM     59  C   UNL A   1      40.596  25.258  27.786  1.00  0.00     0.031 C 
ATOM     60  C   UNL A   1      43.002  29.979  30.766  1.00  0.00     0.029 A 
ATOM     61  C   UNL A   1      41.882  30.522  31.512  1.00  0.00     0.049 A 
ATOM     62  H   UNL A   1      40.091  31.153  30.507  1.00  0.00     0.167 HD
ATOM     63  C   UNL A   1      43.035  24.802  28.527  1.00  0.00     0.031 A 
ATOM     64  C   UNL A   1      41.720  30.414  32.865  1.00  0.00     0.031 A 
ATOM     65  C   UNL A   1      43.920  25.390  29.526  1.00  0.00     0.049 A 
ATOM     66  C   UNL A   1      42.455  29.229  33.460  1.00  0.00     0.074 A 
ATOM     67  C   UNL A   1      44.946  26.319  29.468  1.00  0.00     0.029 A 
ATOM     68  N   UNL A   1      43.587  25.248  30.865  1.00  0.00    -0.354 N 
ATOM     69  N   UNL A   1      42.967  28.262  32.750  1.00  0.00    -0.248 NA
ATOM     70  C   UNL A   1      42.640  29.011  34.894  1.00  0.00     0.031 C 
ATOM     71  C   UNL A   1      45.163  26.805  30.786  1.00  0.00     0.029 A 
ATOM     72  C   UNL A   1      44.296  26.144  31.639  1.00  0.00     0.049 A 
ATOM     73  H   UNL A   1      42.936  24.597  31.214  1.00  0.00     0.167 HD
ATOM     74  C   UNL A   1      43.513  27.314  33.572  1.00  0.00     0.074 A 
ATOM     75  C   UNL A   1      43.297  27.836  34.909  1.00  0.00     0.031 C 
ATOM     76  C   UNL A   1      44.079  26.173  33.079  1.00  0.00     0.031 A 
BRANCH  63  77
ATOM     77  C   UNL A   1      43.499  23.813  27.485  1.00  0.00    -0.014 A 
ATOM     78  C   UNL A   1      42.868  22.554  27.402  1.00  0.00     0.010 A 
ATOM     79  C   UNL A   1      44.569  24.027  26.595  1.00  0.00     0.010 A 
ATOM     80  C   UNL A   1      43.321  21.546  26.540  1.00  0.00     0.020 A 
ATOM     81  C   UNL A   1      45.054  23.020  25.747  1.00  0.00     0.020 A 
ATOM     82  C   UNL A   1      44.430  21.778  25.731  1.00  0.00     0.054 A 
BRANCH  82  83
ATOM     83  S   UNL A   1      45.039  20.449  24.663  1.00  0.00     0.124 S 
ATOM     84  O   UNL A   1      44.595  20.881  23.340  1.00  0.00    -0.237 OA
ATOM     85  O   UNL A   1      46.479  20.496  24.892  1.00  0.00    -0.237 OA
ATOM     86  O   UNL A   1      44.368  19.255  25.176  1.00  0.00    -0.744 OA
ENDBRANCH  82  83
ENDBRANCH  63  77
BRANCH  64  87
ATOM     87  C   UNL A   1      40.446  30.993  33.374  1.00  0.00    -0.014 A 
ATOM     88  C   UNL A   1      39.473  30.070  33.815  1.00  0.00     0.010 A 
ATOM     89  C   UNL A   1      40.417  32.308  33.871  1.00  0.00     0.010 A 
ATOM     90  C   UNL A   1      38.646  30.382  34.895  1.00  0.00     0.020 A 
ATOM     91  C   UNL A   1      39.578  32.626  34.949  1.00  0.00     0.020 A 
ATOM     92  C   UNL A   1      38.768  31.630  35.506  1.00  0.00     0.054 A 
BRANCH  92  93
ATOM     93  S   UNL A   1      38.066  31.824  37.173  1.00  0.00     0.124 S 
ATOM     94  O   UNL A   1      37.050  32.851  36.969  1.00  0.00    -0.237 OA
ATOM     95  O   UNL A   1      37.554  30.478  37.431  1.00  0.00    -0.237 OA
ATOM     96  O   UNL A   1      39.217  32.221  37.975  1.00  0.00    -0.744 OA
ENDBRANCH  92  93
ENDBRANCH  64  87
BRANCH  76  97
ATOM     97  C   UNL A   1      44.524  24.970  33.875  1.00  0.00    -0.014 A 
ATOM     98  C   UNL A   1      43.677  23.925  34.271  1.00  0.00     0.010 A 
ATOM     99  C   UNL A   1      45.911  24.796  34.117  1.00  0.00     0.010 A 
ATOM    100  C   UNL A   1      44.182  22.785  34.917  1.00  0.00     0.020 A 
ATOM    101  C   UNL A   1      46.429  23.646  34.716  1.00  0.00     0.020 A 
ATOM    102  C   UNL A   1      45.555  22.654  35.135  1.00  0.00     0.054 A 
BRANCH 102 103
ATOM    103  S   UNL A   1      46.208  21.147  35.900  1.00  0.00     0.124 S 
ATOM    104  O   UNL A   1      47.583  21.135  35.411  1.00  0.00    -0.237 OA
ATOM    105  O   UNL A   1      46.054  21.411  37.329  1.00  0.00    -0.237 OA
ATOM    106  O   UNL A   1      45.342  20.096  35.372  1.00  0.00    -0.744 OA
ENDBRANCH 102 103
ENDBRANCH  76  97
ENDBRANCH  50  51
ENDBRANCH  42  45
ENDBRANCH  40  41
ENDBRANCH  39  40
ENDBRANCH   1  39
TORSDOF 20
ENDMDL
MODEL 3
REMARK VINA RESULT:     -13.3      3.982     10.872
REMARK SMILES Cc1ccc(S(=O)(=O)n2cc(C(=O)C(=O)N[C@@H](Cc3cnc[nH]3)C(=O)NCCCNC(=O)c3ccc(-c4c5nc(c(-c6ccc(S(=O)(=O)[O-])cc6)c6ccc([nH]6)c(-c6ccc(S(=O)(=O)[O-])cc6)c6nc(c(-c7ccc(S(=O)(=O)[O-])cc7)c7ccc4[nH]7)C=C6)C=C5)cc3)c3ccccc32)cc1
REMARK SMILES IDX 27 1 26 2 24 3 25 4 17 6 16 7 14 8 15 9 12 11 13 12 11 13
REMARK SMILES IDX 9 14 10 15 98 16 93 17 97 18 94 19 96 20 95 21 6 22 7 23
REMARK SMILES IDX 8 24 5 25 1 26 2 27 3 28 100 29 4 30 99 31 18 32 19 33 20 34
REMARK SMILES IDX 23 35 21 36 22 37 28 39 29 40 30 41 31 42 32 44 33 45 34 46
REMARK SMILES IDX 92 47 35 48 91 49 36 50 37 51 38 52 85 53 39 54 90 55 84 56
REMARK SMILES IDX 86 57 40 58 89 59 83 60 82 61 41 63 71 64 52 65 70 66 53 67
REMARK SMILES IDX 56 68 69 69 87 70 54 71 55 72 68 74 88 75 57 76 42 77 43 78
REMARK SMILES IDX 51 79 44 80 50 81 45 82 46 83 47 84 48 85 49 86 72 87 73 88
REMARK SMILES IDX 81 89 74 90 80 91 75 92 76 93 77 94 78 95 79 96 58 97 59 98
REMARK SMILES IDX 67 99 60 100 66 101 61 102 62 103 63 104 64 105 65 106
REMARK H PARENT 26 5 16 10 23 38 30 43 86 62 56 73
REMARK Flexibility Score: inf
ROOT
ATOM      1  C   UNL A   1      36.774  22.277  23.922  1.00  0.00     0.117 C 
ENDROOT
BRANCH   1   2
ATOM      2  N   UNL A   1      36.036  23.459  24.324  1.00  0.00    -0.354 N 
ATOM      3  C   UNL A   1      34.973  23.580  25.170  1.00  0.00     0.242 C 
ATOM      4  O   UNL A   1      34.729  24.707  25.614  1.00  0.00    -0.273 OA
ATOM      5  H   UNL A   1      36.349  24.303  23.924  1.00  0.00     0.163 HD
BRANCH   3   6
ATOM      6  C   UNL A   1      34.134  22.369  25.652  1.00  0.00     0.177 C 
BRANCH   6   7
ATOM      7  N   UNL A   1      33.256  22.707  26.786  1.00  0.00    -0.337 N 
ATOM      8  C   UNL A   1      31.945  23.155  26.816  1.00  0.00     0.293 C 
ATOM      9  O   UNL A   1      31.358  23.141  27.894  1.00  0.00    -0.265 OA
ATOM     10  H   UNL A   1      33.670  22.595  27.672  1.00  0.00     0.164 HD
BRANCH   8  11
ATOM     11  C   UNL A   1      31.230  23.719  25.553  1.00  0.00     0.252 C 
ATOM     12  O   UNL A   1      30.439  22.997  24.956  1.00  0.00    -0.283 OA
BRANCH  11  13
ATOM     13  C   UNL A   1      31.521  25.063  25.005  1.00  0.00     0.054 A 
ATOM     14  N   UNL A   1      31.840  27.264  24.760  1.00  0.00    -0.240 N 
ATOM     15  C   UNL A   1      31.379  26.296  25.618  1.00  0.00     0.117 A 
ATOM     16  C   UNL A   1      32.286  26.717  23.577  1.00  0.00     0.065 A 
ATOM     17  C   UNL A   1      32.049  25.339  23.684  1.00  0.00     0.012 A 
ATOM     18  C   UNL A   1      32.852  27.288  22.421  1.00  0.00     0.028 A 
ATOM     19  C   UNL A   1      32.367  24.523  22.575  1.00  0.00     0.011 A 
ATOM     20  C   UNL A   1      33.150  26.450  21.343  1.00  0.00     0.002 A 
ATOM     21  C   UNL A   1      32.904  25.086  21.414  1.00  0.00     0.001 A 
BRANCH  14  22
ATOM     22  S   UNL A   1      31.869  28.929  25.123  1.00  0.00     0.268 S 
ATOM     23  O   UNL A   1      33.145  29.403  24.636  1.00  0.00    -0.201 OA
ATOM     24  O   UNL A   1      31.494  29.042  26.525  1.00  0.00    -0.201 OA
BRANCH  22  25
ATOM     25  C   UNL A   1      30.601  29.735  24.178  1.00  0.00     0.088 A 
ATOM     26  C   UNL A   1      27.697  31.984  21.936  1.00  0.00     0.044 C 
ATOM     27  C   UNL A   1      28.704  31.192  22.717  1.00  0.00    -0.051 A 
ATOM     28  C   UNL A   1      29.255  31.727  23.887  1.00  0.00     0.005 A 
ATOM     29  C   UNL A   1      29.090  29.911  22.304  1.00  0.00     0.005 A 
ATOM     30  C   UNL A   1      30.204  31.006  24.612  1.00  0.00     0.022 A 
ATOM     31  C   UNL A   1      30.029  29.175  23.035  1.00  0.00     0.022 A 
ENDBRANCH  22  25
ENDBRANCH  14  22
ENDBRANCH  11  13
ENDBRANCH   8  11
ENDBRANCH   6   7
BRANCH   6  32
ATOM     32  C   UNL A   1      33.469  21.544  24.524  1.00  0.00     0.090 C 
BRANCH  32  33
ATOM     33  C   UNL A   1      33.501  20.056  24.647  1.00  0.00     0.037 A 
ATOM     34  C   UNL A   1      32.497  19.110  24.692  1.00  0.00     0.134 A 
ATOM     35  N   UNL A   1      34.667  19.321  24.705  1.00  0.00    -0.348 N 
ATOM     36  N   UNL A   1      33.017  17.844  24.677  1.00  0.00    -0.245 NA
ATOM     37  C   UNL A   1      34.321  17.997  24.662  1.00  0.00     0.196 A 
ATOM     38  H   UNL A   1      35.581  19.682  24.767  1.00  0.00     0.167 HD
ENDBRANCH  32  33
ENDBRANCH   6  32
ENDBRANCH   3   6
ENDBRANCH   1   2
BRANCH   1  39
ATOM     39  C   UNL A   1      37.721  21.735  24.968  1.00  0.00     0.042 C 
BRANCH  39  40
ATOM     40  C   UNL A   1      38.165  22.819  25.925  1.00  0.00     0.118 C 
BRANCH  40  41
ATOM     41  N   UNL A   1      39.283  22.459  26.798  1.00  0.00    -0.352 N 
ATOM     42  C   UNL A   1      40.107  23.314  27.522  1.00  0.00     0.251 C 
ATOM     43  H   UNL A   1      39.474  21.497  26.883  1.00  0.00     0.163 HD
ATOM     44  O   UNL A   1      41.105  22.900  28.095  1.00  0.00    -0.269 OA
BRANCH  42  45
ATOM     45  C   UNL A   1      39.706  24.736  27.624  1.00  0.00     0.039 A 
ATOM     46  C   UNL A   1      40.224  25.659  26.709  1.00  0.00     0.014 A 
ATOM     47  C   UNL A   1      39.079  25.167  28.784  1.00  0.00     0.014 A 
ATOM     48  C   UNL A   1      40.314  27.003  27.075  1.00  0.00     0.010 A 
ATOM     49  C   UNL A   1      39.345  26.443  29.218  1.00  0.00     0.010 A 
ATOM     50  C   UNL A   1      39.982  27.365  28.378  1.00  0.00    -0.014 A 
BRANCH  50  51
ATOM     51  C   UNL A   1      40.260  28.655  29.005  1.00  0.00     0.031 A 
ATOM     52  C   UNL A   1      39.260  29.749  28.862  1.00  0.00     0.074 A 
ATOM     53  C   UNL A   1      41.292  28.786  29.873  1.00  0.00     0.049 A 
ATOM     54  N   UNL A   1      39.447  30.968  29.232  1.00  0.00    -0.248 NA
ATOM     55  C   UNL A   1      37.949  29.548  28.242  1.00  0.00     0.031 C 
ATOM     56  C   UNL A   1      41.440  29.817  30.898  1.00  0.00     0.029 A 
ATOM     57  N   UNL A   1      42.529  28.136  29.883  1.00  0.00    -0.354 N 
ATOM     58  C   UNL A   1      38.232  31.618  29.182  1.00  0.00     0.074 A 
ATOM     59  C   UNL A   1      37.341  30.705  28.515  1.00  0.00     0.031 C 
ATOM     60  C   UNL A   1      42.740  29.941  31.203  1.00  0.00     0.029 A 
ATOM     61  C   UNL A   1      43.474  29.105  30.271  1.00  0.00     0.049 A 
ATOM     62  H   UNL A   1      42.703  27.193  29.665  1.00  0.00     0.167 HD
ATOM     63  C   UNL A   1      38.091  32.815  29.813  1.00  0.00     0.031 A 
ATOM     64  C   UNL A   1      44.506  29.533  29.483  1.00  0.00     0.031 A 
ATOM     65  C   UNL A   1      39.373  33.303  30.307  1.00  0.00     0.049 A 
ATOM     66  C   UNL A   1      44.471  31.024  29.215  1.00  0.00     0.074 A 
ATOM     67  C   UNL A   1      39.991  33.286  31.547  1.00  0.00     0.029 A 
ATOM     68  N   UNL A   1      40.349  33.642  29.381  1.00  0.00    -0.354 N 
ATOM     69  N   UNL A   1      43.441  31.783  29.470  1.00  0.00    -0.248 NA
ATOM     70  C   UNL A   1      45.565  31.776  28.603  1.00  0.00     0.031 C 
ATOM     71  C   UNL A   1      41.377  33.528  31.342  1.00  0.00     0.029 A 
ATOM     72  C   UNL A   1      41.585  33.726  29.988  1.00  0.00     0.049 A 
ATOM     73  H   UNL A   1      40.181  33.801  28.424  1.00  0.00     0.167 HD
ATOM     74  C   UNL A   1      43.692  33.067  29.067  1.00  0.00     0.074 A 
ATOM     75  C   UNL A   1      45.044  33.016  28.542  1.00  0.00     0.031 C 
ATOM     76  C   UNL A   1      42.755  34.054  29.184  1.00  0.00     0.031 A 
BRANCH  63  77
ATOM     77  C   UNL A   1      36.767  33.448  30.173  1.00  0.00    -0.014 A 
ATOM     78  C   UNL A   1      35.933  33.930  29.143  1.00  0.00     0.010 A 
ATOM     79  C   UNL A   1      36.304  33.646  31.488  1.00  0.00     0.010 A 
ATOM     80  C   UNL A   1      34.747  34.631  29.408  1.00  0.00     0.020 A 
ATOM     81  C   UNL A   1      35.136  34.370  31.771  1.00  0.00     0.020 A 
ATOM     82  C   UNL A   1      34.366  34.867  30.726  1.00  0.00     0.054 A 
BRANCH  82  83
ATOM     83  S   UNL A   1      32.863  35.822  31.054  1.00  0.00     0.124 S 
ATOM     84  O   UNL A   1      33.398  37.101  31.516  1.00  0.00    -0.237 OA
ATOM     85  O   UNL A   1      32.213  35.845  29.748  1.00  0.00    -0.237 OA
ATOM     86  O   UNL A   1      32.171  35.039  32.078  1.00  0.00    -0.744 OA
ENDBRANCH  82  83
ENDBRANCH  63  77
BRANCH  64  87
ATOM     87  C   UNL A   1      45.038  28.494  28.559  1.00  0.00    -0.014 A 
ATOM     88  C   UNL A   1      44.353  28.337  27.336  1.00  0.00     0.010 A 
ATOM     89  C   UNL A   1      46.384  28.096  28.646  1.00  0.00     0.010 A 
ATOM     90  C   UNL A   1      45.052  28.013  26.173  1.00  0.00     0.020 A 
ATOM     91  C   UNL A   1      47.086  27.760  27.479  1.00  0.00     0.020 A 
ATOM     92  C   UNL A   1      46.431  27.812  26.244  1.00  0.00     0.054 A 
BRANCH  92  93
ATOM     93  S   UNL A   1      47.375  27.892  24.690  1.00  0.00     0.124 S 
ATOM     94  O   UNL A   1      46.697  28.961  23.965  1.00  0.00    -0.237 OA
ATOM     95  O   UNL A   1      48.714  28.217  25.181  1.00  0.00    -0.237 OA
ATOM     96  O   UNL A   1      47.219  26.552  24.136  1.00  0.00    -0.744 OA
ENDBRANCH  92  93
ENDBRANCH  64  87
BRANCH  76  97
ATOM     97  C   UNL A   1      42.830  35.443  28.596  1.00  0.00    -0.014 A 
ATOM     98  C   UNL A   1      42.411  35.777  27.299  1.00  0.00     0.010 A 
ATOM     99  C   UNL A   1      43.205  36.516  29.445  1.00  0.00     0.010 A 
ATOM    100  C   UNL A   1      42.411  37.110  26.858  1.00  0.00     0.020 A 
ATOM    101  C   UNL A   1      43.163  37.849  29.030  1.00  0.00     0.020 A 
ATOM    102  C   UNL A   1      42.787  38.137  27.726  1.00  0.00     0.054 A 
BRANCH 102 103
ATOM    103  S   UNL A   1      42.711  39.860  27.174  1.00  0.00     0.124 S 
ATOM    104  O   UNL A   1      43.767  39.898  26.167  1.00  0.00    -0.237 OA
ATOM    105  O   UNL A   1      41.350  39.979  26.657  1.00  0.00    -0.237 OA
ATOM    106  O   UNL A   1      42.975  40.620  28.393  1.00  0.00    -0.744 OA
ENDBRANCH 102 103
ENDBRANCH  76  97
ENDBRANCH  50  51
ENDBRANCH  42  45
ENDBRANCH  40  41
ENDBRANCH  39  40
ENDBRANCH   1  39
TORSDOF 20
ENDMDL
