MODEL 1
REMARK VINA RESULT:     -11.5      0.000      0.000
REMARK SMILES C[C@H]1[C@H](C(=O)NCCCNC(=O)c2ccc(-c3c4nc(c(-c5ccc(S(=O)(=O)[O-])cc5)c5ccc([nH]5)c(-c5ccc(S(=O)(=O)[O-])cc5)c5nc(c(-c6ccc(S(=O)(=O)[O-])cc6)c6ccc3[nH]6)C=C5)C=C4)cc2)CCN1S(=O)(=O)N(C)Cc1ccccc1
REMARK SMILES IDX 7 1 6 2 4 3 5 4 3 6 1 7 2 8 75 9 73 10 74 11 76 12 77 13
REMARK SMILES IDX 78 14 79 15 80 16 81 17 82 18 83 19 87 20 84 21 86 22 85 23
REMARK SMILES IDX 8 24 9 25 10 26 11 27 12 29 13 30 14 31 72 32 15 33 71 34
REMARK SMILES IDX 16 35 17 36 18 37 65 38 19 39 70 40 64 41 66 42 20 43 69 44
REMARK SMILES IDX 63 45 62 46 21 48 51 49 32 50 50 51 33 52 36 53 49 54 67 55
REMARK SMILES IDX 34 56 35 57 48 59 68 60 37 61 22 62 23 63 31 64 24 65 30 66
REMARK SMILES IDX 25 67 26 68 27 69 28 70 29 71 52 72 53 73 61 74 54 75 60 76
REMARK SMILES IDX 55 77 56 78 57 79 58 80 59 81 38 82 39 83 47 84 40 85 46 86
REMARK SMILES IDX 41 87 42 88 43 89 44 90 45 91
REMARK H PARENT 6 5 10 28 66 47 36 58
REMARK Flexibility Score: inf
ROOT
ATOM      1  C   UNL A   1      34.470  23.047  25.379  1.00  0.00     0.117 C 
ENDROOT
BRANCH   1   2
ATOM      2  N   UNL A   1      33.538  22.964  26.498  1.00  0.00    -0.356 N 
ATOM      3  C   UNL A   1      32.197  23.128  26.620  1.00  0.00     0.224 C 
ATOM      4  O   UNL A   1      31.735  22.916  27.751  1.00  0.00    -0.275 OA
ATOM      5  H   UNL A   1      33.977  22.741  27.350  1.00  0.00     0.163 HD
BRANCH   3   6
ATOM      6  C   UNL A   1      31.234  23.600  25.530  1.00  0.00     0.098 C 
ATOM      7  C   UNL A   1      29.772  25.532  26.162  1.00  0.00     0.026 C 
ATOM      8  C   UNL A   1      31.087  25.129  25.479  1.00  0.00     0.083 C 
ATOM      9  N   UNL A   1      30.989  25.524  24.028  1.00  0.00    -0.185 NA
ATOM     10  C   UNL A   1      31.417  23.138  24.104  1.00  0.00     0.032 C 
ATOM     11  C   UNL A   1      30.800  24.250  23.266  1.00  0.00     0.105 C 
BRANCH   9  12
ATOM     12  S   UNL A   1      32.231  26.499  23.388  1.00  0.00     0.282 S 
ATOM     13  O   UNL A   1      33.431  26.094  24.074  1.00  0.00    -0.195 OA
ATOM     14  O   UNL A   1      32.155  26.404  21.946  1.00  0.00    -0.195 OA
BRANCH  12  15
ATOM     15  N   UNL A   1      31.854  28.096  23.779  1.00  0.00    -0.188 NA
ATOM     16  C   UNL A   1      32.819  28.949  24.478  1.00  0.00     0.126 C 
BRANCH  15  17
ATOM     17  C   UNL A   1      31.179  28.838  22.657  1.00  0.00     0.138 C 
BRANCH  17  18
ATOM     18  C   UNL A   1      29.899  29.536  23.062  1.00  0.00    -0.033 A 
ATOM     19  C   UNL A   1      29.927  30.698  23.852  1.00  0.00     0.005 A 
ATOM     20  C   UNL A   1      28.677  29.095  22.530  1.00  0.00     0.005 A 
ATOM     21  C   UNL A   1      28.784  31.464  24.011  1.00  0.00     0.000 A 
ATOM     22  C   UNL A   1      27.528  29.847  22.710  1.00  0.00     0.000 A 
ATOM     23  C   UNL A   1      27.602  31.034  23.423  1.00  0.00     0.000 A 
ENDBRANCH  17  18
ENDBRANCH  15  17
ENDBRANCH  12  15
ENDBRANCH   9  12
ENDBRANCH   3   6
ENDBRANCH   1   2
BRANCH   1  24
ATOM     24  C   UNL A   1      35.711  23.893  25.674  1.00  0.00     0.042 C 
BRANCH  24  25
ATOM     25  C   UNL A   1      36.884  23.729  24.704  1.00  0.00     0.118 C 
BRANCH  25  26
ATOM     26  N   UNL A   1      37.888  22.757  25.134  1.00  0.00    -0.352 N 
ATOM     27  C   UNL A   1      38.963  22.801  25.999  1.00  0.00     0.251 C 
ATOM     28  H   UNL A   1      37.773  21.874  24.712  1.00  0.00     0.163 HD
ATOM     29  O   UNL A   1      39.649  21.782  26.099  1.00  0.00    -0.269 OA
BRANCH  27  30
ATOM     30  C   UNL A   1      39.387  24.018  26.754  1.00  0.00     0.039 A 
ATOM     31  C   UNL A   1      40.105  25.010  26.055  1.00  0.00     0.014 A 
ATOM     32  C   UNL A   1      39.073  24.256  28.091  1.00  0.00     0.014 A 
ATOM     33  C   UNL A   1      40.393  26.256  26.646  1.00  0.00     0.010 A 
ATOM     34  C   UNL A   1      39.319  25.515  28.666  1.00  0.00     0.010 A 
ATOM     35  C   UNL A   1      39.975  26.536  27.952  1.00  0.00    -0.014 A 
BRANCH  35  36
ATOM     36  C   UNL A   1      40.340  27.819  28.633  1.00  0.00     0.031 A 
ATOM     37  C   UNL A   1      41.716  27.952  29.236  1.00  0.00     0.074 A 
ATOM     38  C   UNL A   1      39.482  28.858  28.750  1.00  0.00     0.049 A 
ATOM     39  N   UNL A   1      42.246  28.957  29.888  1.00  0.00    -0.248 NA
ATOM     40  C   UNL A   1      42.603  26.786  29.106  1.00  0.00     0.031 C 
ATOM     41  C   UNL A   1      38.110  28.900  28.250  1.00  0.00     0.029 A 
ATOM     42  N   UNL A   1      39.651  30.091  29.346  1.00  0.00    -0.354 N 
ATOM     43  C   UNL A   1      43.523  28.541  30.246  1.00  0.00     0.074 A 
ATOM     44  C   UNL A   1      43.657  27.170  29.805  1.00  0.00     0.031 C 
ATOM     45  C   UNL A   1      37.564  30.093  28.554  1.00  0.00     0.029 A 
ATOM     46  C   UNL A   1      38.540  30.904  29.282  1.00  0.00     0.049 A 
ATOM     47  H   UNL A   1      40.491  30.366  29.779  1.00  0.00     0.167 HD
ATOM     48  C   UNL A   1      44.516  29.234  30.852  1.00  0.00     0.031 A 
ATOM     49  C   UNL A   1      38.327  32.154  29.749  1.00  0.00     0.031 A 
ATOM     50  C   UNL A   1      44.416  30.595  31.297  1.00  0.00     0.049 A 
ATOM     51  C   UNL A   1      39.437  32.901  30.455  1.00  0.00     0.074 A 
ATOM     52  C   UNL A   1      45.392  31.379  31.888  1.00  0.00     0.029 A 
ATOM     53  N   UNL A   1      43.276  31.377  31.204  1.00  0.00    -0.354 N 
ATOM     54  N   UNL A   1      40.661  32.511  30.718  1.00  0.00    -0.248 NA
ATOM     55  C   UNL A   1      39.136  34.269  30.913  1.00  0.00     0.031 C 
ATOM     56  C   UNL A   1      44.828  32.622  32.198  1.00  0.00     0.029 A 
ATOM     57  C   UNL A   1      43.519  32.629  31.746  1.00  0.00     0.049 A 
ATOM     58  H   UNL A   1      42.422  31.087  30.812  1.00  0.00     0.167 HD
ATOM     59  C   UNL A   1      41.282  33.595  31.337  1.00  0.00     0.074 A 
ATOM     60  C   UNL A   1      40.306  34.660  31.399  1.00  0.00     0.031 C 
ATOM     61  C   UNL A   1      42.551  33.695  31.805  1.00  0.00     0.031 A 
BRANCH  48  62
ATOM     62  C   UNL A   1      45.815  28.504  31.063  1.00  0.00    -0.014 A 
ATOM     63  C   UNL A   1      46.850  28.590  30.113  1.00  0.00     0.010 A 
ATOM     64  C   UNL A   1      46.001  27.721  32.215  1.00  0.00     0.010 A 
ATOM     65  C   UNL A   1      48.025  27.855  30.281  1.00  0.00     0.020 A 
ATOM     66  C   UNL A   1      47.189  27.011  32.403  1.00  0.00     0.020 A 
ATOM     67  C   UNL A   1      48.182  27.063  31.422  1.00  0.00     0.054 A 
BRANCH  67  68
ATOM     68  S   UNL A   1      49.715  26.113  31.612  1.00  0.00     0.124 S 
ATOM     69  O   UNL A   1      49.640  25.197  30.477  1.00  0.00    -0.237 OA
ATOM     70  O   UNL A   1      50.745  27.145  31.520  1.00  0.00    -0.237 OA
ATOM     71  O   UNL A   1      49.576  25.491  32.926  1.00  0.00    -0.744 OA
ENDBRANCH  67  68
ENDBRANCH  48  62
BRANCH  49  72
ATOM     72  C   UNL A   1      37.002  32.818  29.560  1.00  0.00    -0.014 A 
ATOM     73  C   UNL A   1      36.695  33.477  28.355  1.00  0.00     0.010 A 
ATOM     74  C   UNL A   1      36.060  32.836  30.603  1.00  0.00     0.010 A 
ATOM     75  C   UNL A   1      35.484  34.163  28.207  1.00  0.00     0.020 A 
ATOM     76  C   UNL A   1      34.836  33.497  30.450  1.00  0.00     0.020 A 
ATOM     77  C   UNL A   1      34.560  34.168  29.256  1.00  0.00     0.054 A 
BRANCH  77  78
ATOM     78  S   UNL A   1      32.978  35.027  29.028  1.00  0.00     0.124 S 
ATOM     79  O   UNL A   1      32.401  34.965  30.367  1.00  0.00    -0.237 OA
ATOM     80  O   UNL A   1      33.399  36.352  28.581  1.00  0.00    -0.237 OA
ATOM     81  O   UNL A   1      32.297  34.223  28.014  1.00  0.00    -0.744 OA
ENDBRANCH  77  78
ENDBRANCH  49  72
BRANCH  61  82
ATOM     82  C   UNL A   1      42.990  35.014  32.396  1.00  0.00    -0.014 A 
ATOM     83  C   UNL A   1      43.598  36.007  31.609  1.00  0.00     0.010 A 
ATOM     84  C   UNL A   1      42.727  35.287  33.752  1.00  0.00     0.010 A 
ATOM     85  C   UNL A   1      43.965  37.234  32.172  1.00  0.00     0.020 A 
ATOM     86  C   UNL A   1      43.066  36.523  34.313  1.00  0.00     0.020 A 
ATOM     87  C   UNL A   1      43.697  37.484  33.522  1.00  0.00     0.054 A 
BRANCH  87  88
ATOM     88  S   UNL A   1      44.146  39.098  34.221  1.00  0.00     0.124 S 
ATOM     89  O   UNL A   1      43.012  39.927  33.826  1.00  0.00    -0.237 OA
ATOM     90  O   UNL A   1      44.248  38.813  35.651  1.00  0.00    -0.237 OA
ATOM     91  O   UNL A   1      45.412  39.420  33.566  1.00  0.00    -0.744 OA
ENDBRANCH  87  88
ENDBRANCH  61  82
ENDBRANCH  35  36
ENDBRANCH  27  30
ENDBRANCH  25  26
ENDBRANCH  24  25
ENDBRANCH   1  24
TORSDOF 17
ENDMDL
MODEL 2
REMARK VINA RESULT:     -11.2      3.867      4.945
REMARK SMILES C[C@H]1[C@H](C(=O)NCCCNC(=O)c2ccc(-c3c4nc(c(-c5ccc(S(=O)(=O)[O-])cc5)c5ccc([nH]5)c(-c5ccc(S(=O)(=O)[O-])cc5)c5nc(c(-c6ccc(S(=O)(=O)[O-])cc6)c6ccc3[nH]6)C=C5)C=C4)cc2)CCN1S(=O)(=O)N(C)Cc1ccccc1
REMARK SMILES IDX 7 1 6 2 4 3 5 4 3 6 1 7 2 8 75 9 73 10 74 11 76 12 77 13
REMARK SMILES IDX 78 14 79 15 80 16 81 17 82 18 83 19 87 20 84 21 86 22 85 23
REMARK SMILES IDX 8 24 9 25 10 26 11 27 12 29 13 30 14 31 72 32 15 33 71 34
REMARK SMILES IDX 16 35 17 36 18 37 65 38 19 39 70 40 64 41 66 42 20 43 69 44
REMARK SMILES IDX 63 45 62 46 21 48 51 49 32 50 50 51 33 52 36 53 49 54 67 55
REMARK SMILES IDX 34 56 35 57 48 59 68 60 37 61 22 62 23 63 31 64 24 65 30 66
REMARK SMILES IDX 25 67 26 68 27 69 28 70 29 71 52 72 53 73 61 74 54 75 60 76
REMARK SMILES IDX 55 77 56 78 57 79 58 80 59 81 38 82 39 83 47 84 40 85 46 86
REMARK SMILES IDX 41 87 42 88 43 89 44 90 45 91
REMARK H PARENT 6 5 10 28 66 47 36 58
REMARK Flexibility Score: inf
ROOT
ATOM      1  C   UNL A   1      37.278  22.440  25.837  1.00  0.00     0.117 C 
ENDROOT
BRANCH   1   2
ATOM      2  N   UNL A   1      36.067  21.899  26.442  1.00  0.00    -0.356 N 
ATOM      3  C   UNL A   1      34.840  21.573  25.963  1.00  0.00     0.224 C 
ATOM      4  O   UNL A   1      34.062  21.073  26.788  1.00  0.00    -0.275 OA
ATOM      5  H   UNL A   1      36.158  21.735  27.409  1.00  0.00     0.163 HD
BRANCH   3   6
ATOM      6  C   UNL A   1      34.321  21.818  24.546  1.00  0.00     0.098 C 
ATOM      7  C   UNL A   1      32.605  20.183  23.740  1.00  0.00     0.026 C 
ATOM      8  C   UNL A   1      32.815  21.552  24.402  1.00  0.00     0.083 C 
ATOM      9  N   UNL A   1      32.258  22.601  23.474  1.00  0.00    -0.185 NA
ATOM     10  C   UNL A   1      34.594  23.134  23.855  1.00  0.00     0.032 C 
ATOM     11  C   UNL A   1      33.444  23.285  22.869  1.00  0.00     0.105 C 
BRANCH   9  12
ATOM     12  S   UNL A   1      31.116  23.694  24.108  1.00  0.00     0.282 S 
ATOM     13  O   UNL A   1      30.151  23.894  23.058  1.00  0.00    -0.195 OA
ATOM     14  O   UNL A   1      30.691  23.177  25.392  1.00  0.00    -0.195 OA
BRANCH  12  15
ATOM     15  N   UNL A   1      31.934  25.135  24.423  1.00  0.00    -0.188 NA
ATOM     16  C   UNL A   1      31.570  26.374  23.733  1.00  0.00     0.126 C 
BRANCH  15  17
ATOM     17  C   UNL A   1      32.170  25.373  25.890  1.00  0.00     0.138 C 
BRANCH  17  18
ATOM     18  C   UNL A   1      32.497  26.810  26.236  1.00  0.00    -0.033 A 
ATOM     19  C   UNL A   1      31.530  27.655  26.807  1.00  0.00     0.005 A 
ATOM     20  C   UNL A   1      33.819  27.264  26.108  1.00  0.00     0.005 A 
ATOM     21  C   UNL A   1      31.899  28.878  27.344  1.00  0.00     0.000 A 
ATOM     22  C   UNL A   1      34.183  28.498  26.621  1.00  0.00     0.000 A 
ATOM     23  C   UNL A   1      33.226  29.275  27.256  1.00  0.00     0.000 A 
ENDBRANCH  17  18
ENDBRANCH  15  17
ENDBRANCH  12  15
ENDBRANCH   9  12
ENDBRANCH   3   6
ENDBRANCH   1   2
BRANCH   1  24
ATOM     24  C   UNL A   1      37.485  23.934  26.104  1.00  0.00     0.042 C 
BRANCH  24  25
ATOM     25  C   UNL A   1      38.736  24.307  26.903  1.00  0.00     0.118 C 
BRANCH  25  26
ATOM     26  N   UNL A   1      39.765  24.993  26.121  1.00  0.00    -0.352 N 
ATOM     27  C   UNL A   1      40.523  26.131  26.315  1.00  0.00     0.251 C 
ATOM     28  H   UNL A   1      39.960  24.544  25.267  1.00  0.00     0.163 HD
ATOM     29  O   UNL A   1      41.290  26.459  25.408  1.00  0.00    -0.269 OA
BRANCH  27  30
ATOM     30  C   UNL A   1      40.415  27.022  27.509  1.00  0.00     0.039 A 
ATOM     31  C   UNL A   1      39.712  26.538  28.632  1.00  0.00     0.014 A 
ATOM     32  C   UNL A   1      41.010  28.279  27.601  1.00  0.00     0.014 A 
ATOM     33  C   UNL A   1      39.710  27.242  29.852  1.00  0.00     0.010 A 
ATOM     34  C   UNL A   1      41.048  28.960  28.830  1.00  0.00     0.010 A 
ATOM     35  C   UNL A   1      40.405  28.450  29.975  1.00  0.00    -0.014 A 
BRANCH  35  36
ATOM     36  C   UNL A   1      40.351  29.260  31.234  1.00  0.00     0.031 A 
ATOM     37  C   UNL A   1      41.404  29.028  32.289  1.00  0.00     0.074 A 
ATOM     38  C   UNL A   1      39.387  30.177  31.476  1.00  0.00     0.049 A 
ATOM     39  N   UNL A   1      41.546  29.595  33.461  1.00  0.00    -0.248 NA
ATOM     40  C   UNL A   1      42.415  28.002  31.990  1.00  0.00     0.031 C 
ATOM     41  C   UNL A   1      38.281  30.517  30.584  1.00  0.00     0.029 A 
ATOM     42  N   UNL A   1      39.186  30.992  32.572  1.00  0.00    -0.354 N 
ATOM     43  C   UNL A   1      42.659  28.992  34.036  1.00  0.00     0.074 A 
ATOM     44  C   UNL A   1      43.104  27.967  33.117  1.00  0.00     0.031 C 
ATOM     45  C   UNL A   1      37.522  31.468  31.162  1.00  0.00     0.029 A 
ATOM     46  C   UNL A   1      38.077  31.804  32.473  1.00  0.00     0.049 A 
ATOM     47  H   UNL A   1      39.782  30.993  33.355  1.00  0.00     0.167 HD
ATOM     48  C   UNL A   1      43.287  29.277  35.202  1.00  0.00     0.031 A 
ATOM     49  C   UNL A   1      37.564  32.714  33.332  1.00  0.00     0.031 A 
ATOM     50  C   UNL A   1      42.873  30.290  36.132  1.00  0.00     0.049 A 
ATOM     51  C   UNL A   1      38.259  32.994  34.646  1.00  0.00     0.074 A 
ATOM     52  C   UNL A   1      43.478  30.663  37.320  1.00  0.00     0.029 A 
ATOM     53  N   UNL A   1      41.751  31.089  35.987  1.00  0.00    -0.354 N 
ATOM     54  N   UNL A   1      39.352  32.461  35.135  1.00  0.00    -0.248 NA
ATOM     55  C   UNL A   1      37.654  34.017  35.516  1.00  0.00     0.031 C 
ATOM     56  C   UNL A   1      42.695  31.656  37.918  1.00  0.00     0.029 A 
ATOM     57  C   UNL A   1      41.635  31.941  37.073  1.00  0.00     0.049 A 
ATOM     58  H   UNL A   1      41.129  31.056  35.225  1.00  0.00     0.167 HD
ATOM     59  C   UNL A   1      39.582  33.108  36.348  1.00  0.00     0.074 A 
ATOM     60  C   UNL A   1      38.523  34.079  36.515  1.00  0.00     0.031 C 
ATOM     61  C   UNL A   1      40.586  32.914  37.240  1.00  0.00     0.031 A 
BRANCH  48  62
ATOM     62  C   UNL A   1      44.509  28.462  35.526  1.00  0.00    -0.014 A 
ATOM     63  C   UNL A   1      45.794  28.933  35.201  1.00  0.00     0.010 A 
ATOM     64  C   UNL A   1      44.372  27.212  36.155  1.00  0.00     0.010 A 
ATOM     65  C   UNL A   1      46.918  28.140  35.440  1.00  0.00     0.020 A 
ATOM     66  C   UNL A   1      45.498  26.431  36.427  1.00  0.00     0.020 A 
ATOM     67  C   UNL A   1      46.760  26.890  36.045  1.00  0.00     0.054 A 
BRANCH  67  68
ATOM     68  S   UNL A   1      48.236  25.879  36.339  1.00  0.00     0.124 S 
ATOM     69  O   UNL A   1      48.224  25.748  37.794  1.00  0.00    -0.237 OA
ATOM     70  O   UNL A   1      47.940  24.656  35.595  1.00  0.00    -0.237 OA
ATOM     71  O   UNL A   1      49.324  26.688  35.795  1.00  0.00    -0.744 OA
ENDBRANCH  67  68
ENDBRANCH  48  62
BRANCH  49  72
ATOM     72  C   UNL A   1      36.319  33.461  32.987  1.00  0.00    -0.014 A 
ATOM     73  C   UNL A   1      36.387  34.730  32.381  1.00  0.00     0.010 A 
ATOM     74  C   UNL A   1      35.057  32.930  33.308  1.00  0.00     0.010 A 
ATOM     75  C   UNL A   1      35.222  35.463  32.127  1.00  0.00     0.020 A 
ATOM     76  C   UNL A   1      33.887  33.647  33.031  1.00  0.00     0.020 A 
ATOM     77  C   UNL A   1      33.978  34.916  32.454  1.00  0.00     0.054 A 
BRANCH  77  78
ATOM     78  S   UNL A   1      32.476  35.864  32.077  1.00  0.00     0.124 S 
ATOM     79  O   UNL A   1      31.427  34.991  32.592  1.00  0.00    -0.237 OA
ATOM     80  O   UNL A   1      32.691  37.103  32.821  1.00  0.00    -0.237 OA
ATOM     81  O   UNL A   1      32.518  36.004  30.623  1.00  0.00    -0.744 OA
ENDBRANCH  77  78
ENDBRANCH  49  72
BRANCH  61  82
ATOM     82  C   UNL A   1      40.627  33.792  38.468  1.00  0.00    -0.014 A 
ATOM     83  C   UNL A   1      41.306  35.023  38.470  1.00  0.00     0.010 A 
ATOM     84  C   UNL A   1      39.917  33.406  39.620  1.00  0.00     0.010 A 
ATOM     85  C   UNL A   1      41.301  35.835  39.609  1.00  0.00     0.020 A 
ATOM     86  C   UNL A   1      39.886  34.227  40.753  1.00  0.00     0.020 A 
ATOM     87  C   UNL A   1      40.591  35.431  40.744  1.00  0.00     0.054 A 
BRANCH  87  88
ATOM     88  S   UNL A   1      40.567  36.519  42.197  1.00  0.00     0.124 S 
ATOM     89  O   UNL A   1      41.581  35.911  43.052  1.00  0.00    -0.237 OA
ATOM     90  O   UNL A   1      40.920  37.820  41.631  1.00  0.00    -0.237 OA
ATOM     91  O   UNL A   1      39.193  36.414  42.686  1.00  0.00    -0.744 OA
ENDBRANCH  87  88
ENDBRANCH  61  82
ENDBRANCH  35  36
ENDBRANCH  27  30
ENDBRANCH  25  26
ENDBRANCH  24  25
ENDBRANCH   1  24
TORSDOF 17
ENDMDL
MODEL 3
REMARK VINA RESULT:     -10.9      2.571      3.281
REMARK SMILES C[C@H]1[C@H](C(=O)NCCCNC(=O)c2ccc(-c3c4nc(c(-c5ccc(S(=O)(=O)[O-])cc5)c5ccc([nH]5)c(-c5ccc(S(=O)(=O)[O-])cc5)c5nc(c(-c6ccc(S(=O)(=O)[O-])cc6)c6ccc3[nH]6)C=C5)C=C4)cc2)CCN1S(=O)(=O)N(C)Cc1ccccc1
REMARK SMILES IDX 7 1 6 2 4 3 5 4 3 6 1 7 2 8 75 9 73 10 74 11 76 12 77 13
REMARK SMILES IDX 78 14 79 15 80 16 81 17 82 18 83 19 87 20 84 21 86 22 85 23
REMARK SMILES IDX 8 24 9 25 10 26 11 27 12 29 13 30 14 31 72 32 15 33 71 34
REMARK SMILES IDX 16 35 17 36 18 37 65 38 19 39 70 40 64 41 66 42 20 43 69 44
REMARK SMILES IDX 63 45 62 46 21 48 51 49 32 50 50 51 33 52 36 53 49 54 67 55
REMARK SMILES IDX 34 56 35 57 48 59 68 60 37 61 22 62 23 63 31 64 24 65 30 66
REMARK SMILES IDX 25 67 26 68 27 69 28 70 29 71 52 72 53 73 61 74 54 75 60 76
REMARK SMILES IDX 55 77 56 78 57 79 58 80 59 81 38 82 39 83 47 84 40 85 46 86
REMARK SMILES IDX 41 87 42 88 43 89 44 90 45 91
REMARK H PARENT 6 5 10 28 66 47 36 58
REMARK Flexibility Score: inf
ROOT
ATOM      1  C   UNL A   1      35.633  20.712  24.814  1.00  0.00     0.117 C 
ENDROOT
BRANCH   1   2
ATOM      2  N   UNL A   1      34.935  20.862  26.086  1.00  0.00    -0.356 N 
ATOM      3  C   UNL A   1      33.696  21.291  26.435  1.00  0.00     0.224 C 
ATOM      4  O   UNL A   1      33.430  21.223  27.643  1.00  0.00    -0.275 OA
ATOM      5  H   UNL A   1      35.482  20.595  26.860  1.00  0.00     0.163 HD
BRANCH   3   6
ATOM      6  C   UNL A   1      32.646  21.894  25.503  1.00  0.00     0.098 C 
ATOM      7  C   UNL A   1      31.241  23.707  26.508  1.00  0.00     0.026 C 
ATOM      8  C   UNL A   1      32.494  23.414  25.670  1.00  0.00     0.083 C 
ATOM      9  N   UNL A   1      32.275  23.999  24.298  1.00  0.00    -0.185 NA
ATOM     10  C   UNL A   1      32.708  21.629  24.016  1.00  0.00     0.032 C 
ATOM     11  C   UNL A   1      32.022  22.836  23.391  1.00  0.00     0.105 C 
BRANCH   9  12
ATOM     12  S   UNL A   1      33.458  25.065  23.695  1.00  0.00     0.282 S 
ATOM     13  O   UNL A   1      34.411  25.228  24.762  1.00  0.00    -0.195 OA
ATOM     14  O   UNL A   1      33.889  24.550  22.413  1.00  0.00    -0.195 OA
BRANCH  12  15
ATOM     15  N   UNL A   1      32.687  26.532  23.382  1.00  0.00    -0.188 NA
ATOM     16  C   UNL A   1      32.592  27.058  22.018  1.00  0.00     0.126 C 
BRANCH  15  17
ATOM     17  C   UNL A   1      31.384  26.685  24.120  1.00  0.00     0.138 C 
BRANCH  17  18
ATOM     18  C   UNL A   1      31.428  27.699  25.243  1.00  0.00    -0.033 A 
ATOM     19  C   UNL A   1      31.471  27.291  26.587  1.00  0.00     0.005 A 
ATOM     20  C   UNL A   1      31.562  29.062  24.934  1.00  0.00     0.005 A 
ATOM     21  C   UNL A   1      31.758  28.204  27.588  1.00  0.00     0.000 A 
ATOM     22  C   UNL A   1      31.823  29.980  25.937  1.00  0.00     0.000 A 
ATOM     23  C   UNL A   1      31.946  29.536  27.245  1.00  0.00     0.000 A 
ENDBRANCH  17  18
ENDBRANCH  15  17
ENDBRANCH  12  15
ENDBRANCH   9  12
ENDBRANCH   3   6
ENDBRANCH   1   2
BRANCH   1  24
ATOM     24  C   UNL A   1      36.375  21.975  24.367  1.00  0.00     0.042 C 
BRANCH  24  25
ATOM     25  C   UNL A   1      37.231  22.665  25.432  1.00  0.00     0.118 C 
BRANCH  25  26
ATOM     26  N   UNL A   1      38.362  21.867  25.904  1.00  0.00    -0.352 N 
ATOM     27  C   UNL A   1      39.542  22.161  26.558  1.00  0.00     0.251 C 
ATOM     28  H   UNL A   1      38.261  20.907  25.711  1.00  0.00     0.163 HD
ATOM     29  O   UNL A   1      40.317  21.227  26.772  1.00  0.00    -0.269 OA
BRANCH  27  30
ATOM     30  C   UNL A   1      39.968  23.539  26.948  1.00  0.00     0.039 A 
ATOM     31  C   UNL A   1      40.638  23.697  28.179  1.00  0.00     0.014 A 
ATOM     32  C   UNL A   1      39.791  24.667  26.149  1.00  0.00     0.014 A 
ATOM     33  C   UNL A   1      41.221  24.928  28.540  1.00  0.00     0.010 A 
ATOM     34  C   UNL A   1      40.410  25.883  26.487  1.00  0.00     0.010 A 
ATOM     35  C   UNL A   1      41.140  26.031  27.683  1.00  0.00    -0.014 A 
BRANCH  35  36
ATOM     36  C   UNL A   1      41.677  27.371  28.078  1.00  0.00     0.031 A 
ATOM     37  C   UNL A   1      43.161  27.617  27.969  1.00  0.00     0.074 A 
ATOM     38  C   UNL A   1      40.892  28.366  28.550  1.00  0.00     0.049 A 
ATOM     39  N   UNL A   1      43.852  28.688  28.271  1.00  0.00    -0.248 NA
ATOM     40  C   UNL A   1      43.975  26.495  27.476  1.00  0.00     0.031 C 
ATOM     41  C   UNL A   1      39.446  28.302  28.744  1.00  0.00     0.029 A 
ATOM     42  N   UNL A   1      41.221  29.641  28.963  1.00  0.00    -0.354 N 
ATOM     43  C   UNL A   1      45.178  28.365  28.006  1.00  0.00     0.074 A 
ATOM     44  C   UNL A   1      45.200  26.979  27.593  1.00  0.00     0.031 C 
ATOM     45  C   UNL A   1      39.011  29.479  29.232  1.00  0.00     0.029 A 
ATOM     46  C   UNL A   1      40.147  30.386  29.399  1.00  0.00     0.049 A 
ATOM     47  H   UNL A   1      42.142  29.989  28.948  1.00  0.00     0.167 HD
ATOM     48  C   UNL A   1      46.282  29.148  28.061  1.00  0.00     0.031 A 
ATOM     49  C   UNL A   1      40.077  31.650  29.875  1.00  0.00     0.031 A 
ATOM     50  C   UNL A   1      46.294  30.527  28.461  1.00  0.00     0.049 A 
ATOM     51  C   UNL A   1      41.326  32.499  29.963  1.00  0.00     0.074 A 
ATOM     52  C   UNL A   1      47.368  31.399  28.509  1.00  0.00     0.029 A 
ATOM     53  N   UNL A   1      45.183  31.238  28.886  1.00  0.00    -0.354 N 
ATOM     54  N   UNL A   1      42.560  32.194  29.638  1.00  0.00    -0.248 NA
ATOM     55  C   UNL A   1      41.166  33.873  30.467  1.00  0.00     0.031 C 
ATOM     56  C   UNL A   1      46.916  32.625  29.009  1.00  0.00     0.029 A 
ATOM     57  C   UNL A   1      45.550  32.532  29.217  1.00  0.00     0.049 A 
ATOM     58  H   UNL A   1      44.270  30.877  28.944  1.00  0.00     0.167 HD
ATOM     59  C   UNL A   1      43.310  33.346  29.865  1.00  0.00     0.074 A 
ATOM     60  C   UNL A   1      42.393  34.358  30.343  1.00  0.00     0.031 C 
ATOM     61  C   UNL A   1      44.640  33.545  29.688  1.00  0.00     0.031 A 
BRANCH  48  62
ATOM     62  C   UNL A   1      47.584  28.505  27.665  1.00  0.00    -0.014 A 
ATOM     63  C   UNL A   1      48.019  28.527  26.327  1.00  0.00     0.010 A 
ATOM     64  C   UNL A   1      48.376  27.870  28.637  1.00  0.00     0.010 A 
ATOM     65  C   UNL A   1      49.192  27.868  25.956  1.00  0.00     0.020 A 
ATOM     66  C   UNL A   1      49.569  27.239  28.274  1.00  0.00     0.020 A 
ATOM     67  C   UNL A   1      49.955  27.221  26.932  1.00  0.00     0.054 A 
BRANCH  67  68
ATOM     68  S   UNL A   1      51.471  26.368  26.421  1.00  0.00     0.124 S 
ATOM     69  O   UNL A   1      52.496  27.135  27.124  1.00  0.00    -0.237 OA
ATOM     70  O   UNL A   1      51.255  25.009  26.912  1.00  0.00    -0.237 OA
ATOM     71  O   UNL A   1      51.474  26.509  24.967  1.00  0.00    -0.744 OA
ENDBRANCH  67  68
ENDBRANCH  48  62
BRANCH  49  72
ATOM     72  C   UNL A   1      38.768  32.226  30.304  1.00  0.00    -0.014 A 
ATOM     73  C   UNL A   1      38.367  32.171  31.652  1.00  0.00     0.010 A 
ATOM     74  C   UNL A   1      37.892  32.788  29.358  1.00  0.00     0.010 A 
ATOM     75  C   UNL A   1      37.107  32.643  32.041  1.00  0.00     0.020 A 
ATOM     76  C   UNL A   1      36.643  33.286  29.746  1.00  0.00     0.020 A 
ATOM     77  C   UNL A   1      36.253  33.199  31.084  1.00  0.00     0.054 A 
BRANCH  77  78
ATOM     78  S   UNL A   1      34.642  33.844  31.616  1.00  0.00     0.124 S 
ATOM     79  O   UNL A   1      34.029  32.669  32.226  1.00  0.00    -0.237 OA
ATOM     80  O   UNL A   1      35.019  34.913  32.539  1.00  0.00    -0.237 OA
ATOM     81  O   UNL A   1      34.028  34.296  30.369  1.00  0.00    -0.744 OA
ENDBRANCH  77  78
ENDBRANCH  49  72
BRANCH  61  82
ATOM     82  C   UNL A   1      45.198  34.920  29.969  1.00  0.00    -0.014 A 
ATOM     83  C   UNL A   1      45.223  35.919  28.981  1.00  0.00     0.010 A 
ATOM     84  C   UNL A   1      45.645  35.234  31.266  1.00  0.00     0.010 A 
ATOM     85  C   UNL A   1      45.714  37.196  29.275  1.00  0.00     0.020 A 
ATOM     86  C   UNL A   1      46.111  36.517  31.572  1.00  0.00     0.020 A 
ATOM     87  C   UNL A   1      46.156  37.487  30.570  1.00  0.00     0.054 A 
BRANCH  87  88
ATOM     88  S   UNL A   1      46.751  39.161  30.938  1.00  0.00     0.124 S 
ATOM     89  O   UNL A   1      45.537  39.957  30.789  1.00  0.00    -0.237 OA
ATOM     90  O   UNL A   1      47.253  39.031  32.304  1.00  0.00    -0.237 OA
ATOM     91  O   UNL A   1      47.779  39.396  29.925  1.00  0.00    -0.744 OA
ENDBRANCH  87  88
ENDBRANCH  61  82
ENDBRANCH  35  36
ENDBRANCH  27  30
ENDBRANCH  25  26
ENDBRANCH  24  25
ENDBRANCH   1  24
TORSDOF 17
ENDMDL
