MODEL 1
REMARK VINA RESULT:     -11.4      0.000      0.000
REMARK SMILES O=C(NCCCNC(=O)c1ccccc1Nc1cccc(C(F)(F)F)c1)c1ccc(-c2c3nc(c(-c4ccc(S(=O)(=O)[O-])cc4)c4ccc([nH]4)c(-c4ccc(S(=O)(=O)[O-])cc4)c4nc(c(-c5ccc(S(=O)(=O)[O-])cc5)c5ccc2[nH]5)C=C4)C=C3)cc1
REMARK SMILES IDX 5 1 4 2 3 3 1 4 2 5 27 7 28 8 86 9 29 10 85 11 30 12 31 13
REMARK SMILES IDX 32 14 79 15 33 16 84 17 78 18 80 19 34 20 83 21 77 22 76 23
REMARK SMILES IDX 35 25 65 26 46 27 64 28 47 29 50 30 63 31 81 32 48 33 49 34
REMARK SMILES IDX 62 36 82 37 51 38 36 39 37 40 45 41 38 42 44 43 39 44 40 45
REMARK SMILES IDX 41 46 42 47 43 48 66 49 67 50 75 51 68 52 74 53 69 54 70 55
REMARK SMILES IDX 71 56 72 57 73 58 52 59 53 60 61 61 54 62 60 63 55 64 56 65
REMARK SMILES IDX 57 66 58 67 59 68 6 69 7 70 8 71 9 73 10 74 11 75 15 76
REMARK SMILES IDX 12 77 14 78 13 79 16 80 17 82 18 83 26 84 19 85 21 86 20 87
REMARK SMILES IDX 22 88 23 89 24 90 25 91
REMARK H PARENT 3 6 80 24 50 35 7 72 16 81
REMARK Flexibility Score: inf
ROOT
ATOM      1  C   UNL A   1      32.623  27.507  26.580  1.00  0.00     0.042 C 
ENDROOT
BRANCH   1   2
ATOM      2  C   UNL A   1      33.944  28.228  26.800  1.00  0.00     0.118 C 
BRANCH   2   3
ATOM      3  N   UNL A   1      33.783  29.572  27.342  1.00  0.00    -0.352 N 
ATOM      4  O   UNL A   1      34.239  31.406  28.563  1.00  0.00    -0.269 OA
ATOM      5  C   UNL A   1      34.647  30.353  28.077  1.00  0.00     0.251 C 
ATOM      6  H   UNL A   1      32.913  29.991  27.152  1.00  0.00     0.163 HD
BRANCH   5   7
ATOM      7  C   UNL A   1      36.044  29.923  28.308  1.00  0.00     0.039 A 
ATOM      8  C   UNL A   1      36.425  29.357  29.523  1.00  0.00     0.014 A 
ATOM      9  C   UNL A   1      36.990  30.074  27.288  1.00  0.00     0.014 A 
ATOM     10  C   UNL A   1      37.769  29.132  29.789  1.00  0.00     0.010 A 
ATOM     11  C   UNL A   1      38.328  29.730  27.518  1.00  0.00     0.010 A 
ATOM     12  C   UNL A   1      38.738  29.294  28.786  1.00  0.00    -0.014 A 
BRANCH  12  13
ATOM     13  C   UNL A   1      40.149  28.941  29.095  1.00  0.00     0.031 A 
ATOM     14  C   UNL A   1      40.729  27.604  28.717  1.00  0.00     0.074 A 
ATOM     15  C   UNL A   1      40.934  29.883  29.661  1.00  0.00     0.049 A 
ATOM     16  N   UNL A   1      41.963  27.182  28.847  1.00  0.00    -0.248 NA
ATOM     17  C   UNL A   1      39.818  26.612  28.128  1.00  0.00     0.031 C 
ATOM     18  C   UNL A   1      40.481  31.210  30.088  1.00  0.00     0.029 A 
ATOM     19  N   UNL A   1      42.278  29.890  29.934  1.00  0.00    -0.354 N 
ATOM     20  C   UNL A   1      41.974  25.877  28.368  1.00  0.00     0.074 A 
ATOM     21  C   UNL A   1      40.618  25.565  27.973  1.00  0.00     0.031 C 
ATOM     22  C   UNL A   1      41.537  31.926  30.498  1.00  0.00     0.029 A 
ATOM     23  C   UNL A   1      42.729  31.090  30.430  1.00  0.00     0.049 A 
ATOM     24  H   UNL A   1      42.862  29.112  29.788  1.00  0.00     0.167 HD
ATOM     25  C   UNL A   1      43.019  25.020  28.261  1.00  0.00     0.031 A 
ATOM     26  C   UNL A   1      43.962  31.481  30.801  1.00  0.00     0.031 A 
ATOM     27  C   UNL A   1      44.369  25.334  28.657  1.00  0.00     0.049 A 
ATOM     28  C   UNL A   1      45.100  30.511  30.673  1.00  0.00     0.074 A 
ATOM     29  C   UNL A   1      45.495  24.530  28.592  1.00  0.00     0.029 A 
ATOM     30  N   UNL A   1      44.778  26.549  29.185  1.00  0.00    -0.354 N 
ATOM     31  N   UNL A   1      45.084  29.283  30.212  1.00  0.00    -0.248 NA
ATOM     32  C   UNL A   1      46.419  30.979  31.112  1.00  0.00     0.031 C 
ATOM     33  C   UNL A   1      46.577  25.248  29.114  1.00  0.00     0.029 A 
ATOM     34  C   UNL A   1      46.136  26.515  29.459  1.00  0.00     0.049 A 
ATOM     35  H   UNL A   1      44.189  27.322  29.343  1.00  0.00     0.167 HD
ATOM     36  C   UNL A   1      46.393  28.831  30.307  1.00  0.00     0.074 A 
ATOM     37  C   UNL A   1      47.179  29.929  30.834  1.00  0.00     0.031 C 
ATOM     38  C   UNL A   1      46.898  27.612  29.995  1.00  0.00     0.031 A 
BRANCH  25  39
ATOM     39  C   UNL A   1      42.744  23.648  27.703  1.00  0.00    -0.014 A 
ATOM     40  C   UNL A   1      42.918  23.375  26.334  1.00  0.00     0.010 A 
ATOM     41  C   UNL A   1      42.365  22.602  28.565  1.00  0.00     0.010 A 
ATOM     42  C   UNL A   1      42.688  22.091  25.832  1.00  0.00     0.020 A 
ATOM     43  C   UNL A   1      42.156  21.310  28.070  1.00  0.00     0.020 A 
ATOM     44  C   UNL A   1      42.305  21.067  26.704  1.00  0.00     0.054 A 
BRANCH  44  45
ATOM     45  S   UNL A   1      42.043  19.403  26.029  1.00  0.00     0.124 S 
ATOM     46  O   UNL A   1      42.532  18.557  27.116  1.00  0.00    -0.237 OA
ATOM     47  O   UNL A   1      40.599  19.367  25.808  1.00  0.00    -0.237 OA
ATOM     48  O   UNL A   1      42.856  19.388  24.815  1.00  0.00    -0.744 OA
ENDBRANCH  44  45
ENDBRANCH  25  39
BRANCH  26  49
ATOM     49  C   UNL A   1      44.169  32.846  31.355  1.00  0.00    -0.014 A 
ATOM     50  C   UNL A   1      44.080  33.085  32.736  1.00  0.00     0.010 A 
ATOM     51  C   UNL A   1      44.480  33.913  30.491  1.00  0.00     0.010 A 
ATOM     52  C   UNL A   1      44.281  34.374  33.243  1.00  0.00     0.020 A 
ATOM     53  C   UNL A   1      44.711  35.192  30.996  1.00  0.00     0.020 A 
ATOM     54  C   UNL A   1      44.595  35.419  32.369  1.00  0.00     0.054 A 
BRANCH  54  55
ATOM     55  S   UNL A   1      44.901  37.074  33.045  1.00  0.00     0.124 S 
ATOM     56  O   UNL A   1      44.063  37.071  34.239  1.00  0.00    -0.237 OA
ATOM     57  O   UNL A   1      46.342  37.061  33.282  1.00  0.00    -0.237 OA
ATOM     58  O   UNL A   1      44.463  37.964  31.972  1.00  0.00    -0.744 OA
ENDBRANCH  54  55
ENDBRANCH  26  49
BRANCH  38  59
ATOM     59  C   UNL A   1      48.374  27.416  30.208  1.00  0.00    -0.014 A 
ATOM     60  C   UNL A   1      49.294  27.682  29.179  1.00  0.00     0.010 A 
ATOM     61  C   UNL A   1      48.845  26.972  31.456  1.00  0.00     0.010 A 
ATOM     62  C   UNL A   1      50.659  27.465  29.381  1.00  0.00     0.020 A 
ATOM     63  C   UNL A   1      50.211  26.777  31.669  1.00  0.00     0.020 A 
ATOM     64  C   UNL A   1      51.108  27.007  30.624  1.00  0.00     0.054 A 
BRANCH  64  65
ATOM     65  S   UNL A   1      52.886  26.746  30.870  1.00  0.00     0.124 S 
ATOM     66  O   UNL A   1      53.349  26.507  29.505  1.00  0.00    -0.237 OA
ATOM     67  O   UNL A   1      53.319  28.007  31.468  1.00  0.00    -0.237 OA
ATOM     68  O   UNL A   1      52.944  25.589  31.760  1.00  0.00    -0.744 OA
ENDBRANCH  64  65
ENDBRANCH  38  59
ENDBRANCH  12  13
ENDBRANCH   5   7
ENDBRANCH   2   3
ENDBRANCH   1   2
BRANCH   1  69
ATOM     69  C   UNL A   1      32.756  26.005  26.387  1.00  0.00     0.118 C 
BRANCH  69  70
ATOM     70  N   UNL A   1      31.685  25.256  27.029  1.00  0.00    -0.352 N 
ATOM     71  C   UNL A   1      30.971  24.181  26.564  1.00  0.00     0.253 C 
ATOM     72  H   UNL A   1      31.437  25.567  27.930  1.00  0.00     0.163 HD
ATOM     73  O   UNL A   1      30.021  23.751  27.212  1.00  0.00    -0.269 OA
BRANCH  71  74
ATOM     74  C   UNL A   1      31.327  23.539  25.282  1.00  0.00     0.063 A 
ATOM     75  C   UNL A   1      32.239  22.475  25.350  1.00  0.00     0.016 A 
ATOM     76  C   UNL A   1      30.818  23.984  24.044  1.00  0.00     0.051 A 
ATOM     77  C   UNL A   1      32.615  21.802  24.191  1.00  0.00     0.001 A 
ATOM     78  C   UNL A   1      31.196  23.271  22.895  1.00  0.00     0.027 A 
ATOM     79  C   UNL A   1      32.085  22.194  22.965  1.00  0.00     0.002 A 
BRANCH  76  80
ATOM     80  N   UNL A   1      29.927  25.073  23.954  1.00  0.00    -0.355 N 
ATOM     81  H   UNL A   1      29.002  24.870  24.222  1.00  0.00     0.167 HD
BRANCH  80  82
ATOM     82  C   UNL A   1      30.138  26.401  23.544  1.00  0.00     0.039 A 
ATOM     83  C   UNL A   1      31.435  26.817  23.225  1.00  0.00     0.026 A 
ATOM     84  C   UNL A   1      29.087  27.316  23.392  1.00  0.00     0.039 A 
ATOM     85  C   UNL A   1      31.680  28.111  22.763  1.00  0.00     0.003 A 
ATOM     86  C   UNL A   1      29.318  28.629  22.948  1.00  0.00     0.058 A 
ATOM     87  C   UNL A   1      30.627  29.012  22.622  1.00  0.00     0.013 A 
BRANCH  86  88
ATOM     88  C   UNL A   1      28.180  29.607  22.797  1.00  0.00     0.416 C 
ATOM     89  F   UNL A   1      27.087  29.257  23.530  1.00  0.00    -0.166 F 
ATOM     90  F   UNL A   1      28.522  30.860  23.211  1.00  0.00    -0.166 F 
ATOM     91  F   UNL A   1      27.745  29.742  21.514  1.00  0.00    -0.166 F 
ENDBRANCH  86  88
ENDBRANCH  80  82
ENDBRANCH  76  80
ENDBRANCH  71  74
ENDBRANCH  69  70
ENDBRANCH   1  69
TORSDOF 16
ENDMDL
MODEL 2
REMARK VINA RESULT:     -11.4      4.478      8.692
REMARK SMILES O=C(NCCCNC(=O)c1ccccc1Nc1cccc(C(F)(F)F)c1)c1ccc(-c2c3nc(c(-c4ccc(S(=O)(=O)[O-])cc4)c4ccc([nH]4)c(-c4ccc(S(=O)(=O)[O-])cc4)c4nc(c(-c5ccc(S(=O)(=O)[O-])cc5)c5ccc2[nH]5)C=C4)C=C3)cc1
REMARK SMILES IDX 5 1 4 2 3 3 1 4 2 5 27 7 28 8 86 9 29 10 85 11 30 12 31 13
REMARK SMILES IDX 32 14 79 15 33 16 84 17 78 18 80 19 34 20 83 21 77 22 76 23
REMARK SMILES IDX 35 25 65 26 46 27 64 28 47 29 50 30 63 31 81 32 48 33 49 34
REMARK SMILES IDX 62 36 82 37 51 38 36 39 37 40 45 41 38 42 44 43 39 44 40 45
REMARK SMILES IDX 41 46 42 47 43 48 66 49 67 50 75 51 68 52 74 53 69 54 70 55
REMARK SMILES IDX 71 56 72 57 73 58 52 59 53 60 61 61 54 62 60 63 55 64 56 65
REMARK SMILES IDX 57 66 58 67 59 68 6 69 7 70 8 71 9 73 10 74 11 75 15 76
REMARK SMILES IDX 12 77 14 78 13 79 16 80 17 82 18 83 26 84 19 85 21 86 20 87
REMARK SMILES IDX 22 88 23 89 24 90 25 91
REMARK H PARENT 3 6 80 24 50 35 7 72 16 81
REMARK Flexibility Score: inf
ROOT
ATOM      1  C   UNL A   1      37.895  20.151  25.062  1.00  0.00     0.042 C 
ENDROOT
BRANCH   1   2
ATOM      2  C   UNL A   1      39.147  20.584  25.809  1.00  0.00     0.118 C 
BRANCH   2   3
ATOM      3  N   UNL A   1      40.143  19.525  25.925  1.00  0.00    -0.352 N 
ATOM      4  O   UNL A   1      42.174  18.565  26.036  1.00  0.00    -0.269 OA
ATOM      5  C   UNL A   1      41.504  19.591  26.123  1.00  0.00     0.251 C 
ATOM      6  H   UNL A   1      39.784  18.612  25.848  1.00  0.00     0.163 HD
BRANCH   5   7
ATOM      7  C   UNL A   1      42.165  20.884  26.411  1.00  0.00     0.039 A 
ATOM      8  C   UNL A   1      42.482  21.248  27.718  1.00  0.00     0.014 A 
ATOM      9  C   UNL A   1      42.489  21.743  25.356  1.00  0.00     0.014 A 
ATOM     10  C   UNL A   1      42.929  22.534  27.988  1.00  0.00     0.010 A 
ATOM     11  C   UNL A   1      43.058  22.995  25.622  1.00  0.00     0.010 A 
ATOM     12  C   UNL A   1      43.245  23.419  26.945  1.00  0.00    -0.014 A 
BRANCH  12  13
ATOM     13  C   UNL A   1      43.818  24.749  27.288  1.00  0.00     0.031 A 
ATOM     14  C   UNL A   1      45.273  25.061  27.067  1.00  0.00     0.074 A 
ATOM     15  C   UNL A   1      42.981  25.709  27.736  1.00  0.00     0.049 A 
ATOM     16  N   UNL A   1      45.902  26.198  27.239  1.00  0.00    -0.248 NA
ATOM     17  C   UNL A   1      46.139  23.966  26.601  1.00  0.00     0.031 C 
ATOM     18  C   UNL A   1      41.552  25.520  28.006  1.00  0.00     0.029 A 
ATOM     19  N   UNL A   1      43.193  27.037  28.000  1.00  0.00    -0.354 N 
ATOM     20  C   UNL A   1      47.232  25.955  26.917  1.00  0.00     0.074 A 
ATOM     21  C   UNL A   1      47.328  24.554  26.567  1.00  0.00     0.031 C 
ATOM     22  C   UNL A   1      41.004  26.702  28.325  1.00  0.00     0.029 A 
ATOM     23  C   UNL A   1      42.050  27.715  28.350  1.00  0.00     0.049 A 
ATOM     24  H   UNL A   1      44.079  27.463  27.945  1.00  0.00     0.167 HD
ATOM     25  C   UNL A   1      48.276  26.820  26.907  1.00  0.00     0.031 A 
ATOM     26  C   UNL A   1      41.858  29.009  28.668  1.00  0.00     0.031 A 
ATOM     27  C   UNL A   1      48.176  28.214  27.258  1.00  0.00     0.049 A 
ATOM     28  C   UNL A   1      43.030  29.944  28.649  1.00  0.00     0.074 A 
ATOM     29  C   UNL A   1      49.178  29.170  27.282  1.00  0.00     0.029 A 
ATOM     30  N   UNL A   1      47.007  28.855  27.638  1.00  0.00    -0.354 N 
ATOM     31  N   UNL A   1      44.279  29.688  28.336  1.00  0.00    -0.248 NA
ATOM     32  C   UNL A   1      42.770  31.338  29.025  1.00  0.00     0.031 C 
ATOM     33  C   UNL A   1      48.621  30.380  27.712  1.00  0.00     0.029 A 
ATOM     34  C   UNL A   1      47.262  30.190  27.908  1.00  0.00     0.049 A 
ATOM     35  H   UNL A   1      46.124  28.424  27.707  1.00  0.00     0.167 HD
ATOM     36  C   UNL A   1      44.954  30.894  28.477  1.00  0.00     0.074 A 
ATOM     37  C   UNL A   1      43.969  31.883  28.869  1.00  0.00     0.031 C 
ATOM     38  C   UNL A   1      46.273  31.155  28.308  1.00  0.00     0.031 A 
BRANCH  25  39
ATOM     39  C   UNL A   1      49.626  26.282  26.514  1.00  0.00    -0.014 A 
ATOM     40  C   UNL A   1      50.095  26.395  25.193  1.00  0.00     0.010 A 
ATOM     41  C   UNL A   1      50.464  25.707  27.489  1.00  0.00     0.010 A 
ATOM     42  C   UNL A   1      51.363  25.918  24.846  1.00  0.00     0.020 A 
ATOM     43  C   UNL A   1      51.742  25.249  27.151  1.00  0.00     0.020 A 
ATOM     44  C   UNL A   1      52.177  25.344  25.828  1.00  0.00     0.054 A 
BRANCH  44  45
ATOM     45  S   UNL A   1      53.829  24.761  25.357  1.00  0.00     0.124 S 
ATOM     46  O   UNL A   1      54.141  25.625  24.221  1.00  0.00    -0.237 OA
ATOM     47  O   UNL A   1      54.614  25.004  26.564  1.00  0.00    -0.237 OA
ATOM     48  O   UNL A   1      53.619  23.352  25.028  1.00  0.00    -0.744 OA
ENDBRANCH  44  45
ENDBRANCH  25  39
BRANCH  26  49
ATOM     49  C   UNL A   1      40.501  29.479  29.057  1.00  0.00    -0.014 A 
ATOM     50  C   UNL A   1      39.467  29.562  28.111  1.00  0.00     0.010 A 
ATOM     51  C   UNL A   1      40.237  29.825  30.396  1.00  0.00     0.010 A 
ATOM     52  C   UNL A   1      38.195  30.003  28.493  1.00  0.00     0.020 A 
ATOM     53  C   UNL A   1      38.962  30.235  30.787  1.00  0.00     0.020 A 
ATOM     54  C   UNL A   1      37.951  30.336  29.829  1.00  0.00     0.054 A 
BRANCH  54  55
ATOM     55  S   UNL A   1      36.285  30.858  30.320  1.00  0.00     0.124 S 
ATOM     56  O   UNL A   1      35.554  30.755  29.061  1.00  0.00    -0.237 OA
ATOM     57  O   UNL A   1      35.930  29.876  31.340  1.00  0.00    -0.237 OA
ATOM     58  O   UNL A   1      36.489  32.216  30.819  1.00  0.00    -0.744 OA
ENDBRANCH  54  55
ENDBRANCH  26  49
BRANCH  38  59
ATOM     59  C   UNL A   1      46.716  32.575  28.537  1.00  0.00    -0.014 A 
ATOM     60  C   UNL A   1      46.709  33.511  27.488  1.00  0.00     0.010 A 
ATOM     61  C   UNL A   1      47.132  32.977  29.818  1.00  0.00     0.010 A 
ATOM     62  C   UNL A   1      47.154  34.817  27.708  1.00  0.00     0.020 A 
ATOM     63  C   UNL A   1      47.553  34.289  30.046  1.00  0.00     0.020 A 
ATOM     64  C   UNL A   1      47.580  35.196  28.985  1.00  0.00     0.054 A 
BRANCH  64  65
ATOM     65  S   UNL A   1      48.138  36.900  29.251  1.00  0.00     0.124 S 
ATOM     66  O   UNL A   1      48.034  37.467  27.909  1.00  0.00    -0.237 OA
ATOM     67  O   UNL A   1      47.174  37.409  30.224  1.00  0.00    -0.237 OA
ATOM     68  O   UNL A   1      49.499  36.742  29.758  1.00  0.00    -0.744 OA
ENDBRANCH  64  65
ENDBRANCH  38  59
ENDBRANCH  12  13
ENDBRANCH   5   7
ENDBRANCH   2   3
ENDBRANCH   1   2
BRANCH   1  69
ATOM     69  C   UNL A   1      36.808  21.212  24.996  1.00  0.00     0.118 C 
BRANCH  69  70
ATOM     70  N   UNL A   1      35.944  21.209  26.168  1.00  0.00    -0.352 N 
ATOM     71  C   UNL A   1      34.811  21.940  26.420  1.00  0.00     0.253 C 
ATOM     72  H   UNL A   1      36.213  20.591  26.887  1.00  0.00     0.163 HD
ATOM     73  O   UNL A   1      34.277  21.880  27.523  1.00  0.00    -0.269 OA
BRANCH  71  74
ATOM     74  C   UNL A   1      34.229  22.808  25.376  1.00  0.00     0.063 A 
ATOM     75  C   UNL A   1      34.836  24.060  25.197  1.00  0.00     0.016 A 
ATOM     76  C   UNL A   1      33.099  22.432  24.621  1.00  0.00     0.051 A 
ATOM     77  C   UNL A   1      34.361  24.934  24.222  1.00  0.00     0.001 A 
ATOM     78  C   UNL A   1      32.657  23.323  23.629  1.00  0.00     0.027 A 
ATOM     79  C   UNL A   1      33.278  24.560  23.432  1.00  0.00     0.002 A 
BRANCH  76  80
ATOM     80  N   UNL A   1      32.455  21.192  24.811  1.00  0.00    -0.355 N 
ATOM     81  H   UNL A   1      31.734  21.202  25.481  1.00  0.00     0.167 HD
BRANCH  80  82
ATOM     82  C   UNL A   1      32.671  19.943  24.204  1.00  0.00     0.039 A 
ATOM     83  C   UNL A   1      32.082  19.678  22.963  1.00  0.00     0.026 A 
ATOM     84  C   UNL A   1      33.499  18.965  24.771  1.00  0.00     0.039 A 
ATOM     85  C   UNL A   1      32.314  18.471  22.301  1.00  0.00     0.003 A 
ATOM     86  C   UNL A   1      33.727  17.736  24.129  1.00  0.00     0.058 A 
ATOM     87  C   UNL A   1      33.135  17.506  22.879  1.00  0.00     0.013 A 
BRANCH  86  88
ATOM     88  C   UNL A   1      34.615  16.689  24.754  1.00  0.00     0.416 C 
ATOM     89  F   UNL A   1      34.111  16.205  25.923  1.00  0.00    -0.166 F 
ATOM     90  F   UNL A   1      34.780  15.606  23.943  1.00  0.00    -0.166 F 
ATOM     91  F   UNL A   1      35.868  17.136  25.041  1.00  0.00    -0.166 F 
ENDBRANCH  86  88
ENDBRANCH  80  82
ENDBRANCH  76  80
ENDBRANCH  71  74
ENDBRANCH  69  70
ENDBRANCH   1  69
TORSDOF 16
ENDMDL
MODEL 3
REMARK VINA RESULT:     -11.3      0.769      8.254
REMARK SMILES O=C(NCCCNC(=O)c1ccccc1Nc1cccc(C(F)(F)F)c1)c1ccc(-c2c3nc(c(-c4ccc(S(=O)(=O)[O-])cc4)c4ccc([nH]4)c(-c4ccc(S(=O)(=O)[O-])cc4)c4nc(c(-c5ccc(S(=O)(=O)[O-])cc5)c5ccc2[nH]5)C=C4)C=C3)cc1
REMARK SMILES IDX 5 1 4 2 3 3 1 4 2 5 27 7 28 8 86 9 29 10 85 11 30 12 31 13
REMARK SMILES IDX 32 14 79 15 33 16 84 17 78 18 80 19 34 20 83 21 77 22 76 23
REMARK SMILES IDX 35 25 65 26 46 27 64 28 47 29 50 30 63 31 81 32 48 33 49 34
REMARK SMILES IDX 62 36 82 37 51 38 36 39 37 40 45 41 38 42 44 43 39 44 40 45
REMARK SMILES IDX 41 46 42 47 43 48 66 49 67 50 75 51 68 52 74 53 69 54 70 55
REMARK SMILES IDX 71 56 72 57 73 58 52 59 53 60 61 61 54 62 60 63 55 64 56 65
REMARK SMILES IDX 57 66 58 67 59 68 6 69 7 70 8 71 9 73 10 74 11 75 15 76
REMARK SMILES IDX 12 77 14 78 13 79 16 80 17 82 18 83 26 84 19 85 21 86 20 87
REMARK SMILES IDX 22 88 23 89 24 90 25 91
REMARK H PARENT 3 6 80 24 50 35 7 72 16 81
REMARK Flexibility Score: inf
ROOT
ATOM      1  C   UNL A   1      32.396  27.670  26.494  1.00  0.00     0.042 C 
ENDROOT
BRANCH   1   2
ATOM      2  C   UNL A   1      33.598  28.213  27.252  1.00  0.00     0.118 C 
BRANCH   2   3
ATOM      3  N   UNL A   1      33.493  29.635  27.557  1.00  0.00    -0.352 N 
ATOM      4  O   UNL A   1      34.056  31.643  28.401  1.00  0.00    -0.269 OA
ATOM      5  C   UNL A   1      34.415  30.510  28.084  1.00  0.00     0.251 C 
ATOM      6  H   UNL A   1      32.618  30.036  27.351  1.00  0.00     0.163 HD
BRANCH   5   7
ATOM      7  C   UNL A   1      35.818  30.093  28.299  1.00  0.00     0.039 A 
ATOM      8  C   UNL A   1      36.249  29.652  29.549  1.00  0.00     0.014 A 
ATOM      9  C   UNL A   1      36.720  30.125  27.230  1.00  0.00     0.014 A 
ATOM     10  C   UNL A   1      37.602  29.442  29.780  1.00  0.00     0.010 A 
ATOM     11  C   UNL A   1      38.064  29.793  27.436  1.00  0.00     0.010 A 
ATOM     12  C   UNL A   1      38.527  29.488  28.724  1.00  0.00    -0.014 A 
BRANCH  12  13
ATOM     13  C   UNL A   1      39.948  29.154  29.008  1.00  0.00     0.031 A 
ATOM     14  C   UNL A   1      40.850  30.106  29.745  1.00  0.00     0.074 A 
ATOM     15  C   UNL A   1      40.399  27.931  28.656  1.00  0.00     0.049 A 
ATOM     16  N   UNL A   1      42.087  29.923  30.139  1.00  0.00    -0.248 NA
ATOM     17  C   UNL A   1      40.308  31.432  30.080  1.00  0.00     0.031 C 
ATOM     18  C   UNL A   1      39.623  26.927  27.921  1.00  0.00     0.029 A 
ATOM     19  N   UNL A   1      41.595  27.307  28.901  1.00  0.00    -0.354 N 
ATOM     20  C   UNL A   1      42.474  31.109  30.753  1.00  0.00     0.074 A 
ATOM     21  C   UNL A   1      41.351  32.016  30.655  1.00  0.00     0.031 C 
ATOM     22  C   UNL A   1      40.333  25.792  27.842  1.00  0.00     0.029 A 
ATOM     23  C   UNL A   1      41.637  26.008  28.455  1.00  0.00     0.049 A 
ATOM     24  H   UNL A   1      42.351  27.748  29.353  1.00  0.00     0.167 HD
ATOM     25  C   UNL A   1      43.653  31.410  31.351  1.00  0.00     0.031 A 
ATOM     26  C   UNL A   1      42.616  25.087  28.520  1.00  0.00     0.031 A 
ATOM     27  C   UNL A   1      44.769  30.504  31.445  1.00  0.00     0.049 A 
ATOM     28  C   UNL A   1      43.910  25.448  29.186  1.00  0.00     0.074 A 
ATOM     29  C   UNL A   1      46.007  30.719  32.028  1.00  0.00     0.029 A 
ATOM     30  N   UNL A   1      44.782  29.208  30.952  1.00  0.00    -0.354 N 
ATOM     31  N   UNL A   1      44.249  26.576  29.764  1.00  0.00    -0.248 NA
ATOM     32  C   UNL A   1      44.952  24.416  29.209  1.00  0.00     0.031 C 
ATOM     33  C   UNL A   1      46.781  29.566  31.855  1.00  0.00     0.029 A 
ATOM     34  C   UNL A   1      46.008  28.615  31.208  1.00  0.00     0.049 A 
ATOM     35  H   UNL A   1      44.031  28.773  30.488  1.00  0.00     0.167 HD
ATOM     36  C   UNL A   1      45.547  26.387  30.221  1.00  0.00     0.074 A 
ATOM     37  C   UNL A   1      45.916  25.027  29.884  1.00  0.00     0.031 C 
ATOM     38  C   UNL A   1      46.362  27.266  30.854  1.00  0.00     0.031 A 
BRANCH  25  39
ATOM     39  C   UNL A   1      43.805  32.788  31.942  1.00  0.00    -0.014 A 
ATOM     40  C   UNL A   1      43.469  33.040  33.285  1.00  0.00     0.010 A 
ATOM     41  C   UNL A   1      44.345  33.830  31.165  1.00  0.00     0.010 A 
ATOM     42  C   UNL A   1      43.642  34.316  33.830  1.00  0.00     0.020 A 
ATOM     43  C   UNL A   1      44.541  35.101  31.714  1.00  0.00     0.020 A 
ATOM     44  C   UNL A   1      44.174  35.339  33.040  1.00  0.00     0.054 A 
BRANCH  44  45
ATOM     45  S   UNL A   1      44.416  36.977  33.784  1.00  0.00     0.124 S 
ATOM     46  O   UNL A   1      45.206  36.656  34.970  1.00  0.00    -0.237 OA
ATOM     47  O   UNL A   1      45.126  37.706  32.736  1.00  0.00    -0.237 OA
ATOM     48  O   UNL A   1      43.056  37.442  34.049  1.00  0.00    -0.744 OA
ENDBRANCH  44  45
ENDBRANCH  25  39
BRANCH  26  49
ATOM     49  C   UNL A   1      42.410  23.746  27.908  1.00  0.00    -0.014 A 
ATOM     50  C   UNL A   1      42.725  23.512  26.559  1.00  0.00     0.010 A 
ATOM     51  C   UNL A   1      41.914  22.687  28.692  1.00  0.00     0.010 A 
ATOM     52  C   UNL A   1      42.529  22.245  25.999  1.00  0.00     0.020 A 
ATOM     53  C   UNL A   1      41.746  21.415  28.145  1.00  0.00     0.020 A 
ATOM     54  C   UNL A   1      42.041  21.205  26.797  1.00  0.00     0.054 A 
BRANCH  54  55
ATOM     55  S   UNL A   1      41.839  19.555  26.070  1.00  0.00     0.124 S 
ATOM     56  O   UNL A   1      42.749  19.614  24.931  1.00  0.00    -0.237 OA
ATOM     57  O   UNL A   1      42.245  18.673  27.161  1.00  0.00    -0.237 OA
ATOM     58  O   UNL A   1      40.417  19.504  25.736  1.00  0.00    -0.744 OA
ENDBRANCH  54  55
ENDBRANCH  26  49
BRANCH  38  59
ATOM     59  C   UNL A   1      47.731  26.767  31.230  1.00  0.00    -0.014 A 
ATOM     60  C   UNL A   1      48.815  26.893  30.344  1.00  0.00     0.010 A 
ATOM     61  C   UNL A   1      47.935  26.177  32.491  1.00  0.00     0.010 A 
ATOM     62  C   UNL A   1      50.073  26.396  30.695  1.00  0.00     0.020 A 
ATOM     63  C   UNL A   1      49.197  25.702  32.854  1.00  0.00     0.020 A 
ATOM     64  C   UNL A   1      50.253  25.797  31.946  1.00  0.00     0.054 A 
BRANCH  64  65
ATOM     65  S   UNL A   1      51.898  25.173  32.388  1.00  0.00     0.124 S 
ATOM     66  O   UNL A   1      51.697  23.727  32.336  1.00  0.00    -0.237 OA
ATOM     67  O   UNL A   1      52.748  25.727  31.336  1.00  0.00    -0.237 OA
ATOM     68  O   UNL A   1      52.129  25.723  33.721  1.00  0.00    -0.744 OA
ENDBRANCH  64  65
ENDBRANCH  38  59
ENDBRANCH  12  13
ENDBRANCH   5   7
ENDBRANCH   2   3
ENDBRANCH   1   2
BRANCH   1  69
ATOM     69  C   UNL A   1      32.485  26.190  26.159  1.00  0.00     0.118 C 
BRANCH  69  70
ATOM     70  N   UNL A   1      31.494  25.390  26.864  1.00  0.00    -0.352 N 
ATOM     71  C   UNL A   1      30.916  24.200  26.504  1.00  0.00     0.253 C 
ATOM     72  H   UNL A   1      31.195  25.758  27.727  1.00  0.00     0.163 HD
ATOM     73  O   UNL A   1      30.009  23.729  27.184  1.00  0.00    -0.269 OA
BRANCH  71  74
ATOM     74  C   UNL A   1      31.368  23.479  25.296  1.00  0.00     0.063 A 
ATOM     75  C   UNL A   1      32.345  22.491  25.489  1.00  0.00     0.016 A 
ATOM     76  C   UNL A   1      30.883  23.783  24.007  1.00  0.00     0.051 A 
ATOM     77  C   UNL A   1      32.813  21.751  24.406  1.00  0.00     0.001 A 
ATOM     78  C   UNL A   1      31.355  23.004  22.938  1.00  0.00     0.027 A 
ATOM     79  C   UNL A   1      32.310  22.002  23.133  1.00  0.00     0.002 A 
BRANCH  76  80
ATOM     80  N   UNL A   1      29.926  24.795  23.790  1.00  0.00    -0.355 N 
ATOM     81  H   UNL A   1      28.991  24.509  23.907  1.00  0.00     0.167 HD
BRANCH  80  82
ATOM     82  C   UNL A   1      30.083  26.147  23.436  1.00  0.00     0.039 A 
ATOM     83  C   UNL A   1      31.348  26.609  23.058  1.00  0.00     0.026 A 
ATOM     84  C   UNL A   1      29.006  27.043  23.398  1.00  0.00     0.039 A 
ATOM     85  C   UNL A   1      31.535  27.931  22.648  1.00  0.00     0.003 A 
ATOM     86  C   UNL A   1      29.181  28.381  23.008  1.00  0.00     0.058 A 
ATOM     87  C   UNL A   1      30.457  28.812  22.620  1.00  0.00     0.013 A 
BRANCH  86  88
ATOM     88  C   UNL A   1      28.015  29.338  22.978  1.00  0.00     0.416 C 
ATOM     89  F   UNL A   1      27.690  29.728  21.715  1.00  0.00    -0.166 F 
ATOM     90  F   UNL A   1      26.884  28.786  23.501  1.00  0.00    -0.166 F 
ATOM     91  F   UNL A   1      28.232  30.483  23.681  1.00  0.00    -0.166 F 
ENDBRANCH  86  88
ENDBRANCH  80  82
ENDBRANCH  76  80
ENDBRANCH  71  74
ENDBRANCH  69  70
ENDBRANCH   1  69
TORSDOF 16
ENDMDL
