MODEL 1
REMARK VINA RESULT:     -11.3      0.000      0.000
REMARK SMILES O=C(NCCCNC(=O)c1ccc(NC(=O)[C@@H]2COCCO2)cc1O)c1ccc(-c2c3nc(c(-c4ccc(S(=O)(=O)[O-])cc4)c4ccc([nH]4)c(-c4ccc(S(=O)(=O)[O-])cc4)c4nc(c(-c5ccc(S(=O)(=O)[O-])cc5)c5ccc2[nH]5)C=C4)C=C3)cc1
REMARK SMILES IDX 4 1 3 2 1 3 2 4 26 6 27 7 85 8 28 9 84 10 29 11 30 12 31 13
REMARK SMILES IDX 78 14 32 15 83 16 77 17 79 18 33 19 82 20 76 21 75 22 34 24
REMARK SMILES IDX 64 25 45 26 63 27 46 28 49 29 62 30 80 31 47 32 48 33 61 35
REMARK SMILES IDX 81 36 50 37 35 38 36 39 44 40 37 41 43 42 38 43 39 44 40 45
REMARK SMILES IDX 41 46 42 47 65 48 66 49 74 50 67 51 73 52 68 53 69 54 70 55
REMARK SMILES IDX 71 56 72 57 51 58 52 59 60 60 53 61 59 62 54 63 55 64 56 65
REMARK SMILES IDX 57 66 58 67 5 68 6 69 7 70 8 71 9 73 10 74 11 75 24 76 12 77
REMARK SMILES IDX 23 78 13 79 25 80 14 82 15 83 16 85 17 86 18 87 22 88 19 89
REMARK SMILES IDX 21 90 20 91
REMARK H PARENT 3 5 79 23 49 34 7 72 25 81 14 84
REMARK Flexibility Score: inf
ROOT
ATOM      1  C   UNL A   1      33.723  28.658  26.932  1.00  0.00     0.118 C 
ENDROOT
BRANCH   1   2
ATOM      2  N   UNL A   1      33.608  30.016  27.445  1.00  0.00    -0.352 N 
ATOM      3  O   UNL A   1      34.112  31.806  28.711  1.00  0.00    -0.269 OA
ATOM      4  C   UNL A   1      34.485  30.750  28.204  1.00  0.00     0.251 C 
ATOM      5  H   UNL A   1      32.771  30.478  27.211  1.00  0.00     0.163 HD
BRANCH   4   6
ATOM      6  C   UNL A   1      35.865  30.267  28.420  1.00  0.00     0.039 A 
ATOM      7  C   UNL A   1      36.834  30.414  27.426  1.00  0.00     0.014 A 
ATOM      8  C   UNL A   1      36.208  29.697  29.651  1.00  0.00     0.014 A 
ATOM      9  C   UNL A   1      38.099  29.872  27.602  1.00  0.00     0.010 A 
ATOM     10  C   UNL A   1      37.512  29.245  29.868  1.00  0.00     0.010 A 
ATOM     11  C   UNL A   1      38.464  29.319  28.839  1.00  0.00    -0.014 A 
BRANCH  11  12
ATOM     12  C   UNL A   1      39.884  28.962  29.070  1.00  0.00     0.031 A 
ATOM     13  C   UNL A   1      40.440  27.632  28.650  1.00  0.00     0.074 A 
ATOM     14  C   UNL A   1      40.672  29.879  29.668  1.00  0.00     0.049 A 
ATOM     15  N   UNL A   1      41.660  27.180  28.786  1.00  0.00    -0.248 NA
ATOM     16  C   UNL A   1      39.518  26.684  28.003  1.00  0.00     0.031 C 
ATOM     17  C   UNL A   1      40.226  31.198  30.135  1.00  0.00     0.029 A 
ATOM     18  N   UNL A   1      42.007  29.857  29.977  1.00  0.00    -0.354 N 
ATOM     19  C   UNL A   1      41.650  25.890  28.270  1.00  0.00     0.074 A 
ATOM     20  C   UNL A   1      40.300  25.627  27.820  1.00  0.00     0.031 C 
ATOM     21  C   UNL A   1      41.272  31.869  30.634  1.00  0.00     0.029 A 
ATOM     22  C   UNL A   1      42.445  31.006  30.592  1.00  0.00     0.049 A 
ATOM     23  H   UNL A   1      42.595  29.092  29.779  1.00  0.00     0.167 HD
ATOM     24  C   UNL A   1      42.677  25.012  28.184  1.00  0.00     0.031 A 
ATOM     25  C   UNL A   1      43.648  31.324  31.102  1.00  0.00     0.031 A 
ATOM     26  C   UNL A   1      44.020  25.296  28.624  1.00  0.00     0.049 A 
ATOM     27  C   UNL A   1      44.755  30.315  31.017  1.00  0.00     0.074 A 
ATOM     28  C   UNL A   1      45.145  24.496  28.512  1.00  0.00     0.029 A 
ATOM     29  N   UNL A   1      44.417  26.456  29.269  1.00  0.00    -0.354 N 
ATOM     30  N   UNL A   1      44.741  29.129  30.458  1.00  0.00    -0.248 NA
ATOM     31  C   UNL A   1      46.035  30.682  31.637  1.00  0.00     0.031 C 
ATOM     32  C   UNL A   1      46.208  25.148  29.145  1.00  0.00     0.029 A 
ATOM     33  C   UNL A   1      45.758  26.376  29.603  1.00  0.00     0.049 A 
ATOM     34  H   UNL A   1      43.831  27.225  29.461  1.00  0.00     0.167 HD
ATOM     35  C   UNL A   1      46.010  28.604  30.663  1.00  0.00     0.074 A 
ATOM     36  C   UNL A   1      46.776  29.616  31.363  1.00  0.00     0.031 C 
ATOM     37  C   UNL A   1      46.496  27.389  30.313  1.00  0.00     0.031 A 
BRANCH  24  38
ATOM     38  C   UNL A   1      42.406  23.644  27.618  1.00  0.00    -0.014 A 
ATOM     39  C   UNL A   1      42.649  23.353  26.265  1.00  0.00     0.010 A 
ATOM     40  C   UNL A   1      42.010  22.606  28.483  1.00  0.00     0.010 A 
ATOM     41  C   UNL A   1      42.496  22.047  25.786  1.00  0.00     0.020 A 
ATOM     42  C   UNL A   1      41.872  21.298  28.011  1.00  0.00     0.020 A 
ATOM     43  C   UNL A   1      42.113  21.027  26.663  1.00  0.00     0.054 A 
BRANCH  43  44
ATOM     44  S   UNL A   1      41.991  19.332  26.028  1.00  0.00     0.124 S 
ATOM     45  O   UNL A   1      40.558  19.209  25.770  1.00  0.00    -0.237 OA
ATOM     46  O   UNL A   1      42.840  19.373  24.840  1.00  0.00    -0.237 OA
ATOM     47  O   UNL A   1      42.498  18.511  27.125  1.00  0.00    -0.744 OA
ENDBRANCH  43  44
ENDBRANCH  24  38
BRANCH  25  48
ATOM     48  C   UNL A   1      43.841  32.624  31.796  1.00  0.00    -0.014 A 
ATOM     49  C   UNL A   1      44.278  33.760  31.096  1.00  0.00     0.010 A 
ATOM     50  C   UNL A   1      43.581  32.727  33.176  1.00  0.00     0.010 A 
ATOM     51  C   UNL A   1      44.477  34.970  31.768  1.00  0.00     0.020 A 
ATOM     52  C   UNL A   1      43.749  33.941  33.845  1.00  0.00     0.020 A 
ATOM     53  C   UNL A   1      44.215  35.051  33.139  1.00  0.00     0.054 A 
BRANCH  53  54
ATOM     54  S   UNL A   1      44.456  36.634  33.991  1.00  0.00     0.124 S 
ATOM     55  O   UNL A   1      45.556  37.219  33.232  1.00  0.00    -0.237 OA
ATOM     56  O   UNL A   1      43.157  37.283  33.830  1.00  0.00    -0.237 OA
ATOM     57  O   UNL A   1      44.779  36.236  35.360  1.00  0.00    -0.744 OA
ENDBRANCH  53  54
ENDBRANCH  25  48
BRANCH  37  58
ATOM     58  C   UNL A   1      47.919  27.091  30.688  1.00  0.00    -0.014 A 
ATOM     59  C   UNL A   1      48.220  26.420  31.886  1.00  0.00     0.010 A 
ATOM     60  C   UNL A   1      48.963  27.447  29.815  1.00  0.00     0.010 A 
ATOM     61  C   UNL A   1      49.545  26.133  32.219  1.00  0.00     0.020 A 
ATOM     62  C   UNL A   1      50.287  27.138  30.133  1.00  0.00     0.020 A 
ATOM     63  C   UNL A   1      50.570  26.494  31.339  1.00  0.00     0.054 A 
BRANCH  63  64
ATOM     64  S   UNL A   1      52.279  26.066  31.771  1.00  0.00     0.124 S 
ATOM     65  O   UNL A   1      52.587  27.051  32.803  1.00  0.00    -0.237 OA
ATOM     66  O   UNL A   1      52.158  24.686  32.233  1.00  0.00    -0.237 OA
ATOM     67  O   UNL A   1      53.005  26.235  30.514  1.00  0.00    -0.744 OA
ENDBRANCH  63  64
ENDBRANCH  37  58
ENDBRANCH  11  12
ENDBRANCH   4   6
ENDBRANCH   1   2
BRANCH   1  68
ATOM     68  C   UNL A   1      32.781  28.389  25.772  1.00  0.00     0.042 C 
BRANCH  68  69
ATOM     69  C   UNL A   1      33.239  28.981  24.450  1.00  0.00     0.118 C 
BRANCH  69  70
ATOM     70  N   UNL A   1      32.138  29.309  23.558  1.00  0.00    -0.352 N 
ATOM     71  C   UNL A   1      31.328  28.467  22.839  1.00  0.00     0.255 C 
ATOM     72  H   UNL A   1      31.949  30.269  23.455  1.00  0.00     0.163 HD
ATOM     73  O   UNL A   1      30.474  28.921  22.082  1.00  0.00    -0.269 OA
BRANCH  71  74
ATOM     74  C   UNL A   1      31.557  27.011  22.887  1.00  0.00     0.081 A 
ATOM     75  C   UNL A   1      30.689  26.266  23.682  1.00  0.00     0.020 A 
ATOM     76  C   UNL A   1      32.555  26.358  22.162  1.00  0.00     0.130 A 
ATOM     77  C   UNL A   1      30.750  24.872  23.667  1.00  0.00     0.027 A 
ATOM     78  C   UNL A   1      32.588  24.961  22.124  1.00  0.00     0.073 A 
ATOM     79  C   UNL A   1      31.648  24.200  22.839  1.00  0.00     0.044 A 
BRANCH  76  80
ATOM     80  O   UNL A   1      33.478  27.080  21.458  1.00  0.00    -0.507 OA
ATOM     81  H   UNL A   1      34.157  26.638  20.986  1.00  0.00     0.293 HD
ENDBRANCH  76  80
BRANCH  79  82
ATOM     82  N   UNL A   1      31.695  22.808  22.641  1.00  0.00    -0.324 N 
ATOM     83  C   UNL A   1      32.316  21.769  23.283  1.00  0.00     0.255 C 
ATOM     84  H   UNL A   1      31.161  22.513  21.868  1.00  0.00     0.170 HD
ATOM     85  O   UNL A   1      32.144  20.643  22.798  1.00  0.00    -0.272 OA
BRANCH  83  86
ATOM     86  C   UNL A   1      33.201  21.977  24.514  1.00  0.00     0.233 C 
ATOM     87  C   UNL A   1      34.000  20.713  24.851  1.00  0.00     0.202 C 
ATOM     88  O   UNL A   1      32.427  22.348  25.664  1.00  0.00    -0.364 OA
ATOM     89  O   UNL A   1      34.900  20.986  25.944  1.00  0.00    -0.376 OA
ATOM     90  C   UNL A   1      33.285  22.614  26.783  1.00  0.00     0.189 C 
ATOM     91  C   UNL A   1      34.156  21.400  27.101  1.00  0.00     0.188 C 
ENDBRANCH  83  86
ENDBRANCH  79  82
ENDBRANCH  71  74
ENDBRANCH  69  70
ENDBRANCH  68  69
ENDBRANCH   1  68
TORSDOF 16
ENDMDL
MODEL 2
REMARK VINA RESULT:     -11.0      3.087      9.000
REMARK SMILES O=C(NCCCNC(=O)c1ccc(NC(=O)[C@@H]2COCCO2)cc1O)c1ccc(-c2c3nc(c(-c4ccc(S(=O)(=O)[O-])cc4)c4ccc([nH]4)c(-c4ccc(S(=O)(=O)[O-])cc4)c4nc(c(-c5ccc(S(=O)(=O)[O-])cc5)c5ccc2[nH]5)C=C4)C=C3)cc1
REMARK SMILES IDX 4 1 3 2 1 3 2 4 26 6 27 7 85 8 28 9 84 10 29 11 30 12 31 13
REMARK SMILES IDX 78 14 32 15 83 16 77 17 79 18 33 19 82 20 76 21 75 22 34 24
REMARK SMILES IDX 64 25 45 26 63 27 46 28 49 29 62 30 80 31 47 32 48 33 61 35
REMARK SMILES IDX 81 36 50 37 35 38 36 39 44 40 37 41 43 42 38 43 39 44 40 45
REMARK SMILES IDX 41 46 42 47 65 48 66 49 74 50 67 51 73 52 68 53 69 54 70 55
REMARK SMILES IDX 71 56 72 57 51 58 52 59 60 60 53 61 59 62 54 63 55 64 56 65
REMARK SMILES IDX 57 66 58 67 5 68 6 69 7 70 8 71 9 73 10 74 11 75 24 76 12 77
REMARK SMILES IDX 23 78 13 79 25 80 14 82 15 83 16 85 17 86 18 87 22 88 19 89
REMARK SMILES IDX 21 90 20 91
REMARK H PARENT 3 5 79 23 49 34 7 72 25 81 14 84
REMARK Flexibility Score: inf
ROOT
ATOM      1  C   UNL A   1      35.947  31.964  28.799  1.00  0.00     0.118 C 
ENDROOT
BRANCH   1   2
ATOM      2  N   UNL A   1      35.773  31.329  30.098  1.00  0.00    -0.352 N 
ATOM      3  O   UNL A   1      36.155  29.859  31.757  1.00  0.00    -0.269 OA
ATOM      4  C   UNL A   1      36.581  30.440  30.761  1.00  0.00     0.251 C 
ATOM      5  H   UNL A   1      34.946  31.576  30.573  1.00  0.00     0.163 HD
BRANCH   4   6
ATOM      6  C   UNL A   1      37.951  30.174  30.272  1.00  0.00     0.039 A 
ATOM      7  C   UNL A   1      39.021  30.095  31.165  1.00  0.00     0.014 A 
ATOM      8  C   UNL A   1      38.162  29.956  28.907  1.00  0.00     0.014 A 
ATOM      9  C   UNL A   1      40.314  29.939  30.687  1.00  0.00     0.010 A 
ATOM     10  C   UNL A   1      39.451  29.695  28.436  1.00  0.00     0.010 A 
ATOM     11  C   UNL A   1      40.539  29.696  29.323  1.00  0.00    -0.014 A 
BRANCH  11  12
ATOM     12  C   UNL A   1      41.900  29.306  28.883  1.00  0.00     0.031 A 
ATOM     13  C   UNL A   1      43.022  30.301  28.819  1.00  0.00     0.074 A 
ATOM     14  C   UNL A   1      42.102  28.017  28.542  1.00  0.00     0.049 A 
ATOM     15  N   UNL A   1      44.264  30.106  28.454  1.00  0.00    -0.248 NA
ATOM     16  C   UNL A   1      42.724  31.689  29.207  1.00  0.00     0.031 C 
ATOM     17  C   UNL A   1      41.072  26.971  28.549  1.00  0.00     0.029 A 
ATOM     18  N   UNL A   1      43.234  27.358  28.139  1.00  0.00    -0.354 N 
ATOM     19  C   UNL A   1      44.887  31.344  28.540  1.00  0.00     0.074 A 
ATOM     20  C   UNL A   1      43.888  32.289  28.988  1.00  0.00     0.031 C 
ATOM     21  C   UNL A   1      41.626  25.801  28.205  1.00  0.00     0.029 A 
ATOM     22  C   UNL A   1      43.028  26.023  27.883  1.00  0.00     0.049 A 
ATOM     23  H   UNL A   1      44.110  27.798  28.041  1.00  0.00     0.167 HD
ATOM     24  C   UNL A   1      46.177  31.656  28.266  1.00  0.00     0.031 A 
ATOM     25  C   UNL A   1      43.863  25.082  27.406  1.00  0.00     0.031 A 
ATOM     26  C   UNL A   1      47.163  30.699  27.834  1.00  0.00     0.049 A 
ATOM     27  C   UNL A   1      45.276  25.470  27.085  1.00  0.00     0.074 A 
ATOM     28  C   UNL A   1      48.512  30.905  27.601  1.00  0.00     0.029 A 
ATOM     29  N   UNL A   1      46.910  29.365  27.556  1.00  0.00    -0.354 N 
ATOM     30  N   UNL A   1      45.863  26.632  27.243  1.00  0.00    -0.248 NA
ATOM     31  C   UNL A   1      46.136  24.426  26.513  1.00  0.00     0.031 C 
ATOM     32  C   UNL A   1      49.061  29.711  27.124  1.00  0.00     0.029 A 
ATOM     33  C   UNL A   1      48.066  28.747  27.110  1.00  0.00     0.049 A 
ATOM     34  H   UNL A   1      46.036  28.922  27.660  1.00  0.00     0.167 HD
ATOM     35  C   UNL A   1      47.162  26.461  26.786  1.00  0.00     0.074 A 
ATOM     36  C   UNL A   1      47.285  25.074  26.380  1.00  0.00     0.031 C 
ATOM     37  C   UNL A   1      48.162  27.371  26.698  1.00  0.00     0.031 A 
BRANCH  24  38
ATOM     38  C   UNL A   1      46.609  33.091  28.394  1.00  0.00    -0.014 A 
ATOM     39  C   UNL A   1      46.485  33.989  27.320  1.00  0.00     0.010 A 
ATOM     40  C   UNL A   1      47.039  33.573  29.644  1.00  0.00     0.010 A 
ATOM     41  C   UNL A   1      46.789  35.344  27.494  1.00  0.00     0.020 A 
ATOM     42  C   UNL A   1      47.327  34.929  29.827  1.00  0.00     0.020 A 
ATOM     43  C   UNL A   1      47.203  35.806  28.748  1.00  0.00     0.054 A 
BRANCH  43  44
ATOM     44  S   UNL A   1      47.522  37.579  28.962  1.00  0.00     0.124 S 
ATOM     45  O   UNL A   1      48.816  37.573  29.640  1.00  0.00    -0.237 OA
ATOM     46  O   UNL A   1      47.538  38.070  27.586  1.00  0.00    -0.237 OA
ATOM     47  O   UNL A   1      46.397  38.040  29.771  1.00  0.00    -0.744 OA
ENDBRANCH  43  44
ENDBRANCH  24  38
BRANCH  25  48
ATOM     48  C   UNL A   1      43.361  23.709  27.141  1.00  0.00    -0.014 A 
ATOM     49  C   UNL A   1      43.185  22.789  28.188  1.00  0.00     0.010 A 
ATOM     50  C   UNL A   1      43.052  23.317  25.825  1.00  0.00     0.010 A 
ATOM     51  C   UNL A   1      42.734  21.493  27.920  1.00  0.00     0.020 A 
ATOM     52  C   UNL A   1      42.572  22.034  25.557  1.00  0.00     0.020 A 
ATOM     53  C   UNL A   1      42.435  21.123  26.605  1.00  0.00     0.054 A 
BRANCH  53  54
ATOM     54  S   UNL A   1      41.828  19.445  26.278  1.00  0.00     0.124 S 
ATOM     55  O   UNL A   1      40.388  19.660  26.178  1.00  0.00    -0.237 OA
ATOM     56  O   UNL A   1      42.506  19.098  25.032  1.00  0.00    -0.237 OA
ATOM     57  O   UNL A   1      42.270  18.690  27.449  1.00  0.00    -0.744 OA
ENDBRANCH  53  54
ENDBRANCH  25  48
BRANCH  37  58
ATOM     58  C   UNL A   1      49.471  26.892  26.140  1.00  0.00    -0.014 A 
ATOM     59  C   UNL A   1      49.794  27.103  24.787  1.00  0.00     0.010 A 
ATOM     60  C   UNL A   1      50.405  26.264  26.982  1.00  0.00     0.010 A 
ATOM     61  C   UNL A   1      51.020  26.670  24.280  1.00  0.00     0.020 A 
ATOM     62  C   UNL A   1      51.643  25.853  26.484  1.00  0.00     0.020 A 
ATOM     63  C   UNL A   1      51.937  26.047  25.132  1.00  0.00     0.054 A 
BRANCH  63  64
ATOM     64  S   UNL A   1      53.543  25.537  24.461  1.00  0.00     0.124 S 
ATOM     65  O   UNL A   1      54.469  26.360  25.232  1.00  0.00    -0.237 OA
ATOM     66  O   UNL A   1      53.575  24.107  24.758  1.00  0.00    -0.237 OA
ATOM     67  O   UNL A   1      53.446  25.870  23.041  1.00  0.00    -0.744 OA
ENDBRANCH  63  64
ENDBRANCH  37  58
ENDBRANCH  11  12
ENDBRANCH   4   6
ENDBRANCH   1   2
BRANCH   1  68
ATOM     68  C   UNL A   1      34.649  32.065  28.018  1.00  0.00     0.042 C 
BRANCH  68  69
ATOM     69  C   UNL A   1      34.294  30.812  27.237  1.00  0.00     0.118 C 
BRANCH  69  70
ATOM     70  N   UNL A   1      33.147  30.102  27.784  1.00  0.00    -0.352 N 
ATOM     71  C   UNL A   1      32.361  29.146  27.193  1.00  0.00     0.255 C 
ATOM     72  H   UNL A   1      32.901  30.343  28.706  1.00  0.00     0.163 HD
ATOM     73  O   UNL A   1      31.388  28.688  27.786  1.00  0.00    -0.269 OA
BRANCH  71  74
ATOM     74  C   UNL A   1      32.616  28.747  25.797  1.00  0.00     0.081 A 
ATOM     75  C   UNL A   1      33.598  27.781  25.591  1.00  0.00     0.020 A 
ATOM     76  C   UNL A   1      31.912  29.254  24.704  1.00  0.00     0.130 A 
ATOM     77  C   UNL A   1      33.798  27.247  24.316  1.00  0.00     0.027 A 
ATOM     78  C   UNL A   1      32.092  28.691  23.437  1.00  0.00     0.073 A 
ATOM     79  C   UNL A   1      33.005  27.641  23.240  1.00  0.00     0.044 A 
BRANCH  76  80
ATOM     80  O   UNL A   1      31.019  30.274  24.874  1.00  0.00    -0.507 OA
ATOM     81  H   UNL A   1      30.136  30.180  24.572  1.00  0.00     0.293 HD
ENDBRANCH  76  80
BRANCH  79  82
ATOM     82  N   UNL A   1      33.026  27.068  21.955  1.00  0.00    -0.324 N 
ATOM     83  C   UNL A   1      32.975  25.785  21.477  1.00  0.00     0.255 C 
ATOM     84  H   UNL A   1      33.093  27.739  21.238  1.00  0.00     0.170 HD
ATOM     85  O   UNL A   1      33.043  25.655  20.248  1.00  0.00    -0.272 OA
BRANCH  83  86
ATOM     86  C   UNL A   1      32.869  24.569  22.400  1.00  0.00     0.233 C 
ATOM     87  C   UNL A   1      33.120  23.263  21.638  1.00  0.00     0.202 C 
ATOM     88  O   UNL A   1      31.579  24.492  23.025  1.00  0.00    -0.364 OA
ATOM     89  O   UNL A   1      33.121  22.156  22.562  1.00  0.00    -0.376 OA
ATOM     90  C   UNL A   1      31.531  23.391  23.943  1.00  0.00     0.189 C 
ATOM     91  C   UNL A   1      31.855  22.077  23.236  1.00  0.00     0.188 C 
ENDBRANCH  83  86
ENDBRANCH  79  82
ENDBRANCH  71  74
ENDBRANCH  69  70
ENDBRANCH  68  69
ENDBRANCH   1  68
TORSDOF 16
ENDMDL
MODEL 3
REMARK VINA RESULT:     -11.0      2.610      9.177
REMARK SMILES O=C(NCCCNC(=O)c1ccc(NC(=O)[C@@H]2COCCO2)cc1O)c1ccc(-c2c3nc(c(-c4ccc(S(=O)(=O)[O-])cc4)c4ccc([nH]4)c(-c4ccc(S(=O)(=O)[O-])cc4)c4nc(c(-c5ccc(S(=O)(=O)[O-])cc5)c5ccc2[nH]5)C=C4)C=C3)cc1
REMARK SMILES IDX 4 1 3 2 1 3 2 4 26 6 27 7 85 8 28 9 84 10 29 11 30 12 31 13
REMARK SMILES IDX 78 14 32 15 83 16 77 17 79 18 33 19 82 20 76 21 75 22 34 24
REMARK SMILES IDX 64 25 45 26 63 27 46 28 49 29 62 30 80 31 47 32 48 33 61 35
REMARK SMILES IDX 81 36 50 37 35 38 36 39 44 40 37 41 43 42 38 43 39 44 40 45
REMARK SMILES IDX 41 46 42 47 65 48 66 49 74 50 67 51 73 52 68 53 69 54 70 55
REMARK SMILES IDX 71 56 72 57 51 58 52 59 60 60 53 61 59 62 54 63 55 64 56 65
REMARK SMILES IDX 57 66 58 67 5 68 6 69 7 70 8 71 9 73 10 74 11 75 24 76 12 77
REMARK SMILES IDX 23 78 13 79 25 80 14 82 15 83 16 85 17 86 18 87 22 88 19 89
REMARK SMILES IDX 21 90 20 91
REMARK H PARENT 3 5 79 23 49 34 7 72 25 81 14 84
REMARK Flexibility Score: inf
ROOT
ATOM      1  C   UNL A   1      36.894  23.721  24.983  1.00  0.00     0.118 C 
ENDROOT
BRANCH   1   2
ATOM      2  N   UNL A   1      37.870  22.700  25.339  1.00  0.00    -0.352 N 
ATOM      3  O   UNL A   1      39.838  21.865  26.038  1.00  0.00    -0.269 OA
ATOM      4  C   UNL A   1      39.056  22.813  26.021  1.00  0.00     0.251 C 
ATOM      5  H   UNL A   1      37.642  21.789  25.046  1.00  0.00     0.163 HD
BRANCH   4   6
ATOM      6  C   UNL A   1      39.396  24.072  26.717  1.00  0.00     0.039 A 
ATOM      7  C   UNL A   1      39.024  24.270  28.048  1.00  0.00     0.014 A 
ATOM      8  C   UNL A   1      40.135  25.051  26.046  1.00  0.00     0.014 A 
ATOM      9  C   UNL A   1      39.264  25.491  28.663  1.00  0.00     0.010 A 
ATOM     10  C   UNL A   1      40.468  26.240  26.699  1.00  0.00     0.010 A 
ATOM     11  C   UNL A   1      40.024  26.473  28.009  1.00  0.00    -0.014 A 
BRANCH  11  12
ATOM     12  C   UNL A   1      40.458  27.666  28.775  1.00  0.00     0.031 A 
ATOM     13  C   UNL A   1      39.539  28.832  29.003  1.00  0.00     0.074 A 
ATOM     14  C   UNL A   1      41.712  27.671  29.269  1.00  0.00     0.049 A 
ATOM     15  N   UNL A   1      39.779  29.942  29.652  1.00  0.00    -0.248 NA
ATOM     16  C   UNL A   1      38.185  28.752  28.432  1.00  0.00     0.031 C 
ATOM     17  C   UNL A   1      42.695  26.596  29.087  1.00  0.00     0.029 A 
ATOM     18  N   UNL A   1      42.377  28.595  30.033  1.00  0.00    -0.354 N 
ATOM     19  C   UNL A   1      38.622  30.705  29.546  1.00  0.00     0.074 A 
ATOM     20  C   UNL A   1      37.679  29.933  28.766  1.00  0.00     0.031 C 
ATOM     21  C   UNL A   1      43.817  26.904  29.750  1.00  0.00     0.029 A 
ATOM     22  C   UNL A   1      43.665  28.226  30.341  1.00  0.00     0.049 A 
ATOM     23  H   UNL A   1      41.971  29.442  30.332  1.00  0.00     0.167 HD
ATOM     24  C   UNL A   1      38.378  31.936  30.055  1.00  0.00     0.031 A 
ATOM     25  C   UNL A   1      44.634  28.889  30.997  1.00  0.00     0.031 A 
ATOM     26  C   UNL A   1      39.325  32.685  30.842  1.00  0.00     0.049 A 
ATOM     27  C   UNL A   1      44.339  30.263  31.521  1.00  0.00     0.074 A 
ATOM     28  C   UNL A   1      39.144  33.909  31.462  1.00  0.00     0.029 A 
ATOM     29  N   UNL A   1      40.628  32.292  31.106  1.00  0.00    -0.354 N 
ATOM     30  N   UNL A   1      43.213  30.934  31.471  1.00  0.00    -0.248 NA
ATOM     31  C   UNL A   1      45.443  30.973  32.178  1.00  0.00     0.031 C 
ATOM     32  C   UNL A   1      40.356  34.285  32.049  1.00  0.00     0.029 A 
ATOM     33  C   UNL A   1      41.277  33.270  31.840  1.00  0.00     0.049 A 
ATOM     34  H   UNL A   1      41.032  31.443  30.814  1.00  0.00     0.167 HD
ATOM     35  C   UNL A   1      43.474  32.150  32.089  1.00  0.00     0.074 A 
ATOM     36  C   UNL A   1      44.853  32.106  32.536  1.00  0.00     0.031 C 
ATOM     37  C   UNL A   1      42.652  33.212  32.262  1.00  0.00     0.031 A 
BRANCH  24  38
ATOM     38  C   UNL A   1      37.050  32.581  29.766  1.00  0.00    -0.014 A 
ATOM     39  C   UNL A   1      36.007  32.555  30.706  1.00  0.00     0.010 A 
ATOM     40  C   UNL A   1      36.886  33.322  28.580  1.00  0.00     0.010 A 
ATOM     41  C   UNL A   1      34.820  33.255  30.463  1.00  0.00     0.020 A 
ATOM     42  C   UNL A   1      35.709  34.037  28.342  1.00  0.00     0.020 A 
ATOM     43  C   UNL A   1      34.681  33.995  29.285  1.00  0.00     0.054 A 
BRANCH  43  44
ATOM     44  S   UNL A   1      33.159  34.950  29.030  1.00  0.00     0.124 S 
ATOM     45  O   UNL A   1      33.683  36.238  28.581  1.00  0.00    -0.237 OA
ATOM     46  O   UNL A   1      32.458  34.170  28.013  1.00  0.00    -0.237 OA
ATOM     47  O   UNL A   1      32.529  34.961  30.347  1.00  0.00    -0.744 OA
ENDBRANCH  43  44
ENDBRANCH  24  38
BRANCH  25  48
ATOM     48  C   UNL A   1      45.987  28.288  31.128  1.00  0.00    -0.014 A 
ATOM     49  C   UNL A   1      46.967  28.489  30.142  1.00  0.00     0.010 A 
ATOM     50  C   UNL A   1      46.300  27.507  32.257  1.00  0.00     0.010 A 
ATOM     51  C   UNL A   1      48.227  27.897  30.269  1.00  0.00     0.020 A 
ATOM     52  C   UNL A   1      47.567  26.939  32.402  1.00  0.00     0.020 A 
ATOM     53  C   UNL A   1      48.517  27.122  31.397  1.00  0.00     0.054 A 
BRANCH  53  54
ATOM     54  S   UNL A   1      50.165  26.381  31.557  1.00  0.00     0.124 S 
ATOM     55  O   UNL A   1      51.035  27.521  31.286  1.00  0.00    -0.237 OA
ATOM     56  O   UNL A   1      50.164  25.897  32.934  1.00  0.00    -0.237 OA
ATOM     57  O   UNL A   1      50.166  25.334  30.536  1.00  0.00    -0.744 OA
ENDBRANCH  53  54
ENDBRANCH  25  48
BRANCH  37  58
ATOM     58  C   UNL A   1      43.227  34.411  32.960  1.00  0.00    -0.014 A 
ATOM     59  C   UNL A   1      43.774  35.476  32.223  1.00  0.00     0.010 A 
ATOM     60  C   UNL A   1      43.181  34.494  34.363  1.00  0.00     0.010 A 
ATOM     61  C   UNL A   1      44.290  36.594  32.879  1.00  0.00     0.020 A 
ATOM     62  C   UNL A   1      43.674  35.623  35.021  1.00  0.00     0.020 A 
ATOM     63  C   UNL A   1      44.237  36.660  34.275  1.00  0.00     0.054 A 
BRANCH  63  64
ATOM     64  S   UNL A   1      44.870  38.145  35.103  1.00  0.00     0.124 S 
ATOM     65  O   UNL A   1      46.302  37.868  35.168  1.00  0.00    -0.237 OA
ATOM     66  O   UNL A   1      44.477  39.215  34.189  1.00  0.00    -0.237 OA
ATOM     67  O   UNL A   1      44.177  38.146  36.389  1.00  0.00    -0.744 OA
ENDBRANCH  63  64
ENDBRANCH  37  58
ENDBRANCH  11  12
ENDBRANCH   4   6
ENDBRANCH   1   2
BRANCH   1  68
ATOM     68  C   UNL A   1      35.723  23.774  25.948  1.00  0.00     0.042 C 
BRANCH  68  69
ATOM     69  C   UNL A   1      34.397  24.128  25.297  1.00  0.00     0.118 C 
BRANCH  69  70
ATOM     70  N   UNL A   1      34.026  23.219  24.224  1.00  0.00    -0.352 N 
ATOM     71  C   UNL A   1      33.133  23.409  23.200  1.00  0.00     0.255 C 
ATOM     72  H   UNL A   1      34.479  22.344  24.234  1.00  0.00     0.163 HD
ATOM     73  O   UNL A   1      32.896  22.504  22.404  1.00  0.00    -0.269 OA
BRANCH  71  74
ATOM     74  C   UNL A   1      32.367  24.666  23.120  1.00  0.00     0.081 A 
ATOM     75  C   UNL A   1      31.303  24.809  24.007  1.00  0.00     0.020 A 
ATOM     76  C   UNL A   1      32.675  25.709  22.245  1.00  0.00     0.130 A 
ATOM     77  C   UNL A   1      30.622  26.024  24.093  1.00  0.00     0.027 A 
ATOM     78  C   UNL A   1      32.012  26.934  22.360  1.00  0.00     0.073 A 
ATOM     79  C   UNL A   1      31.009  27.121  23.325  1.00  0.00     0.044 A 
BRANCH  76  80
ATOM     80  O   UNL A   1      33.649  25.547  21.299  1.00  0.00    -0.507 OA
ATOM     81  H   UNL A   1      33.744  26.179  20.613  1.00  0.00     0.293 HD
ENDBRANCH  76  80
BRANCH  79  82
ATOM     82  N   UNL A   1      30.487  28.423  23.436  1.00  0.00    -0.324 N 
ATOM     83  C   UNL A   1      30.703  29.473  24.289  1.00  0.00     0.255 C 
ATOM     84  H   UNL A   1      29.815  28.626  22.746  1.00  0.00     0.170 HD
ATOM     85  O   UNL A   1      30.025  30.489  24.092  1.00  0.00    -0.272 OA
BRANCH  83  86
ATOM     86  C   UNL A   1      31.704  29.398  25.445  1.00  0.00     0.233 C 
ATOM     87  C   UNL A   1      31.713  30.694  26.264  1.00  0.00     0.202 C 
ATOM     88  O   UNL A   1      33.036  29.146  24.974  1.00  0.00    -0.364 OA
ATOM     89  O   UNL A   1      32.583  30.540  27.403  1.00  0.00    -0.376 OA
ATOM     90  C   UNL A   1      33.940  29.002  26.079  1.00  0.00     0.189 C 
ATOM     91  C   UNL A   1      33.919  30.245  26.966  1.00  0.00     0.188 C 
ENDBRANCH  83  86
ENDBRANCH  79  82
ENDBRANCH  71  74
ENDBRANCH  69  70
ENDBRANCH  68  69
ENDBRANCH   1  68
TORSDOF 16
ENDMDL
