MODEL 1
REMARK VINA RESULT:      -9.7      0.000      0.000
REMARK SMILES CC1=C(C#N)C(=O)N(C)C(=O)/C1=C\Nc1ccc(C(=O)NCCCNC(=O)c2ccc(-c3c4nc(c(-c5ccc(S(=O)(=O)[O-])cc5)c5ccc([nH]5)c(-c5ccc(S(=O)(=O)[O-])cc5)c5nc(c(-c6ccc(S(=O)(=O)[O-])cc6)c6ccc3[nH]6)C=C5)C=C4)cc2)c(O)c1
REMARK SMILES IDX 23 1 22 2 21 3 19 4 20 5 18 7 15 8 16 9 90 10 17 11 88 12
REMARK SMILES IDX 14 13 13 15 1 16 2 17 3 18 12 19 6 20 10 21 7 22 8 23 11 24
REMARK SMILES IDX 9 25 4 26 5 27 89 28 24 30 25 31 26 32 27 34 28 35 29 36
REMARK SMILES IDX 87 37 30 38 86 39 31 40 32 41 33 42 80 43 34 44 85 45 79 46
REMARK SMILES IDX 81 47 35 48 84 49 78 50 77 51 36 53 66 54 47 55 65 56 48 57
REMARK SMILES IDX 51 58 64 59 82 60 49 61 50 62 63 64 83 65 52 66 37 67 38 68
REMARK SMILES IDX 46 69 39 70 45 71 40 72 41 73 42 74 43 75 44 76 67 77 68 78
REMARK SMILES IDX 76 79 69 80 75 81 70 82 71 83 72 84 73 85 74 86 53 87 54 88
REMARK SMILES IDX 62 89 55 90 61 91 56 92 57 93 58 94 59 95 60 96
REMARK H PARENT 21 6 14 14 89 29 25 33 81 52 51 63
REMARK Flexibility Score: inf
ROOT
ATOM      1  C   UNL A   1      34.679  34.613  28.581  1.00  0.00     0.042 C 
ENDROOT
BRANCH   1   2
ATOM      2  C   UNL A   1      33.529  34.607  29.566  1.00  0.00     0.118 C 
BRANCH   2   3
ATOM      3  N   UNL A   1      33.524  35.698  30.532  1.00  0.00    -0.352 N 
ATOM      4  C   UNL A   1      34.140  35.806  31.758  1.00  0.00     0.255 C 
ATOM      5  O   UNL A   1      33.998  36.846  32.399  1.00  0.00    -0.269 OA
ATOM      6  H   UNL A   1      32.994  36.483  30.265  1.00  0.00     0.163 HD
BRANCH   4   7
ATOM      7  C   UNL A   1      34.924  34.692  32.352  1.00  0.00     0.081 A 
ATOM      8  C   UNL A   1      36.617  32.788  33.574  1.00  0.00     0.042 A 
ATOM      9  C   UNL A   1      37.143  33.731  32.693  1.00  0.00     0.027 A 
ATOM     10  C   UNL A   1      35.235  32.785  33.798  1.00  0.00     0.073 A 
ATOM     11  C   UNL A   1      36.304  34.681  32.093  1.00  0.00     0.020 A 
ATOM     12  C   UNL A   1      34.393  33.670  33.136  1.00  0.00     0.130 A 
BRANCH   8  13
ATOM     13  N   UNL A   1      37.369  31.835  34.264  1.00  0.00    -0.361 N 
ATOM     14  H   UNL A   1      37.345  31.941  35.242  1.00  0.00     0.166 HD
BRANCH  13  15
ATOM     15  C   UNL A   1      38.134  30.780  33.841  1.00  0.00     0.097 C 
ATOM     16  C   UNL A   1      39.550  28.520  32.613  1.00  0.00     0.047 C 
ATOM     17  C   UNL A   1      40.244  29.484  33.555  1.00  0.00    -0.013 C 
ATOM     18  C   UNL A   1      41.543  29.352  33.902  1.00  0.00     0.121 C 
ATOM     19  C   UNL A   1      39.455  30.602  34.075  1.00  0.00     0.060 C 
ATOM     20  C   UNL A   1      42.203  30.323  34.820  1.00  0.00     0.271 C 
ATOM     21  C   UNL A   1      40.134  31.646  34.932  1.00  0.00     0.262 C 
ATOM     22  O   UNL A   1      43.372  30.148  35.163  1.00  0.00    -0.268 OA
ATOM     23  N   UNL A   1      41.457  31.406  35.254  1.00  0.00    -0.277 N 
ATOM     24  O   UNL A   1      39.533  32.646  35.328  1.00  0.00    -0.269 OA
ATOM     25  C   UNL A   1      42.132  32.363  36.115  1.00  0.00     0.157 C 
BRANCH  18  26
ATOM     26  C   UNL A   1      42.360  28.286  33.425  1.00  0.00     0.105 C 
ATOM     27  N   UNL A   1      43.056  27.453  33.006  1.00  0.00    -0.192 NA
ENDBRANCH  18  26
ENDBRANCH  13  15
ENDBRANCH   8  13
BRANCH  12  28
ATOM     28  O   UNL A   1      33.060  33.408  33.283  1.00  0.00    -0.507 OA
ATOM     29  H   UNL A   1      32.450  34.115  33.365  1.00  0.00     0.293 HD
ENDBRANCH  12  28
ENDBRANCH   4   7
ENDBRANCH   2   3
ENDBRANCH   1   2
BRANCH   1  30
ATOM     30  C   UNL A   1      35.305  33.258  28.306  1.00  0.00     0.118 C 
BRANCH  30  31
ATOM     31  N   UNL A   1      34.337  32.196  28.057  1.00  0.00    -0.352 N 
ATOM     32  C   UNL A   1      34.493  30.829  27.976  1.00  0.00     0.251 C 
ATOM     33  H   UNL A   1      33.413  32.509  27.923  1.00  0.00     0.163 HD
ATOM     34  O   UNL A   1      33.542  30.135  27.626  1.00  0.00    -0.269 OA
BRANCH  32  35
ATOM     35  C   UNL A   1      35.803  30.200  28.264  1.00  0.00     0.039 A 
ATOM     36  C   UNL A   1      36.747  30.092  27.239  1.00  0.00     0.014 A 
ATOM     37  C   UNL A   1      36.115  29.736  29.540  1.00  0.00     0.014 A 
ATOM     38  C   UNL A   1      38.031  29.620  27.528  1.00  0.00     0.010 A 
ATOM     39  C   UNL A   1      37.426  29.400  29.855  1.00  0.00     0.010 A 
ATOM     40  C   UNL A   1      38.402  29.329  28.851  1.00  0.00    -0.014 A 
BRANCH  40  41
ATOM     41  C   UNL A   1      39.794  28.946  29.207  1.00  0.00     0.031 A 
ATOM     42  C   UNL A   1      40.717  29.954  29.844  1.00  0.00     0.074 A 
ATOM     43  C   UNL A   1      40.251  27.716  28.891  1.00  0.00     0.049 A 
ATOM     44  N   UNL A   1      41.978  29.825  30.168  1.00  0.00    -0.248 NA
ATOM     45  C   UNL A   1      40.165  31.292  30.128  1.00  0.00     0.031 C 
ATOM     46  C   UNL A   1      39.476  26.668  28.218  1.00  0.00     0.029 A 
ATOM     47  N   UNL A   1      41.482  27.137  29.084  1.00  0.00    -0.354 N 
ATOM     48  C   UNL A   1      42.372  31.063  30.665  1.00  0.00     0.074 A 
ATOM     49  C   UNL A   1      41.234  31.947  30.556  1.00  0.00     0.031 C 
ATOM     50  C   UNL A   1      40.237  25.570  28.088  1.00  0.00     0.029 A 
ATOM     51  C   UNL A   1      41.569  25.847  28.611  1.00  0.00     0.049 A 
ATOM     52  H   UNL A   1      42.233  27.602  29.521  1.00  0.00     0.167 HD
ATOM     53  C   UNL A   1      43.568  31.427  31.183  1.00  0.00     0.031 A 
ATOM     54  C   UNL A   1      42.608  24.989  28.581  1.00  0.00     0.031 A 
ATOM     55  C   UNL A   1      44.689  30.536  31.313  1.00  0.00     0.049 A 
ATOM     56  C   UNL A   1      43.928  25.422  29.165  1.00  0.00     0.074 A 
ATOM     57  C   UNL A   1      45.916  30.786  31.902  1.00  0.00     0.029 A 
ATOM     58  N   UNL A   1      44.729  29.234  30.841  1.00  0.00    -0.354 N 
ATOM     59  N   UNL A   1      44.246  26.567  29.722  1.00  0.00    -0.248 NA
ATOM     60  C   UNL A   1      45.025  24.446  29.128  1.00  0.00     0.031 C 
ATOM     61  C   UNL A   1      46.726  29.665  31.714  1.00  0.00     0.029 A 
ATOM     62  C   UNL A   1      45.976  28.684  31.087  1.00  0.00     0.049 A 
ATOM     63  H   UNL A   1      43.983  28.769  30.398  1.00  0.00     0.167 HD
ATOM     64  C   UNL A   1      45.570  26.435  30.126  1.00  0.00     0.074 A 
ATOM     65  C   UNL A   1      45.984  25.094  29.773  1.00  0.00     0.031 C 
ATOM     66  C   UNL A   1      46.373  27.345  30.733  1.00  0.00     0.031 A 
BRANCH  53  67
ATOM     67  C   UNL A   1      43.743  32.851  31.643  1.00  0.00    -0.014 A 
ATOM     68  C   UNL A   1      43.484  33.231  32.972  1.00  0.00     0.010 A 
ATOM     69  C   UNL A   1      44.269  33.803  30.750  1.00  0.00     0.010 A 
ATOM     70  C   UNL A   1      43.734  34.539  33.395  1.00  0.00     0.020 A 
ATOM     71  C   UNL A   1      44.550  35.103  31.177  1.00  0.00     0.020 A 
ATOM     72  C   UNL A   1      44.275  35.465  32.496  1.00  0.00     0.054 A 
BRANCH  72  73
ATOM     73  S   UNL A   1      44.662  37.132  33.096  1.00  0.00     0.124 S 
ATOM     74  O   UNL A   1      43.441  37.483  33.819  1.00  0.00    -0.237 OA
ATOM     75  O   UNL A   1      45.840  36.905  33.927  1.00  0.00    -0.237 OA
ATOM     76  O   UNL A   1      44.900  37.895  31.874  1.00  0.00    -0.744 OA
ENDBRANCH  72  73
ENDBRANCH  53  67
BRANCH  54  77
ATOM     77  C   UNL A   1      42.457  23.643  27.957  1.00  0.00    -0.014 A 
ATOM     78  C   UNL A   1      42.034  22.533  28.713  1.00  0.00     0.010 A 
ATOM     79  C   UNL A   1      42.766  23.458  26.597  1.00  0.00     0.010 A 
ATOM     80  C   UNL A   1      41.964  21.263  28.132  1.00  0.00     0.020 A 
ATOM     81  C   UNL A   1      42.659  22.199  26.001  1.00  0.00     0.020 A 
ATOM     82  C   UNL A   1      42.279  21.104  26.779  1.00  0.00     0.054 A 
BRANCH  82  83
ATOM     83  S   UNL A   1      42.166  19.451  26.041  1.00  0.00     0.124 S 
ATOM     84  O   UNL A   1      40.739  19.346  25.750  1.00  0.00    -0.237 OA
ATOM     85  O   UNL A   1      43.043  19.566  24.879  1.00  0.00    -0.237 OA
ATOM     86  O   UNL A   1      42.656  18.570  27.097  1.00  0.00    -0.744 OA
ENDBRANCH  82  83
ENDBRANCH  54  77
BRANCH  66  87
ATOM     87  C   UNL A   1      47.769  26.911  31.096  1.00  0.00    -0.014 A 
ATOM     88  C   UNL A   1      48.040  26.234  32.298  1.00  0.00     0.010 A 
ATOM     89  C   UNL A   1      48.818  27.134  30.185  1.00  0.00     0.010 A 
ATOM     90  C   UNL A   1      49.340  25.820  32.598  1.00  0.00     0.020 A 
ATOM     91  C   UNL A   1      50.112  26.689  30.463  1.00  0.00     0.020 A 
ATOM     92  C   UNL A   1      50.367  26.048  31.676  1.00  0.00     0.054 A 
BRANCH  92  93
ATOM     93  S   UNL A   1      52.037  25.461  32.071  1.00  0.00     0.124 S 
ATOM     94  O   UNL A   1      51.800  24.051  32.368  1.00  0.00    -0.237 OA
ATOM     95  O   UNL A   1      52.769  25.728  30.836  1.00  0.00    -0.237 OA
ATOM     96  O   UNL A   1      52.432  26.280  33.215  1.00  0.00    -0.744 OA
ENDBRANCH  92  93
ENDBRANCH  66  87
ENDBRANCH  40  41
ENDBRANCH  32  35
ENDBRANCH  30  31
ENDBRANCH   1  30
TORSDOF 17
ENDMDL
MODEL 2
REMARK VINA RESULT:      -9.6      4.640     12.371
REMARK SMILES CC1=C(C#N)C(=O)N(C)C(=O)/C1=C\Nc1ccc(C(=O)NCCCNC(=O)c2ccc(-c3c4nc(c(-c5ccc(S(=O)(=O)[O-])cc5)c5ccc([nH]5)c(-c5ccc(S(=O)(=O)[O-])cc5)c5nc(c(-c6ccc(S(=O)(=O)[O-])cc6)c6ccc3[nH]6)C=C5)C=C4)cc2)c(O)c1
REMARK SMILES IDX 23 1 22 2 21 3 19 4 20 5 18 7 15 8 16 9 90 10 17 11 88 12
REMARK SMILES IDX 14 13 13 15 1 16 2 17 3 18 12 19 6 20 10 21 7 22 8 23 11 24
REMARK SMILES IDX 9 25 4 26 5 27 89 28 24 30 25 31 26 32 27 34 28 35 29 36
REMARK SMILES IDX 87 37 30 38 86 39 31 40 32 41 33 42 80 43 34 44 85 45 79 46
REMARK SMILES IDX 81 47 35 48 84 49 78 50 77 51 36 53 66 54 47 55 65 56 48 57
REMARK SMILES IDX 51 58 64 59 82 60 49 61 50 62 63 64 83 65 52 66 37 67 38 68
REMARK SMILES IDX 46 69 39 70 45 71 40 72 41 73 42 74 43 75 44 76 67 77 68 78
REMARK SMILES IDX 76 79 69 80 75 81 70 82 71 83 72 84 73 85 74 86 53 87 54 88
REMARK SMILES IDX 62 89 55 90 61 91 56 92 57 93 58 94 59 95 60 96
REMARK H PARENT 21 6 14 14 89 29 25 33 81 52 51 63
REMARK Flexibility Score: inf
ROOT
ATOM      1  C   UNL A   1      40.530  21.712  27.111  1.00  0.00     0.042 C 
ENDROOT
BRANCH   1   2
ATOM      2  C   UNL A   1      39.336  21.980  26.218  1.00  0.00     0.118 C 
BRANCH   2   3
ATOM      3  N   UNL A   1      38.734  20.804  25.605  1.00  0.00    -0.352 N 
ATOM      4  C   UNL A   1      37.477  20.619  25.073  1.00  0.00     0.255 C 
ATOM      5  O   UNL A   1      37.197  19.523  24.592  1.00  0.00    -0.269 OA
ATOM      6  H   UNL A   1      39.318  20.013  25.566  1.00  0.00     0.163 HD
BRANCH   4   7
ATOM      7  C   UNL A   1      36.439  21.682  25.106  1.00  0.00     0.081 A 
ATOM      8  C   UNL A   1      34.529  23.733  25.469  1.00  0.00     0.042 A 
ATOM      9  C   UNL A   1      34.558  22.640  26.333  1.00  0.00     0.027 A 
ATOM     10  C   UNL A   1      35.435  23.761  24.403  1.00  0.00     0.073 A 
ATOM     11  C   UNL A   1      35.510  21.626  26.159  1.00  0.00     0.020 A 
ATOM     12  C   UNL A   1      36.321  22.714  24.178  1.00  0.00     0.130 A 
BRANCH   8  13
ATOM     13  N   UNL A   1      33.660  24.819  25.586  1.00  0.00    -0.361 N 
ATOM     14  H   UNL A   1      33.912  25.457  26.291  1.00  0.00     0.166 HD
BRANCH  13  15
ATOM     15  C   UNL A   1      32.523  25.168  24.905  1.00  0.00     0.097 C 
ATOM     16  C   UNL A   1      29.949  25.565  23.549  1.00  0.00     0.047 C 
ATOM     17  C   UNL A   1      30.737  26.724  24.128  1.00  0.00    -0.013 C 
ATOM     18  C   UNL A   1      30.317  28.005  24.037  1.00  0.00     0.121 C 
ATOM     19  C   UNL A   1      31.986  26.408  24.823  1.00  0.00     0.060 C 
ATOM     20  C   UNL A   1      31.106  29.123  24.628  1.00  0.00     0.271 C 
ATOM     21  C   UNL A   1      32.749  27.520  25.506  1.00  0.00     0.262 C 
ATOM     22  O   UNL A   1      30.728  30.285  24.483  1.00  0.00    -0.268 OA
ATOM     23  N   UNL A   1      32.254  28.798  25.331  1.00  0.00    -0.277 N 
ATOM     24  O   UNL A   1      33.763  27.294  26.169  1.00  0.00    -0.269 OA
ATOM     25  C   UNL A   1      32.985  29.901  25.934  1.00  0.00     0.157 C 
BRANCH  18  26
ATOM     26  C   UNL A   1      29.109  28.371  23.376  1.00  0.00     0.105 C 
ATOM     27  N   UNL A   1      28.108  28.697  22.881  1.00  0.00    -0.192 NA
ENDBRANCH  18  26
ENDBRANCH  13  15
ENDBRANCH   8  13
BRANCH  12  28
ATOM     28  O   UNL A   1      36.986  22.774  22.985  1.00  0.00    -0.507 OA
ATOM     29  H   UNL A   1      37.692  23.379  22.872  1.00  0.00     0.293 HD
ENDBRANCH  12  28
ENDBRANCH   4   7
ENDBRANCH   2   3
ENDBRANCH   1   2
BRANCH   1  30
ATOM     30  C   UNL A   1      41.491  22.874  27.274  1.00  0.00     0.118 C 
BRANCH  30  31
ATOM     31  N   UNL A   1      41.511  23.793  26.141  1.00  0.00    -0.352 N 
ATOM     32  C   UNL A   1      41.427  25.167  26.087  1.00  0.00     0.251 C 
ATOM     33  H   UNL A   1      41.602  23.356  25.263  1.00  0.00     0.163 HD
ATOM     34  O   UNL A   1      41.338  25.723  24.995  1.00  0.00    -0.269 OA
BRANCH  32  35
ATOM     35  C   UNL A   1      41.399  25.971  27.331  1.00  0.00     0.039 A 
ATOM     36  C   UNL A   1      42.423  26.890  27.572  1.00  0.00     0.014 A 
ATOM     37  C   UNL A   1      40.359  25.841  28.250  1.00  0.00     0.014 A 
ATOM     38  C   UNL A   1      42.341  27.745  28.676  1.00  0.00     0.010 A 
ATOM     39  C   UNL A   1      40.208  26.780  29.263  1.00  0.00     0.010 A 
ATOM     40  C   UNL A   1      41.201  27.741  29.497  1.00  0.00    -0.014 A 
BRANCH  40  41
ATOM     41  C   UNL A   1      41.029  28.722  30.600  1.00  0.00     0.031 A 
ATOM     42  C   UNL A   1      41.882  28.625  31.840  1.00  0.00     0.074 A 
ATOM     43  C   UNL A   1      40.056  29.655  30.520  1.00  0.00     0.049 A 
ATOM     44  N   UNL A   1      41.835  29.349  32.929  1.00  0.00    -0.248 NA
ATOM     45  C   UNL A   1      42.900  27.559  31.879  1.00  0.00     0.031 C 
ATOM     46  C   UNL A   1      39.124  29.817  29.399  1.00  0.00     0.029 A 
ATOM     47  N   UNL A   1      39.682  30.641  31.400  1.00  0.00    -0.354 N 
ATOM     48  C   UNL A   1      42.791  28.811  33.784  1.00  0.00     0.074 A 
ATOM     49  C   UNL A   1      43.370  27.671  33.112  1.00  0.00     0.031 C 
ATOM     50  C   UNL A   1      38.312  30.857  29.645  1.00  0.00     0.029 A 
ATOM     51  C   UNL A   1      38.622  31.403  30.962  1.00  0.00     0.049 A 
ATOM     52  H   UNL A   1      40.129  30.790  32.264  1.00  0.00     0.167 HD
ATOM     53  C   UNL A   1      43.168  29.240  35.011  1.00  0.00     0.031 A 
ATOM     54  C   UNL A   1      37.959  32.414  31.558  1.00  0.00     0.031 A 
ATOM     55  C   UNL A   1      42.606  30.391  35.665  1.00  0.00     0.049 A 
ATOM     56  C   UNL A   1      38.399  32.869  32.924  1.00  0.00     0.074 A 
ATOM     57  C   UNL A   1      42.979  30.956  36.872  1.00  0.00     0.029 A 
ATOM     58  N   UNL A   1      41.550  31.146  35.178  1.00  0.00    -0.354 N 
ATOM     59  N   UNL A   1      39.376  32.408  33.670  1.00  0.00    -0.248 NA
ATOM     60  C   UNL A   1      37.659  33.987  33.525  1.00  0.00     0.031 C 
ATOM     61  C   UNL A   1      42.097  32.000  37.155  1.00  0.00     0.029 A 
ATOM     62  C   UNL A   1      41.231  32.144  36.083  1.00  0.00     0.049 A 
ATOM     63  H   UNL A   1      41.097  30.996  34.319  1.00  0.00     0.167 HD
ATOM     64  C   UNL A   1      39.383  33.199  34.814  1.00  0.00     0.074 A 
ATOM     65  C   UNL A   1      38.332  34.182  34.650  1.00  0.00     0.031 C 
ATOM     66  C   UNL A   1      40.185  33.119  35.905  1.00  0.00     0.031 A 
BRANCH  53  67
ATOM     67  C   UNL A   1      44.230  28.463  35.744  1.00  0.00    -0.014 A 
ATOM     68  C   UNL A   1      45.592  28.799  35.639  1.00  0.00     0.010 A 
ATOM     69  C   UNL A   1      43.845  27.438  36.629  1.00  0.00     0.010 A 
ATOM     70  C   UNL A   1      46.549  28.116  36.394  1.00  0.00     0.020 A 
ATOM     71  C   UNL A   1      44.797  26.775  37.409  1.00  0.00     0.020 A 
ATOM     72  C   UNL A   1      46.144  27.115  37.282  1.00  0.00     0.054 A 
BRANCH  72  73
ATOM     73  S   UNL A   1      47.401  26.301  38.304  1.00  0.00     0.124 S 
ATOM     74  O   UNL A   1      46.952  26.633  39.655  1.00  0.00    -0.237 OA
ATOM     75  O   UNL A   1      47.263  24.899  37.922  1.00  0.00    -0.237 OA
ATOM     76  O   UNL A   1      48.650  26.938  37.892  1.00  0.00    -0.744 OA
ENDBRANCH  72  73
ENDBRANCH  53  67
BRANCH  54  77
ATOM     77  C   UNL A   1      36.792  33.052  30.883  1.00  0.00    -0.014 A 
ATOM     78  C   UNL A   1      36.964  33.866  29.747  1.00  0.00     0.010 A 
ATOM     79  C   UNL A   1      35.495  32.870  31.395  1.00  0.00     0.010 A 
ATOM     80  C   UNL A   1      35.869  34.514  29.165  1.00  0.00     0.020 A 
ATOM     81  C   UNL A   1      34.392  33.483  30.794  1.00  0.00     0.020 A 
ATOM     82  C   UNL A   1      34.590  34.319  29.695  1.00  0.00     0.054 A 
BRANCH  82  83
ATOM     83  S   UNL A   1      33.182  35.157  28.916  1.00  0.00     0.124 S 
ATOM     84  O   UNL A   1      32.357  35.500  30.072  1.00  0.00    -0.237 OA
ATOM     85  O   UNL A   1      33.822  36.281  28.238  1.00  0.00    -0.237 OA
ATOM     86  O   UNL A   1      32.625  34.139  28.030  1.00  0.00    -0.744 OA
ENDBRANCH  82  83
ENDBRANCH  54  77
BRANCH  66  87
ATOM     87  C   UNL A   1      39.993  34.144  36.990  1.00  0.00    -0.014 A 
ATOM     88  C   UNL A   1      40.618  35.402  36.934  1.00  0.00     0.010 A 
ATOM     89  C   UNL A   1      39.118  33.862  38.057  1.00  0.00     0.010 A 
ATOM     90  C   UNL A   1      40.402  36.344  37.943  1.00  0.00     0.020 A 
ATOM     91  C   UNL A   1      38.870  34.814  39.047  1.00  0.00     0.020 A 
ATOM     92  C   UNL A   1      39.526  36.045  38.991  1.00  0.00     0.054 A 
BRANCH  92  93
ATOM     93  S   UNL A   1      39.228  37.303  40.263  1.00  0.00     0.124 S 
ATOM     94  O   UNL A   1      38.572  36.526  41.311  1.00  0.00    -0.237 OA
ATOM     95  O   UNL A   1      40.578  37.765  40.575  1.00  0.00    -0.237 OA
ATOM     96  O   UNL A   1      38.378  38.283  39.590  1.00  0.00    -0.744 OA
ENDBRANCH  92  93
ENDBRANCH  66  87
ENDBRANCH  40  41
ENDBRANCH  32  35
ENDBRANCH  30  31
ENDBRANCH   1  30
TORSDOF 17
ENDMDL
MODEL 3
REMARK VINA RESULT:      -9.6      4.697     12.663
REMARK SMILES CC1=C(C#N)C(=O)N(C)C(=O)/C1=C\Nc1ccc(C(=O)NCCCNC(=O)c2ccc(-c3c4nc(c(-c5ccc(S(=O)(=O)[O-])cc5)c5ccc([nH]5)c(-c5ccc(S(=O)(=O)[O-])cc5)c5nc(c(-c6ccc(S(=O)(=O)[O-])cc6)c6ccc3[nH]6)C=C5)C=C4)cc2)c(O)c1
REMARK SMILES IDX 23 1 22 2 21 3 19 4 20 5 18 7 15 8 16 9 90 10 17 11 88 12
REMARK SMILES IDX 14 13 13 15 1 16 2 17 3 18 12 19 6 20 10 21 7 22 8 23 11 24
REMARK SMILES IDX 9 25 4 26 5 27 89 28 24 30 25 31 26 32 27 34 28 35 29 36
REMARK SMILES IDX 87 37 30 38 86 39 31 40 32 41 33 42 80 43 34 44 85 45 79 46
REMARK SMILES IDX 81 47 35 48 84 49 78 50 77 51 36 53 66 54 47 55 65 56 48 57
REMARK SMILES IDX 51 58 64 59 82 60 49 61 50 62 63 64 83 65 52 66 37 67 38 68
REMARK SMILES IDX 46 69 39 70 45 71 40 72 41 73 42 74 43 75 44 76 67 77 68 78
REMARK SMILES IDX 76 79 69 80 75 81 70 82 71 83 72 84 73 85 74 86 53 87 54 88
REMARK SMILES IDX 62 89 55 90 61 91 56 92 57 93 58 94 59 95 60 96
REMARK H PARENT 21 6 14 14 89 29 25 33 81 52 51 63
REMARK Flexibility Score: inf
ROOT
ATOM      1  C   UNL A   1      45.384  24.230  25.718  1.00  0.00     0.042 C 
ENDROOT
BRANCH   1   2
ATOM      2  C   UNL A   1      44.517  23.074  26.174  1.00  0.00     0.118 C 
BRANCH   2   3
ATOM      3  N   UNL A   1      44.300  22.981  27.612  1.00  0.00    -0.352 N 
ATOM      4  C   UNL A   1      43.189  22.587  28.322  1.00  0.00     0.255 C 
ATOM      5  O   UNL A   1      43.249  22.578  29.551  1.00  0.00    -0.269 OA
ATOM      6  H   UNL A   1      45.072  23.244  28.164  1.00  0.00     0.163 HD
BRANCH   4   7
ATOM      7  C   UNL A   1      41.912  22.222  27.658  1.00  0.00     0.081 A 
ATOM      8  C   UNL A   1      39.506  21.793  26.237  1.00  0.00     0.042 A 
ATOM      9  C   UNL A   1      39.735  23.009  26.877  1.00  0.00     0.027 A 
ATOM     10  C   UNL A   1      40.473  20.787  26.355  1.00  0.00     0.073 A 
ATOM     11  C   UNL A   1      40.932  23.226  27.575  1.00  0.00     0.020 A 
ATOM     12  C   UNL A   1      41.619  20.970  27.119  1.00  0.00     0.130 A 
BRANCH   8  13
ATOM     13  N   UNL A   1      38.377  21.493  25.473  1.00  0.00    -0.361 N 
ATOM     14  H   UNL A   1      38.438  20.638  24.990  1.00  0.00     0.166 HD
BRANCH  13  15
ATOM     15  C   UNL A   1      37.199  22.163  25.266  1.00  0.00     0.097 C 
ATOM     16  C   UNL A   1      34.894  23.881  24.669  1.00  0.00     0.047 C 
ATOM     17  C   UNL A   1      34.785  22.369  24.681  1.00  0.00    -0.013 C 
ATOM     18  C   UNL A   1      33.623  21.723  24.440  1.00  0.00     0.121 C 
ATOM     19  C   UNL A   1      36.007  21.607  24.946  1.00  0.00     0.060 C 
ATOM     20  C   UNL A   1      33.548  20.234  24.444  1.00  0.00     0.271 C 
ATOM     21  C   UNL A   1      35.966  20.098  24.863  1.00  0.00     0.262 C 
ATOM     22  O   UNL A   1      32.466  19.673  24.276  1.00  0.00    -0.268 OA
ATOM     23  N   UNL A   1      34.725  19.532  24.640  1.00  0.00    -0.277 N 
ATOM     24  O   UNL A   1      36.984  19.417  25.001  1.00  0.00    -0.269 OA
ATOM     25  C   UNL A   1      34.636  18.081  24.599  1.00  0.00     0.157 C 
BRANCH  18  26
ATOM     26  C   UNL A   1      32.404  22.411  24.173  1.00  0.00     0.105 C 
ATOM     27  N   UNL A   1      31.388  22.951  24.002  1.00  0.00    -0.192 NA
ENDBRANCH  18  26
ENDBRANCH  13  15
ENDBRANCH   8  13
BRANCH  12  28
ATOM     28  O   UNL A   1      42.358  19.839  27.324  1.00  0.00    -0.507 OA
ATOM     29  H   UNL A   1      42.614  19.309  26.595  1.00  0.00     0.293 HD
ENDBRANCH  12  28
ENDBRANCH   4   7
ENDBRANCH   2   3
ENDBRANCH   1   2
BRANCH   1  30
ATOM     30  C   UNL A   1      44.700  25.585  25.702  1.00  0.00     0.118 C 
BRANCH  30  31
ATOM     31  N   UNL A   1      43.359  25.567  25.127  1.00  0.00    -0.352 N 
ATOM     32  C   UNL A   1      42.158  26.033  25.616  1.00  0.00     0.251 C 
ATOM     33  H   UNL A   1      43.302  25.152  24.236  1.00  0.00     0.163 HD
ATOM     34  O   UNL A   1      41.123  25.791  25.001  1.00  0.00    -0.269 OA
BRANCH  32  35
ATOM     35  C   UNL A   1      42.102  26.781  26.894  1.00  0.00     0.039 A 
ATOM     36  C   UNL A   1      42.623  28.077  26.949  1.00  0.00     0.014 A 
ATOM     37  C   UNL A   1      41.521  26.223  28.031  1.00  0.00     0.014 A 
ATOM     38  C   UNL A   1      42.461  28.839  28.110  1.00  0.00     0.010 A 
ATOM     39  C   UNL A   1      41.238  27.025  29.130  1.00  0.00     0.010 A 
ATOM     40  C   UNL A   1      41.711  28.343  29.189  1.00  0.00    -0.014 A 
BRANCH  40  41
ATOM     41  C   UNL A   1      41.414  29.176  30.384  1.00  0.00     0.031 A 
ATOM     42  C   UNL A   1      42.225  29.008  31.645  1.00  0.00     0.074 A 
ATOM     43  C   UNL A   1      40.370  30.032  30.361  1.00  0.00     0.049 A 
ATOM     44  N   UNL A   1      42.077  29.599  32.803  1.00  0.00    -0.248 NA
ATOM     45  C   UNL A   1      43.328  28.030  31.614  1.00  0.00     0.031 C 
ATOM     46  C   UNL A   1      39.470  30.244  29.222  1.00  0.00     0.029 A 
ATOM     47  N   UNL A   1      39.881  30.879  31.325  1.00  0.00    -0.354 N 
ATOM     48  C   UNL A   1      43.042  29.046  33.637  1.00  0.00     0.074 A 
ATOM     49  C   UNL A   1      43.740  28.039  32.873  1.00  0.00     0.031 C 
ATOM     50  C   UNL A   1      38.565  31.182  29.542  1.00  0.00     0.029 A 
ATOM     51  C   UNL A   1      38.777  31.598  30.923  1.00  0.00     0.049 A 
ATOM     52  H   UNL A   1      40.281  30.964  32.221  1.00  0.00     0.167 HD
ATOM     53  C   UNL A   1      43.334  29.362  34.920  1.00  0.00     0.031 A 
ATOM     54  C   UNL A   1      38.009  32.479  31.595  1.00  0.00     0.031 A 
ATOM     55  C   UNL A   1      42.653  30.383  35.670  1.00  0.00     0.049 A 
ATOM     56  C   UNL A   1      38.358  32.811  33.022  1.00  0.00     0.074 A 
ATOM     57  C   UNL A   1      42.931  30.836  36.947  1.00  0.00     0.029 A 
ATOM     58  N   UNL A   1      41.556  31.101  35.219  1.00  0.00    -0.354 N 
ATOM     59  N   UNL A   1      39.341  32.348  33.758  1.00  0.00    -0.248 NA
ATOM     60  C   UNL A   1      37.503  33.791  33.706  1.00  0.00     0.031 C 
ATOM     61  C   UNL A   1      41.954  31.768  37.301  1.00  0.00     0.029 A 
ATOM     62  C   UNL A   1      41.120  31.962  36.212  1.00  0.00     0.049 A 
ATOM     63  H   UNL A   1      41.149  31.013  34.328  1.00  0.00     0.167 HD
ATOM     64  C   UNL A   1      39.238  33.003  34.981  1.00  0.00     0.074 A 
ATOM     65  C   UNL A   1      38.115  33.911  34.876  1.00  0.00     0.031 C 
ATOM     66  C   UNL A   1      40.002  32.864  36.092  1.00  0.00     0.031 A 
BRANCH  53  67
ATOM     67  C   UNL A   1      44.430  28.594  35.613  1.00  0.00    -0.014 A 
ATOM     68  C   UNL A   1      44.178  27.369  36.255  1.00  0.00     0.010 A 
ATOM     69  C   UNL A   1      45.754  29.065  35.534  1.00  0.00     0.010 A 
ATOM     70  C   UNL A   1      45.226  26.636  36.817  1.00  0.00     0.020 A 
ATOM     71  C   UNL A   1      46.809  28.319  36.067  1.00  0.00     0.020 A 
ATOM     72  C   UNL A   1      46.537  27.111  36.711  1.00  0.00     0.054 A 
BRANCH  72  73
ATOM     73  S   UNL A   1      47.884  26.099  37.382  1.00  0.00     0.124 S 
ATOM     74  O   UNL A   1      47.567  24.779  36.840  1.00  0.00    -0.237 OA
ATOM     75  O   UNL A   1      49.070  26.739  36.822  1.00  0.00    -0.237 OA
ATOM     76  O   UNL A   1      47.730  26.229  38.828  1.00  0.00    -0.744 OA
ENDBRANCH  72  73
ENDBRANCH  53  67
BRANCH  54  77
ATOM     77  C   UNL A   1      36.818  33.094  30.940  1.00  0.00    -0.014 A 
ATOM     78  C   UNL A   1      36.958  33.943  29.825  1.00  0.00     0.010 A 
ATOM     79  C   UNL A   1      35.530  32.854  31.450  1.00  0.00     0.010 A 
ATOM     80  C   UNL A   1      35.840  34.568  29.264  1.00  0.00     0.020 A 
ATOM     81  C   UNL A   1      34.405  33.444  30.868  1.00  0.00     0.020 A 
ATOM     82  C   UNL A   1      34.571  34.315  29.791  1.00  0.00     0.054 A 
BRANCH  82  83
ATOM     83  S   UNL A   1      33.132  35.124  29.039  1.00  0.00     0.124 S 
ATOM     84  O   UNL A   1      33.723  36.339  28.484  1.00  0.00    -0.237 OA
ATOM     85  O   UNL A   1      32.688  34.132  28.063  1.00  0.00    -0.237 OA
ATOM     86  O   UNL A   1      32.225  35.328  30.165  1.00  0.00    -0.744 OA
ENDBRANCH  82  83
ENDBRANCH  54  77
BRANCH  66  87
ATOM     87  C   UNL A   1      39.683  33.742  37.274  1.00  0.00    -0.014 A 
ATOM     88  C   UNL A   1      38.854  33.296  38.319  1.00  0.00     0.010 A 
ATOM     89  C   UNL A   1      40.274  35.016  37.365  1.00  0.00     0.010 A 
ATOM     90  C   UNL A   1      38.595  34.122  39.415  1.00  0.00     0.020 A 
ATOM     91  C   UNL A   1      40.047  35.830  38.476  1.00  0.00     0.020 A 
ATOM     92  C   UNL A   1      39.196  35.383  39.488  1.00  0.00     0.054 A 
BRANCH  92  93
ATOM     93  S   UNL A   1      38.877  36.416  40.944  1.00  0.00     0.124 S 
ATOM     94  O   UNL A   1      37.778  35.703  41.588  1.00  0.00    -0.237 OA
ATOM     95  O   UNL A   1      40.154  36.373  41.651  1.00  0.00    -0.237 OA
ATOM     96  O   UNL A   1      38.528  37.717  40.377  1.00  0.00    -0.744 OA
ENDBRANCH  92  93
ENDBRANCH  66  87
ENDBRANCH  40  41
ENDBRANCH  32  35
ENDBRANCH  30  31
ENDBRANCH   1  30
TORSDOF 17
ENDMDL
