MODEL 1
REMARK VINA RESULT:     -10.1      0.000      0.000
REMARK SMILES O=C(CCc1nnc(CSc2ccccc2)o1)NCCCNC(=O)c1ccc(-c2c3nc(c(-c4ccc(S(=O)(=O)[O-])cc4)c4ccc([nH]4)c(-c4ccc(S(=O)(=O)[O-])cc4)c4nc(c(-c5ccc(S(=O)(=O)[O-])cc5)c5ccc2[nH]5)C=C4)C=C3)cc1
REMARK SMILES IDX 19 1 18 2 1 3 2 4 3 6 4 7 5 8 6 9 17 10 7 11 8 12 9 13 10 14
REMARK SMILES IDX 11 15 12 16 16 17 13 18 15 19 14 20 20 21 21 22 22 23 23 24
REMARK SMILES IDX 24 26 25 27 26 28 84 29 27 30 83 31 28 32 29 33 30 34 77 35
REMARK SMILES IDX 31 36 82 37 76 38 78 39 32 40 81 41 75 42 74 43 33 45 63 46
REMARK SMILES IDX 44 47 62 48 45 49 48 50 61 51 79 52 46 53 47 54 60 56 80 57
REMARK SMILES IDX 49 58 34 59 35 60 43 61 36 62 42 63 37 64 38 65 39 66 40 67
REMARK SMILES IDX 41 68 64 69 65 70 73 71 66 72 72 73 67 74 68 75 69 76 70 77
REMARK SMILES IDX 71 78 50 79 51 80 59 81 52 82 58 83 53 84 54 85 55 86 56 87
REMARK SMILES IDX 57 88
REMARK H PARENT 18 5 22 25 78 44 48 55
REMARK Flexibility Score: inf
ROOT
ATOM      1  C   UNL A   1      33.934  31.584  28.045  1.00  0.00     0.117 C 
ENDROOT
BRANCH   1   2
ATOM      2  N   UNL A   1      34.281  32.978  28.231  1.00  0.00    -0.356 N 
ATOM      3  O   UNL A   1      32.222  33.839  27.682  1.00  0.00    -0.275 OA
ATOM      4  C   UNL A   1      33.378  33.998  28.055  1.00  0.00     0.220 C 
ATOM      5  H   UNL A   1      35.203  33.203  28.496  1.00  0.00     0.163 HD
BRANCH   4   6
ATOM      6  C   UNL A   1      33.921  35.365  28.411  1.00  0.00     0.110 C 
BRANCH   6   7
ATOM      7  C   UNL A   1      32.886  36.177  29.179  1.00  0.00     0.109 C 
BRANCH   7   8
ATOM      8  C   UNL A   1      33.202  36.424  30.612  1.00  0.00     0.217 A 
ATOM      9  N   UNL A   1      32.860  37.458  31.350  1.00  0.00    -0.113 NA
ATOM     10  O   UNL A   1      33.948  35.505  31.308  1.00  0.00    -0.424 OA
ATOM     11  N   UNL A   1      33.379  37.236  32.607  1.00  0.00    -0.112 NA
ATOM     12  C   UNL A   1      34.016  36.085  32.555  1.00  0.00     0.226 A 
BRANCH  12  13
ATOM     13  C   UNL A   1      34.734  35.340  33.616  1.00  0.00     0.174 C 
BRANCH  13  14
ATOM     14  S   UNL A   1      34.894  33.558  33.270  1.00  0.00    -0.116 SA
BRANCH  14  15
ATOM     15  C   UNL A   1      36.524  33.519  32.549  1.00  0.00     0.008 A 
ATOM     16  C   UNL A   1      36.690  33.780  31.185  1.00  0.00     0.015 A 
ATOM     17  C   UNL A   1      37.635  33.165  33.321  1.00  0.00     0.015 A 
ATOM     18  C   UNL A   1      37.959  33.706  30.606  1.00  0.00     0.001 A 
ATOM     19  C   UNL A   1      38.904  33.099  32.742  1.00  0.00     0.001 A 
ATOM     20  C   UNL A   1      39.066  33.369  31.385  1.00  0.00     0.000 A 
ENDBRANCH  14  15
ENDBRANCH  13  14
ENDBRANCH  12  13
ENDBRANCH   7   8
ENDBRANCH   6   7
ENDBRANCH   4   6
ENDBRANCH   1   2
BRANCH   1  21
ATOM     21  C   UNL A   1      35.052  30.773  27.398  1.00  0.00     0.042 C 
BRANCH  21  22
ATOM     22  C   UNL A   1      35.712  29.724  28.292  1.00  0.00     0.118 C 
BRANCH  22  23
ATOM     23  N   UNL A   1      35.540  29.968  29.715  1.00  0.00    -0.352 N 
ATOM     24  C   UNL A   1      36.499  30.095  30.697  1.00  0.00     0.251 C 
ATOM     25  H   UNL A   1      34.609  30.055  30.021  1.00  0.00     0.163 HD
ATOM     26  O   UNL A   1      36.156  30.266  31.858  1.00  0.00    -0.269 OA
BRANCH  24  27
ATOM     27  C   UNL A   1      37.934  29.992  30.350  1.00  0.00     0.039 A 
ATOM     28  C   UNL A   1      38.826  29.579  31.344  1.00  0.00     0.014 A 
ATOM     29  C   UNL A   1      38.396  30.273  29.061  1.00  0.00     0.014 A 
ATOM     30  C   UNL A   1      40.167  29.356  31.022  1.00  0.00     0.010 A 
ATOM     31  C   UNL A   1      39.726  30.009  28.732  1.00  0.00     0.010 A 
ATOM     32  C   UNL A   1      40.617  29.520  29.701  1.00  0.00    -0.014 A 
BRANCH  32  33
ATOM     33  C   UNL A   1      41.982  29.097  29.300  1.00  0.00     0.031 A 
ATOM     34  C   UNL A   1      43.118  30.080  29.267  1.00  0.00     0.074 A 
ATOM     35  C   UNL A   1      42.178  27.830  28.886  1.00  0.00     0.049 A 
ATOM     36  N   UNL A   1      44.351  29.897  28.870  1.00  0.00    -0.248 NA
ATOM     37  C   UNL A   1      42.828  31.447  29.724  1.00  0.00     0.031 C 
ATOM     38  C   UNL A   1      41.149  26.787  28.843  1.00  0.00     0.029 A 
ATOM     39  N   UNL A   1      43.302  27.204  28.410  1.00  0.00    -0.354 N 
ATOM     40  C   UNL A   1      44.986  31.123  29.021  1.00  0.00     0.074 A 
ATOM     41  C   UNL A   1      43.989  32.053  29.511  1.00  0.00     0.031 C 
ATOM     42  C   UNL A   1      41.692  25.651  28.378  1.00  0.00     0.029 A 
ATOM     43  C   UNL A   1      43.094  25.892  28.052  1.00  0.00     0.049 A 
ATOM     44  H   UNL A   1      44.176  27.651  28.332  1.00  0.00     0.167 HD
ATOM     45  C   UNL A   1      46.280  31.443  28.782  1.00  0.00     0.031 A 
ATOM     46  C   UNL A   1      43.929  24.987  27.505  1.00  0.00     0.031 A 
ATOM     47  C   UNL A   1      47.269  30.518  28.288  1.00  0.00     0.049 A 
ATOM     48  C   UNL A   1      45.351  25.377  27.215  1.00  0.00     0.074 A 
ATOM     49  C   UNL A   1      48.616  30.739  28.063  1.00  0.00     0.029 A 
ATOM     50  N   UNL A   1      47.017  29.202  27.931  1.00  0.00    -0.354 N 
ATOM     51  N   UNL A   1      45.946  26.526  27.422  1.00  0.00    -0.248 NA
ATOM     52  C   UNL A   1      46.213  24.346  26.621  1.00  0.00     0.031 C 
ATOM     53  C   UNL A   1      49.168  29.574  27.520  1.00  0.00     0.029 A 
ATOM     54  C   UNL A   1      48.176  28.609  27.458  1.00  0.00     0.049 A 
ATOM     55  H   UNL A   1      46.142  28.754  28.003  1.00  0.00     0.167 HD
ATOM     56  C   UNL A   1      47.259  26.353  27.000  1.00  0.00     0.074 A 
ATOM     57  C   UNL A   1      47.375  24.983  26.543  1.00  0.00     0.031 C 
ATOM     58  C   UNL A   1      48.277  27.249  26.993  1.00  0.00     0.031 A 
BRANCH  45  59
ATOM     59  C   UNL A   1      46.705  32.865  29.039  1.00  0.00    -0.014 A 
ATOM     60  C   UNL A   1      46.613  33.842  28.031  1.00  0.00     0.010 A 
ATOM     61  C   UNL A   1      47.159  33.239  30.316  1.00  0.00     0.010 A 
ATOM     62  C   UNL A   1      47.004  35.159  28.285  1.00  0.00     0.020 A 
ATOM     63  C   UNL A   1      47.528  34.562  30.582  1.00  0.00     0.020 A 
ATOM     64  C   UNL A   1      47.465  35.509  29.558  1.00  0.00     0.054 A 
BRANCH  64  65
ATOM     65  S   UNL A   1      47.952  37.230  29.865  1.00  0.00     0.124 S 
ATOM     66  O   UNL A   1      47.072  37.957  28.954  1.00  0.00    -0.237 OA
ATOM     67  O   UNL A   1      47.660  37.397  31.286  1.00  0.00    -0.237 OA
ATOM     68  O   UNL A   1      49.370  37.256  29.516  1.00  0.00    -0.744 OA
ENDBRANCH  64  65
ENDBRANCH  45  59
BRANCH  46  69
ATOM     69  C   UNL A   1      43.435  23.619  27.193  1.00  0.00    -0.014 A 
ATOM     70  C   UNL A   1      43.298  22.661  28.213  1.00  0.00     0.010 A 
ATOM     71  C   UNL A   1      43.082  23.274  25.876  1.00  0.00     0.010 A 
ATOM     72  C   UNL A   1      42.830  21.377  27.918  1.00  0.00     0.020 A 
ATOM     73  C   UNL A   1      42.587  21.999  25.583  1.00  0.00     0.020 A 
ATOM     74  C   UNL A   1      42.474  21.056  26.605  1.00  0.00     0.054 A 
BRANCH  74  75
ATOM     75  S   UNL A   1      41.813  19.403  26.255  1.00  0.00     0.124 S 
ATOM     76  O   UNL A   1      42.528  19.042  25.036  1.00  0.00    -0.237 OA
ATOM     77  O   UNL A   1      42.183  18.654  27.453  1.00  0.00    -0.237 OA
ATOM     78  O   UNL A   1      40.379  19.638  26.096  1.00  0.00    -0.744 OA
ENDBRANCH  74  75
ENDBRANCH  46  69
BRANCH  58  79
ATOM     79  C   UNL A   1      49.612  26.772  26.486  1.00  0.00    -0.014 A 
ATOM     80  C   UNL A   1      49.972  26.927  25.136  1.00  0.00     0.010 A 
ATOM     81  C   UNL A   1      50.535  26.202  27.382  1.00  0.00     0.010 A 
ATOM     82  C   UNL A   1      51.223  26.495  24.686  1.00  0.00     0.020 A 
ATOM     83  C   UNL A   1      51.796  25.792  26.940  1.00  0.00     0.020 A 
ATOM     84  C   UNL A   1      52.127  25.929  25.590  1.00  0.00     0.054 A 
BRANCH  84  85
ATOM     85  S   UNL A   1      53.760  25.418  24.990  1.00  0.00     0.124 S 
ATOM     86  O   UNL A   1      54.655  26.212  25.829  1.00  0.00    -0.237 OA
ATOM     87  O   UNL A   1      53.764  23.980  25.252  1.00  0.00    -0.237 OA
ATOM     88  O   UNL A   1      53.741  25.787  23.577  1.00  0.00    -0.744 OA
ENDBRANCH  84  85
ENDBRANCH  58  79
ENDBRANCH  32  33
ENDBRANCH  24  27
ENDBRANCH  22  23
ENDBRANCH  21  22
ENDBRANCH   1  21
TORSDOF 18
ENDMDL
MODEL 2
REMARK VINA RESULT:     -10.0      5.523     13.999
REMARK SMILES O=C(CCc1nnc(CSc2ccccc2)o1)NCCCNC(=O)c1ccc(-c2c3nc(c(-c4ccc(S(=O)(=O)[O-])cc4)c4ccc([nH]4)c(-c4ccc(S(=O)(=O)[O-])cc4)c4nc(c(-c5ccc(S(=O)(=O)[O-])cc5)c5ccc2[nH]5)C=C4)C=C3)cc1
REMARK SMILES IDX 19 1 18 2 1 3 2 4 3 6 4 7 5 8 6 9 17 10 7 11 8 12 9 13 10 14
REMARK SMILES IDX 11 15 12 16 16 17 13 18 15 19 14 20 20 21 21 22 22 23 23 24
REMARK SMILES IDX 24 26 25 27 26 28 84 29 27 30 83 31 28 32 29 33 30 34 77 35
REMARK SMILES IDX 31 36 82 37 76 38 78 39 32 40 81 41 75 42 74 43 33 45 63 46
REMARK SMILES IDX 44 47 62 48 45 49 48 50 61 51 79 52 46 53 47 54 60 56 80 57
REMARK SMILES IDX 49 58 34 59 35 60 43 61 36 62 42 63 37 64 38 65 39 66 40 67
REMARK SMILES IDX 41 68 64 69 65 70 73 71 66 72 72 73 67 74 68 75 69 76 70 77
REMARK SMILES IDX 71 78 50 79 51 80 59 81 52 82 58 83 53 84 54 85 55 86 56 87
REMARK SMILES IDX 57 88
REMARK H PARENT 18 5 22 25 78 44 48 55
REMARK Flexibility Score: inf
ROOT
ATOM      1  C   UNL A   1      44.895  23.730  26.549  1.00  0.00     0.117 C 
ENDROOT
BRANCH   1   2
ATOM      2  N   UNL A   1      45.364  22.402  26.212  1.00  0.00    -0.356 N 
ATOM      3  O   UNL A   1      45.438  22.719  23.936  1.00  0.00    -0.275 OA
ATOM      4  C   UNL A   1      45.622  22.011  24.920  1.00  0.00     0.220 C 
ATOM      5  H   UNL A   1      45.504  21.753  26.939  1.00  0.00     0.163 HD
BRANCH   4   6
ATOM      6  C   UNL A   1      46.210  20.622  24.805  1.00  0.00     0.110 C 
BRANCH   6   7
ATOM      7  C   UNL A   1      45.256  19.688  24.072  1.00  0.00     0.109 C 
BRANCH   7   8
ATOM      8  C   UNL A   1      44.096  19.204  24.868  1.00  0.00     0.217 A 
ATOM      9  N   UNL A   1      43.810  17.967  25.214  1.00  0.00    -0.113 NA
ATOM     10  O   UNL A   1      43.163  20.104  25.321  1.00  0.00    -0.424 OA
ATOM     11  N   UNL A   1      42.644  18.020  25.945  1.00  0.00    -0.112 NA
ATOM     12  C   UNL A   1      42.283  19.285  25.990  1.00  0.00     0.226 A 
BRANCH  12  13
ATOM     13  C   UNL A   1      41.129  19.927  26.664  1.00  0.00     0.174 C 
BRANCH  13  14
ATOM     14  S   UNL A   1      41.432  21.665  27.121  1.00  0.00    -0.116 SA
BRANCH  14  15
ATOM     15  C   UNL A   1      39.871  22.392  26.662  1.00  0.00     0.008 A 
ATOM     16  C   UNL A   1      38.971  21.671  25.872  1.00  0.00     0.015 A 
ATOM     17  C   UNL A   1      39.562  23.706  27.029  1.00  0.00     0.015 A 
ATOM     18  C   UNL A   1      37.766  22.252  25.470  1.00  0.00     0.001 A 
ATOM     19  C   UNL A   1      38.354  24.283  26.635  1.00  0.00     0.001 A 
ATOM     20  C   UNL A   1      37.457  23.557  25.855  1.00  0.00     0.000 A 
ENDBRANCH  14  15
ENDBRANCH  13  14
ENDBRANCH  12  13
ENDBRANCH   7   8
ENDBRANCH   6   7
ENDBRANCH   4   6
ENDBRANCH   1   2
BRANCH   1  21
ATOM     21  C   UNL A   1      45.879  24.828  26.157  1.00  0.00     0.042 C 
BRANCH  21  22
ATOM     22  C   UNL A   1      45.254  26.155  25.732  1.00  0.00     0.118 C 
BRANCH  22  23
ATOM     23  N   UNL A   1      43.943  26.022  25.117  1.00  0.00    -0.352 N 
ATOM     24  C   UNL A   1      42.707  26.357  25.625  1.00  0.00     0.251 C 
ATOM     25  H   UNL A   1      43.937  25.637  24.211  1.00  0.00     0.163 HD
ATOM     26  O   UNL A   1      41.702  26.135  24.964  1.00  0.00    -0.269 OA
BRANCH  24  27
ATOM     27  C   UNL A   1      42.595  26.952  26.974  1.00  0.00     0.039 A 
ATOM     28  C   UNL A   1      43.083  28.248  27.168  1.00  0.00     0.014 A 
ATOM     29  C   UNL A   1      41.997  26.260  28.031  1.00  0.00     0.014 A 
ATOM     30  C   UNL A   1      42.887  28.887  28.395  1.00  0.00     0.010 A 
ATOM     31  C   UNL A   1      41.765  26.915  29.242  1.00  0.00     0.010 A 
ATOM     32  C   UNL A   1      42.182  28.244  29.425  1.00  0.00    -0.014 A 
BRANCH  32  33
ATOM     33  C   UNL A   1      41.791  28.975  30.656  1.00  0.00     0.031 A 
ATOM     34  C   UNL A   1      40.595  29.884  30.670  1.00  0.00     0.074 A 
ATOM     35  C   UNL A   1      42.573  28.876  31.750  1.00  0.00     0.049 A 
ATOM     36  N   UNL A   1      40.160  30.654  31.635  1.00  0.00    -0.248 NA
ATOM     37  C   UNL A   1      39.795  29.949  29.438  1.00  0.00     0.031 C 
ATOM     38  C   UNL A   1      43.779  28.050  31.854  1.00  0.00     0.029 A 
ATOM     39  N   UNL A   1      42.482  29.483  32.977  1.00  0.00    -0.354 N 
ATOM     40  C   UNL A   1      39.039  31.301  31.129  1.00  0.00     0.074 A 
ATOM     41  C   UNL A   1      38.885  30.860  29.758  1.00  0.00     0.031 C 
ATOM     42  C   UNL A   1      44.306  28.193  33.079  1.00  0.00     0.029 A 
ATOM     43  C   UNL A   1      43.504  29.150  33.835  1.00  0.00     0.049 A 
ATOM     44  H   UNL A   1      41.754  30.099  33.221  1.00  0.00     0.167 HD
ATOM     45  C   UNL A   1      38.211  32.173  31.752  1.00  0.00     0.031 A 
ATOM     46  C   UNL A   1      43.779  29.577  35.083  1.00  0.00     0.031 A 
ATOM     47  C   UNL A   1      38.371  32.615  33.114  1.00  0.00     0.049 A 
ATOM     48  C   UNL A   1      42.866  30.574  35.738  1.00  0.00     0.074 A 
ATOM     49  C   UNL A   1      37.553  33.459  33.845  1.00  0.00     0.029 A 
ATOM     50  N   UNL A   1      39.422  32.261  33.946  1.00  0.00    -0.354 N 
ATOM     51  N   UNL A   1      41.777  31.128  35.263  1.00  0.00    -0.248 NA
ATOM     52  C   UNL A   1      43.217  31.000  37.100  1.00  0.00     0.031 C 
ATOM     53  C   UNL A   1      38.137  33.657  35.101  1.00  0.00     0.029 A 
ATOM     54  C   UNL A   1      39.290  32.893  35.172  1.00  0.00     0.049 A 
ATOM     55  H   UNL A   1      40.154  31.649  33.702  1.00  0.00     0.167 HD
ATOM     56  C   UNL A   1      41.302  31.954  36.273  1.00  0.00     0.074 A 
ATOM     57  C   UNL A   1      42.211  31.814  37.392  1.00  0.00     0.031 C 
ATOM     58  C   UNL A   1      40.209  32.757  36.274  1.00  0.00     0.031 A 
BRANCH  45  59
ATOM     59  C   UNL A   1      37.057  32.726  30.957  1.00  0.00    -0.014 A 
ATOM     60  C   UNL A   1      35.753  32.228  31.131  1.00  0.00     0.010 A 
ATOM     61  C   UNL A   1      37.271  33.786  30.058  1.00  0.00     0.010 A 
ATOM     62  C   UNL A   1      34.690  32.754  30.392  1.00  0.00     0.020 A 
ATOM     63  C   UNL A   1      36.207  34.332  29.334  1.00  0.00     0.020 A 
ATOM     64  C   UNL A   1      34.926  33.799  29.493  1.00  0.00     0.054 A 
BRANCH  64  65
ATOM     65  S   UNL A   1      33.525  34.474  28.556  1.00  0.00     0.124 S 
ATOM     66  O   UNL A   1      33.173  33.349  27.693  1.00  0.00    -0.237 OA
ATOM     67  O   UNL A   1      32.559  34.787  29.606  1.00  0.00    -0.237 OA
ATOM     68  O   UNL A   1      34.093  35.632  27.871  1.00  0.00    -0.744 OA
ENDBRANCH  64  65
ENDBRANCH  45  59
BRANCH  46  69
ATOM     69  C   UNL A   1      44.981  29.062  35.793  1.00  0.00    -0.014 A 
ATOM     70  C   UNL A   1      46.223  29.703  35.648  1.00  0.00     0.010 A 
ATOM     71  C   UNL A   1      44.883  27.936  36.631  1.00  0.00     0.010 A 
ATOM     72  C   UNL A   1      47.351  29.219  36.319  1.00  0.00     0.020 A 
ATOM     73  C   UNL A   1      46.003  27.467  37.324  1.00  0.00     0.020 A 
ATOM     74  C   UNL A   1      47.232  28.106  37.155  1.00  0.00     0.054 A 
BRANCH  74  75
ATOM     75  S   UNL A   1      48.695  27.532  38.062  1.00  0.00     0.124 S 
ATOM     76  O   UNL A   1      49.698  28.516  37.673  1.00  0.00    -0.237 OA
ATOM     77  O   UNL A   1      48.250  27.595  39.452  1.00  0.00    -0.237 OA
ATOM     78  O   UNL A   1      48.906  26.181  37.545  1.00  0.00    -0.744 OA
ENDBRANCH  74  75
ENDBRANCH  46  69
BRANCH  58  79
ATOM     79  C   UNL A   1      39.927  33.539  37.529  1.00  0.00    -0.014 A 
ATOM     80  C   UNL A   1      39.121  33.006  38.551  1.00  0.00     0.010 A 
ATOM     81  C   UNL A   1      40.514  34.805  37.708  1.00  0.00     0.010 A 
ATOM     82  C   UNL A   1      38.885  33.738  39.718  1.00  0.00     0.020 A 
ATOM     83  C   UNL A   1      40.300  35.529  38.885  1.00  0.00     0.020 A 
ATOM     84  C   UNL A   1      39.475  34.996  39.877  1.00  0.00     0.054 A 
BRANCH  84  85
ATOM     85  S   UNL A   1      39.189  35.906  41.419  1.00  0.00     0.124 S 
ATOM     86  O   UNL A   1      38.093  35.150  42.020  1.00  0.00    -0.237 OA
ATOM     87  O   UNL A   1      40.477  35.796  42.101  1.00  0.00    -0.237 OA
ATOM     88  O   UNL A   1      38.844  37.252  40.968  1.00  0.00    -0.744 OA
ENDBRANCH  84  85
ENDBRANCH  58  79
ENDBRANCH  32  33
ENDBRANCH  24  27
ENDBRANCH  22  23
ENDBRANCH  21  22
ENDBRANCH   1  21
TORSDOF 18
ENDMDL
MODEL 3
REMARK VINA RESULT:      -9.7      3.037      5.567
REMARK SMILES O=C(CCc1nnc(CSc2ccccc2)o1)NCCCNC(=O)c1ccc(-c2c3nc(c(-c4ccc(S(=O)(=O)[O-])cc4)c4ccc([nH]4)c(-c4ccc(S(=O)(=O)[O-])cc4)c4nc(c(-c5ccc(S(=O)(=O)[O-])cc5)c5ccc2[nH]5)C=C4)C=C3)cc1
REMARK SMILES IDX 19 1 18 2 1 3 2 4 3 6 4 7 5 8 6 9 17 10 7 11 8 12 9 13 10 14
REMARK SMILES IDX 11 15 12 16 16 17 13 18 15 19 14 20 20 21 21 22 22 23 23 24
REMARK SMILES IDX 24 26 25 27 26 28 84 29 27 30 83 31 28 32 29 33 30 34 77 35
REMARK SMILES IDX 31 36 82 37 76 38 78 39 32 40 81 41 75 42 74 43 33 45 63 46
REMARK SMILES IDX 44 47 62 48 45 49 48 50 61 51 79 52 46 53 47 54 60 56 80 57
REMARK SMILES IDX 49 58 34 59 35 60 43 61 36 62 42 63 37 64 38 65 39 66 40 67
REMARK SMILES IDX 41 68 64 69 65 70 73 71 66 72 72 73 67 74 68 75 69 76 70 77
REMARK SMILES IDX 71 78 50 79 51 80 59 81 52 82 58 83 53 84 54 85 55 86 56 87
REMARK SMILES IDX 57 88
REMARK H PARENT 18 5 22 25 78 44 48 55
REMARK Flexibility Score: inf
ROOT
ATOM      1  C   UNL A   1      33.720  31.416  28.015  1.00  0.00     0.117 C 
ENDROOT
BRANCH   1   2
ATOM      2  N   UNL A   1      33.573  29.991  27.801  1.00  0.00    -0.356 N 
ATOM      3  O   UNL A   1      32.655  30.134  25.698  1.00  0.00    -0.275 OA
ATOM      4  C   UNL A   1      33.069  29.463  26.637  1.00  0.00     0.220 C 
ATOM      5  H   UNL A   1      33.846  29.376  28.520  1.00  0.00     0.163 HD
BRANCH   4   6
ATOM      6  C   UNL A   1      33.107  27.952  26.582  1.00  0.00     0.110 C 
BRANCH   6   7
ATOM      7  C   UNL A   1      31.722  27.364  26.822  1.00  0.00     0.109 C 
BRANCH   7   8
ATOM      8  C   UNL A   1      31.498  26.005  26.260  1.00  0.00     0.217 A 
ATOM      9  N   UNL A   1      30.429  25.247  26.376  1.00  0.00    -0.113 NA
ATOM     10  O   UNL A   1      32.491  25.403  25.528  1.00  0.00    -0.424 OA
ATOM     11  N   UNL A   1      30.692  24.084  25.686  1.00  0.00    -0.112 NA
ATOM     12  C   UNL A   1      31.910  24.199  25.201  1.00  0.00     0.226 A 
BRANCH  12  13
ATOM     13  C   UNL A   1      32.695  23.268  24.356  1.00  0.00     0.174 C 
BRANCH  13  14
ATOM     14  S   UNL A   1      33.258  21.781  25.246  1.00  0.00    -0.116 SA
BRANCH  14  15
ATOM     15  C   UNL A   1      35.013  22.083  25.295  1.00  0.00     0.008 A 
ATOM     16  C   UNL A   1      35.909  21.028  25.096  1.00  0.00     0.015 A 
ATOM     17  C   UNL A   1      35.508  23.356  25.595  1.00  0.00     0.015 A 
ATOM     18  C   UNL A   1      37.286  21.250  25.179  1.00  0.00     0.001 A 
ATOM     19  C   UNL A   1      36.884  23.579  25.669  1.00  0.00     0.001 A 
ATOM     20  C   UNL A   1      37.773  22.526  25.462  1.00  0.00     0.000 A 
ENDBRANCH  14  15
ENDBRANCH  13  14
ENDBRANCH  12  13
ENDBRANCH   7   8
ENDBRANCH   6   7
ENDBRANCH   4   6
ENDBRANCH   1   2
BRANCH   1  21
ATOM     21  C   UNL A   1      35.147  31.908  27.792  1.00  0.00     0.042 C 
BRANCH  21  22
ATOM     22  C   UNL A   1      35.954  32.193  29.058  1.00  0.00     0.118 C 
BRANCH  22  23
ATOM     23  N   UNL A   1      35.718  31.245  30.135  1.00  0.00    -0.352 N 
ATOM     24  C   UNL A   1      36.578  30.316  30.679  1.00  0.00     0.251 C 
ATOM     25  H   UNL A   1      34.817  31.270  30.531  1.00  0.00     0.163 HD
ATOM     26  O   UNL A   1      36.183  29.574  31.567  1.00  0.00    -0.269 OA
BRANCH  24  27
ATOM     27  C   UNL A   1      37.961  30.196  30.168  1.00  0.00     0.039 A 
ATOM     28  C   UNL A   1      39.016  30.395  31.064  1.00  0.00     0.014 A 
ATOM     29  C   UNL A   1      38.222  29.869  28.835  1.00  0.00     0.014 A 
ATOM     30  C   UNL A   1      40.331  30.172  30.647  1.00  0.00     0.010 A 
ATOM     31  C   UNL A   1      39.532  29.606  28.432  1.00  0.00     0.010 A 
ATOM     32  C   UNL A   1      40.595  29.727  29.342  1.00  0.00    -0.014 A 
BRANCH  32  33
ATOM     33  C   UNL A   1      41.958  29.295  28.942  1.00  0.00     0.031 A 
ATOM     34  C   UNL A   1      43.086  30.283  28.849  1.00  0.00     0.074 A 
ATOM     35  C   UNL A   1      42.158  28.011  28.585  1.00  0.00     0.049 A 
ATOM     36  N   UNL A   1      44.316  30.089  28.444  1.00  0.00    -0.248 NA
ATOM     37  C   UNL A   1      42.792  31.668  29.245  1.00  0.00     0.031 C 
ATOM     38  C   UNL A   1      41.136  26.960  28.604  1.00  0.00     0.029 A 
ATOM     39  N   UNL A   1      43.280  27.371  28.123  1.00  0.00    -0.354 N 
ATOM     40  C   UNL A   1      44.943  31.326  28.529  1.00  0.00     0.074 A 
ATOM     41  C   UNL A   1      43.947  32.271  28.989  1.00  0.00     0.031 C 
ATOM     42  C   UNL A   1      41.682  25.808  28.185  1.00  0.00     0.029 A 
ATOM     43  C   UNL A   1      43.077  26.043  27.829  1.00  0.00     0.049 A 
ATOM     44  H   UNL A   1      44.149  27.820  28.013  1.00  0.00     0.167 HD
ATOM     45  C   UNL A   1      46.232  31.642  28.258  1.00  0.00     0.031 A 
ATOM     46  C   UNL A   1      43.912  25.119  27.314  1.00  0.00     0.031 A 
ATOM     47  C   UNL A   1      47.221  30.702  27.794  1.00  0.00     0.049 A 
ATOM     48  C   UNL A   1      45.326  25.504  26.987  1.00  0.00     0.074 A 
ATOM     49  C   UNL A   1      48.564  30.922  27.541  1.00  0.00     0.029 A 
ATOM     50  N   UNL A   1      46.974  29.370  27.502  1.00  0.00    -0.354 N 
ATOM     51  N   UNL A   1      45.916  26.666  27.132  1.00  0.00    -0.248 NA
ATOM     52  C   UNL A   1      46.188  24.453  26.430  1.00  0.00     0.031 C 
ATOM     53  C   UNL A   1      49.117  29.736  27.046  1.00  0.00     0.029 A 
ATOM     54  C   UNL A   1      48.131  28.763  27.042  1.00  0.00     0.049 A 
ATOM     55  H   UNL A   1      46.104  28.920  27.607  1.00  0.00     0.167 HD
ATOM     56  C   UNL A   1      47.225  26.482  26.702  1.00  0.00     0.074 A 
ATOM     57  C   UNL A   1      47.345  25.093  26.307  1.00  0.00     0.031 C 
ATOM     58  C   UNL A   1      48.235  27.383  26.640  1.00  0.00     0.031 A 
BRANCH  45  59
ATOM     59  C   UNL A   1      46.650  33.078  28.443  1.00  0.00    -0.014 A 
ATOM     60  C   UNL A   1      46.520  34.011  27.398  1.00  0.00     0.010 A 
ATOM     61  C   UNL A   1      47.135  33.510  29.690  1.00  0.00     0.010 A 
ATOM     62  C   UNL A   1      46.905  35.341  27.585  1.00  0.00     0.020 A 
ATOM     63  C   UNL A   1      47.499  34.845  29.890  1.00  0.00     0.020 A 
ATOM     64  C   UNL A   1      47.398  35.748  28.829  1.00  0.00     0.054 A 
BRANCH  64  65
ATOM     65  S   UNL A   1      47.877  37.485  29.050  1.00  0.00     0.124 S 
ATOM     66  O   UNL A   1      49.245  37.485  28.539  1.00  0.00    -0.237 OA
ATOM     67  O   UNL A   1      46.900  38.194  28.228  1.00  0.00    -0.237 OA
ATOM     68  O   UNL A   1      47.748  37.699  30.489  1.00  0.00    -0.744 OA
ENDBRANCH  64  65
ENDBRANCH  45  59
BRANCH  46  69
ATOM     69  C   UNL A   1      43.423  23.734  27.072  1.00  0.00    -0.014 A 
ATOM     70  C   UNL A   1      43.298  22.827  28.139  1.00  0.00     0.010 A 
ATOM     71  C   UNL A   1      43.065  23.323  25.776  1.00  0.00     0.010 A 
ATOM     72  C   UNL A   1      42.835  21.528  27.910  1.00  0.00     0.020 A 
ATOM     73  C   UNL A   1      42.576  22.033  25.549  1.00  0.00     0.020 A 
ATOM     74  C   UNL A   1      42.474  21.141  26.616  1.00  0.00     0.054 A 
BRANCH  74  75
ATOM     75  S   UNL A   1      41.820  19.469  26.352  1.00  0.00     0.124 S 
ATOM     76  O   UNL A   1      42.497  19.069  25.124  1.00  0.00    -0.237 OA
ATOM     77  O   UNL A   1      42.239  18.770  27.564  1.00  0.00    -0.237 OA
ATOM     78  O   UNL A   1      40.379  19.683  26.234  1.00  0.00    -0.744 OA
ENDBRANCH  74  75
ENDBRANCH  46  69
BRANCH  58  79
ATOM     79  C   UNL A   1      49.567  26.892  26.137  1.00  0.00    -0.014 A 
ATOM     80  C   UNL A   1      49.956  27.088  24.800  1.00  0.00     0.010 A 
ATOM     81  C   UNL A   1      50.461  26.266  27.026  1.00  0.00     0.010 A 
ATOM     82  C   UNL A   1      51.203  26.642  24.355  1.00  0.00     0.020 A 
ATOM     83  C   UNL A   1      51.719  25.842  26.591  1.00  0.00     0.020 A 
ATOM     84  C   UNL A   1      52.077  26.020  25.253  1.00  0.00     0.054 A 
BRANCH  84  85
ATOM     85  S   UNL A   1      53.708  25.491  24.661  1.00  0.00     0.124 S 
ATOM     86  O   UNL A   1      53.600  24.036  24.736  1.00  0.00    -0.237 OA
ATOM     87  O   UNL A   1      53.757  26.049  23.312  1.00  0.00    -0.237 OA
ATOM     88  O   UNL A   1      54.635  26.097  25.613  1.00  0.00    -0.744 OA
ENDBRANCH  84  85
ENDBRANCH  58  79
ENDBRANCH  32  33
ENDBRANCH  24  27
ENDBRANCH  22  23
ENDBRANCH  21  22
ENDBRANCH   1  21
TORSDOF 18
ENDMDL
