MODEL 1
REMARK VINA RESULT:     -10.9      0.000      0.000
REMARK SMILES NC(=O)[C@@H]1CCCCN1c1cncc(C(=O)NCCCNC(=O)c2ccc(-c3c4nc(c(-c5ccc(S(=O)(=O)[O-])cc5)c5ccc([nH]5)c(-c5ccc(S(=O)(=O)[O-])cc5)c5nc(c(-c6ccc(S(=O)(=O)[O-])cc6)c6ccc3[nH]6)C=C5)C=C4)cc2)n1
REMARK SMILES IDX 19 1 18 2 17 3 15 4 16 5 14 7 10 8 11 9 84 10 12 11 13 12
REMARK SMILES IDX 9 13 4 14 5 15 6 16 8 17 7 18 2 19 1 20 3 23 20 24 21 25
REMARK SMILES IDX 22 26 23 28 24 29 25 30 83 31 26 32 82 33 27 34 28 35 29 36
REMARK SMILES IDX 76 37 30 38 81 39 75 40 77 41 31 42 80 43 74 44 73 45 32 47
REMARK SMILES IDX 62 48 43 49 61 50 44 51 47 52 60 53 78 54 45 55 46 56 59 58
REMARK SMILES IDX 79 59 48 60 33 61 34 62 42 63 35 64 41 65 36 66 37 67 38 68
REMARK SMILES IDX 39 69 40 70 63 71 64 72 72 73 65 74 71 75 66 76 67 77 68 78
REMARK SMILES IDX 69 79 70 80 49 81 50 82 58 83 51 84 57 85 52 86 53 87 54 88
REMARK SMILES IDX 55 89 56 90
REMARK H PARENT 17 6 1 21 1 22 21 27 77 46 47 57
REMARK Flexibility Score: inf
ROOT
ATOM      1  C   UNL A   1      32.610  28.058  27.125  1.00  0.00     0.042 C 
ENDROOT
BRANCH   1   2
ATOM      2  C   UNL A   1      32.021  27.037  26.157  1.00  0.00     0.118 C 
BRANCH   2   3
ATOM      3  N   UNL A   1      31.481  25.884  26.848  1.00  0.00    -0.351 N 
ATOM      4  C   UNL A   1      31.448  24.558  26.484  1.00  0.00     0.271 C 
ATOM      5  O   UNL A   1      30.913  23.773  27.271  1.00  0.00    -0.267 OA
ATOM      6  H   UNL A   1      31.071  26.082  27.721  1.00  0.00     0.163 HD
BRANCH   4   7
ATOM      7  C   UNL A   1      32.026  24.038  25.209  1.00  0.00     0.148 A 
ATOM      8  C   UNL A   1      33.682  22.960  24.015  1.00  0.00     0.148 A 
ATOM      9  C   UNL A   1      32.892  23.129  22.866  1.00  0.00     0.157 A 
ATOM     10  N   UNL A   1      33.248  23.438  25.201  1.00  0.00    -0.222 NA
ATOM     11  N   UNL A   1      31.685  23.746  22.844  1.00  0.00    -0.258 NA
ATOM     12  C   UNL A   1      31.267  24.186  24.052  1.00  0.00     0.145 A 
BRANCH   8  13
ATOM     13  N   UNL A   1      34.886  22.285  23.942  1.00  0.00    -0.343 N 
ATOM     14  C   UNL A   1      35.165  21.075  24.749  1.00  0.00     0.172 C 
ATOM     15  C   UNL A   1      36.138  21.422  25.885  1.00  0.00     0.035 C 
ATOM     16  C   UNL A   1      37.382  22.135  25.353  1.00  0.00     0.004 C 
ATOM     17  C   UNL A   1      36.037  23.011  23.412  1.00  0.00     0.119 C 
ATOM     18  C   UNL A   1      36.996  23.372  24.548  1.00  0.00     0.022 C 
BRANCH  14  19
ATOM     19  C   UNL A   1      33.901  20.271  25.172  1.00  0.00     0.240 C 
ATOM     20  N   UNL A   1      33.464  20.388  26.463  1.00  0.00    -0.368 N 
ATOM     21  H   UNL A   1      32.667  19.891  26.760  1.00  0.00     0.159 HD
ATOM     22  H   UNL A   1      33.945  20.969  27.096  1.00  0.00     0.159 HD
ATOM     23  O   UNL A   1      33.324  19.470  24.435  1.00  0.00    -0.273 OA
ENDBRANCH  14  19
ENDBRANCH   8  13
ENDBRANCH   4   7
ENDBRANCH   2   3
ENDBRANCH   1   2
BRANCH   1  24
ATOM     24  C   UNL A   1      33.827  28.784  26.557  1.00  0.00     0.118 C 
BRANCH  24  25
ATOM     25  N   UNL A   1      33.711  30.232  26.699  1.00  0.00    -0.352 N 
ATOM     26  C   UNL A   1      34.362  31.098  27.533  1.00  0.00     0.251 C 
ATOM     27  H   UNL A   1      33.056  30.653  26.097  1.00  0.00     0.163 HD
ATOM     28  O   UNL A   1      33.914  32.241  27.669  1.00  0.00    -0.269 OA
BRANCH  26  29
ATOM     29  C   UNL A   1      35.583  30.693  28.258  1.00  0.00     0.039 A 
ATOM     30  C   UNL A   1      36.802  31.281  27.907  1.00  0.00     0.014 A 
ATOM     31  C   UNL A   1      35.549  29.685  29.225  1.00  0.00     0.014 A 
ATOM     32  C   UNL A   1      37.977  30.879  28.543  1.00  0.00     0.010 A 
ATOM     33  C   UNL A   1      36.708  29.344  29.916  1.00  0.00     0.010 A 
ATOM     34  C   UNL A   1      37.938  29.917  29.563  1.00  0.00    -0.014 A 
BRANCH  34  35
ATOM     35  C   UNL A   1      39.178  29.464  30.241  1.00  0.00     0.031 A 
ATOM     36  C   UNL A   1      39.633  30.137  31.509  1.00  0.00     0.074 A 
ATOM     37  C   UNL A   1      39.925  28.492  29.686  1.00  0.00     0.049 A 
ATOM     38  N   UNL A   1      40.703  29.909  32.226  1.00  0.00    -0.248 NA
ATOM     39  C   UNL A   1      38.791  31.231  32.021  1.00  0.00     0.031 C 
ATOM     40  C   UNL A   1      39.620  27.803  28.430  1.00  0.00     0.029 A 
ATOM     41  N   UNL A   1      41.100  27.920  30.103  1.00  0.00    -0.354 N 
ATOM     42  C   UNL A   1      40.679  30.849  33.250  1.00  0.00     0.074 A 
ATOM     43  C   UNL A   1      39.515  31.679  33.034  1.00  0.00     0.031 C 
ATOM     44  C   UNL A   1      40.571  26.886  28.191  1.00  0.00     0.029 A 
ATOM     45  C   UNL A   1      41.566  26.942  29.258  1.00  0.00     0.049 A 
ATOM     46  H   UNL A   1      41.564  28.185  30.930  1.00  0.00     0.167 HD
ATOM     47  C   UNL A   1      41.536  30.996  34.290  1.00  0.00     0.031 A 
ATOM     48  C   UNL A   1      42.670  26.176  29.333  1.00  0.00     0.031 A 
ATOM     49  C   UNL A   1      42.682  30.155  34.511  1.00  0.00     0.049 A 
ATOM     50  C   UNL A   1      43.584  26.321  30.516  1.00  0.00     0.074 A 
ATOM     51  C   UNL A   1      43.574  30.172  35.568  1.00  0.00     0.029 A 
ATOM     52  N   UNL A   1      43.095  29.144  33.656  1.00  0.00    -0.354 N 
ATOM     53  N   UNL A   1      43.504  27.164  31.518  1.00  0.00    -0.248 NA
ATOM     54  C   UNL A   1      44.722  25.396  30.591  1.00  0.00     0.031 C 
ATOM     55  C   UNL A   1      44.552  29.199  35.330  1.00  0.00     0.029 A 
ATOM     56  C   UNL A   1      44.237  28.540  34.151  1.00  0.00     0.049 A 
ATOM     57  H   UNL A   1      42.641  28.891  32.819  1.00  0.00     0.167 HD
ATOM     58  C   UNL A   1      44.566  26.853  32.359  1.00  0.00     0.074 A 
ATOM     59  C   UNL A   1      45.266  25.738  31.753  1.00  0.00     0.031 C 
ATOM     60  C   UNL A   1      44.926  27.435  33.532  1.00  0.00     0.031 A 
BRANCH  47  61
ATOM     61  C   UNL A   1      41.265  32.125  35.251  1.00  0.00    -0.014 A 
ATOM     62  C   UNL A   1      40.435  31.948  36.374  1.00  0.00     0.010 A 
ATOM     63  C   UNL A   1      41.843  33.387  35.024  1.00  0.00     0.010 A 
ATOM     64  C   UNL A   1      40.132  33.026  37.211  1.00  0.00     0.020 A 
ATOM     65  C   UNL A   1      41.568  34.461  35.877  1.00  0.00     0.020 A 
ATOM     66  C   UNL A   1      40.691  34.279  36.949  1.00  0.00     0.054 A 
BRANCH  66  67
ATOM     67  S   UNL A   1      40.268  35.668  38.036  1.00  0.00     0.124 S 
ATOM     68  O   UNL A   1      41.493  35.819  38.818  1.00  0.00    -0.237 OA
ATOM     69  O   UNL A   1      39.991  36.745  37.091  1.00  0.00    -0.237 OA
ATOM     70  O   UNL A   1      39.109  35.184  38.781  1.00  0.00    -0.744 OA
ENDBRANCH  66  67
ENDBRANCH  47  61
BRANCH  48  71
ATOM     71  C   UNL A   1      42.935  25.174  28.265  1.00  0.00    -0.014 A 
ATOM     72  C   UNL A   1      43.757  25.496  27.172  1.00  0.00     0.010 A 
ATOM     73  C   UNL A   1      42.419  23.869  28.374  1.00  0.00     0.010 A 
ATOM     74  C   UNL A   1      44.060  24.533  26.206  1.00  0.00     0.020 A 
ATOM     75  C   UNL A   1      42.739  22.897  27.422  1.00  0.00     0.020 A 
ATOM     76  C   UNL A   1      43.555  23.236  26.341  1.00  0.00     0.054 A 
BRANCH  76  77
ATOM     77  S   UNL A   1      44.041  21.977  25.127  1.00  0.00     0.124 S 
ATOM     78  O   UNL A   1      45.415  21.686  25.524  1.00  0.00    -0.237 OA
ATOM     79  O   UNL A   1      43.071  20.912  25.372  1.00  0.00    -0.237 OA
ATOM     80  O   UNL A   1      43.889  22.663  23.846  1.00  0.00    -0.744 OA
ENDBRANCH  76  77
ENDBRANCH  48  71
BRANCH  60  81
ATOM     81  C   UNL A   1      46.111  26.853  34.254  1.00  0.00    -0.014 A 
ATOM     82  C   UNL A   1      47.415  27.327  34.026  1.00  0.00     0.010 A 
ATOM     83  C   UNL A   1      45.907  25.840  35.209  1.00  0.00     0.010 A 
ATOM     84  C   UNL A   1      48.498  26.770  34.710  1.00  0.00     0.020 A 
ATOM     85  C   UNL A   1      46.984  25.300  35.915  1.00  0.00     0.020 A 
ATOM     86  C   UNL A   1      48.277  25.756  35.647  1.00  0.00     0.054 A 
BRANCH  86  87
ATOM     87  S   UNL A   1      49.695  25.065  36.542  1.00  0.00     0.124 S 
ATOM     88  O   UNL A   1      50.817  25.747  35.902  1.00  0.00    -0.237 OA
ATOM     89  O   UNL A   1      49.427  25.458  37.923  1.00  0.00    -0.237 OA
ATOM     90  O   UNL A   1      49.603  23.630  36.280  1.00  0.00    -0.744 OA
ENDBRANCH  86  87
ENDBRANCH  60  81
ENDBRANCH  34  35
ENDBRANCH  26  29
ENDBRANCH  24  25
ENDBRANCH   1  24
TORSDOF 15
ENDMDL
MODEL 2
REMARK VINA RESULT:     -10.8      2.673      3.212
REMARK SMILES NC(=O)[C@@H]1CCCCN1c1cncc(C(=O)NCCCNC(=O)c2ccc(-c3c4nc(c(-c5ccc(S(=O)(=O)[O-])cc5)c5ccc([nH]5)c(-c5ccc(S(=O)(=O)[O-])cc5)c5nc(c(-c6ccc(S(=O)(=O)[O-])cc6)c6ccc3[nH]6)C=C5)C=C4)cc2)n1
REMARK SMILES IDX 19 1 18 2 17 3 15 4 16 5 14 7 10 8 11 9 84 10 12 11 13 12
REMARK SMILES IDX 9 13 4 14 5 15 6 16 8 17 7 18 2 19 1 20 3 23 20 24 21 25
REMARK SMILES IDX 22 26 23 28 24 29 25 30 83 31 26 32 82 33 27 34 28 35 29 36
REMARK SMILES IDX 76 37 30 38 81 39 75 40 77 41 31 42 80 43 74 44 73 45 32 47
REMARK SMILES IDX 62 48 43 49 61 50 44 51 47 52 60 53 78 54 45 55 46 56 59 58
REMARK SMILES IDX 79 59 48 60 33 61 34 62 42 63 35 64 41 65 36 66 37 67 38 68
REMARK SMILES IDX 39 69 40 70 63 71 64 72 72 73 65 74 71 75 66 76 67 77 68 78
REMARK SMILES IDX 69 79 70 80 49 81 50 82 58 83 51 84 57 85 52 86 53 87 54 88
REMARK SMILES IDX 55 89 56 90
REMARK H PARENT 17 6 1 21 1 22 21 27 77 46 47 57
REMARK Flexibility Score: inf
ROOT
ATOM      1  C   UNL A   1      32.458  28.000  27.431  1.00  0.00     0.042 C 
ENDROOT
BRANCH   1   2
ATOM      2  C   UNL A   1      31.935  27.060  26.350  1.00  0.00     0.118 C 
BRANCH   2   3
ATOM      3  N   UNL A   1      31.122  25.996  26.904  1.00  0.00    -0.351 N 
ATOM      4  C   UNL A   1      30.838  24.742  26.417  1.00  0.00     0.271 C 
ATOM      5  O   UNL A   1      30.100  24.028  27.101  1.00  0.00    -0.267 OA
ATOM      6  H   UNL A   1      30.705  26.206  27.770  1.00  0.00     0.163 HD
BRANCH   4   7
ATOM      7  C   UNL A   1      31.379  24.215  25.128  1.00  0.00     0.148 A 
ATOM      8  C   UNL A   1      32.949  23.043  23.908  1.00  0.00     0.148 A 
ATOM      9  C   UNL A   1      32.182  23.309  22.762  1.00  0.00     0.157 A 
ATOM     10  N   UNL A   1      32.550  23.519  25.106  1.00  0.00    -0.222 NA
ATOM     11  N   UNL A   1      31.028  24.021  22.756  1.00  0.00    -0.258 NA
ATOM     12  C   UNL A   1      30.641  24.457  23.975  1.00  0.00     0.145 A 
BRANCH   8  13
ATOM     13  N   UNL A   1      34.096  22.277  23.818  1.00  0.00    -0.343 N 
ATOM     14  C   UNL A   1      34.153  20.879  24.303  1.00  0.00     0.172 C 
ATOM     15  C   UNL A   1      34.959  20.815  25.609  1.00  0.00     0.035 C 
ATOM     16  C   UNL A   1      36.320  21.493  25.455  1.00  0.00     0.004 C 
ATOM     17  C   UNL A   1      35.367  22.978  23.657  1.00  0.00     0.119 C 
ATOM     18  C   UNL A   1      36.160  22.929  24.965  1.00  0.00     0.022 C 
BRANCH  14  19
ATOM     19  C   UNL A   1      32.782  20.143  24.325  1.00  0.00     0.240 C 
ATOM     20  N   UNL A   1      32.312  19.617  23.153  1.00  0.00    -0.368 N 
ATOM     21  H   UNL A   1      31.448  19.146  23.136  1.00  0.00     0.159 HD
ATOM     22  H   UNL A   1      32.838  19.708  22.326  1.00  0.00     0.159 HD
ATOM     23  O   UNL A   1      32.056  20.084  25.319  1.00  0.00    -0.273 OA
ENDBRANCH  14  19
ENDBRANCH   8  13
ENDBRANCH   4   7
ENDBRANCH   2   3
ENDBRANCH   1   2
BRANCH   1  24
ATOM     24  C   UNL A   1      33.712  28.760  27.004  1.00  0.00     0.118 C 
BRANCH  24  25
ATOM     25  N   UNL A   1      33.678  30.152  27.442  1.00  0.00    -0.352 N 
ATOM     26  C   UNL A   1      34.561  30.865  28.205  1.00  0.00     0.251 C 
ATOM     27  H   UNL A   1      32.892  30.660  27.139  1.00  0.00     0.163 HD
ATOM     28  O   UNL A   1      34.201  31.949  28.673  1.00  0.00    -0.269 OA
BRANCH  26  29
ATOM     29  C   UNL A   1      35.926  30.366  28.466  1.00  0.00     0.039 A 
ATOM     30  C   UNL A   1      36.238  29.893  29.744  1.00  0.00     0.014 A 
ATOM     31  C   UNL A   1      36.921  30.433  27.487  1.00  0.00     0.014 A 
ATOM     32  C   UNL A   1      37.535  29.462  30.030  1.00  0.00     0.010 A 
ATOM     33  C   UNL A   1      38.191  29.927  27.748  1.00  0.00     0.010 A 
ATOM     34  C   UNL A   1      38.519  29.463  29.030  1.00  0.00    -0.014 A 
BRANCH  34  35
ATOM     35  C   UNL A   1      39.907  29.024  29.317  1.00  0.00     0.031 A 
ATOM     36  C   UNL A   1      40.879  29.973  29.967  1.00  0.00     0.074 A 
ATOM     37  C   UNL A   1      40.309  27.795  28.941  1.00  0.00     0.049 A 
ATOM     38  N   UNL A   1      42.139  29.787  30.264  1.00  0.00    -0.248 NA
ATOM     39  C   UNL A   1      40.378  31.317  30.295  1.00  0.00     0.031 C 
ATOM     40  C   UNL A   1      39.477  26.806  28.253  1.00  0.00     0.029 A 
ATOM     41  N   UNL A   1      41.524  27.173  29.078  1.00  0.00    -0.354 N 
ATOM     42  C   UNL A   1      42.587  30.997  30.783  1.00  0.00     0.074 A 
ATOM     43  C   UNL A   1      41.478  31.922  30.714  1.00  0.00     0.031 C 
ATOM     44  C   UNL A   1      40.200  25.693  28.048  1.00  0.00     0.029 A 
ATOM     45  C   UNL A   1      41.550  25.900  28.563  1.00  0.00     0.049 A 
ATOM     46  H   UNL A   1      42.302  27.598  29.505  1.00  0.00     0.167 HD
ATOM     47  C   UNL A   1      43.805  31.306  31.290  1.00  0.00     0.031 A 
ATOM     48  C   UNL A   1      42.549  24.998  28.509  1.00  0.00     0.031 A 
ATOM     49  C   UNL A   1      44.900  30.376  31.374  1.00  0.00     0.049 A 
ATOM     50  C   UNL A   1      43.879  25.342  29.118  1.00  0.00     0.074 A 
ATOM     51  C   UNL A   1      46.151  30.564  31.933  1.00  0.00     0.029 A 
ATOM     52  N   UNL A   1      44.872  29.079  30.882  1.00  0.00    -0.354 N 
ATOM     53  N   UNL A   1      44.262  26.466  29.675  1.00  0.00    -0.248 NA
ATOM     54  C   UNL A   1      44.901  24.288  29.113  1.00  0.00     0.031 C 
ATOM     55  C   UNL A   1      46.895  29.394  31.740  1.00  0.00     0.029 A 
ATOM     56  C   UNL A   1      46.088  28.460  31.110  1.00  0.00     0.049 A 
ATOM     57  H   UNL A   1      44.100  28.660  30.437  1.00  0.00     0.167 HD
ATOM     58  C   UNL A   1      45.563  26.247  30.113  1.00  0.00     0.074 A 
ATOM     59  C   UNL A   1      45.895  24.879  29.765  1.00  0.00     0.031 C 
ATOM     60  C   UNL A   1      46.405  27.100  30.751  1.00  0.00     0.031 A 
BRANCH  47  61
ATOM     61  C   UNL A   1      44.011  32.719  31.774  1.00  0.00    -0.014 A 
ATOM     62  C   UNL A   1      44.528  33.716  30.924  1.00  0.00     0.010 A 
ATOM     63  C   UNL A   1      43.693  33.054  33.102  1.00  0.00     0.010 A 
ATOM     64  C   UNL A   1      44.786  35.000  31.412  1.00  0.00     0.020 A 
ATOM     65  C   UNL A   1      43.919  34.347  33.586  1.00  0.00     0.020 A 
ATOM     66  C   UNL A   1      44.491  35.304  32.744  1.00  0.00     0.054 A 
BRANCH  66  67
ATOM     67  S   UNL A   1      44.853  36.971  33.360  1.00  0.00     0.124 S 
ATOM     68  O   UNL A   1      46.048  37.319  32.593  1.00  0.00    -0.237 OA
ATOM     69  O   UNL A   1      43.646  37.714  33.010  1.00  0.00    -0.237 OA
ATOM     70  O   UNL A   1      45.066  36.773  34.791  1.00  0.00    -0.744 OA
ENDBRANCH  66  67
ENDBRANCH  47  61
BRANCH  48  71
ATOM     71  C   UNL A   1      42.299  23.670  27.889  1.00  0.00    -0.014 A 
ATOM     72  C   UNL A   1      42.563  23.458  26.525  1.00  0.00     0.010 A 
ATOM     73  C   UNL A   1      41.858  22.591  28.678  1.00  0.00     0.010 A 
ATOM     74  C   UNL A   1      42.393  22.191  25.960  1.00  0.00     0.020 A 
ATOM     75  C   UNL A   1      41.708  21.318  28.121  1.00  0.00     0.020 A 
ATOM     76  C   UNL A   1      41.974  21.127  26.764  1.00  0.00     0.054 A 
BRANCH  76  77
ATOM     77  S   UNL A   1      41.853  19.471  26.030  1.00  0.00     0.124 S 
ATOM     78  O   UNL A   1      42.724  19.590  24.865  1.00  0.00    -0.237 OA
ATOM     79  O   UNL A   1      42.345  18.612  27.105  1.00  0.00    -0.237 OA
ATOM     80  O   UNL A   1      40.428  19.331  25.738  1.00  0.00    -0.744 OA
ENDBRANCH  76  77
ENDBRANCH  48  71
BRANCH  60  81
ATOM     81  C   UNL A   1      47.756  26.566  31.147  1.00  0.00    -0.014 A 
ATOM     82  C   UNL A   1      48.842  26.585  30.253  1.00  0.00     0.010 A 
ATOM     83  C   UNL A   1      47.948  26.074  32.450  1.00  0.00     0.010 A 
ATOM     84  C   UNL A   1      50.086  26.085  30.646  1.00  0.00     0.020 A 
ATOM     85  C   UNL A   1      49.197  25.599  32.854  1.00  0.00     0.020 A 
ATOM     86  C   UNL A   1      50.255  25.590  31.943  1.00  0.00     0.054 A 
BRANCH  86  87
ATOM     87  S   UNL A   1      51.885  24.968  32.438  1.00  0.00     0.124 S 
ATOM     88  O   UNL A   1      52.760  25.598  31.453  1.00  0.00    -0.237 OA
ATOM     89  O   UNL A   1      52.018  25.465  33.805  1.00  0.00    -0.237 OA
ATOM     90  O   UNL A   1      51.752  23.517  32.319  1.00  0.00    -0.744 OA
ENDBRANCH  86  87
ENDBRANCH  60  81
ENDBRANCH  34  35
ENDBRANCH  26  29
ENDBRANCH  24  25
ENDBRANCH   1  24
TORSDOF 15
ENDMDL
MODEL 3
REMARK VINA RESULT:     -10.7      3.443      9.397
REMARK SMILES NC(=O)[C@@H]1CCCCN1c1cncc(C(=O)NCCCNC(=O)c2ccc(-c3c4nc(c(-c5ccc(S(=O)(=O)[O-])cc5)c5ccc([nH]5)c(-c5ccc(S(=O)(=O)[O-])cc5)c5nc(c(-c6ccc(S(=O)(=O)[O-])cc6)c6ccc3[nH]6)C=C5)C=C4)cc2)n1
REMARK SMILES IDX 19 1 18 2 17 3 15 4 16 5 14 7 10 8 11 9 84 10 12 11 13 12
REMARK SMILES IDX 9 13 4 14 5 15 6 16 8 17 7 18 2 19 1 20 3 23 20 24 21 25
REMARK SMILES IDX 22 26 23 28 24 29 25 30 83 31 26 32 82 33 27 34 28 35 29 36
REMARK SMILES IDX 76 37 30 38 81 39 75 40 77 41 31 42 80 43 74 44 73 45 32 47
REMARK SMILES IDX 62 48 43 49 61 50 44 51 47 52 60 53 78 54 45 55 46 56 59 58
REMARK SMILES IDX 79 59 48 60 33 61 34 62 42 63 35 64 41 65 36 66 37 67 38 68
REMARK SMILES IDX 39 69 40 70 63 71 64 72 72 73 65 74 71 75 66 76 67 77 68 78
REMARK SMILES IDX 69 79 70 80 49 81 50 82 58 83 51 84 57 85 52 86 53 87 54 88
REMARK SMILES IDX 55 89 56 90
REMARK H PARENT 17 6 1 21 1 22 21 27 77 46 47 57
REMARK Flexibility Score: inf
ROOT
ATOM      1  C   UNL A   1      36.016  23.610  24.362  1.00  0.00     0.042 C 
ENDROOT
BRANCH   1   2
ATOM      2  C   UNL A   1      35.308  22.263  24.255  1.00  0.00     0.118 C 
BRANCH   2   3
ATOM      3  N   UNL A   1      34.584  21.932  25.466  1.00  0.00    -0.351 N 
ATOM      4  C   UNL A   1      33.330  22.305  25.888  1.00  0.00     0.271 C 
ATOM      5  O   UNL A   1      32.955  21.877  26.982  1.00  0.00    -0.267 OA
ATOM      6  H   UNL A   1      35.070  21.344  26.088  1.00  0.00     0.163 HD
BRANCH   4   7
ATOM      7  C   UNL A   1      32.417  23.181  25.092  1.00  0.00     0.148 A 
ATOM      8  C   UNL A   1      31.700  25.254  24.376  1.00  0.00     0.148 A 
ATOM      9  C   UNL A   1      30.746  24.594  23.583  1.00  0.00     0.157 A 
ATOM     10  N   UNL A   1      32.535  24.536  25.155  1.00  0.00    -0.222 NA
ATOM     11  N   UNL A   1      30.593  23.248  23.524  1.00  0.00    -0.258 NA
ATOM     12  C   UNL A   1      31.464  22.558  24.293  1.00  0.00     0.145 A 
BRANCH   8  13
ATOM     13  N   UNL A   1      31.801  26.632  24.342  1.00  0.00    -0.343 N 
ATOM     14  C   UNL A   1      32.653  27.338  23.357  1.00  0.00     0.172 C 
ATOM     15  C   UNL A   1      33.908  27.883  24.053  1.00  0.00     0.035 C 
ATOM     16  C   UNL A   1      33.545  28.707  25.289  1.00  0.00     0.004 C 
ATOM     17  C   UNL A   1      31.427  27.368  25.546  1.00  0.00     0.119 C 
ATOM     18  C   UNL A   1      32.680  27.894  26.248  1.00  0.00     0.022 C 
BRANCH  14  19
ATOM     19  C   UNL A   1      32.906  26.554  22.037  1.00  0.00     0.240 C 
ATOM     20  N   UNL A   1      31.919  26.549  21.089  1.00  0.00    -0.368 N 
ATOM     21  H   UNL A   1      32.051  26.061  20.244  1.00  0.00     0.159 HD
ATOM     22  H   UNL A   1      31.078  27.033  21.252  1.00  0.00     0.159 HD
ATOM     23  O   UNL A   1      33.908  25.866  21.834  1.00  0.00    -0.273 OA
ENDBRANCH  14  19
ENDBRANCH   8  13
ENDBRANCH   4   7
ENDBRANCH   2   3
ENDBRANCH   1   2
BRANCH   1  24
ATOM     24  C   UNL A   1      36.706  23.815  25.708  1.00  0.00     0.118 C 
BRANCH  24  25
ATOM     25  N   UNL A   1      37.756  22.827  25.937  1.00  0.00    -0.352 N 
ATOM     26  C   UNL A   1      39.046  22.983  26.362  1.00  0.00     0.251 C 
ATOM     27  H   UNL A   1      37.492  21.897  25.754  1.00  0.00     0.163 HD
ATOM     28  O   UNL A   1      39.834  22.043  26.227  1.00  0.00    -0.269 OA
BRANCH  26  29
ATOM     29  C   UNL A   1      39.502  24.245  26.980  1.00  0.00     0.039 A 
ATOM     30  C   UNL A   1      39.183  24.493  28.319  1.00  0.00     0.014 A 
ATOM     31  C   UNL A   1      40.172  25.216  26.232  1.00  0.00     0.014 A 
ATOM     32  C   UNL A   1      39.560  25.699  28.911  1.00  0.00     0.010 A 
ATOM     33  C   UNL A   1      40.619  26.383  26.846  1.00  0.00     0.010 A 
ATOM     34  C   UNL A   1      40.293  26.648  28.184  1.00  0.00    -0.014 A 
BRANCH  34  35
ATOM     35  C   UNL A   1      40.690  27.943  28.791  1.00  0.00     0.031 A 
ATOM     36  C   UNL A   1      42.074  28.118  29.358  1.00  0.00     0.074 A 
ATOM     37  C   UNL A   1      39.789  28.939  28.886  1.00  0.00     0.049 A 
ATOM     38  N   UNL A   1      42.594  29.157  29.959  1.00  0.00    -0.248 NA
ATOM     39  C   UNL A   1      42.981  26.962  29.268  1.00  0.00     0.031 C 
ATOM     40  C   UNL A   1      38.401  28.871  28.424  1.00  0.00     0.029 A 
ATOM     41  N   UNL A   1      39.906  30.201  29.409  1.00  0.00    -0.354 N 
ATOM     42  C   UNL A   1      43.873  28.770  30.344  1.00  0.00     0.074 A 
ATOM     43  C   UNL A   1      44.031  27.387  29.952  1.00  0.00     0.031 C 
ATOM     44  C   UNL A   1      37.801  30.048  28.666  1.00  0.00     0.029 A 
ATOM     45  C   UNL A   1      38.751  30.941  29.323  1.00  0.00     0.049 A 
ATOM     46  H   UNL A   1      40.737  30.545  29.809  1.00  0.00     0.167 HD
ATOM     47  C   UNL A   1      44.837  29.504  30.951  1.00  0.00     0.031 A 
ATOM     48  C   UNL A   1      38.485  32.198  29.727  1.00  0.00     0.031 A 
ATOM     49  C   UNL A   1      44.681  30.886  31.321  1.00  0.00     0.049 A 
ATOM     50  C   UNL A   1      39.580  33.012  30.355  1.00  0.00     0.074 A 
ATOM     51  C   UNL A   1      45.616  31.741  31.876  1.00  0.00     0.029 A 
ATOM     52  N   UNL A   1      43.509  31.614  31.175  1.00  0.00    -0.354 N 
ATOM     53  N   UNL A   1      40.809  32.654  30.642  1.00  0.00    -0.248 NA
ATOM     54  C   UNL A   1      39.260  34.405  30.692  1.00  0.00     0.031 C 
ATOM     55  C   UNL A   1      44.996  32.975  32.105  1.00  0.00     0.029 A 
ATOM     56  C   UNL A   1      43.691  32.904  31.642  1.00  0.00     0.049 A 
ATOM     57  H   UNL A   1      42.671  31.265  30.793  1.00  0.00     0.167 HD
ATOM     58  C   UNL A   1      41.420  33.787  31.168  1.00  0.00     0.074 A 
ATOM     59  C   UNL A   1      40.426  34.843  31.149  1.00  0.00     0.031 C 
ATOM     60  C   UNL A   1      42.690  33.941  31.622  1.00  0.00     0.031 A 
BRANCH  47  61
ATOM     61  C   UNL A   1      46.137  28.809  31.264  1.00  0.00    -0.014 A 
ATOM     62  C   UNL A   1      47.194  28.778  30.334  1.00  0.00     0.010 A 
ATOM     63  C   UNL A   1      46.303  28.166  32.504  1.00  0.00     0.010 A 
ATOM     64  C   UNL A   1      48.362  28.063  30.610  1.00  0.00     0.020 A 
ATOM     65  C   UNL A   1      47.483  27.476  32.798  1.00  0.00     0.020 A 
ATOM     66  C   UNL A   1      48.494  27.405  31.836  1.00  0.00     0.054 A 
BRANCH  66  67
ATOM     67  S   UNL A   1      50.011  26.466  32.164  1.00  0.00     0.124 S 
ATOM     68  O   UNL A   1      49.769  25.237  31.411  1.00  0.00    -0.237 OA
ATOM     69  O   UNL A   1      51.052  27.336  31.625  1.00  0.00    -0.237 OA
ATOM     70  O   UNL A   1      50.018  26.316  33.616  1.00  0.00    -0.744 OA
ENDBRANCH  66  67
ENDBRANCH  47  61
BRANCH  48  71
ATOM     71  C   UNL A   1      37.128  32.764  29.501  1.00  0.00    -0.014 A 
ATOM     72  C   UNL A   1      36.200  32.833  30.554  1.00  0.00     0.010 A 
ATOM     73  C   UNL A   1      36.783  33.299  28.246  1.00  0.00     0.010 A 
ATOM     74  C   UNL A   1      34.950  33.428  30.357  1.00  0.00     0.020 A 
ATOM     75  C   UNL A   1      35.543  33.914  28.052  1.00  0.00     0.020 A 
ATOM     76  C   UNL A   1      34.633  33.971  29.109  1.00  0.00     0.054 A 
BRANCH  76  77
ATOM     77  S   UNL A   1      33.043  34.824  28.905  1.00  0.00     0.124 S 
ATOM     78  O   UNL A   1      32.501  34.785  30.260  1.00  0.00    -0.237 OA
ATOM     79  O   UNL A   1      33.451  36.141  28.423  1.00  0.00    -0.237 OA
ATOM     80  O   UNL A   1      32.340  34.003  27.923  1.00  0.00    -0.744 OA
ENDBRANCH  76  77
ENDBRANCH  48  71
BRANCH  60  81
ATOM     81  C   UNL A   1      43.089  35.311  32.101  1.00  0.00    -0.014 A 
ATOM     82  C   UNL A   1      43.741  36.224  31.252  1.00  0.00     0.010 A 
ATOM     83  C   UNL A   1      42.769  35.703  33.413  1.00  0.00     0.010 A 
ATOM     84  C   UNL A   1      44.100  37.489  31.721  1.00  0.00     0.020 A 
ATOM     85  C   UNL A   1      43.102  36.977  33.877  1.00  0.00     0.020 A 
ATOM     86  C   UNL A   1      43.783  37.857  33.033  1.00  0.00     0.054 A 
BRANCH  86  87
ATOM     87  S   UNL A   1      44.237  39.515  33.612  1.00  0.00     0.124 S 
ATOM     88  O   UNL A   1      44.979  39.215  34.834  1.00  0.00    -0.237 OA
ATOM     89  O   UNL A   1      45.034  40.036  32.505  1.00  0.00    -0.237 OA
ATOM     90  O   UNL A   1      42.948  40.176  33.810  1.00  0.00    -0.744 OA
ENDBRANCH  86  87
ENDBRANCH  60  81
ENDBRANCH  34  35
ENDBRANCH  26  29
ENDBRANCH  24  25
ENDBRANCH   1  24
TORSDOF 15
ENDMDL
