MODEL 1
REMARK VINA RESULT:     -13.0      0.000      0.000
REMARK SMILES C[C@H]1OCC[C@@H]1C(=O)Nc1sc2c(c1C(=O)NCCCNC(=O)c1ccc(-c3c4nc(c(-c5ccc(S(=O)(=O)[O-])cc5)c5ccc([nH]5)c(-c5ccc(S(=O)(=O)[O-])cc5)c5nc(c(-c6ccc(S(=O)(=O)[O-])cc6)c6ccc3[nH]6)C=C5)C=C4)cc1)CCC2
REMARK SMILES IDX 19 1 18 2 17 3 15 4 16 5 14 7 10 8 11 9 12 10 13 11 86 12
REMARK SMILES IDX 84 13 85 14 9 15 7 16 8 17 6 19 1 20 2 21 3 22 4 23 5 24
REMARK SMILES IDX 20 25 21 26 22 27 23 29 24 30 25 31 83 32 26 33 82 34 27 35
REMARK SMILES IDX 28 36 29 37 76 38 30 39 81 40 75 41 77 42 31 43 80 44 74 45
REMARK SMILES IDX 73 46 32 48 62 49 43 50 61 51 44 52 47 53 60 54 78 55 45 56
REMARK SMILES IDX 46 57 59 59 79 60 48 61 33 62 34 63 42 64 35 65 41 66 36 67
REMARK SMILES IDX 37 68 38 69 39 70 40 71 63 72 64 73 72 74 65 75 71 76 66 77
REMARK SMILES IDX 67 78 68 79 69 80 70 81 49 82 50 83 58 84 51 85 57 86 52 87
REMARK SMILES IDX 53 88 54 89 55 90 56 91
REMARK H PARENT 17 6 9 18 21 28 77 47 47 58
REMARK Flexibility Score: inf
ROOT
ATOM      1  C   UNL A   1      32.686  28.299  27.461  1.00  0.00     0.042 C 
ENDROOT
BRANCH   1   2
ATOM      2  C   UNL A   1      31.500  27.863  26.601  1.00  0.00     0.118 C 
BRANCH   2   3
ATOM      3  N   UNL A   1      31.052  26.514  26.834  1.00  0.00    -0.352 N 
ATOM      4  C   UNL A   1      31.559  25.307  26.424  1.00  0.00     0.254 C 
ATOM      5  O   UNL A   1      31.392  24.389  27.235  1.00  0.00    -0.269 OA
ATOM      6  H   UNL A   1      30.238  26.445  27.385  1.00  0.00     0.163 HD
BRANCH   4   7
ATOM      7  C   UNL A   1      32.235  25.060  25.143  1.00  0.00     0.078 A 
ATOM      8  C   UNL A   1      33.371  24.239  25.105  1.00  0.00     0.108 A 
ATOM      9  S   UNL A   1      34.358  24.483  23.722  1.00  0.00    -0.122 S 
ATOM     10  C   UNL A   1      33.142  25.362  23.013  1.00  0.00     0.011 A 
ATOM     11  C   UNL A   1      32.047  25.581  23.812  1.00  0.00    -0.019 A 
ATOM     12  C   UNL A   1      33.085  25.997  21.675  1.00  0.00     0.047 C 
ATOM     13  C   UNL A   1      31.073  26.405  23.044  1.00  0.00     0.038 C 
ATOM     14  C   UNL A   1      31.581  26.323  21.579  1.00  0.00     0.010 C 
BRANCH   8  15
ATOM     15  N   UNL A   1      33.986  23.394  25.995  1.00  0.00    -0.317 N 
ATOM     16  C   UNL A   1      34.199  22.053  25.961  1.00  0.00     0.230 C 
ATOM     17  O   UNL A   1      34.807  21.592  26.940  1.00  0.00    -0.274 OA
ATOM     18  H   UNL A   1      34.334  23.841  26.801  1.00  0.00     0.170 HD
BRANCH  16  19
ATOM     19  C   UNL A   1      33.902  21.114  24.793  1.00  0.00     0.110 C 
ATOM     20  C   UNL A   1      32.092  21.232  23.026  1.00  0.00     0.039 C 
ATOM     21  C   UNL A   1      32.418  20.944  24.492  1.00  0.00     0.127 C 
ATOM     22  O   UNL A   1      32.104  19.571  24.779  1.00  0.00    -0.378 OA
ATOM     23  C   UNL A   1      33.294  18.808  24.570  1.00  0.00     0.161 C 
ATOM     24  C   UNL A   1      34.467  19.716  24.861  1.00  0.00     0.044 C 
ENDBRANCH  16  19
ENDBRANCH   8  15
ENDBRANCH   4   7
ENDBRANCH   2   3
ENDBRANCH   1   2
BRANCH   1  25
ATOM     25  C   UNL A   1      33.775  28.966  26.648  1.00  0.00     0.118 C 
BRANCH  25  26
ATOM     26  N   UNL A   1      33.742  30.424  26.798  1.00  0.00    -0.352 N 
ATOM     27  C   UNL A   1      34.555  31.245  27.555  1.00  0.00     0.251 C 
ATOM     28  H   UNL A   1      33.039  30.884  26.285  1.00  0.00     0.163 HD
ATOM     29  O   UNL A   1      34.219  32.387  27.810  1.00  0.00    -0.269 OA
BRANCH  27  30
ATOM     30  C   UNL A   1      35.827  30.699  28.055  1.00  0.00     0.039 A 
ATOM     31  C   UNL A   1      36.220  29.389  27.764  1.00  0.00     0.014 A 
ATOM     32  C   UNL A   1      36.649  31.545  28.791  1.00  0.00     0.014 A 
ATOM     33  C   UNL A   1      37.488  28.968  28.156  1.00  0.00     0.010 A 
ATOM     34  C   UNL A   1      37.952  31.199  29.001  1.00  0.00     0.010 A 
ATOM     35  C   UNL A   1      38.354  29.889  28.758  1.00  0.00    -0.014 A 
BRANCH  35  36
ATOM     36  C   UNL A   1      39.741  29.558  29.054  1.00  0.00     0.031 A 
ATOM     37  C   UNL A   1      40.053  29.450  30.505  1.00  0.00     0.074 A 
ATOM     38  C   UNL A   1      40.567  29.102  28.084  1.00  0.00     0.049 A 
ATOM     39  N   UNL A   1      40.881  30.165  31.191  1.00  0.00    -0.248 NA
ATOM     40  C   UNL A   1      39.238  28.537  31.328  1.00  0.00     0.031 C 
ATOM     41  C   UNL A   1      40.243  28.860  26.670  1.00  0.00     0.029 A 
ATOM     42  N   UNL A   1      41.816  28.578  28.188  1.00  0.00    -0.354 N 
ATOM     43  C   UNL A   1      40.867  29.633  32.478  1.00  0.00     0.074 A 
ATOM     44  C   UNL A   1      39.698  28.796  32.553  1.00  0.00     0.031 C 
ATOM     45  C   UNL A   1      41.133  27.992  26.146  1.00  0.00     0.029 A 
ATOM     46  C   UNL A   1      42.176  27.752  27.125  1.00  0.00     0.049 A 
ATOM     47  H   UNL A   1      42.413  28.765  28.948  1.00  0.00     0.167 HD
ATOM     48  C   UNL A   1      41.961  29.699  33.287  1.00  0.00     0.031 A 
ATOM     49  C   UNL A   1      43.216  26.879  27.085  1.00  0.00     0.031 A 
ATOM     50  C   UNL A   1      42.943  30.624  32.778  1.00  0.00     0.049 A 
ATOM     51  C   UNL A   1      44.161  27.294  28.154  1.00  0.00     0.074 A 
ATOM     52  C   UNL A   1      42.932  31.967  32.457  1.00  0.00     0.029 A 
ATOM     53  N   UNL A   1      44.027  30.083  32.124  1.00  0.00    -0.354 N 
ATOM     54  N   UNL A   1      44.799  28.433  28.140  1.00  0.00    -0.248 NA
ATOM     55  C   UNL A   1      44.028  26.675  29.464  1.00  0.00     0.031 C 
ATOM     56  C   UNL A   1      43.693  32.058  31.257  1.00  0.00     0.029 A 
ATOM     57  C   UNL A   1      44.203  30.792  30.963  1.00  0.00     0.049 A 
ATOM     58  H   UNL A   1      44.576  29.327  32.434  1.00  0.00     0.167 HD
ATOM     59  C   UNL A   1      44.739  28.887  29.450  1.00  0.00     0.074 A 
ATOM     60  C   UNL A   1      44.347  27.718  30.237  1.00  0.00     0.031 C 
ATOM     61  C   UNL A   1      44.720  30.224  29.735  1.00  0.00     0.031 A 
BRANCH  48  62
ATOM     62  C   UNL A   1      42.326  28.633  34.294  1.00  0.00    -0.014 A 
ATOM     63  C   UNL A   1      42.273  28.949  35.667  1.00  0.00     0.010 A 
ATOM     64  C   UNL A   1      42.978  27.434  33.941  1.00  0.00     0.010 A 
ATOM     65  C   UNL A   1      42.906  28.144  36.625  1.00  0.00     0.020 A 
ATOM     66  C   UNL A   1      43.572  26.600  34.890  1.00  0.00     0.020 A 
ATOM     67  C   UNL A   1      43.562  26.981  36.224  1.00  0.00     0.054 A 
BRANCH  67  68
ATOM     68  S   UNL A   1      44.464  26.004  37.450  1.00  0.00     0.124 S 
ATOM     69  O   UNL A   1      45.846  26.391  37.185  1.00  0.00    -0.237 OA
ATOM     70  O   UNL A   1      43.898  26.487  38.706  1.00  0.00    -0.237 OA
ATOM     71  O   UNL A   1      44.121  24.625  37.107  1.00  0.00    -0.744 OA
ENDBRANCH  67  68
ENDBRANCH  48  62
BRANCH  49  72
ATOM     72  C   UNL A   1      43.256  25.538  26.438  1.00  0.00    -0.014 A 
ATOM     73  C   UNL A   1      43.926  25.346  25.215  1.00  0.00     0.010 A 
ATOM     74  C   UNL A   1      42.884  24.383  27.159  1.00  0.00     0.010 A 
ATOM     75  C   UNL A   1      44.288  24.058  24.777  1.00  0.00     0.020 A 
ATOM     76  C   UNL A   1      43.228  23.098  26.725  1.00  0.00     0.020 A 
ATOM     77  C   UNL A   1      43.961  22.943  25.552  1.00  0.00     0.054 A 
BRANCH  77  78
ATOM     78  S   UNL A   1      44.633  21.311  25.114  1.00  0.00     0.124 S 
ATOM     79  O   UNL A   1      45.951  21.340  25.740  1.00  0.00    -0.237 OA
ATOM     80  O   UNL A   1      43.666  20.397  25.713  1.00  0.00    -0.237 OA
ATOM     81  O   UNL A   1      44.639  21.328  23.651  1.00  0.00    -0.744 OA
ENDBRANCH  77  78
ENDBRANCH  49  72
BRANCH  61  82
ATOM     82  C   UNL A   1      45.035  31.209  28.629  1.00  0.00    -0.014 A 
ATOM     83  C   UNL A   1      44.141  31.545  27.592  1.00  0.00     0.010 A 
ATOM     84  C   UNL A   1      46.225  31.947  28.747  1.00  0.00     0.010 A 
ATOM     85  C   UNL A   1      44.446  32.574  26.684  1.00  0.00     0.020 A 
ATOM     86  C   UNL A   1      46.526  32.984  27.861  1.00  0.00     0.020 A 
ATOM     87  C   UNL A   1      45.640  33.286  26.826  1.00  0.00     0.054 A 
BRANCH  87  88
ATOM     88  S   UNL A   1      46.019  34.638  25.677  1.00  0.00     0.124 S 
ATOM     89  O   UNL A   1      47.434  34.424  25.389  1.00  0.00    -0.237 OA
ATOM     90  O   UNL A   1      45.105  34.387  24.565  1.00  0.00    -0.237 OA
ATOM     91  O   UNL A   1      45.723  35.845  26.449  1.00  0.00    -0.744 OA
ENDBRANCH  87  88
ENDBRANCH  61  82
ENDBRANCH  35  36
ENDBRANCH  27  30
ENDBRANCH  25  26
ENDBRANCH   1  25
TORSDOF 15
ENDMDL
MODEL 2
REMARK VINA RESULT:     -12.8      3.071      7.614
REMARK SMILES C[C@H]1OCC[C@@H]1C(=O)Nc1sc2c(c1C(=O)NCCCNC(=O)c1ccc(-c3c4nc(c(-c5ccc(S(=O)(=O)[O-])cc5)c5ccc([nH]5)c(-c5ccc(S(=O)(=O)[O-])cc5)c5nc(c(-c6ccc(S(=O)(=O)[O-])cc6)c6ccc3[nH]6)C=C5)C=C4)cc1)CCC2
REMARK SMILES IDX 19 1 18 2 17 3 15 4 16 5 14 7 10 8 11 9 12 10 13 11 86 12
REMARK SMILES IDX 84 13 85 14 9 15 7 16 8 17 6 19 1 20 2 21 3 22 4 23 5 24
REMARK SMILES IDX 20 25 21 26 22 27 23 29 24 30 25 31 83 32 26 33 82 34 27 35
REMARK SMILES IDX 28 36 29 37 76 38 30 39 81 40 75 41 77 42 31 43 80 44 74 45
REMARK SMILES IDX 73 46 32 48 62 49 43 50 61 51 44 52 47 53 60 54 78 55 45 56
REMARK SMILES IDX 46 57 59 59 79 60 48 61 33 62 34 63 42 64 35 65 41 66 36 67
REMARK SMILES IDX 37 68 38 69 39 70 40 71 63 72 64 73 72 74 65 75 71 76 66 77
REMARK SMILES IDX 67 78 68 79 69 80 70 81 49 82 50 83 58 84 51 85 57 86 52 87
REMARK SMILES IDX 53 88 54 89 55 90 56 91
REMARK H PARENT 17 6 9 18 21 28 77 47 47 58
REMARK Flexibility Score: inf
ROOT
ATOM      1  C   UNL A   1      37.870  20.145  24.758  1.00  0.00     0.042 C 
ENDROOT
BRANCH   1   2
ATOM      2  C   UNL A   1      37.009  21.393  24.565  1.00  0.00     0.118 C 
BRANCH   2   3
ATOM      3  N   UNL A   1      36.497  21.964  25.785  1.00  0.00    -0.352 N 
ATOM      4  C   UNL A   1      35.212  22.175  26.217  1.00  0.00     0.254 C 
ATOM      5  O   UNL A   1      35.068  22.065  27.439  1.00  0.00    -0.269 OA
ATOM      6  H   UNL A   1      37.191  22.254  26.420  1.00  0.00     0.163 HD
BRANCH   4   7
ATOM      7  C   UNL A   1      34.072  22.520  25.356  1.00  0.00     0.078 A 
ATOM      8  C   UNL A   1      33.027  21.599  25.187  1.00  0.00     0.108 A 
ATOM      9  S   UNL A   1      32.087  21.868  23.777  1.00  0.00    -0.122 S 
ATOM     10  C   UNL A   1      32.787  23.362  23.598  1.00  0.00     0.011 A 
ATOM     11  C   UNL A   1      33.790  23.641  24.495  1.00  0.00    -0.019 A 
ATOM     12  C   UNL A   1      32.540  24.412  22.582  1.00  0.00     0.047 C 
ATOM     13  C   UNL A   1      34.329  24.992  24.179  1.00  0.00     0.038 C 
ATOM     14  C   UNL A   1      33.270  25.608  23.224  1.00  0.00     0.010 C 
BRANCH   8  15
ATOM     15  N   UNL A   1      32.669  20.420  25.790  1.00  0.00    -0.317 N 
ATOM     16  C   UNL A   1      32.761  19.131  25.369  1.00  0.00     0.230 C 
ATOM     17  O   UNL A   1      32.350  18.283  26.177  1.00  0.00    -0.274 OA
ATOM     18  H   UNL A   1      32.277  20.527  26.687  1.00  0.00     0.170 HD
BRANCH  16  19
ATOM     19  C   UNL A   1      33.446  18.637  24.095  1.00  0.00     0.110 C 
ATOM     20  C   UNL A   1      32.532  18.380  21.748  1.00  0.00     0.039 C 
ATOM     21  C   UNL A   1      32.539  17.830  23.174  1.00  0.00     0.127 C 
ATOM     22  O   UNL A   1      33.071  16.494  23.157  1.00  0.00    -0.378 OA
ATOM     23  C   UNL A   1      34.476  16.590  23.398  1.00  0.00     0.161 C 
ATOM     24  C   UNL A   1      34.702  17.815  24.254  1.00  0.00     0.044 C 
ENDBRANCH  16  19
ENDBRANCH   8  15
ENDBRANCH   4   7
ENDBRANCH   2   3
ENDBRANCH   1   2
BRANCH   1  25
ATOM     25  C   UNL A   1      38.822  20.275  25.928  1.00  0.00     0.118 C 
BRANCH  25  26
ATOM     26  N   UNL A   1      39.908  19.292  25.850  1.00  0.00    -0.352 N 
ATOM     27  C   UNL A   1      41.271  19.482  25.975  1.00  0.00     0.251 C 
ATOM     28  H   UNL A   1      39.625  18.365  25.686  1.00  0.00     0.163 HD
ATOM     29  O   UNL A   1      42.053  18.631  25.592  1.00  0.00    -0.269 OA
BRANCH  27  30
ATOM     30  C   UNL A   1      41.749  20.741  26.568  1.00  0.00     0.039 A 
ATOM     31  C   UNL A   1      42.363  21.726  25.788  1.00  0.00     0.014 A 
ATOM     32  C   UNL A   1      41.531  20.940  27.926  1.00  0.00     0.014 A 
ATOM     33  C   UNL A   1      42.681  22.946  26.378  1.00  0.00     0.010 A 
ATOM     34  C   UNL A   1      41.662  22.193  28.451  1.00  0.00     0.010 A 
ATOM     35  C   UNL A   1      42.308  23.175  27.707  1.00  0.00    -0.014 A 
BRANCH  35  36
ATOM     36  C   UNL A   1      42.474  24.478  28.337  1.00  0.00     0.031 A 
ATOM     37  C   UNL A   1      41.344  25.420  28.111  1.00  0.00     0.074 A 
ATOM     38  C   UNL A   1      43.427  24.678  29.277  1.00  0.00     0.049 A 
ATOM     39  N   UNL A   1      41.375  26.562  27.510  1.00  0.00    -0.248 NA
ATOM     40  C   UNL A   1      39.983  24.974  28.464  1.00  0.00     0.031 C 
ATOM     41  C   UNL A   1      44.385  23.696  29.806  1.00  0.00     0.029 A 
ATOM     42  N   UNL A   1      43.623  25.744  30.096  1.00  0.00    -0.354 N 
ATOM     43  C   UNL A   1      40.089  27.085  27.621  1.00  0.00     0.074 A 
ATOM     44  C   UNL A   1      39.242  25.988  28.013  1.00  0.00     0.031 C 
ATOM     45  C   UNL A   1      44.830  24.106  31.012  1.00  0.00     0.029 A 
ATOM     46  C   UNL A   1      44.327  25.445  31.260  1.00  0.00     0.049 A 
ATOM     47  H   UNL A   1      43.296  26.648  29.885  1.00  0.00     0.167 HD
ATOM     48  C   UNL A   1      39.867  28.429  27.654  1.00  0.00     0.031 A 
ATOM     49  C   UNL A   1      44.425  26.212  32.376  1.00  0.00     0.031 A 
ATOM     50  C   UNL A   1      41.035  29.169  27.250  1.00  0.00     0.049 A 
ATOM     51  C   UNL A   1      44.066  27.596  31.972  1.00  0.00     0.074 A 
ATOM     52  C   UNL A   1      41.823  29.191  26.116  1.00  0.00     0.029 A 
ATOM     53  N   UNL A   1      41.793  29.732  28.253  1.00  0.00    -0.354 N 
ATOM     54  N   UNL A   1      44.772  28.300  31.130  1.00  0.00    -0.248 NA
ATOM     55  C   UNL A   1      42.680  28.014  32.120  1.00  0.00     0.031 C 
ATOM     56  C   UNL A   1      43.157  29.301  26.605  1.00  0.00     0.029 A 
ATOM     57  C   UNL A   1      43.106  29.434  27.994  1.00  0.00     0.049 A 
ATOM     58  H   UNL A   1      41.454  30.254  29.016  1.00  0.00     0.167 HD
ATOM     59  C   UNL A   1      43.834  28.928  30.322  1.00  0.00     0.074 A 
ATOM     60  C   UNL A   1      42.567  28.799  31.044  1.00  0.00     0.031 C 
ATOM     61  C   UNL A   1      44.110  29.228  29.017  1.00  0.00     0.031 A 
BRANCH  48  62
ATOM     62  C   UNL A   1      38.753  29.076  28.444  1.00  0.00    -0.014 A 
ATOM     63  C   UNL A   1      37.764  29.804  27.752  1.00  0.00     0.010 A 
ATOM     64  C   UNL A   1      38.794  29.230  29.845  1.00  0.00     0.010 A 
ATOM     65  C   UNL A   1      36.913  30.696  28.421  1.00  0.00     0.020 A 
ATOM     66  C   UNL A   1      37.922  30.079  30.528  1.00  0.00     0.020 A 
ATOM     67  C   UNL A   1      37.010  30.834  29.805  1.00  0.00     0.054 A 
BRANCH  67  68
ATOM     68  S   UNL A   1      35.981  32.060  30.648  1.00  0.00     0.124 S 
ATOM     69  O   UNL A   1      35.701  31.394  31.917  1.00  0.00    -0.237 OA
ATOM     70  O   UNL A   1      36.873  33.214  30.719  1.00  0.00    -0.237 OA
ATOM     71  O   UNL A   1      34.836  32.217  29.754  1.00  0.00    -0.744 OA
ENDBRANCH  67  68
ENDBRANCH  48  62
BRANCH  49  72
ATOM     72  C   UNL A   1      44.457  25.760  33.795  1.00  0.00    -0.014 A 
ATOM     73  C   UNL A   1      43.982  24.485  34.158  1.00  0.00     0.010 A 
ATOM     74  C   UNL A   1      45.214  26.465  34.754  1.00  0.00     0.010 A 
ATOM     75  C   UNL A   1      44.329  23.904  35.391  1.00  0.00     0.020 A 
ATOM     76  C   UNL A   1      45.553  25.900  35.989  1.00  0.00     0.020 A 
ATOM     77  C   UNL A   1      45.137  24.606  36.288  1.00  0.00     0.054 A 
BRANCH  77  78
ATOM     78  S   UNL A   1      45.781  23.768  37.769  1.00  0.00     0.124 S 
ATOM     79  O   UNL A   1      45.607  22.359  37.429  1.00  0.00    -0.237 OA
ATOM     80  O   UNL A   1      47.161  24.241  37.827  1.00  0.00    -0.237 OA
ATOM     81  O   UNL A   1      44.917  24.260  38.841  1.00  0.00    -0.744 OA
ENDBRANCH  77  78
ENDBRANCH  49  72
BRANCH  61  82
ATOM     82  C   UNL A   1      45.540  29.114  28.532  1.00  0.00    -0.014 A 
ATOM     83  C   UNL A   1      46.043  28.015  27.805  1.00  0.00     0.010 A 
ATOM     84  C   UNL A   1      46.358  30.248  28.675  1.00  0.00     0.010 A 
ATOM     85  C   UNL A   1      47.339  28.044  27.264  1.00  0.00     0.020 A 
ATOM     86  C   UNL A   1      47.640  30.291  28.122  1.00  0.00     0.020 A 
ATOM     87  C   UNL A   1      48.130  29.185  27.428  1.00  0.00     0.054 A 
BRANCH  87  88
ATOM     88  S   UNL A   1      49.790  29.237  26.698  1.00  0.00     0.124 S 
ATOM     89  O   UNL A   1      50.012  30.669  26.514  1.00  0.00    -0.237 OA
ATOM     90  O   UNL A   1      50.617  28.597  27.719  1.00  0.00    -0.237 OA
ATOM     91  O   UNL A   1      49.650  28.471  25.459  1.00  0.00    -0.744 OA
ENDBRANCH  87  88
ENDBRANCH  61  82
ENDBRANCH  35  36
ENDBRANCH  27  30
ENDBRANCH  25  26
ENDBRANCH   1  25
TORSDOF 15
ENDMDL
MODEL 3
REMARK VINA RESULT:     -12.6      3.410      8.185
REMARK SMILES C[C@H]1OCC[C@@H]1C(=O)Nc1sc2c(c1C(=O)NCCCNC(=O)c1ccc(-c3c4nc(c(-c5ccc(S(=O)(=O)[O-])cc5)c5ccc([nH]5)c(-c5ccc(S(=O)(=O)[O-])cc5)c5nc(c(-c6ccc(S(=O)(=O)[O-])cc6)c6ccc3[nH]6)C=C5)C=C4)cc1)CCC2
REMARK SMILES IDX 19 1 18 2 17 3 15 4 16 5 14 7 10 8 11 9 12 10 13 11 86 12
REMARK SMILES IDX 84 13 85 14 9 15 7 16 8 17 6 19 1 20 2 21 3 22 4 23 5 24
REMARK SMILES IDX 20 25 21 26 22 27 23 29 24 30 25 31 83 32 26 33 82 34 27 35
REMARK SMILES IDX 28 36 29 37 76 38 30 39 81 40 75 41 77 42 31 43 80 44 74 45
REMARK SMILES IDX 73 46 32 48 62 49 43 50 61 51 44 52 47 53 60 54 78 55 45 56
REMARK SMILES IDX 46 57 59 59 79 60 48 61 33 62 34 63 42 64 35 65 41 66 36 67
REMARK SMILES IDX 37 68 38 69 39 70 40 71 63 72 64 73 72 74 65 75 71 76 66 77
REMARK SMILES IDX 67 78 68 79 69 80 70 81 49 82 50 83 58 84 51 85 57 86 52 87
REMARK SMILES IDX 53 88 54 89 55 90 56 91
REMARK H PARENT 17 6 9 18 21 28 77 47 47 58
REMARK Flexibility Score: inf
ROOT
ATOM      1  C   UNL A   1      31.422  31.555  26.853  1.00  0.00     0.042 C 
ENDROOT
BRANCH   1   2
ATOM      2  C   UNL A   1      31.504  30.486  25.763  1.00  0.00     0.118 C 
BRANCH   2   3
ATOM      3  N   UNL A   1      32.795  29.861  25.629  1.00  0.00    -0.352 N 
ATOM      4  C   UNL A   1      33.211  28.790  24.880  1.00  0.00     0.254 C 
ATOM      5  O   UNL A   1      34.374  28.880  24.474  1.00  0.00    -0.269 OA
ATOM      6  H   UNL A   1      33.506  30.277  26.169  1.00  0.00     0.163 HD
BRANCH   4   7
ATOM      7  C   UNL A   1      32.398  27.606  24.567  1.00  0.00     0.078 A 
ATOM      8  C   UNL A   1      31.499  27.646  23.491  1.00  0.00     0.108 A 
ATOM      9  S   UNL A   1      30.256  26.467  23.581  1.00  0.00    -0.122 S 
ATOM     10  C   UNL A   1      31.086  25.687  24.788  1.00  0.00     0.011 A 
ATOM     11  C   UNL A   1      32.221  26.331  25.216  1.00  0.00    -0.019 A 
ATOM     12  C   UNL A   1      30.756  24.439  25.515  1.00  0.00     0.047 C 
ATOM     13  C   UNL A   1      32.823  25.524  26.314  1.00  0.00     0.038 C 
ATOM     14  C   UNL A   1      32.099  24.154  26.215  1.00  0.00     0.010 C 
BRANCH   8  15
ATOM     15  N   UNL A   1      31.268  28.516  22.455  1.00  0.00    -0.317 N 
ATOM     16  C   UNL A   1      30.245  29.378  22.216  1.00  0.00     0.230 C 
ATOM     17  O   UNL A   1      30.348  30.041  21.173  1.00  0.00    -0.274 OA
ATOM     18  H   UNL A   1      31.968  28.516  21.762  1.00  0.00     0.170 HD
BRANCH  16  19
ATOM     19  C   UNL A   1      29.091  29.705  23.164  1.00  0.00     0.110 C 
ATOM     20  C   UNL A   1      26.880  28.521  23.510  1.00  0.00     0.039 C 
ATOM     21  C   UNL A   1      27.711  29.414  22.588  1.00  0.00     0.127 C 
ATOM     22  O   UNL A   1      27.055  30.686  22.455  1.00  0.00    -0.378 OA
ATOM     23  C   UNL A   1      27.595  31.553  23.455  1.00  0.00     0.161 C 
ATOM     24  C   UNL A   1      29.017  31.109  23.712  1.00  0.00     0.044 C 
ENDBRANCH  16  19
ENDBRANCH   8  15
ENDBRANCH   4   7
ENDBRANCH   2   3
ENDBRANCH   1   2
BRANCH   1  25
ATOM     25  C   UNL A   1      32.704  32.352  26.976  1.00  0.00     0.118 C 
BRANCH  25  26
ATOM     26  N   UNL A   1      32.441  33.729  27.407  1.00  0.00    -0.352 N 
ATOM     27  C   UNL A   1      33.067  34.473  28.389  1.00  0.00     0.251 C 
ATOM     28  H   UNL A   1      31.714  34.188  26.930  1.00  0.00     0.163 HD
ATOM     29  O   UNL A   1      32.547  35.481  28.829  1.00  0.00    -0.269 OA
BRANCH  27  30
ATOM     30  C   UNL A   1      34.370  34.009  28.893  1.00  0.00     0.039 A 
ATOM     31  C   UNL A   1      34.494  33.429  30.159  1.00  0.00     0.014 A 
ATOM     32  C   UNL A   1      35.468  34.125  28.049  1.00  0.00     0.014 A 
ATOM     33  C   UNL A   1      35.724  32.895  30.532  1.00  0.00     0.010 A 
ATOM     34  C   UNL A   1      36.610  33.434  28.335  1.00  0.00     0.010 A 
ATOM     35  C   UNL A   1      36.772  32.886  29.603  1.00  0.00    -0.014 A 
BRANCH  35  36
ATOM     36  C   UNL A   1      38.033  32.210  29.874  1.00  0.00     0.031 A 
ATOM     37  C   UNL A   1      38.081  30.791  29.425  1.00  0.00     0.074 A 
ATOM     38  C   UNL A   1      39.135  32.912  30.225  1.00  0.00     0.049 A 
ATOM     39  N   UNL A   1      38.242  29.737  30.152  1.00  0.00    -0.248 NA
ATOM     40  C   UNL A   1      37.761  30.495  28.016  1.00  0.00     0.031 C 
ATOM     41  C   UNL A   1      39.261  34.370  30.372  1.00  0.00     0.029 A 
ATOM     42  N   UNL A   1      40.423  32.497  30.342  1.00  0.00    -0.354 N 
ATOM     43  C   UNL A   1      38.285  28.666  29.263  1.00  0.00     0.074 A 
ATOM     44  C   UNL A   1      37.771  29.161  28.012  1.00  0.00     0.031 C 
ATOM     45  C   UNL A   1      40.558  34.723  30.261  1.00  0.00     0.029 A 
ATOM     46  C   UNL A   1      41.363  33.517  30.209  1.00  0.00     0.049 A 
ATOM     47  H   UNL A   1      40.670  31.559  30.507  1.00  0.00     0.167 HD
ATOM     48  C   UNL A   1      38.996  27.537  29.542  1.00  0.00     0.031 A 
ATOM     49  C   UNL A   1      42.697  33.375  29.994  1.00  0.00     0.031 A 
ATOM     50  C   UNL A   1      39.388  27.486  30.928  1.00  0.00     0.049 A 
ATOM     51  C   UNL A   1      43.047  31.989  30.398  1.00  0.00     0.074 A 
ATOM     52  C   UNL A   1      38.705  27.516  32.128  1.00  0.00     0.029 A 
ATOM     53  N   UNL A   1      40.689  27.827  31.220  1.00  0.00    -0.354 N 
ATOM     54  N   UNL A   1      42.952  31.557  31.626  1.00  0.00    -0.248 NA
ATOM     55  C   UNL A   1      43.036  30.955  29.375  1.00  0.00     0.031 C 
ATOM     56  C   UNL A   1      39.498  28.342  32.976  1.00  0.00     0.029 A 
ATOM     57  C   UNL A   1      40.660  28.692  32.284  1.00  0.00     0.049 A 
ATOM     58  H   UNL A   1      41.494  27.508  30.752  1.00  0.00     0.167 HD
ATOM     59  C   UNL A   1      42.415  30.283  31.511  1.00  0.00     0.074 A 
ATOM     60  C   UNL A   1      42.587  29.927  30.102  1.00  0.00     0.031 C 
ATOM     61  C   UNL A   1      41.618  29.759  32.491  1.00  0.00     0.031 A 
BRANCH  48  62
ATOM     62  C   UNL A   1      39.690  26.701  28.492  1.00  0.00    -0.014 A 
ATOM     63  C   UNL A   1      39.502  25.304  28.502  1.00  0.00     0.010 A 
ATOM     64  C   UNL A   1      40.729  27.199  27.678  1.00  0.00     0.010 A 
ATOM     65  C   UNL A   1      40.358  24.449  27.793  1.00  0.00     0.020 A 
ATOM     66  C   UNL A   1      41.558  26.361  26.932  1.00  0.00     0.020 A 
ATOM     67  C   UNL A   1      41.389  24.986  27.023  1.00  0.00     0.054 A 
BRANCH  67  68
ATOM     68  S   UNL A   1      42.551  23.875  26.196  1.00  0.00     0.124 S 
ATOM     69  O   UNL A   1      43.545  23.649  27.240  1.00  0.00    -0.237 OA
ATOM     70  O   UNL A   1      41.703  22.732  25.867  1.00  0.00    -0.237 OA
ATOM     71  O   UNL A   1      43.011  24.654  25.048  1.00  0.00    -0.744 OA
ENDBRANCH  67  68
ENDBRANCH  48  62
BRANCH  49  72
ATOM     72  C   UNL A   1      43.580  34.225  29.148  1.00  0.00    -0.014 A 
ATOM     73  C   UNL A   1      44.830  34.666  29.623  1.00  0.00     0.010 A 
ATOM     74  C   UNL A   1      43.326  34.369  27.767  1.00  0.00     0.010 A 
ATOM     75  C   UNL A   1      45.817  35.144  28.740  1.00  0.00     0.020 A 
ATOM     76  C   UNL A   1      44.297  34.855  26.884  1.00  0.00     0.020 A 
ATOM     77  C   UNL A   1      45.552  35.208  27.370  1.00  0.00     0.054 A 
BRANCH  77  78
ATOM     78  S   UNL A   1      46.897  35.594  26.209  1.00  0.00     0.124 S 
ATOM     79  O   UNL A   1      46.607  36.978  25.846  1.00  0.00    -0.237 OA
ATOM     80  O   UNL A   1      48.090  35.389  27.025  1.00  0.00    -0.237 OA
ATOM     81  O   UNL A   1      46.711  34.617  25.136  1.00  0.00    -0.744 OA
ENDBRANCH  77  78
ENDBRANCH  49  72
BRANCH  61  82
ATOM     82  C   UNL A   1      41.540  30.471  33.825  1.00  0.00    -0.014 A 
ATOM     83  C   UNL A   1      42.405  30.216  34.909  1.00  0.00     0.010 A 
ATOM     84  C   UNL A   1      40.660  31.562  33.919  1.00  0.00     0.010 A 
ATOM     85  C   UNL A   1      42.367  31.016  36.063  1.00  0.00     0.020 A 
ATOM     86  C   UNL A   1      40.630  32.374  35.055  1.00  0.00     0.020 A 
ATOM     87  C   UNL A   1      41.476  32.091  36.127  1.00  0.00     0.054 A 
BRANCH  87  88
ATOM     88  S   UNL A   1      41.451  33.147  37.603  1.00  0.00     0.124 S 
ATOM     89  O   UNL A   1      40.733  34.329  37.136  1.00  0.00    -0.237 OA
ATOM     90  O   UNL A   1      40.742  32.324  38.581  1.00  0.00    -0.237 OA
ATOM     91  O   UNL A   1      42.867  33.363  37.901  1.00  0.00    -0.744 OA
ENDBRANCH  87  88
ENDBRANCH  61  82
ENDBRANCH  35  36
ENDBRANCH  27  30
ENDBRANCH  25  26
ENDBRANCH   1  25
TORSDOF 15
ENDMDL
