MODEL 1
REMARK VINA RESULT:     -11.8      0.000      0.000
REMARK SMILES O=C(NCCCNC(=O)c1ccc2c(c1)[C@@H](C1CCOCC1)C(=O)N2)c1ccc(-c2c3nc(c(-c4ccc(S(=O)(=O)[O-])cc4)c4ccc([nH]4)c(-c4ccc(S(=O)(=O)[O-])cc4)c4nc(c(-c5ccc(S(=O)(=O)[O-])cc5)c5ccc2[nH]5)C=C4)C=C3)cc1
REMARK SMILES IDX 4 1 3 2 1 3 2 4 26 6 27 7 85 8 28 9 84 10 29 11 30 12 31 13
REMARK SMILES IDX 78 14 32 15 83 16 77 17 79 18 33 19 82 20 76 21 75 22 34 24
REMARK SMILES IDX 64 25 45 26 63 27 46 28 49 29 62 30 80 31 47 32 48 33 61 35
REMARK SMILES IDX 81 36 50 37 35 38 36 39 44 40 37 41 43 42 38 43 39 44 40 45
REMARK SMILES IDX 41 46 42 47 65 48 66 49 74 50 67 51 73 52 68 53 69 54 70 55
REMARK SMILES IDX 71 56 72 57 51 58 52 59 60 60 53 61 59 62 54 63 55 64 56 65
REMARK SMILES IDX 57 66 58 67 5 68 6 69 7 70 8 71 9 73 10 74 11 75 15 76 12 77
REMARK SMILES IDX 14 78 13 79 16 80 25 81 23 82 24 84 17 85 18 86 22 87 19 88
REMARK SMILES IDX 21 89 20 90
REMARK H PARENT 3 5 79 23 49 34 7 72 25 83
REMARK Flexibility Score: inf
ROOT
ATOM      1  C   UNL A   1      33.716  28.203  27.250  1.00  0.00     0.118 C 
ENDROOT
BRANCH   1   2
ATOM      2  N   UNL A   1      33.553  29.637  27.462  1.00  0.00    -0.352 N 
ATOM      3  O   UNL A   1      34.014  31.678  28.293  1.00  0.00    -0.269 OA
ATOM      4  C   UNL A   1      34.415  30.549  28.025  1.00  0.00     0.251 C 
ATOM      5  H   UNL A   1      32.695  30.009  27.154  1.00  0.00     0.163 HD
BRANCH   4   6
ATOM      6  C   UNL A   1      35.811  30.161  28.320  1.00  0.00     0.039 A 
ATOM      7  C   UNL A   1      36.801  30.306  27.348  1.00  0.00     0.014 A 
ATOM      8  C   UNL A   1      36.139  29.660  29.582  1.00  0.00     0.014 A 
ATOM      9  C   UNL A   1      38.069  29.791  27.571  1.00  0.00     0.010 A 
ATOM     10  C   UNL A   1      37.451  29.255  29.848  1.00  0.00     0.010 A 
ATOM     11  C   UNL A   1      38.422  29.296  28.836  1.00  0.00    -0.014 A 
BRANCH  11  12
ATOM     12  C   UNL A   1      39.842  28.946  29.090  1.00  0.00     0.031 A 
ATOM     13  C   UNL A   1      40.412  27.618  28.681  1.00  0.00     0.074 A 
ATOM     14  C   UNL A   1      40.624  29.875  29.680  1.00  0.00     0.049 A 
ATOM     15  N   UNL A   1      41.638  27.180  28.817  1.00  0.00    -0.248 NA
ATOM     16  C   UNL A   1      39.501  26.654  28.041  1.00  0.00     0.031 C 
ATOM     17  C   UNL A   1      40.171  31.198  30.127  1.00  0.00     0.029 A 
ATOM     18  N   UNL A   1      41.959  29.866  29.987  1.00  0.00    -0.354 N 
ATOM     19  C   UNL A   1      41.643  25.887  28.306  1.00  0.00     0.074 A 
ATOM     20  C   UNL A   1      40.294  25.604  27.867  1.00  0.00     0.031 C 
ATOM     21  C   UNL A   1      41.218  31.888  30.598  1.00  0.00     0.029 A 
ATOM     22  C   UNL A   1      42.396  31.032  30.569  1.00  0.00     0.049 A 
ATOM     23  H   UNL A   1      42.548  29.098  29.807  1.00  0.00     0.167 HD
ATOM     24  C   UNL A   1      42.683  25.023  28.214  1.00  0.00     0.031 A 
ATOM     25  C   UNL A   1      43.602  31.372  31.060  1.00  0.00     0.031 A 
ATOM     26  C   UNL A   1      44.023  25.322  28.653  1.00  0.00     0.049 A 
ATOM     27  C   UNL A   1      44.718  30.373  30.979  1.00  0.00     0.074 A 
ATOM     28  C   UNL A   1      45.152  24.524  28.561  1.00  0.00     0.029 A 
ATOM     29  N   UNL A   1      44.416  26.498  29.272  1.00  0.00    -0.354 N 
ATOM     30  N   UNL A   1      44.713  29.176  30.443  1.00  0.00    -0.248 NA
ATOM     31  C   UNL A   1      46.002  30.767  31.571  1.00  0.00     0.031 C 
ATOM     32  C   UNL A   1      46.210  25.190  29.188  1.00  0.00     0.029 A 
ATOM     33  C   UNL A   1      45.760  26.432  29.603  1.00  0.00     0.049 A 
ATOM     34  H   UNL A   1      43.827  27.267  29.451  1.00  0.00     0.167 HD
ATOM     35  C   UNL A   1      46.001  28.683  30.615  1.00  0.00     0.074 A 
ATOM     36  C   UNL A   1      46.762  29.722  31.277  1.00  0.00     0.031 C 
ATOM     37  C   UNL A   1      46.505  27.475  30.263  1.00  0.00     0.031 A 
BRANCH  24  38
ATOM     38  C   UNL A   1      42.424  23.652  27.644  1.00  0.00    -0.014 A 
ATOM     39  C   UNL A   1      42.620  23.377  26.279  1.00  0.00     0.010 A 
ATOM     40  C   UNL A   1      42.087  22.595  28.512  1.00  0.00     0.010 A 
ATOM     41  C   UNL A   1      42.471  22.073  25.793  1.00  0.00     0.020 A 
ATOM     42  C   UNL A   1      41.964  21.287  28.034  1.00  0.00     0.020 A 
ATOM     43  C   UNL A   1      42.151  21.036  26.675  1.00  0.00     0.054 A 
BRANCH  43  44
ATOM     44  S   UNL A   1      42.035  19.346  26.024  1.00  0.00     0.124 S 
ATOM     45  O   UNL A   1      40.601  19.218  25.773  1.00  0.00    -0.237 OA
ATOM     46  O   UNL A   1      42.877  19.404  24.833  1.00  0.00    -0.237 OA
ATOM     47  O   UNL A   1      42.552  18.518  27.111  1.00  0.00    -0.744 OA
ENDBRANCH  43  44
ENDBRANCH  24  38
BRANCH  25  48
ATOM     48  C   UNL A   1      43.797  32.694  31.714  1.00  0.00    -0.014 A 
ATOM     49  C   UNL A   1      43.597  32.855  33.095  1.00  0.00     0.010 A 
ATOM     50  C   UNL A   1      44.175  33.812  30.944  1.00  0.00     0.010 A 
ATOM     51  C   UNL A   1      43.731  34.115  33.686  1.00  0.00     0.020 A 
ATOM     52  C   UNL A   1      44.348  35.063  31.536  1.00  0.00     0.020 A 
ATOM     53  C   UNL A   1      44.102  35.211  32.901  1.00  0.00     0.054 A 
BRANCH  53  54
ATOM     54  S   UNL A   1      44.276  36.834  33.689  1.00  0.00     0.124 S 
ATOM     55  O   UNL A   1      43.985  37.739  32.583  1.00  0.00    -0.237 OA
ATOM     56  O   UNL A   1      43.270  36.781  34.747  1.00  0.00    -0.237 OA
ATOM     57  O   UNL A   1      45.661  36.841  34.156  1.00  0.00    -0.744 OA
ENDBRANCH  53  54
ENDBRANCH  25  48
BRANCH  37  58
ATOM     58  C   UNL A   1      47.960  27.227  30.556  1.00  0.00    -0.014 A 
ATOM     59  C   UNL A   1      48.366  26.572  31.733  1.00  0.00     0.010 A 
ATOM     60  C   UNL A   1      48.933  27.624  29.622  1.00  0.00     0.010 A 
ATOM     61  C   UNL A   1      49.722  26.354  31.987  1.00  0.00     0.020 A 
ATOM     62  C   UNL A   1      50.287  27.376  29.855  1.00  0.00     0.020 A 
ATOM     63  C   UNL A   1      50.674  26.757  31.045  1.00  0.00     0.054 A 
BRANCH  63  64
ATOM     64  S   UNL A   1      52.424  26.426  31.381  1.00  0.00     0.124 S 
ATOM     65  O   UNL A   1      52.979  26.319  30.034  1.00  0.00    -0.237 OA
ATOM     66  O   UNL A   1      52.833  27.607  32.137  1.00  0.00    -0.237 OA
ATOM     67  O   UNL A   1      52.402  25.180  32.145  1.00  0.00    -0.744 OA
ENDBRANCH  63  64
ENDBRANCH  37  58
ENDBRANCH  11  12
ENDBRANCH   4   6
ENDBRANCH   1   2
BRANCH   1  68
ATOM     68  C   UNL A   1      33.721  27.828  25.779  1.00  0.00     0.042 C 
BRANCH  68  69
ATOM     69  C   UNL A   1      32.946  28.799  24.908  1.00  0.00     0.118 C 
BRANCH  69  70
ATOM     70  N   UNL A   1      33.586  29.021  23.617  1.00  0.00    -0.352 N 
ATOM     71  C   UNL A   1      33.732  28.157  22.560  1.00  0.00     0.251 C 
ATOM     72  H   UNL A   1      33.969  29.918  23.485  1.00  0.00     0.163 HD
ATOM     73  O   UNL A   1      34.457  28.440  21.613  1.00  0.00    -0.269 OA
BRANCH  71  74
ATOM     74  C   UNL A   1      33.020  26.863  22.584  1.00  0.00     0.040 A 
ATOM     75  C   UNL A   1      31.609  26.841  22.638  1.00  0.00     0.016 A 
ATOM     76  C   UNL A   1      33.772  25.681  22.576  1.00  0.00     0.020 A 
ATOM     77  C   UNL A   1      30.929  25.637  22.803  1.00  0.00     0.027 A 
ATOM     78  C   UNL A   1      33.083  24.489  22.717  1.00  0.00    -0.011 A 
ATOM     79  C   UNL A   1      31.691  24.491  22.848  1.00  0.00     0.045 A 
ATOM     80  C   UNL A   1      33.586  23.064  22.767  1.00  0.00     0.114 C 
ATOM     81  N   UNL A   1      31.231  23.201  23.023  1.00  0.00    -0.325 N 
ATOM     82  C   UNL A   1      32.266  22.281  22.986  1.00  0.00     0.232 C 
ATOM     83  H   UNL A   1      30.284  22.965  23.158  1.00  0.00     0.169 HD
ATOM     84  O   UNL A   1      32.119  21.070  23.062  1.00  0.00    -0.274 OA
BRANCH  80  85
ATOM     85  C   UNL A   1      34.691  22.801  23.811  1.00  0.00     0.010 C 
ATOM     86  C   UNL A   1      34.493  23.644  25.083  1.00  0.00     0.033 C 
ATOM     87  C   UNL A   1      36.123  22.995  23.280  1.00  0.00     0.033 C 
ATOM     88  C   UNL A   1      35.613  23.407  26.087  1.00  0.00     0.160 C 
ATOM     89  C   UNL A   1      37.145  22.788  24.394  1.00  0.00     0.160 C 
ATOM     90  O   UNL A   1      36.881  23.660  25.489  1.00  0.00    -0.381 OA
ENDBRANCH  80  85
ENDBRANCH  71  74
ENDBRANCH  69  70
ENDBRANCH  68  69
ENDBRANCH   1  68
TORSDOF 14
ENDMDL
MODEL 2
REMARK VINA RESULT:     -11.6      3.046      8.956
REMARK SMILES O=C(NCCCNC(=O)c1ccc2c(c1)[C@@H](C1CCOCC1)C(=O)N2)c1ccc(-c2c3nc(c(-c4ccc(S(=O)(=O)[O-])cc4)c4ccc([nH]4)c(-c4ccc(S(=O)(=O)[O-])cc4)c4nc(c(-c5ccc(S(=O)(=O)[O-])cc5)c5ccc2[nH]5)C=C4)C=C3)cc1
REMARK SMILES IDX 4 1 3 2 1 3 2 4 26 6 27 7 85 8 28 9 84 10 29 11 30 12 31 13
REMARK SMILES IDX 78 14 32 15 83 16 77 17 79 18 33 19 82 20 76 21 75 22 34 24
REMARK SMILES IDX 64 25 45 26 63 27 46 28 49 29 62 30 80 31 47 32 48 33 61 35
REMARK SMILES IDX 81 36 50 37 35 38 36 39 44 40 37 41 43 42 38 43 39 44 40 45
REMARK SMILES IDX 41 46 42 47 65 48 66 49 74 50 67 51 73 52 68 53 69 54 70 55
REMARK SMILES IDX 71 56 72 57 51 58 52 59 60 60 53 61 59 62 54 63 55 64 56 65
REMARK SMILES IDX 57 66 58 67 5 68 6 69 7 70 8 71 9 73 10 74 11 75 15 76 12 77
REMARK SMILES IDX 14 78 13 79 16 80 25 81 23 82 24 84 17 85 18 86 22 87 19 88
REMARK SMILES IDX 21 89 20 90
REMARK H PARENT 3 5 79 23 49 34 7 72 25 83
REMARK Flexibility Score: inf
ROOT
ATOM      1  C   UNL A   1      35.718  31.488  28.438  1.00  0.00     0.118 C 
ENDROOT
BRANCH   1   2
ATOM      2  N   UNL A   1      35.583  30.998  29.804  1.00  0.00    -0.352 N 
ATOM      3  O   UNL A   1      36.034  29.731  31.609  1.00  0.00    -0.269 OA
ATOM      4  C   UNL A   1      36.421  30.194  30.541  1.00  0.00     0.251 C 
ATOM      5  H   UNL A   1      34.767  31.288  30.272  1.00  0.00     0.163 HD
BRANCH   4   6
ATOM      6  C   UNL A   1      37.773  29.878  30.035  1.00  0.00     0.039 A 
ATOM      7  C   UNL A   1      38.787  29.508  30.919  1.00  0.00     0.014 A 
ATOM      8  C   UNL A   1      38.031  29.938  28.663  1.00  0.00     0.014 A 
ATOM      9  C   UNL A   1      40.089  29.374  30.462  1.00  0.00     0.010 A 
ATOM     10  C   UNL A   1      39.321  29.678  28.188  1.00  0.00     0.010 A 
ATOM     11  C   UNL A   1      40.366  29.416  29.087  1.00  0.00    -0.014 A 
BRANCH  11  12
ATOM     12  C   UNL A   1      41.733  29.064  28.627  1.00  0.00     0.031 A 
ATOM     13  C   UNL A   1      42.834  30.085  28.572  1.00  0.00     0.074 A 
ATOM     14  C   UNL A   1      41.971  27.781  28.282  1.00  0.00     0.049 A 
ATOM     15  N   UNL A   1      44.082  29.920  28.213  1.00  0.00    -0.248 NA
ATOM     16  C   UNL A   1      42.502  31.465  28.963  1.00  0.00     0.031 C 
ATOM     17  C   UNL A   1      40.971  26.706  28.291  1.00  0.00     0.029 A 
ATOM     18  N   UNL A   1      43.121  27.154  27.882  1.00  0.00    -0.354 N 
ATOM     19  C   UNL A   1      44.678  31.172  28.310  1.00  0.00     0.074 A 
ATOM     20  C   UNL A   1      43.652  32.093  28.750  1.00  0.00     0.031 C 
ATOM     21  C   UNL A   1      41.562  25.549  27.967  1.00  0.00     0.029 A 
ATOM     22  C   UNL A   1      42.958  25.809  27.644  1.00  0.00     0.049 A 
ATOM     23  H   UNL A   1      43.981  27.621  27.775  1.00  0.00     0.167 HD
ATOM     24  C   UNL A   1      45.964  31.513  28.056  1.00  0.00     0.031 A 
ATOM     25  C   UNL A   1      43.823  24.887  27.183  1.00  0.00     0.031 A 
ATOM     26  C   UNL A   1      46.977  30.582  27.622  1.00  0.00     0.049 A 
ATOM     27  C   UNL A   1      45.228  25.311  26.871  1.00  0.00     0.074 A 
ATOM     28  C   UNL A   1      48.318  30.827  27.379  1.00  0.00     0.029 A 
ATOM     29  N   UNL A   1      46.763  29.239  27.355  1.00  0.00    -0.354 N 
ATOM     30  N   UNL A   1      45.783  26.490  27.022  1.00  0.00    -0.248 NA
ATOM     31  C   UNL A   1      46.122  24.284  26.325  1.00  0.00     0.031 C 
ATOM     32  C   UNL A   1      48.898  29.650  26.899  1.00  0.00     0.029 A 
ATOM     33  C   UNL A   1      47.938  28.652  26.913  1.00  0.00     0.049 A 
ATOM     34  H   UNL A   1      45.903  28.771  27.462  1.00  0.00     0.167 HD
ATOM     35  C   UNL A   1      47.101  26.338  26.608  1.00  0.00     0.074 A 
ATOM     36  C   UNL A   1      47.264  24.950  26.230  1.00  0.00     0.031 C 
ATOM     37  C   UNL A   1      48.085  27.268  26.540  1.00  0.00     0.031 A 
BRANCH  24  38
ATOM     38  C   UNL A   1      46.364  32.958  28.207  1.00  0.00    -0.014 A 
ATOM     39  C   UNL A   1      46.988  33.428  29.375  1.00  0.00     0.010 A 
ATOM     40  C   UNL A   1      46.212  33.835  27.114  1.00  0.00     0.010 A 
ATOM     41  C   UNL A   1      47.441  34.750  29.452  1.00  0.00     0.020 A 
ATOM     42  C   UNL A   1      46.688  35.148  27.178  1.00  0.00     0.020 A 
ATOM     43  C   UNL A   1      47.294  35.599  28.350  1.00  0.00     0.054 A 
BRANCH  43  44
ATOM     44  S   UNL A   1      47.955  37.286  28.458  1.00  0.00     0.124 S 
ATOM     45  O   UNL A   1      46.860  38.075  27.898  1.00  0.00    -0.237 OA
ATOM     46  O   UNL A   1      48.177  37.451  29.892  1.00  0.00    -0.237 OA
ATOM     47  O   UNL A   1      49.166  37.237  27.643  1.00  0.00    -0.744 OA
ENDBRANCH  43  44
ENDBRANCH  24  38
BRANCH  25  48
ATOM     48  C   UNL A   1      43.368  23.490  26.943  1.00  0.00    -0.014 A 
ATOM     49  C   UNL A   1      43.143  22.609  28.013  1.00  0.00     0.010 A 
ATOM     50  C   UNL A   1      43.172  23.031  25.626  1.00  0.00     0.010 A 
ATOM     51  C   UNL A   1      42.769  21.284  27.770  1.00  0.00     0.020 A 
ATOM     52  C   UNL A   1      42.761  21.720  25.380  1.00  0.00     0.020 A 
ATOM     53  C   UNL A   1      42.584  20.848  26.454  1.00  0.00     0.054 A 
BRANCH  53  54
ATOM     54  S   UNL A   1      42.093  19.127  26.162  1.00  0.00     0.124 S 
ATOM     55  O   UNL A   1      42.304  18.527  27.475  1.00  0.00    -0.237 OA
ATOM     56  O   UNL A   1      40.701  19.264  25.742  1.00  0.00    -0.237 OA
ATOM     57  O   UNL A   1      43.011  18.684  25.115  1.00  0.00    -0.744 OA
ENDBRANCH  53  54
ENDBRANCH  25  48
BRANCH  37  58
ATOM     58  C   UNL A   1      49.437  26.802  26.071  1.00  0.00    -0.014 A 
ATOM     59  C   UNL A   1      49.863  27.012  24.746  1.00  0.00     0.010 A 
ATOM     60  C   UNL A   1      50.309  26.176  26.980  1.00  0.00     0.010 A 
ATOM     61  C   UNL A   1      51.121  26.570  24.331  1.00  0.00     0.020 A 
ATOM     62  C   UNL A   1      51.581  25.764  26.578  1.00  0.00     0.020 A 
ATOM     63  C   UNL A   1      51.972  25.950  25.251  1.00  0.00     0.054 A 
BRANCH  63  64
ATOM     64  S   UNL A   1      53.616  25.422  24.696  1.00  0.00     0.124 S 
ATOM     65  O   UNL A   1      54.489  26.052  25.683  1.00  0.00    -0.237 OA
ATOM     66  O   UNL A   1      53.526  23.966  24.775  1.00  0.00    -0.237 OA
ATOM     67  O   UNL A   1      53.715  25.962  23.342  1.00  0.00    -0.744 OA
ENDBRANCH  63  64
ENDBRANCH  37  58
ENDBRANCH  11  12
ENDBRANCH   4   6
ENDBRANCH   1   2
BRANCH   1  68
ATOM     68  C   UNL A   1      34.381  31.633  27.735  1.00  0.00     0.042 C 
BRANCH  68  69
ATOM     69  C   UNL A   1      33.989  30.407  26.931  1.00  0.00     0.118 C 
BRANCH  69  70
ATOM     70  N   UNL A   1      33.023  29.568  27.631  1.00  0.00    -0.352 N 
ATOM     71  C   UNL A   1      32.103  28.689  27.115  1.00  0.00     0.251 C 
ATOM     72  H   UNL A   1      33.032  29.643  28.612  1.00  0.00     0.163 HD
ATOM     73  O   UNL A   1      31.239  28.194  27.830  1.00  0.00    -0.269 OA
BRANCH  71  74
ATOM     74  C   UNL A   1      32.149  28.359  25.677  1.00  0.00     0.040 A 
ATOM     75  C   UNL A   1      31.369  29.100  24.762  1.00  0.00     0.016 A 
ATOM     76  C   UNL A   1      32.956  27.293  25.257  1.00  0.00     0.020 A 
ATOM     77  C   UNL A   1      31.292  28.713  23.427  1.00  0.00     0.027 A 
ATOM     78  C   UNL A   1      32.889  26.933  23.922  1.00  0.00    -0.011 A 
ATOM     79  C   UNL A   1      32.051  27.629  23.047  1.00  0.00     0.045 A 
ATOM     80  C   UNL A   1      33.602  25.837  23.164  1.00  0.00     0.114 C 
ATOM     81  N   UNL A   1      32.111  27.066  21.787  1.00  0.00    -0.325 N 
ATOM     82  C   UNL A   1      33.001  26.005  21.745  1.00  0.00     0.232 C 
ATOM     83  H   UNL A   1      31.586  27.380  21.014  1.00  0.00     0.169 HD
ATOM     84  O   UNL A   1      33.278  25.373  20.736  1.00  0.00    -0.274 OA
BRANCH  80  85
ATOM     85  C   UNL A   1      33.465  24.428  23.776  1.00  0.00     0.010 C 
ATOM     86  C   UNL A   1      34.640  23.513  23.382  1.00  0.00     0.033 C 
ATOM     87  C   UNL A   1      32.134  23.724  23.456  1.00  0.00     0.033 C 
ATOM     88  C   UNL A   1      34.471  22.113  23.956  1.00  0.00     0.160 C 
ATOM     89  C   UNL A   1      32.114  22.313  24.035  1.00  0.00     0.160 C 
ATOM     90  O   UNL A   1      33.223  21.556  23.555  1.00  0.00    -0.381 OA
ENDBRANCH  80  85
ENDBRANCH  71  74
ENDBRANCH  69  70
ENDBRANCH  68  69
ENDBRANCH   1  68
TORSDOF 14
ENDMDL
MODEL 3
REMARK VINA RESULT:     -11.6      4.674      9.727
REMARK SMILES O=C(NCCCNC(=O)c1ccc2c(c1)[C@@H](C1CCOCC1)C(=O)N2)c1ccc(-c2c3nc(c(-c4ccc(S(=O)(=O)[O-])cc4)c4ccc([nH]4)c(-c4ccc(S(=O)(=O)[O-])cc4)c4nc(c(-c5ccc(S(=O)(=O)[O-])cc5)c5ccc2[nH]5)C=C4)C=C3)cc1
REMARK SMILES IDX 4 1 3 2 1 3 2 4 26 6 27 7 85 8 28 9 84 10 29 11 30 12 31 13
REMARK SMILES IDX 78 14 32 15 83 16 77 17 79 18 33 19 82 20 76 21 75 22 34 24
REMARK SMILES IDX 64 25 45 26 63 27 46 28 49 29 62 30 80 31 47 32 48 33 61 35
REMARK SMILES IDX 81 36 50 37 35 38 36 39 44 40 37 41 43 42 38 43 39 44 40 45
REMARK SMILES IDX 41 46 42 47 65 48 66 49 74 50 67 51 73 52 68 53 69 54 70 55
REMARK SMILES IDX 71 56 72 57 51 58 52 59 60 60 53 61 59 62 54 63 55 64 56 65
REMARK SMILES IDX 57 66 58 67 5 68 6 69 7 70 8 71 9 73 10 74 11 75 15 76 12 77
REMARK SMILES IDX 14 78 13 79 16 80 25 81 23 82 24 84 17 85 18 86 22 87 19 88
REMARK SMILES IDX 21 89 20 90
REMARK H PARENT 3 5 79 23 49 34 7 72 25 83
REMARK Flexibility Score: inf
ROOT
ATOM      1  C   UNL A   1      40.299  23.272  27.044  1.00  0.00     0.118 C 
ENDROOT
BRANCH   1   2
ATOM      2  N   UNL A   1      41.084  23.990  26.047  1.00  0.00    -0.352 N 
ATOM      3  O   UNL A   1      41.964  25.769  24.984  1.00  0.00    -0.269 OA
ATOM      4  C   UNL A   1      41.472  25.309  26.010  1.00  0.00     0.251 C 
ATOM      5  H   UNL A   1      41.382  23.447  25.281  1.00  0.00     0.163 HD
BRANCH   4   6
ATOM      6  C   UNL A   1      41.279  26.168  27.198  1.00  0.00     0.039 A 
ATOM      7  C   UNL A   1      42.174  27.203  27.471  1.00  0.00     0.014 A 
ATOM      8  C   UNL A   1      40.188  25.948  28.043  1.00  0.00     0.014 A 
ATOM      9  C   UNL A   1      42.085  27.897  28.667  1.00  0.00     0.010 A 
ATOM     10  C   UNL A   1      40.029  26.734  29.189  1.00  0.00     0.010 A 
ATOM     11  C   UNL A   1      40.989  27.701  29.522  1.00  0.00    -0.014 A 
BRANCH  11  12
ATOM     12  C   UNL A   1      40.826  28.606  30.686  1.00  0.00     0.031 A 
ATOM     13  C   UNL A   1      41.699  28.492  31.903  1.00  0.00     0.074 A 
ATOM     14  C   UNL A   1      39.880  29.566  30.611  1.00  0.00     0.049 A 
ATOM     15  N   UNL A   1      41.688  29.226  32.987  1.00  0.00    -0.248 NA
ATOM     16  C   UNL A   1      42.711  27.422  31.917  1.00  0.00     0.031 C 
ATOM     17  C   UNL A   1      38.968  29.763  29.476  1.00  0.00     0.029 A 
ATOM     18  N   UNL A   1      39.537  30.565  31.482  1.00  0.00    -0.354 N 
ATOM     19  C   UNL A   1      42.668  28.697  33.819  1.00  0.00     0.074 A 
ATOM     20  C   UNL A   1      43.248  27.570  33.122  1.00  0.00     0.031 C 
ATOM     21  C   UNL A   1      38.212  30.846  29.699  1.00  0.00     0.029 A 
ATOM     22  C   UNL A   1      38.521  31.370  31.023  1.00  0.00     0.049 A 
ATOM     23  H   UNL A   1      39.977  30.695  32.353  1.00  0.00     0.167 HD
ATOM     24  C   UNL A   1      43.044  29.120  35.050  1.00  0.00     0.031 A 
ATOM     25  C   UNL A   1      37.878  32.395  31.610  1.00  0.00     0.031 A 
ATOM     26  C   UNL A   1      42.459  30.248  35.732  1.00  0.00     0.049 A 
ATOM     27  C   UNL A   1      38.293  32.808  32.992  1.00  0.00     0.074 A 
ATOM     28  C   UNL A   1      42.803  30.778  36.964  1.00  0.00     0.029 A 
ATOM     29  N   UNL A   1      41.406  31.012  35.251  1.00  0.00    -0.354 N 
ATOM     30  N   UNL A   1      39.259  32.327  33.738  1.00  0.00    -0.248 NA
ATOM     31  C   UNL A   1      37.533  33.899  33.612  1.00  0.00     0.031 C 
ATOM     32  C   UNL A   1      41.914  31.816  37.258  1.00  0.00     0.029 A 
ATOM     33  C   UNL A   1      41.064  31.982  36.178  1.00  0.00     0.049 A 
ATOM     34  H   UNL A   1      40.967  30.883  34.379  1.00  0.00     0.167 HD
ATOM     35  C   UNL A   1      39.234  33.073  34.910  1.00  0.00     0.074 A 
ATOM     36  C   UNL A   1      38.179  34.054  34.759  1.00  0.00     0.031 C 
ATOM     37  C   UNL A   1      40.010  32.952  36.014  1.00  0.00     0.031 A 
BRANCH  24  38
ATOM     38  C   UNL A   1      44.122  28.352  35.772  1.00  0.00    -0.014 A 
ATOM     39  C   UNL A   1      45.476  28.716  35.669  1.00  0.00     0.010 A 
ATOM     40  C   UNL A   1      43.758  27.317  36.657  1.00  0.00     0.010 A 
ATOM     41  C   UNL A   1      46.446  28.052  36.427  1.00  0.00     0.020 A 
ATOM     42  C   UNL A   1      44.723  26.670  37.435  1.00  0.00     0.020 A 
ATOM     43  C   UNL A   1      46.062  27.038  37.310  1.00  0.00     0.054 A 
BRANCH  43  44
ATOM     44  S   UNL A   1      47.336  26.244  38.331  1.00  0.00     0.124 S 
ATOM     45  O   UNL A   1      46.578  25.180  38.986  1.00  0.00    -0.237 OA
ATOM     46  O   UNL A   1      48.309  25.800  37.337  1.00  0.00    -0.237 OA
ATOM     47  O   UNL A   1      47.793  27.315  39.212  1.00  0.00    -0.744 OA
ENDBRANCH  43  44
ENDBRANCH  24  38
BRANCH  25  48
ATOM     48  C   UNL A   1      36.745  33.065  30.914  1.00  0.00    -0.014 A 
ATOM     49  C   UNL A   1      36.970  33.904  29.810  1.00  0.00     0.010 A 
ATOM     50  C   UNL A   1      35.426  32.871  31.369  1.00  0.00     0.010 A 
ATOM     51  C   UNL A   1      35.902  34.569  29.201  1.00  0.00     0.020 A 
ATOM     52  C   UNL A   1      34.353  33.502  30.739  1.00  0.00     0.020 A 
ATOM     53  C   UNL A   1      34.601  34.366  29.672  1.00  0.00     0.054 A 
BRANCH  53  54
ATOM     54  S   UNL A   1      33.230  35.234  28.863  1.00  0.00     0.124 S 
ATOM     55  O   UNL A   1      33.931  36.269  28.110  1.00  0.00    -0.237 OA
ATOM     56  O   UNL A   1      32.615  34.176  28.066  1.00  0.00    -0.237 OA
ATOM     57  O   UNL A   1      32.421  35.712  29.981  1.00  0.00    -0.744 OA
ENDBRANCH  53  54
ENDBRANCH  25  48
BRANCH  37  58
ATOM     58  C   UNL A   1      39.769  33.930  37.133  1.00  0.00    -0.014 A 
ATOM     59  C   UNL A   1      39.027  33.566  38.272  1.00  0.00     0.010 A 
ATOM     60  C   UNL A   1      40.323  35.220  37.058  1.00  0.00     0.010 A 
ATOM     61  C   UNL A   1      38.814  34.490  39.298  1.00  0.00     0.020 A 
ATOM     62  C   UNL A   1      40.141  36.134  38.098  1.00  0.00     0.020 A 
ATOM     63  C   UNL A   1      39.374  35.767  39.204  1.00  0.00     0.054 A 
BRANCH  63  64
ATOM     64  S   UNL A   1      39.114  36.933  40.568  1.00  0.00     0.124 S 
ATOM     65  O   UNL A   1      40.480  37.337  40.889  1.00  0.00    -0.237 OA
ATOM     66  O   UNL A   1      38.282  37.964  39.952  1.00  0.00    -0.237 OA
ATOM     67  O   UNL A   1      38.446  36.129  41.590  1.00  0.00    -0.744 OA
ENDBRANCH  63  64
ENDBRANCH  37  58
ENDBRANCH  11  12
ENDBRANCH   4   6
ENDBRANCH   1   2
BRANCH   1  68
ATOM     68  C   UNL A   1      39.262  22.355  26.421  1.00  0.00     0.042 C 
BRANCH  68  69
ATOM     69  C   UNL A   1      37.947  23.051  26.121  1.00  0.00     0.118 C 
BRANCH  69  70
ATOM     70  N   UNL A   1      37.733  23.240  24.691  1.00  0.00    -0.352 N 
ATOM     71  C   UNL A   1      36.603  23.008  23.945  1.00  0.00     0.251 C 
ATOM     72  H   UNL A   1      38.507  23.581  24.189  1.00  0.00     0.163 HD
ATOM     73  O   UNL A   1      36.641  23.046  22.720  1.00  0.00    -0.269 OA
BRANCH  71  74
ATOM     74  C   UNL A   1      35.338  22.688  24.635  1.00  0.00     0.040 A 
ATOM     75  C   UNL A   1      34.861  21.359  24.646  1.00  0.00     0.016 A 
ATOM     76  C   UNL A   1      34.624  23.727  25.247  1.00  0.00     0.020 A 
ATOM     77  C   UNL A   1      33.605  21.065  25.167  1.00  0.00     0.027 A 
ATOM     78  C   UNL A   1      33.386  23.418  25.783  1.00  0.00    -0.011 A 
ATOM     79  C   UNL A   1      32.896  22.111  25.714  1.00  0.00     0.045 A 
ATOM     80  C   UNL A   1      32.373  24.295  26.482  1.00  0.00     0.114 C 
ATOM     81  N   UNL A   1      31.631  22.051  26.267  1.00  0.00    -0.325 N 
ATOM     82  C   UNL A   1      31.230  23.283  26.755  1.00  0.00     0.232 C 
ATOM     83  H   UNL A   1      31.083  21.233  26.307  1.00  0.00     0.169 HD
ATOM     84  O   UNL A   1      30.175  23.486  27.339  1.00  0.00    -0.274 OA
BRANCH  80  85
ATOM     85  C   UNL A   1      31.962  25.562  25.705  1.00  0.00     0.010 C 
ATOM     86  C   UNL A   1      31.569  25.242  24.251  1.00  0.00     0.033 C 
ATOM     87  C   UNL A   1      33.014  26.685  25.721  1.00  0.00     0.033 C 
ATOM     88  C   UNL A   1      31.208  26.506  23.483  1.00  0.00     0.160 C 
ATOM     89  C   UNL A   1      32.559  27.866  24.870  1.00  0.00     0.160 C 
ATOM     90  O   UNL A   1      32.276  27.447  23.537  1.00  0.00    -0.381 OA
ENDBRANCH  80  85
ENDBRANCH  71  74
ENDBRANCH  69  70
ENDBRANCH  68  69
ENDBRANCH   1  68
TORSDOF 14
ENDMDL
