MODEL 1
REMARK VINA RESULT:     -12.3      0.000      0.000
REMARK SMILES Cc1ccc(C)c(NC(=O)/C=C/C(=O)NCCCNC(=O)c2ccc(-c3c4nc(c(-c5ccc(S(=O)(=O)[O-])cc5)c5ccc([nH]5)c(-c5ccc(S(=O)(=O)[O-])cc5)c5nc(c(-c6ccc(S(=O)(=O)[O-])cc6)c6ccc3[nH]6)C=C5)C=C4)cc2)c1
REMARK SMILES IDX 17 1 16 2 15 3 13 4 14 5 12 7 11 8 9 9 8 10 10 12 7 13 1 14
REMARK SMILES IDX 2 15 3 16 82 17 4 18 5 19 6 20 18 21 19 22 20 23 21 25 22 26
REMARK SMILES IDX 23 27 81 28 24 29 80 30 25 31 26 32 27 33 74 34 28 35 79 36
REMARK SMILES IDX 73 37 75 38 29 39 78 40 72 41 71 42 30 44 60 45 41 46 59 47
REMARK SMILES IDX 42 48 45 49 58 50 76 51 43 52 44 53 57 55 77 56 46 57 31 58
REMARK SMILES IDX 32 59 40 60 33 61 39 62 34 63 35 64 36 65 37 66 38 67 61 68
REMARK SMILES IDX 62 69 70 70 63 71 69 72 64 73 65 74 66 75 67 76 68 77 47 78
REMARK SMILES IDX 48 79 56 80 49 81 55 82 50 83 51 84 52 85 53 86 54 87
REMARK H PARENT 15 6 8 11 19 24 75 43 45 54
REMARK Flexibility Score: inf
ROOT
ATOM      1  C   UNL A   1      36.578  21.716  25.493  1.00  0.00     0.042 C 
ENDROOT
BRANCH   1   2
ATOM      2  C   UNL A   1      35.179  22.323  25.316  1.00  0.00     0.118 C 
BRANCH   2   3
ATOM      3  N   UNL A   1      34.435  21.667  24.261  1.00  0.00    -0.352 N 
ATOM      4  C   UNL A   1      33.568  22.281  23.416  1.00  0.00     0.244 C 
ATOM      5  O   UNL A   1      32.578  21.684  22.992  1.00  0.00    -0.270 OA
ATOM      6  H   UNL A   1      34.568  20.698  24.148  1.00  0.00     0.163 HD
BRANCH   4   7
ATOM      7  C   UNL A   1      33.914  23.655  23.014  1.00  0.00     0.077 C 
ATOM      8  C   UNL A   1      33.206  24.699  23.462  1.00  0.00     0.077 C 
BRANCH   8   9
ATOM      9  C   UNL A   1      33.494  25.986  22.829  1.00  0.00     0.248 C 
ATOM     10  N   UNL A   1      33.444  27.148  23.533  1.00  0.00    -0.322 N 
ATOM     11  H   UNL A   1      33.806  27.903  23.015  1.00  0.00     0.170 HD
ATOM     12  O   UNL A   1      33.843  26.010  21.645  1.00  0.00    -0.270 OA
BRANCH  10  13
ATOM     13  C   UNL A   1      33.006  27.558  24.815  1.00  0.00     0.044 A 
ATOM     14  C   UNL A   1      34.825  29.387  27.658  1.00  0.00     0.044 C 
ATOM     15  C   UNL A   1      33.789  28.619  26.899  1.00  0.00    -0.049 A 
ATOM     16  C   UNL A   1      32.551  28.389  27.485  1.00  0.00     0.004 A 
ATOM     17  C   UNL A   1      34.015  28.172  25.588  1.00  0.00     0.029 A 
ATOM     18  C   UNL A   1      31.532  27.830  26.729  1.00  0.00     0.006 A 
ATOM     19  C   UNL A   1      31.719  27.495  25.372  1.00  0.00    -0.027 A 
ATOM     20  C   UNL A   1      30.444  27.210  24.644  1.00  0.00     0.046 C 
ENDBRANCH  10  13
ENDBRANCH   8   9
ENDBRANCH   4   7
ENDBRANCH   2   3
ENDBRANCH   1   2
BRANCH   1  21
ATOM     21  C   UNL A   1      37.736  22.713  25.495  1.00  0.00     0.118 C 
BRANCH  21  22
ATOM     22  N   UNL A   1      39.017  22.072  25.794  1.00  0.00    -0.352 N 
ATOM     23  C   UNL A   1      40.190  22.452  26.408  1.00  0.00     0.251 C 
ATOM     24  H   UNL A   1      39.047  21.140  25.479  1.00  0.00     0.163 HD
ATOM     25  O   UNL A   1      41.145  21.679  26.322  1.00  0.00    -0.269 OA
BRANCH  23  26
ATOM     26  C   UNL A   1      40.350  23.728  27.144  1.00  0.00     0.039 A 
ATOM     27  C   UNL A   1      41.544  24.032  27.812  1.00  0.00     0.014 A 
ATOM     28  C   UNL A   1      39.310  24.642  27.213  1.00  0.00     0.014 A 
ATOM     29  C   UNL A   1      41.630  25.219  28.544  1.00  0.00     0.010 A 
ATOM     30  C   UNL A   1      39.479  25.909  27.691  1.00  0.00     0.010 A 
ATOM     31  C   UNL A   1      40.577  26.145  28.476  1.00  0.00    -0.014 A 
BRANCH  31  32
ATOM     32  C   UNL A   1      40.626  27.443  29.111  1.00  0.00     0.031 A 
ATOM     33  C   UNL A   1      41.618  28.326  28.488  1.00  0.00     0.074 A 
ATOM     34  C   UNL A   1      39.729  27.936  29.986  1.00  0.00     0.049 A 
ATOM     35  N   UNL A   1      42.856  28.418  28.828  1.00  0.00    -0.248 NA
ATOM     36  C   UNL A   1      41.277  28.985  27.219  1.00  0.00     0.031 C 
ATOM     37  C   UNL A   1      38.449  27.380  30.434  1.00  0.00     0.029 A 
ATOM     38  N   UNL A   1      39.779  29.137  30.619  1.00  0.00    -0.354 N 
ATOM     39  C   UNL A   1      43.384  29.371  27.982  1.00  0.00     0.074 A 
ATOM     40  C   UNL A   1      42.473  29.463  26.867  1.00  0.00     0.031 C 
ATOM     41  C   UNL A   1      37.770  28.324  31.132  1.00  0.00     0.029 A 
ATOM     42  C   UNL A   1      38.627  29.486  31.308  1.00  0.00     0.049 A 
ATOM     43  H   UNL A   1      40.573  29.718  30.591  1.00  0.00     0.167 HD
ATOM     44  C   UNL A   1      44.343  30.230  28.421  1.00  0.00     0.031 A 
ATOM     45  C   UNL A   1      38.414  30.663  31.950  1.00  0.00     0.031 A 
ATOM     46  C   UNL A   1      44.811  29.873  29.743  1.00  0.00     0.049 A 
ATOM     47  C   UNL A   1      39.750  31.240  32.250  1.00  0.00     0.074 A 
ATOM     48  C   UNL A   1      45.362  28.741  30.310  1.00  0.00     0.029 A 
ATOM     49  N   UNL A   1      44.310  30.618  30.790  1.00  0.00    -0.354 N 
ATOM     50  N   UNL A   1      40.592  30.701  33.087  1.00  0.00    -0.248 NA
ATOM     51  C   UNL A   1      40.335  32.185  31.312  1.00  0.00     0.031 C 
ATOM     52  C   UNL A   1      44.775  28.646  31.607  1.00  0.00     0.029 A 
ATOM     53  C   UNL A   1      43.950  29.758  31.797  1.00  0.00     0.049 A 
ATOM     54  H   UNL A   1      44.225  31.599  30.812  1.00  0.00     0.167 HD
ATOM     55  C   UNL A   1      41.840  30.881  32.507  1.00  0.00     0.074 A 
ATOM     56  C   UNL A   1      41.631  31.903  31.485  1.00  0.00     0.031 C 
ATOM     57  C   UNL A   1      42.853  29.988  32.720  1.00  0.00     0.031 A 
BRANCH  44  58
ATOM     58  C   UNL A   1      44.538  31.609  27.856  1.00  0.00    -0.014 A 
ATOM     59  C   UNL A   1      45.646  31.837  27.019  1.00  0.00     0.010 A 
ATOM     60  C   UNL A   1      43.821  32.737  28.302  1.00  0.00     0.010 A 
ATOM     61  C   UNL A   1      46.041  33.136  26.686  1.00  0.00     0.020 A 
ATOM     62  C   UNL A   1      44.176  34.033  27.935  1.00  0.00     0.020 A 
ATOM     63  C   UNL A   1      45.305  34.226  27.154  1.00  0.00     0.054 A 
BRANCH  63  64
ATOM     64  S   UNL A   1      45.870  35.900  26.783  1.00  0.00     0.124 S 
ATOM     65  O   UNL A   1      46.601  35.699  25.536  1.00  0.00    -0.237 OA
ATOM     66  O   UNL A   1      44.611  36.632  26.673  1.00  0.00    -0.237 OA
ATOM     67  O   UNL A   1      46.688  36.249  27.943  1.00  0.00    -0.744 OA
ENDBRANCH  63  64
ENDBRANCH  44  58
BRANCH  45  68
ATOM     68  C   UNL A   1      37.162  31.445  32.096  1.00  0.00    -0.014 A 
ATOM     69  C   UNL A   1      36.901  32.161  33.281  1.00  0.00     0.010 A 
ATOM     70  C   UNL A   1      36.378  31.741  30.963  1.00  0.00     0.010 A 
ATOM     71  C   UNL A   1      35.955  33.200  33.305  1.00  0.00     0.020 A 
ATOM     72  C   UNL A   1      35.428  32.770  30.984  1.00  0.00     0.020 A 
ATOM     73  C   UNL A   1      35.243  33.517  32.146  1.00  0.00     0.054 A 
BRANCH  73  74
ATOM     74  S   UNL A   1      34.187  34.997  32.125  1.00  0.00     0.124 S 
ATOM     75  O   UNL A   1      34.100  35.297  30.698  1.00  0.00    -0.237 OA
ATOM     76  O   UNL A   1      32.956  34.519  32.746  1.00  0.00    -0.237 OA
ATOM     77  O   UNL A   1      34.940  35.968  32.918  1.00  0.00    -0.744 OA
ENDBRANCH  73  74
ENDBRANCH  45  68
BRANCH  57  78
ATOM     78  C   UNL A   1      42.720  29.021  33.878  1.00  0.00    -0.014 A 
ATOM     79  C   UNL A   1      42.998  29.345  35.221  1.00  0.00     0.010 A 
ATOM     80  C   UNL A   1      42.185  27.749  33.599  1.00  0.00     0.010 A 
ATOM     81  C   UNL A   1      42.785  28.409  36.246  1.00  0.00     0.020 A 
ATOM     82  C   UNL A   1      41.951  26.821  34.616  1.00  0.00     0.020 A 
ATOM     83  C   UNL A   1      42.265  27.149  35.934  1.00  0.00     0.054 A 
BRANCH  83  84
ATOM     84  S   UNL A   1      41.968  25.950  37.264  1.00  0.00     0.124 S 
ATOM     85  O   UNL A   1      42.248  24.674  36.609  1.00  0.00    -0.237 OA
ATOM     86  O   UNL A   1      42.928  26.355  38.288  1.00  0.00    -0.237 OA
ATOM     87  O   UNL A   1      40.567  26.165  37.621  1.00  0.00    -0.744 OA
ENDBRANCH  83  84
ENDBRANCH  57  78
ENDBRANCH  31  32
ENDBRANCH  23  26
ENDBRANCH  21  22
ENDBRANCH   1  21
TORSDOF 15
ENDMDL
MODEL 2
REMARK VINA RESULT:     -12.3      2.522      4.165
REMARK SMILES Cc1ccc(C)c(NC(=O)/C=C/C(=O)NCCCNC(=O)c2ccc(-c3c4nc(c(-c5ccc(S(=O)(=O)[O-])cc5)c5ccc([nH]5)c(-c5ccc(S(=O)(=O)[O-])cc5)c5nc(c(-c6ccc(S(=O)(=O)[O-])cc6)c6ccc3[nH]6)C=C5)C=C4)cc2)c1
REMARK SMILES IDX 17 1 16 2 15 3 13 4 14 5 12 7 11 8 9 9 8 10 10 12 7 13 1 14
REMARK SMILES IDX 2 15 3 16 82 17 4 18 5 19 6 20 18 21 19 22 20 23 21 25 22 26
REMARK SMILES IDX 23 27 81 28 24 29 80 30 25 31 26 32 27 33 74 34 28 35 79 36
REMARK SMILES IDX 73 37 75 38 29 39 78 40 72 41 71 42 30 44 60 45 41 46 59 47
REMARK SMILES IDX 42 48 45 49 58 50 76 51 43 52 44 53 57 55 77 56 46 57 31 58
REMARK SMILES IDX 32 59 40 60 33 61 39 62 34 63 35 64 36 65 37 66 38 67 61 68
REMARK SMILES IDX 62 69 70 70 63 71 69 72 64 73 65 74 66 75 67 76 68 77 47 78
REMARK SMILES IDX 48 79 56 80 49 81 55 82 50 83 51 84 52 85 53 86 54 87
REMARK H PARENT 15 6 8 11 19 24 75 43 45 54
REMARK Flexibility Score: inf
ROOT
ATOM      1  C   UNL A   1      40.127  21.913  27.096  1.00  0.00     0.042 C 
ENDROOT
BRANCH   1   2
ATOM      2  C   UNL A   1      39.001  21.539  26.122  1.00  0.00     0.118 C 
BRANCH   2   3
ATOM      3  N   UNL A   1      38.485  22.698  25.424  1.00  0.00    -0.352 N 
ATOM      4  C   UNL A   1      37.188  22.884  25.069  1.00  0.00     0.244 C 
ATOM      5  O   UNL A   1      36.903  23.497  24.039  1.00  0.00    -0.270 OA
ATOM      6  H   UNL A   1      39.126  23.407  25.188  1.00  0.00     0.163 HD
BRANCH   4   7
ATOM      7  C   UNL A   1      36.176  22.361  26.002  1.00  0.00     0.077 C 
ATOM      8  C   UNL A   1      35.235  21.506  25.584  1.00  0.00     0.077 C 
BRANCH   8   9
ATOM      9  C   UNL A   1      34.157  21.228  26.533  1.00  0.00     0.248 C 
ATOM     10  N   UNL A   1      33.312  20.177  26.355  1.00  0.00    -0.322 N 
ATOM     11  H   UNL A   1      32.742  20.032  27.145  1.00  0.00     0.170 HD
ATOM     12  O   UNL A   1      34.048  21.929  27.542  1.00  0.00    -0.270 OA
BRANCH  10  13
ATOM     13  C   UNL A   1      33.035  19.239  25.332  1.00  0.00     0.044 A 
ATOM     14  C   UNL A   1      32.680  15.417  25.416  1.00  0.00     0.044 C 
ATOM     15  C   UNL A   1      32.811  16.820  24.910  1.00  0.00    -0.049 A 
ATOM     16  C   UNL A   1      32.655  17.068  23.552  1.00  0.00     0.004 A 
ATOM     17  C   UNL A   1      33.034  17.900  25.778  1.00  0.00     0.029 A 
ATOM     18  C   UNL A   1      32.606  18.378  23.100  1.00  0.00     0.006 A 
ATOM     19  C   UNL A   1      32.703  19.469  23.988  1.00  0.00    -0.027 A 
ATOM     20  C   UNL A   1      32.314  20.776  23.375  1.00  0.00     0.046 C 
ENDBRANCH  10  13
ENDBRANCH   8   9
ENDBRANCH   4   7
ENDBRANCH   2   3
ENDBRANCH   1   2
BRANCH   1  21
ATOM     21  C   UNL A   1      41.421  21.113  26.949  1.00  0.00     0.118 C 
BRANCH  21  22
ATOM     22  N   UNL A   1      42.274  21.632  25.880  1.00  0.00    -0.352 N 
ATOM     23  C   UNL A   1      42.695  22.879  25.474  1.00  0.00     0.251 C 
ATOM     24  H   UNL A   1      42.634  20.915  25.311  1.00  0.00     0.163 HD
ATOM     25  O   UNL A   1      43.286  22.949  24.395  1.00  0.00    -0.269 OA
BRANCH  23  26
ATOM     26  C   UNL A   1      42.466  24.114  26.260  1.00  0.00     0.039 A 
ATOM     27  C   UNL A   1      43.107  24.318  27.489  1.00  0.00     0.014 A 
ATOM     28  C   UNL A   1      41.589  25.089  25.809  1.00  0.00     0.014 A 
ATOM     29  C   UNL A   1      42.816  25.470  28.224  1.00  0.00     0.010 A 
ATOM     30  C   UNL A   1      41.510  26.324  26.383  1.00  0.00     0.010 A 
ATOM     31  C   UNL A   1      42.004  26.462  27.654  1.00  0.00    -0.014 A 
BRANCH  31  32
ATOM     32  C   UNL A   1      41.738  27.730  28.295  1.00  0.00     0.031 A 
ATOM     33  C   UNL A   1      42.753  28.737  27.969  1.00  0.00     0.074 A 
ATOM     34  C   UNL A   1      40.594  28.089  28.908  1.00  0.00     0.049 A 
ATOM     35  N   UNL A   1      43.840  28.945  28.625  1.00  0.00    -0.248 NA
ATOM     36  C   UNL A   1      42.685  29.410  26.663  1.00  0.00     0.031 C 
ATOM     37  C   UNL A   1      39.312  27.384  28.993  1.00  0.00     0.029 A 
ATOM     38  N   UNL A   1      40.341  29.262  29.546  1.00  0.00    -0.354 N 
ATOM     39  C   UNL A   1      44.461  29.983  27.962  1.00  0.00     0.074 A 
ATOM     40  C   UNL A   1      43.870  30.025  26.647  1.00  0.00     0.031 C 
ATOM     41  C   UNL A   1      38.373  28.222  29.498  1.00  0.00     0.029 A 
ATOM     42  C   UNL A   1      39.017  29.458  29.909  1.00  0.00     0.049 A 
ATOM     43  H   UNL A   1      41.045  29.923  29.737  1.00  0.00     0.167 HD
ATOM     44  C   UNL A   1      45.169  30.918  28.650  1.00  0.00     0.031 A 
ATOM     45  C   UNL A   1      38.512  30.578  30.487  1.00  0.00     0.031 A 
ATOM     46  C   UNL A   1      45.311  30.558  30.044  1.00  0.00     0.049 A 
ATOM     47  C   UNL A   1      39.650  31.279  31.138  1.00  0.00     0.074 A 
ATOM     48  C   UNL A   1      45.818  29.467  30.722  1.00  0.00     0.029 A 
ATOM     49  N   UNL A   1      44.473  31.202  30.930  1.00  0.00    -0.354 N 
ATOM     50  N   UNL A   1      40.298  30.797  32.161  1.00  0.00    -0.248 NA
ATOM     51  C   UNL A   1      40.350  32.319  30.400  1.00  0.00     0.031 C 
ATOM     52  C   UNL A   1      44.926  29.257  31.816  1.00  0.00     0.029 A 
ATOM     53  C   UNL A   1      43.961  30.267  31.795  1.00  0.00     0.049 A 
ATOM     54  H   UNL A   1      44.275  32.166  30.941  1.00  0.00     0.167 HD
ATOM     55  C   UNL A   1      41.626  31.132  31.934  1.00  0.00     0.074 A 
ATOM     56  C   UNL A   1      41.579  32.168  30.906  1.00  0.00     0.031 C 
ATOM     57  C   UNL A   1      42.642  30.342  32.397  1.00  0.00     0.031 A 
BRANCH  44  58
ATOM     58  C   UNL A   1      45.349  32.333  28.175  1.00  0.00    -0.014 A 
ATOM     59  C   UNL A   1      46.642  32.886  28.199  1.00  0.00     0.010 A 
ATOM     60  C   UNL A   1      44.274  33.212  27.933  1.00  0.00     0.010 A 
ATOM     61  C   UNL A   1      46.841  34.261  28.037  1.00  0.00     0.020 A 
ATOM     62  C   UNL A   1      44.465  34.575  27.720  1.00  0.00     0.020 A 
ATOM     63  C   UNL A   1      45.747  35.096  27.805  1.00  0.00     0.054 A 
BRANCH  63  64
ATOM     64  S   UNL A   1      46.006  36.878  27.676  1.00  0.00     0.124 S 
ATOM     65  O   UNL A   1      46.713  36.985  26.404  1.00  0.00    -0.237 OA
ATOM     66  O   UNL A   1      44.638  37.390  27.690  1.00  0.00    -0.237 OA
ATOM     67  O   UNL A   1      46.797  37.195  28.864  1.00  0.00    -0.744 OA
ENDBRANCH  63  64
ENDBRANCH  44  58
BRANCH  45  68
ATOM     68  C   UNL A   1      37.186  31.217  30.306  1.00  0.00    -0.014 A 
ATOM     69  C   UNL A   1      36.793  32.293  31.126  1.00  0.00     0.010 A 
ATOM     70  C   UNL A   1      36.442  30.981  29.132  1.00  0.00     0.010 A 
ATOM     71  C   UNL A   1      35.753  33.156  30.740  1.00  0.00     0.020 A 
ATOM     72  C   UNL A   1      35.400  31.833  28.746  1.00  0.00     0.020 A 
ATOM     73  C   UNL A   1      35.081  32.937  29.536  1.00  0.00     0.054 A 
BRANCH  73  74
ATOM     74  S   UNL A   1      33.893  34.177  28.939  1.00  0.00     0.124 S 
ATOM     75  O   UNL A   1      33.153  34.509  30.154  1.00  0.00    -0.237 OA
ATOM     76  O   UNL A   1      34.764  35.229  28.423  1.00  0.00    -0.237 OA
ATOM     77  O   UNL A   1      33.127  33.458  27.923  1.00  0.00    -0.744 OA
ENDBRANCH  73  74
ENDBRANCH  45  68
BRANCH  57  78
ATOM     78  C   UNL A   1      42.320  29.318  33.466  1.00  0.00    -0.014 A 
ATOM     79  C   UNL A   1      41.763  28.049  33.211  1.00  0.00     0.010 A 
ATOM     80  C   UNL A   1      42.702  29.622  34.786  1.00  0.00     0.010 A 
ATOM     81  C   UNL A   1      41.557  27.131  34.253  1.00  0.00     0.020 A 
ATOM     82  C   UNL A   1      42.520  28.705  35.824  1.00  0.00     0.020 A 
ATOM     83  C   UNL A   1      41.935  27.468  35.556  1.00  0.00     0.054 A 
BRANCH  83  84
ATOM     84  S   UNL A   1      41.689  26.270  36.897  1.00  0.00     0.124 S 
ATOM     85  O   UNL A   1      42.841  26.520  37.761  1.00  0.00    -0.237 OA
ATOM     86  O   UNL A   1      40.393  26.659  37.448  1.00  0.00    -0.237 OA
ATOM     87  O   UNL A   1      41.700  24.977  36.215  1.00  0.00    -0.744 OA
ENDBRANCH  83  84
ENDBRANCH  57  78
ENDBRANCH  31  32
ENDBRANCH  23  26
ENDBRANCH  21  22
ENDBRANCH   1  21
TORSDOF 15
ENDMDL
MODEL 3
REMARK VINA RESULT:     -12.1      2.769      9.642
REMARK SMILES Cc1ccc(C)c(NC(=O)/C=C/C(=O)NCCCNC(=O)c2ccc(-c3c4nc(c(-c5ccc(S(=O)(=O)[O-])cc5)c5ccc([nH]5)c(-c5ccc(S(=O)(=O)[O-])cc5)c5nc(c(-c6ccc(S(=O)(=O)[O-])cc6)c6ccc3[nH]6)C=C5)C=C4)cc2)c1
REMARK SMILES IDX 17 1 16 2 15 3 13 4 14 5 12 7 11 8 9 9 8 10 10 12 7 13 1 14
REMARK SMILES IDX 2 15 3 16 82 17 4 18 5 19 6 20 18 21 19 22 20 23 21 25 22 26
REMARK SMILES IDX 23 27 81 28 24 29 80 30 25 31 26 32 27 33 74 34 28 35 79 36
REMARK SMILES IDX 73 37 75 38 29 39 78 40 72 41 71 42 30 44 60 45 41 46 59 47
REMARK SMILES IDX 42 48 45 49 58 50 76 51 43 52 44 53 57 55 77 56 46 57 31 58
REMARK SMILES IDX 32 59 40 60 33 61 39 62 34 63 35 64 36 65 37 66 38 67 61 68
REMARK SMILES IDX 62 69 70 70 63 71 69 72 64 73 65 74 66 75 67 76 68 77 47 78
REMARK SMILES IDX 48 79 56 80 49 81 55 82 50 83 51 84 52 85 53 86 54 87
REMARK H PARENT 15 6 8 11 19 24 75 43 45 54
REMARK Flexibility Score: inf
ROOT
ATOM      1  C   UNL A   1      32.175  29.857  26.307  1.00  0.00     0.042 C 
ENDROOT
BRANCH   1   2
ATOM      2  C   UNL A   1      32.314  28.910  25.107  1.00  0.00     0.118 C 
BRANCH   2   3
ATOM      3  N   UNL A   1      31.032  28.401  24.669  1.00  0.00    -0.352 N 
ATOM      4  C   UNL A   1      30.721  27.088  24.521  1.00  0.00     0.244 C 
ATOM      5  O   UNL A   1      29.935  26.725  23.644  1.00  0.00    -0.270 OA
ATOM      6  H   UNL A   1      30.329  29.058  24.463  1.00  0.00     0.163 HD
BRANCH   4   7
ATOM      7  C   UNL A   1      31.332  26.161  25.488  1.00  0.00     0.077 C 
ATOM      8  C   UNL A   1      31.377  24.845  25.243  1.00  0.00     0.077 C 
BRANCH   8   9
ATOM      9  C   UNL A   1      31.800  24.001  26.360  1.00  0.00     0.248 C 
ATOM     10  N   UNL A   1      33.038  23.438  26.391  1.00  0.00    -0.322 N 
ATOM     11  H   UNL A   1      33.229  23.027  27.266  1.00  0.00     0.170 HD
ATOM     12  O   UNL A   1      31.038  23.841  27.317  1.00  0.00    -0.270 OA
BRANCH  10  13
ATOM     13  C   UNL A   1      34.124  23.286  25.496  1.00  0.00     0.044 A 
ATOM     14  C   UNL A   1      37.886  23.911  25.935  1.00  0.00     0.044 C 
ATOM     15  C   UNL A   1      36.559  23.627  25.305  1.00  0.00    -0.049 A 
ATOM     16  C   UNL A   1      36.509  23.256  23.967  1.00  0.00     0.004 A 
ATOM     17  C   UNL A   1      35.366  23.673  26.043  1.00  0.00     0.029 A 
ATOM     18  C   UNL A   1      35.308  22.828  23.423  1.00  0.00     0.006 A 
ATOM     19  C   UNL A   1      34.132  22.752  24.198  1.00  0.00    -0.027 A 
ATOM     20  C   UNL A   1      33.032  21.980  23.543  1.00  0.00     0.046 C 
ENDBRANCH  10  13
ENDBRANCH   8   9
ENDBRANCH   4   7
ENDBRANCH   2   3
ENDBRANCH   1   2
BRANCH   1  21
ATOM     21  C   UNL A   1      33.423  30.013  27.176  1.00  0.00     0.118 C 
BRANCH  21  22
ATOM     22  N   UNL A   1      33.689  31.411  27.515  1.00  0.00    -0.352 N 
ATOM     23  C   UNL A   1      34.749  32.112  28.045  1.00  0.00     0.251 C 
ATOM     24  H   UNL A   1      32.920  31.993  27.316  1.00  0.00     0.163 HD
ATOM     25  O   UNL A   1      34.546  33.286  28.361  1.00  0.00    -0.269 OA
BRANCH  23  26
ATOM     26  C   UNL A   1      36.093  31.525  28.254  1.00  0.00     0.039 A 
ATOM     27  C   UNL A   1      37.083  32.219  28.962  1.00  0.00     0.014 A 
ATOM     28  C   UNL A   1      36.413  30.282  27.729  1.00  0.00     0.014 A 
ATOM     29  C   UNL A   1      38.355  31.653  29.084  1.00  0.00     0.010 A 
ATOM     30  C   UNL A   1      37.551  29.613  28.073  1.00  0.00     0.010 A 
ATOM     31  C   UNL A   1      38.571  30.346  28.622  1.00  0.00    -0.014 A 
BRANCH  31  32
ATOM     32  C   UNL A   1      39.821  29.641  28.803  1.00  0.00     0.031 A 
ATOM     33  C   UNL A   1      40.100  29.366  30.216  1.00  0.00     0.074 A 
ATOM     34  C   UNL A   1      40.551  29.052  27.836  1.00  0.00     0.049 A 
ATOM     35  N   UNL A   1      40.739  30.143  31.018  1.00  0.00    -0.248 NA
ATOM     36  C   UNL A   1      39.403  28.247  30.868  1.00  0.00     0.031 C 
ATOM     37  C   UNL A   1      40.248  28.859  26.416  1.00  0.00     0.029 A 
ATOM     38  N   UNL A   1      41.744  28.419  27.984  1.00  0.00    -0.354 N 
ATOM     39  C   UNL A   1      40.765  29.467  32.221  1.00  0.00     0.074 A 
ATOM     40  C   UNL A   1      39.714  28.481  32.145  1.00  0.00     0.031 C 
ATOM     41  C   UNL A   1      41.155  28.008  25.876  1.00  0.00     0.029 A 
ATOM     42  C   UNL A   1      42.180  27.722  26.867  1.00  0.00     0.049 A 
ATOM     43  H   UNL A   1      42.261  28.452  28.821  1.00  0.00     0.167 HD
ATOM     44  C   UNL A   1      41.847  29.553  33.039  1.00  0.00     0.031 A 
ATOM     45  C   UNL A   1      43.298  26.955  26.799  1.00  0.00     0.031 A 
ATOM     46  C   UNL A   1      42.792  30.542  32.569  1.00  0.00     0.049 A 
ATOM     47  C   UNL A   1      44.209  27.422  27.876  1.00  0.00     0.074 A 
ATOM     48  C   UNL A   1      42.727  31.891  32.275  1.00  0.00     0.029 A 
ATOM     49  N   UNL A   1      43.903  30.061  31.908  1.00  0.00    -0.354 N 
ATOM     50  N   UNL A   1      44.770  28.600  27.881  1.00  0.00    -0.248 NA
ATOM     51  C   UNL A   1      44.173  26.753  29.167  1.00  0.00     0.031 C 
ATOM     52  C   UNL A   1      43.529  32.058  31.106  1.00  0.00     0.029 A 
ATOM     53  C   UNL A   1      44.099  30.825  30.784  1.00  0.00     0.049 A 
ATOM     54  H   UNL A   1      44.459  29.301  32.192  1.00  0.00     0.167 HD
ATOM     55  C   UNL A   1      44.746  29.003  29.208  1.00  0.00     0.074 A 
ATOM     56  C   UNL A   1      44.483  27.781  29.964  1.00  0.00     0.031 C 
ATOM     57  C   UNL A   1      44.663  30.326  29.542  1.00  0.00     0.031 A 
BRANCH  44  58
ATOM     58  C   UNL A   1      42.249  28.465  33.995  1.00  0.00    -0.014 A 
ATOM     59  C   UNL A   1      42.941  27.351  33.486  1.00  0.00     0.010 A 
ATOM     60  C   UNL A   1      41.769  28.379  35.318  1.00  0.00     0.010 A 
ATOM     61  C   UNL A   1      43.100  26.190  34.251  1.00  0.00     0.020 A 
ATOM     62  C   UNL A   1      41.966  27.248  36.106  1.00  0.00     0.020 A 
ATOM     63  C   UNL A   1      42.604  26.147  35.554  1.00  0.00     0.054 A 
BRANCH  63  64
ATOM     64  S   UNL A   1      42.746  24.618  36.504  1.00  0.00     0.124 S 
ATOM     65  O   UNL A   1      43.170  23.669  35.480  1.00  0.00    -0.237 OA
ATOM     66  O   UNL A   1      43.752  24.969  37.504  1.00  0.00    -0.237 OA
ATOM     67  O   UNL A   1      41.397  24.416  37.029  1.00  0.00    -0.744 OA
ENDBRANCH  63  64
ENDBRANCH  44  58
BRANCH  45  68
ATOM     68  C   UNL A   1      43.534  25.696  26.051  1.00  0.00    -0.014 A 
ATOM     69  C   UNL A   1      44.832  25.350  25.626  1.00  0.00     0.010 A 
ATOM     70  C   UNL A   1      42.547  24.690  26.032  1.00  0.00     0.010 A 
ATOM     71  C   UNL A   1      45.153  24.025  25.282  1.00  0.00     0.020 A 
ATOM     72  C   UNL A   1      42.859  23.370  25.683  1.00  0.00     0.020 A 
ATOM     73  C   UNL A   1      44.168  23.036  25.341  1.00  0.00     0.054 A 
BRANCH  73  74
ATOM     74  S   UNL A   1      44.639  21.295  25.110  1.00  0.00     0.124 S 
ATOM     75  O   UNL A   1      44.564  21.142  23.660  1.00  0.00    -0.237 OA
ATOM     76  O   UNL A   1      45.982  21.250  25.681  1.00  0.00    -0.237 OA
ATOM     77  O   UNL A   1      43.624  20.562  25.865  1.00  0.00    -0.744 OA
ENDBRANCH  73  74
ENDBRANCH  45  68
BRANCH  57  78
ATOM     78  C   UNL A   1      44.975  31.353  28.473  1.00  0.00    -0.014 A 
ATOM     79  C   UNL A   1      44.136  31.641  27.378  1.00  0.00     0.010 A 
ATOM     80  C   UNL A   1      46.128  32.140  28.651  1.00  0.00     0.010 A 
ATOM     81  C   UNL A   1      44.467  32.657  26.466  1.00  0.00     0.020 A 
ATOM     82  C   UNL A   1      46.451  33.166  27.760  1.00  0.00     0.020 A 
ATOM     83  C   UNL A   1      45.627  33.411  26.663  1.00  0.00     0.054 A 
BRANCH  83  84
ATOM     84  S   UNL A   1      46.039  34.740  25.496  1.00  0.00     0.124 S 
ATOM     85  O   UNL A   1      45.714  35.944  26.258  1.00  0.00    -0.237 OA
ATOM     86  O   UNL A   1      47.461  34.520  25.242  1.00  0.00    -0.237 OA
ATOM     87  O   UNL A   1      45.167  34.481  24.352  1.00  0.00    -0.744 OA
ENDBRANCH  83  84
ENDBRANCH  57  78
ENDBRANCH  31  32
ENDBRANCH  23  26
ENDBRANCH  21  22
ENDBRANCH   1  21
TORSDOF 15
ENDMDL
