MODEL 1
REMARK VINA RESULT:     -11.3      0.000      0.000
REMARK SMILES NC(=O)c1ccc(Nc2ccc(C(=O)NCCCNC(=O)c3ccc(-c4c5nc(c(-c6ccc(S(=O)(=O)[O-])cc6)c6ccc([nH]6)c(-c6ccc(S(=O)(=O)[O-])cc6)c6nc(c(-c7ccc(S(=O)(=O)[O-])cc7)c7ccc4[nH]7)C=C6)C=C5)cc3)c(Cl)c2)nn1
REMARK SMILES IDX 17 1 16 2 15 3 13 4 14 5 12 7 9 8 10 9 84 10 11 11 82 12
REMARK SMILES IDX 83 13 8 14 7 16 4 17 5 18 86 19 6 20 85 21 2 22 1 23 3 26
REMARK SMILES IDX 18 27 19 28 20 29 21 31 22 32 23 33 81 34 24 35 80 36 25 37
REMARK SMILES IDX 26 38 27 39 74 40 28 41 79 42 73 43 75 44 29 45 78 46 72 47
REMARK SMILES IDX 71 48 30 50 60 51 41 52 59 53 42 54 45 55 58 56 76 57 43 58
REMARK SMILES IDX 44 59 57 61 77 62 46 63 31 64 32 65 40 66 33 67 39 68 34 69
REMARK SMILES IDX 35 70 36 71 37 72 38 73 61 74 62 75 70 76 63 77 69 78 64 79
REMARK SMILES IDX 65 80 66 81 67 82 68 83 47 84 48 85 56 86 49 87 55 88 50 89
REMARK SMILES IDX 51 90 52 91 53 92 54 93
REMARK H PARENT 15 6 8 15 1 24 1 25 19 30 75 49 45 60
REMARK Flexibility Score: inf
ROOT
ATOM      1  C   UNL A   1      35.109  22.659  25.826  1.00  0.00     0.042 C 
ENDROOT
BRANCH   1   2
ATOM      2  C   UNL A   1      35.254  21.599  24.732  1.00  0.00     0.118 C 
BRANCH   2   3
ATOM      3  N   UNL A   1      34.204  20.607  24.850  1.00  0.00    -0.352 N 
ATOM      4  C   UNL A   1      32.842  20.662  24.973  1.00  0.00     0.252 C 
ATOM      5  O   UNL A   1      32.284  19.566  25.092  1.00  0.00    -0.269 OA
ATOM      6  H   UNL A   1      34.548  19.685  24.843  1.00  0.00     0.163 HD
BRANCH   4   7
ATOM      7  C   UNL A   1      31.978  21.877  24.869  1.00  0.00     0.058 A 
ATOM      8  C   UNL A   1      30.406  24.241  25.160  1.00  0.00     0.041 A 
ATOM      9  C   UNL A   1      30.578  23.380  26.236  1.00  0.00     0.027 A 
ATOM     10  C   UNL A   1      31.019  23.918  23.950  1.00  0.00     0.047 A 
ATOM     11  C   UNL A   1      31.322  22.202  26.081  1.00  0.00     0.017 A 
ATOM     12  C   UNL A   1      31.841  22.785  23.815  1.00  0.00     0.055 A 
ATOM     13  Cl  UNL A   1      32.754  22.808  22.360  1.00  0.00    -0.083 Cl
BRANCH   8  14
ATOM     14  N   UNL A   1      29.847  25.527  25.315  1.00  0.00    -0.339 N 
ATOM     15  H   UNL A   1      28.893  25.657  25.107  1.00  0.00     0.168 HD
BRANCH  14  16
ATOM     16  C   UNL A   1      30.607  26.634  25.759  1.00  0.00     0.153 A 
ATOM     17  C   UNL A   1      32.132  28.749  26.607  1.00  0.00     0.150 A 
ATOM     18  C   UNL A   1      31.999  28.531  25.245  1.00  0.00     0.040 A 
ATOM     19  N   UNL A   1      31.526  27.957  27.510  1.00  0.00    -0.143 NA
ATOM     20  C   UNL A   1      31.214  27.460  24.818  1.00  0.00     0.051 A 
ATOM     21  N   UNL A   1      30.753  26.903  27.075  1.00  0.00    -0.132 NA
BRANCH  17  22
ATOM     22  C   UNL A   1      32.923  29.887  27.147  1.00  0.00     0.269 C 
ATOM     23  N   UNL A   1      33.956  29.576  27.996  1.00  0.00    -0.364 N 
ATOM     24  H   UNL A   1      34.510  30.293  28.382  1.00  0.00     0.160 HD
ATOM     25  H   UNL A   1      34.143  28.636  28.221  1.00  0.00     0.160 HD
ATOM     26  O   UNL A   1      32.699  31.053  26.851  1.00  0.00    -0.268 OA
ENDBRANCH  17  22
ENDBRANCH  14  16
ENDBRANCH   8  14
ENDBRANCH   4   7
ENDBRANCH   2   3
ENDBRANCH   1   2
BRANCH   1  27
ATOM     27  C   UNL A   1      36.387  23.426  26.134  1.00  0.00     0.118 C 
BRANCH  27  28
ATOM     28  N   UNL A   1      37.553  22.559  26.104  1.00  0.00    -0.352 N 
ATOM     29  C   UNL A   1      38.877  22.859  26.320  1.00  0.00     0.251 C 
ATOM     30  H   UNL A   1      37.367  21.614  25.900  1.00  0.00     0.163 HD
ATOM     31  O   UNL A   1      39.733  22.042  25.985  1.00  0.00    -0.269 OA
BRANCH  29  32
ATOM     32  C   UNL A   1      39.285  24.143  26.942  1.00  0.00     0.039 A 
ATOM     33  C   UNL A   1      40.022  25.055  26.179  1.00  0.00     0.014 A 
ATOM     34  C   UNL A   1      39.014  24.428  28.282  1.00  0.00     0.014 A 
ATOM     35  C   UNL A   1      40.451  26.260  26.745  1.00  0.00     0.010 A 
ATOM     36  C   UNL A   1      39.374  25.661  28.825  1.00  0.00     0.010 A 
ATOM     37  C   UNL A   1      40.113  26.583  28.069  1.00  0.00    -0.014 A 
BRANCH  37  38
ATOM     38  C   UNL A   1      40.544  27.863  28.688  1.00  0.00     0.031 A 
ATOM     39  C   UNL A   1      41.923  27.987  29.284  1.00  0.00     0.074 A 
ATOM     40  C   UNL A   1      39.677  28.889  28.780  1.00  0.00     0.049 A 
ATOM     41  N   UNL A   1      42.456  28.993  29.930  1.00  0.00    -0.248 NA
ATOM     42  C   UNL A   1      42.808  26.818  29.159  1.00  0.00     0.031 C 
ATOM     43  C   UNL A   1      38.297  28.879  28.287  1.00  0.00     0.029 A 
ATOM     44  N   UNL A   1      39.822  30.137  29.333  1.00  0.00    -0.354 N 
ATOM     45  C   UNL A   1      43.723  28.567  30.316  1.00  0.00     0.074 A 
ATOM     46  C   UNL A   1      43.864  27.201  29.864  1.00  0.00     0.031 C 
ATOM     47  C   UNL A   1      37.728  30.067  28.549  1.00  0.00     0.029 A 
ATOM     48  C   UNL A   1      38.687  30.910  29.255  1.00  0.00     0.049 A 
ATOM     49  H   UNL A   1      40.658  30.450  29.746  1.00  0.00     0.167 HD
ATOM     50  C   UNL A   1      44.687  29.255  30.974  1.00  0.00     0.031 A 
ATOM     51  C   UNL A   1      38.440  32.155  29.709  1.00  0.00     0.031 A 
ATOM     52  C   UNL A   1      44.553  30.621  31.404  1.00  0.00     0.049 A 
ATOM     53  C   UNL A   1      39.535  32.910  30.409  1.00  0.00     0.074 A 
ATOM     54  C   UNL A   1      45.496  31.430  32.014  1.00  0.00     0.029 A 
ATOM     55  N   UNL A   1      43.401  31.382  31.267  1.00  0.00    -0.354 N 
ATOM     56  N   UNL A   1      40.751  32.516  30.699  1.00  0.00    -0.248 NA
ATOM     57  C   UNL A   1      39.229  34.285  30.828  1.00  0.00     0.031 C 
ATOM     58  C   UNL A   1      44.901  32.668  32.283  1.00  0.00     0.029 A 
ATOM     59  C   UNL A   1      43.603  32.645  31.798  1.00  0.00     0.049 A 
ATOM     60  H   UNL A   1      42.563  31.071  30.854  1.00  0.00     0.167 HD
ATOM     61  C   UNL A   1      41.363  33.599  31.319  1.00  0.00     0.074 A 
ATOM     62  C   UNL A   1      40.387  34.671  31.347  1.00  0.00     0.031 C 
ATOM     63  C   UNL A   1      42.618  33.698  31.821  1.00  0.00     0.031 A 
BRANCH  50  64
ATOM     64  C   UNL A   1      45.971  28.527  31.276  1.00  0.00    -0.014 A 
ATOM     65  C   UNL A   1      46.210  27.971  32.547  1.00  0.00     0.010 A 
ATOM     66  C   UNL A   1      46.948  28.383  30.274  1.00  0.00     0.010 A 
ATOM     67  C   UNL A   1      47.424  27.337  32.826  1.00  0.00     0.020 A 
ATOM     68  C   UNL A   1      48.153  27.725  30.541  1.00  0.00     0.020 A 
ATOM     69  C   UNL A   1      48.392  27.226  31.823  1.00  0.00     0.054 A 
BRANCH  69  70
ATOM     70  S   UNL A   1      49.961  26.401  32.211  1.00  0.00     0.124 S 
ATOM     71  O   UNL A   1      49.640  25.004  31.933  1.00  0.00    -0.237 OA
ATOM     72  O   UNL A   1      50.895  27.027  31.279  1.00  0.00    -0.237 OA
ATOM     73  O   UNL A   1      50.181  26.723  33.619  1.00  0.00    -0.744 OA
ENDBRANCH  69  70
ENDBRANCH  50  64
BRANCH  51  74
ATOM     74  C   UNL A   1      37.100  32.763  29.493  1.00  0.00    -0.014 A 
ATOM     75  C   UNL A   1      36.151  32.782  30.529  1.00  0.00     0.010 A 
ATOM     76  C   UNL A   1      36.782  33.364  28.261  1.00  0.00     0.010 A 
ATOM     77  C   UNL A   1      34.905  33.385  30.336  1.00  0.00     0.020 A 
ATOM     78  C   UNL A   1      35.546  33.989  28.072  1.00  0.00     0.020 A 
ATOM     79  C   UNL A   1      34.611  33.989  29.110  1.00  0.00     0.054 A 
BRANCH  79  80
ATOM     80  S   UNL A   1      33.018  34.834  28.908  1.00  0.00     0.124 S 
ATOM     81  O   UNL A   1      32.347  33.988  27.927  1.00  0.00    -0.237 OA
ATOM     82  O   UNL A   1      32.464  34.796  30.260  1.00  0.00    -0.237 OA
ATOM     83  O   UNL A   1      33.395  36.165  28.438  1.00  0.00    -0.744 OA
ENDBRANCH  79  80
ENDBRANCH  51  74
BRANCH  63  84
ATOM     84  C   UNL A   1      43.021  35.018  32.421  1.00  0.00    -0.014 A 
ATOM     85  C   UNL A   1      43.715  35.978  31.663  1.00  0.00     0.010 A 
ATOM     86  C   UNL A   1      42.652  35.320  33.744  1.00  0.00     0.010 A 
ATOM     87  C   UNL A   1      44.057  37.209  32.229  1.00  0.00     0.020 A 
ATOM     88  C   UNL A   1      42.972  36.559  34.305  1.00  0.00     0.020 A 
ATOM     89  C   UNL A   1      43.685  37.491  33.547  1.00  0.00     0.054 A 
BRANCH  89  90
ATOM     90  S   UNL A   1      44.099  39.113  34.247  1.00  0.00     0.124 S 
ATOM     91  O   UNL A   1      42.963  39.926  33.819  1.00  0.00    -0.237 OA
ATOM     92  O   UNL A   1      44.171  38.838  35.680  1.00  0.00    -0.237 OA
ATOM     93  O   UNL A   1      45.375  39.445  33.618  1.00  0.00    -0.744 OA
ENDBRANCH  89  90
ENDBRANCH  63  84
ENDBRANCH  37  38
ENDBRANCH  29  32
ENDBRANCH  27  28
ENDBRANCH   1  27
TORSDOF 16
ENDMDL
MODEL 2
REMARK VINA RESULT:     -11.3      4.709     11.501
REMARK SMILES NC(=O)c1ccc(Nc2ccc(C(=O)NCCCNC(=O)c3ccc(-c4c5nc(c(-c6ccc(S(=O)(=O)[O-])cc6)c6ccc([nH]6)c(-c6ccc(S(=O)(=O)[O-])cc6)c6nc(c(-c7ccc(S(=O)(=O)[O-])cc7)c7ccc4[nH]7)C=C6)C=C5)cc3)c(Cl)c2)nn1
REMARK SMILES IDX 17 1 16 2 15 3 13 4 14 5 12 7 9 8 10 9 84 10 11 11 82 12
REMARK SMILES IDX 83 13 8 14 7 16 4 17 5 18 86 19 6 20 85 21 2 22 1 23 3 26
REMARK SMILES IDX 18 27 19 28 20 29 21 31 22 32 23 33 81 34 24 35 80 36 25 37
REMARK SMILES IDX 26 38 27 39 74 40 28 41 79 42 73 43 75 44 29 45 78 46 72 47
REMARK SMILES IDX 71 48 30 50 60 51 41 52 59 53 42 54 45 55 58 56 76 57 43 58
REMARK SMILES IDX 44 59 57 61 77 62 46 63 31 64 32 65 40 66 33 67 39 68 34 69
REMARK SMILES IDX 35 70 36 71 37 72 38 73 61 74 62 75 70 76 63 77 69 78 64 79
REMARK SMILES IDX 65 80 66 81 67 82 68 83 47 84 48 85 56 86 49 87 55 88 50 89
REMARK SMILES IDX 51 90 52 91 53 92 54 93
REMARK H PARENT 15 6 8 15 1 24 1 25 19 30 75 49 45 60
REMARK Flexibility Score: inf
ROOT
ATOM      1  C   UNL A   1      34.463  32.822  30.363  1.00  0.00     0.042 C 
ENDROOT
BRANCH   1   2
ATOM      2  C   UNL A   1      35.736  32.870  31.211  1.00  0.00     0.118 C 
BRANCH   2   3
ATOM      3  N   UNL A   1      35.421  33.273  32.568  1.00  0.00    -0.352 N 
ATOM      4  C   UNL A   1      36.011  33.081  33.787  1.00  0.00     0.252 C 
ATOM      5  O   UNL A   1      35.397  33.561  34.747  1.00  0.00    -0.269 OA
ATOM      6  H   UNL A   1      34.593  33.803  32.626  1.00  0.00     0.163 HD
BRANCH   4   7
ATOM      7  C   UNL A   1      37.343  32.458  34.054  1.00  0.00     0.058 A 
ATOM      8  C   UNL A   1      39.763  30.953  34.200  1.00  0.00     0.041 A 
ATOM      9  C   UNL A   1      38.597  30.358  33.738  1.00  0.00     0.027 A 
ATOM     10  C   UNL A   1      39.715  32.292  34.585  1.00  0.00     0.047 A 
ATOM     11  C   UNL A   1      37.402  31.088  33.699  1.00  0.00     0.017 A 
ATOM     12  C   UNL A   1      38.540  33.056  34.461  1.00  0.00     0.055 A 
ATOM     13  Cl  UNL A   1      38.829  34.738  34.653  1.00  0.00    -0.083 Cl
BRANCH   8  14
ATOM     14  N   UNL A   1      41.023  30.331  34.068  1.00  0.00    -0.339 N 
ATOM     15  H   UNL A   1      41.724  30.786  33.548  1.00  0.00     0.168 HD
BRANCH  14  16
ATOM     16  C   UNL A   1      41.312  29.078  34.657  1.00  0.00     0.153 A 
ATOM     17  C   UNL A   1      41.830  26.623  35.764  1.00  0.00     0.150 A 
ATOM     18  C   UNL A   1      42.280  26.880  34.479  1.00  0.00     0.040 A 
ATOM     19  N   UNL A   1      41.160  27.550  36.474  1.00  0.00    -0.143 NA
ATOM     20  C   UNL A   1      42.024  28.133  33.924  1.00  0.00     0.051 A 
ATOM     21  N   UNL A   1      40.913  28.784  35.914  1.00  0.00    -0.132 NA
BRANCH  17  22
ATOM     22  C   UNL A   1      42.089  25.326  36.444  1.00  0.00     0.269 C 
ATOM     23  N   UNL A   1      42.456  25.382  37.766  1.00  0.00    -0.364 N 
ATOM     24  H   UNL A   1      42.640  24.550  38.261  1.00  0.00     0.160 HD
ATOM     25  H   UNL A   1      42.537  26.252  38.219  1.00  0.00     0.160 HD
ATOM     26  O   UNL A   1      41.970  24.245  35.882  1.00  0.00    -0.268 OA
ENDBRANCH  17  22
ENDBRANCH  14  16
ENDBRANCH   8  14
ENDBRANCH   4   7
ENDBRANCH   2   3
ENDBRANCH   1   2
BRANCH   1  27
ATOM     27  C   UNL A   1      34.708  32.780  28.861  1.00  0.00     0.118 C 
BRANCH  27  28
ATOM     28  N   UNL A   1      34.060  31.635  28.244  1.00  0.00    -0.352 N 
ATOM     29  C   UNL A   1      34.598  30.445  27.818  1.00  0.00     0.251 C 
ATOM     30  H   UNL A   1      33.089  31.726  28.112  1.00  0.00     0.163 HD
ATOM     31  O   UNL A   1      33.931  29.721  27.082  1.00  0.00    -0.269 OA
BRANCH  29  32
ATOM     32  C   UNL A   1      35.962  30.025  28.225  1.00  0.00     0.039 A 
ATOM     33  C   UNL A   1      36.997  30.099  27.287  1.00  0.00     0.014 A 
ATOM     34  C   UNL A   1      36.218  29.495  29.493  1.00  0.00     0.014 A 
ATOM     35  C   UNL A   1      38.287  29.681  27.629  1.00  0.00     0.010 A 
ATOM     36  C   UNL A   1      37.518  29.149  29.859  1.00  0.00     0.010 A 
ATOM     37  C   UNL A   1      38.564  29.220  28.926  1.00  0.00    -0.014 A 
BRANCH  37  38
ATOM     38  C   UNL A   1      39.929  28.783  29.319  1.00  0.00     0.031 A 
ATOM     39  C   UNL A   1      40.848  29.733  30.042  1.00  0.00     0.074 A 
ATOM     40  C   UNL A   1      40.368  27.560  28.966  1.00  0.00     0.049 A 
ATOM     41  N   UNL A   1      42.095  29.563  30.403  1.00  0.00    -0.248 NA
ATOM     42  C   UNL A   1      40.302  31.058  30.380  1.00  0.00     0.031 C 
ATOM     43  C   UNL A   1      39.594  26.564  28.221  1.00  0.00     0.029 A 
ATOM     44  N   UNL A   1      41.580  26.950  29.173  1.00  0.00    -0.354 N 
ATOM     45  C   UNL A   1      42.490  30.765  30.979  1.00  0.00     0.074 A 
ATOM     46  C   UNL A   1      41.364  31.668  30.886  1.00  0.00     0.031 C 
ATOM     47  C   UNL A   1      40.345  25.465  28.045  1.00  0.00     0.029 A 
ATOM     48  C   UNL A   1      41.662  25.688  28.633  1.00  0.00     0.049 A 
ATOM     49  H   UNL A   1      42.322  27.375  29.661  1.00  0.00     0.167 HD
ATOM     50  C   UNL A   1      43.678  31.086  31.547  1.00  0.00     0.031 A 
ATOM     51  C   UNL A   1      42.683  24.810  28.606  1.00  0.00     0.031 A 
ATOM     52  C   UNL A   1      44.790  30.180  31.658  1.00  0.00     0.049 A 
ATOM     53  C   UNL A   1      43.982  25.174  29.270  1.00  0.00     0.074 A 
ATOM     54  C   UNL A   1      46.011  30.383  32.278  1.00  0.00     0.029 A 
ATOM     55  N   UNL A   1      44.816  28.895  31.135  1.00  0.00    -0.354 N 
ATOM     56  N   UNL A   1      44.312  26.290  29.874  1.00  0.00    -0.248 NA
ATOM     57  C   UNL A   1      45.041  24.155  29.261  1.00  0.00     0.031 C 
ATOM     58  C   UNL A   1      46.790  29.236  32.095  1.00  0.00     0.029 A 
ATOM     59  C   UNL A   1      46.038  28.300  31.403  1.00  0.00     0.049 A 
ATOM     60  H   UNL A   1      44.076  28.468  30.646  1.00  0.00     0.167 HD
ATOM     61  C   UNL A   1      45.610  26.102  30.334  1.00  0.00     0.074 A 
ATOM     62  C   UNL A   1      45.999  24.759  29.952  1.00  0.00     0.031 C 
ATOM     63  C   UNL A   1      46.408  26.963  31.012  1.00  0.00     0.031 A 
BRANCH  50  64
ATOM     64  C   UNL A   1      43.833  32.485  32.083  1.00  0.00    -0.014 A 
ATOM     65  C   UNL A   1      43.707  32.757  33.458  1.00  0.00     0.010 A 
ATOM     66  C   UNL A   1      44.124  33.544  31.202  1.00  0.00     0.010 A 
ATOM     67  C   UNL A   1      43.811  34.067  33.934  1.00  0.00     0.020 A 
ATOM     68  C   UNL A   1      44.255  34.852  31.679  1.00  0.00     0.020 A 
ATOM     69  C   UNL A   1      44.075  35.108  33.039  1.00  0.00     0.054 A 
BRANCH  69  70
ATOM     70  S   UNL A   1      44.201  36.800  33.682  1.00  0.00     0.124 S 
ATOM     71  O   UNL A   1      42.799  37.135  33.920  1.00  0.00    -0.237 OA
ATOM     72  O   UNL A   1      45.017  36.631  34.882  1.00  0.00    -0.237 OA
ATOM     73  O   UNL A   1      44.843  37.535  32.595  1.00  0.00    -0.744 OA
ENDBRANCH  69  70
ENDBRANCH  50  64
BRANCH  51  74
ATOM     74  C   UNL A   1      42.503  23.493  27.939  1.00  0.00    -0.014 A 
ATOM     75  C   UNL A   1      42.920  23.304  26.610  1.00  0.00     0.010 A 
ATOM     76  C   UNL A   1      41.949  22.408  28.644  1.00  0.00     0.010 A 
ATOM     77  C   UNL A   1      42.782  22.056  25.995  1.00  0.00     0.020 A 
ATOM     78  C   UNL A   1      41.831  21.153  28.039  1.00  0.00     0.020 A 
ATOM     79  C   UNL A   1      42.242  20.987  26.715  1.00  0.00     0.054 A 
BRANCH  79  80
ATOM     80  S   UNL A   1      42.144  19.357  25.923  1.00  0.00     0.124 S 
ATOM     81  O   UNL A   1      42.663  18.480  26.967  1.00  0.00    -0.237 OA
ATOM     82  O   UNL A   1      40.715  19.226  25.641  1.00  0.00    -0.237 OA
ATOM     83  O   UNL A   1      42.991  19.500  24.742  1.00  0.00    -0.744 OA
ENDBRANCH  79  80
ENDBRANCH  51  74
BRANCH  63  84
ATOM     84  C   UNL A   1      47.775  26.473  31.407  1.00  0.00    -0.014 A 
ATOM     85  C   UNL A   1      47.996  25.875  32.661  1.00  0.00     0.010 A 
ATOM     86  C   UNL A   1      48.838  26.565  30.491  1.00  0.00     0.010 A 
ATOM     87  C   UNL A   1      49.266  25.401  33.000  1.00  0.00     0.020 A 
ATOM     88  C   UNL A   1      50.103  26.071  30.819  1.00  0.00     0.020 A 
ATOM     89  C   UNL A   1      50.312  25.504  32.078  1.00  0.00     0.054 A 
BRANCH  89  90
ATOM     90  S   UNL A   1      51.941  24.840  32.523  1.00  0.00     0.124 S 
ATOM     91  O   UNL A   1      52.086  25.294  33.903  1.00  0.00    -0.237 OA
ATOM     92  O   UNL A   1      51.761  23.401  32.349  1.00  0.00    -0.237 OA
ATOM     93  O   UNL A   1      52.845  25.469  31.561  1.00  0.00    -0.744 OA
ENDBRANCH  89  90
ENDBRANCH  63  84
ENDBRANCH  37  38
ENDBRANCH  29  32
ENDBRANCH  27  28
ENDBRANCH   1  27
TORSDOF 16
ENDMDL
MODEL 3
REMARK VINA RESULT:     -11.2      4.032      9.309
REMARK SMILES NC(=O)c1ccc(Nc2ccc(C(=O)NCCCNC(=O)c3ccc(-c4c5nc(c(-c6ccc(S(=O)(=O)[O-])cc6)c6ccc([nH]6)c(-c6ccc(S(=O)(=O)[O-])cc6)c6nc(c(-c7ccc(S(=O)(=O)[O-])cc7)c7ccc4[nH]7)C=C6)C=C5)cc3)c(Cl)c2)nn1
REMARK SMILES IDX 17 1 16 2 15 3 13 4 14 5 12 7 9 8 10 9 84 10 11 11 82 12
REMARK SMILES IDX 83 13 8 14 7 16 4 17 5 18 86 19 6 20 85 21 2 22 1 23 3 26
REMARK SMILES IDX 18 27 19 28 20 29 21 31 22 32 23 33 81 34 24 35 80 36 25 37
REMARK SMILES IDX 26 38 27 39 74 40 28 41 79 42 73 43 75 44 29 45 78 46 72 47
REMARK SMILES IDX 71 48 30 50 60 51 41 52 59 53 42 54 45 55 58 56 76 57 43 58
REMARK SMILES IDX 44 59 57 61 77 62 46 63 31 64 32 65 40 66 33 67 39 68 34 69
REMARK SMILES IDX 35 70 36 71 37 72 38 73 61 74 62 75 70 76 63 77 69 78 64 79
REMARK SMILES IDX 65 80 66 81 67 82 68 83 47 84 48 85 56 86 49 87 55 88 50 89
REMARK SMILES IDX 51 90 52 91 53 92 54 93
REMARK H PARENT 15 6 8 15 1 24 1 25 19 30 75 49 45 60
REMARK Flexibility Score: inf
ROOT
ATOM      1  C   UNL A   1      37.768  20.342  25.033  1.00  0.00     0.042 C 
ENDROOT
BRANCH   1   2
ATOM      2  C   UNL A   1      36.459  21.088  25.300  1.00  0.00     0.118 C 
BRANCH   2   3
ATOM      3  N   UNL A   1      35.325  20.222  25.041  1.00  0.00    -0.352 N 
ATOM      4  C   UNL A   1      33.968  20.388  25.058  1.00  0.00     0.252 C 
ATOM      5  O   UNL A   1      33.313  19.369  24.813  1.00  0.00    -0.269 OA
ATOM      6  H   UNL A   1      35.593  19.305  24.801  1.00  0.00     0.163 HD
BRANCH   4   7
ATOM      7  C   UNL A   1      33.220  21.671  25.232  1.00  0.00     0.058 A 
ATOM      8  C   UNL A   1      31.445  23.904  25.283  1.00  0.00     0.041 A 
ATOM      9  C   UNL A   1      31.418  23.015  24.217  1.00  0.00     0.027 A 
ATOM     10  C   UNL A   1      32.354  23.673  26.315  1.00  0.00     0.047 A 
ATOM     11  C   UNL A   1      32.314  21.939  24.177  1.00  0.00     0.017 A 
ATOM     12  C   UNL A   1      33.192  22.543  26.324  1.00  0.00     0.055 A 
ATOM     13  Cl  UNL A   1      33.943  22.298  27.850  1.00  0.00    -0.083 Cl
BRANCH   8  14
ATOM     14  N   UNL A   1      30.439  24.875  25.472  1.00  0.00    -0.339 N 
ATOM     15  H   UNL A   1      29.807  24.765  26.219  1.00  0.00     0.168 HD
BRANCH  14  16
ATOM     16  C   UNL A   1      30.308  26.001  24.625  1.00  0.00     0.153 A 
ATOM     17  C   UNL A   1      30.042  28.147  22.938  1.00  0.00     0.150 A 
ATOM     18  C   UNL A   1      28.899  27.483  23.353  1.00  0.00     0.040 A 
ATOM     19  N   UNL A   1      31.266  27.768  23.351  1.00  0.00    -0.143 NA
ATOM     20  C   UNL A   1      29.037  26.399  24.220  1.00  0.00     0.051 A 
ATOM     21  N   UNL A   1      31.389  26.695  24.207  1.00  0.00    -0.132 NA
BRANCH  17  22
ATOM     22  C   UNL A   1      29.982  29.331  22.042  1.00  0.00     0.269 C 
ATOM     23  N   UNL A   1      31.180  29.893  21.675  1.00  0.00    -0.364 N 
ATOM     24  H   UNL A   1      31.195  30.680  21.083  1.00  0.00     0.160 HD
ATOM     25  H   UNL A   1      32.025  29.510  22.004  1.00  0.00     0.160 HD
ATOM     26  O   UNL A   1      28.930  29.794  21.619  1.00  0.00    -0.268 OA
ENDBRANCH  17  22
ENDBRANCH  14  16
ENDBRANCH   8  14
ENDBRANCH   4   7
ENDBRANCH   2   3
ENDBRANCH   1   2
BRANCH   1  27
ATOM     27  C   UNL A   1      38.932  20.779  25.911  1.00  0.00     0.118 C 
BRANCH  27  28
ATOM     28  N   UNL A   1      39.941  19.739  26.022  1.00  0.00    -0.352 N 
ATOM     29  C   UNL A   1      41.307  19.847  26.123  1.00  0.00     0.251 C 
ATOM     30  H   UNL A   1      39.593  18.818  26.025  1.00  0.00     0.163 HD
ATOM     31  O   UNL A   1      41.997  18.847  25.936  1.00  0.00    -0.269 OA
BRANCH  29  32
ATOM     32  C   UNL A   1      41.956  21.141  26.449  1.00  0.00     0.039 A 
ATOM     33  C   UNL A   1      42.280  21.415  27.782  1.00  0.00     0.014 A 
ATOM     34  C   UNL A   1      42.185  22.113  25.471  1.00  0.00     0.014 A 
ATOM     35  C   UNL A   1      42.864  22.639  28.126  1.00  0.00     0.010 A 
ATOM     36  C   UNL A   1      42.836  23.301  25.801  1.00  0.00     0.010 A 
ATOM     37  C   UNL A   1      43.165  23.586  27.135  1.00  0.00    -0.014 A 
BRANCH  37  38
ATOM     38  C   UNL A   1      43.798  24.887  27.473  1.00  0.00     0.031 A 
ATOM     39  C   UNL A   1      42.965  26.008  28.040  1.00  0.00     0.074 A 
ATOM     40  C   UNL A   1      45.103  25.088  27.207  1.00  0.00     0.049 A 
ATOM     41  N   UNL A   1      43.317  27.235  28.330  1.00  0.00    -0.248 NA
ATOM     42  C   UNL A   1      41.543  25.718  28.289  1.00  0.00     0.031 C 
ATOM     43  C   UNL A   1      46.008  24.101  26.613  1.00  0.00     0.029 A 
ATOM     44  N   UNL A   1      45.893  26.195  27.388  1.00  0.00    -0.354 N 
ATOM     45  C   UNL A   1      42.158  27.870  28.763  1.00  0.00     0.074 A 
ATOM     46  C   UNL A   1      41.086  26.905  28.662  1.00  0.00     0.031 C 
ATOM     47  C   UNL A   1      47.230  24.642  26.490  1.00  0.00     0.029 A 
ATOM     48  C   UNL A   1      47.190  26.022  26.964  1.00  0.00     0.049 A 
ATOM     49  H   UNL A   1      45.564  27.034  27.783  1.00  0.00     0.167 HD
ATOM     50  C   UNL A   1      42.002  29.137  29.217  1.00  0.00     0.031 A 
ATOM     51  C   UNL A   1      48.230  26.879  26.950  1.00  0.00     0.031 A 
ATOM     52  C   UNL A   1      43.074  30.089  29.336  1.00  0.00     0.049 A 
ATOM     53  C   UNL A   1      48.042  28.270  27.487  1.00  0.00     0.074 A 
ATOM     54  C   UNL A   1      43.034  31.374  29.850  1.00  0.00     0.029 A 
ATOM     55  N   UNL A   1      44.382  29.859  28.935  1.00  0.00    -0.354 N 
ATOM     56  N   UNL A   1      46.955  28.829  27.961  1.00  0.00    -0.248 NA
ATOM     57  C   UNL A   1      49.226  29.141  27.503  1.00  0.00     0.031 C 
ATOM     58  C   UNL A   1      44.309  31.934  29.724  1.00  0.00     0.029 A 
ATOM     59  C   UNL A   1      45.154  30.983  29.175  1.00  0.00     0.049 A 
ATOM     60  H   UNL A   1      44.713  29.020  28.540  1.00  0.00     0.167 HD
ATOM     61  C   UNL A   1      47.325  30.112  28.348  1.00  0.00     0.074 A 
ATOM     62  C   UNL A   1      48.742  30.240  28.068  1.00  0.00     0.031 C 
ATOM     63  C   UNL A   1      46.562  31.094  28.886  1.00  0.00     0.031 A 
BRANCH  50  64
ATOM     64  C   UNL A   1      40.611  29.565  29.607  1.00  0.00    -0.014 A 
ATOM     65  C   UNL A   1      39.662  29.929  28.634  1.00  0.00     0.010 A 
ATOM     66  C   UNL A   1      40.242  29.591  30.964  1.00  0.00     0.010 A 
ATOM     67  C   UNL A   1      38.389  30.366  29.014  1.00  0.00     0.020 A 
ATOM     68  C   UNL A   1      38.960  30.002  31.347  1.00  0.00     0.020 A 
ATOM     69  C   UNL A   1      38.050  30.409  30.369  1.00  0.00     0.054 A 
BRANCH  69  70
ATOM     70  S   UNL A   1      36.393  30.982  30.837  1.00  0.00     0.124 S 
ATOM     71  O   UNL A   1      35.682  30.911  29.563  1.00  0.00    -0.237 OA
ATOM     72  O   UNL A   1      35.983  30.003  31.840  1.00  0.00    -0.237 OA
ATOM     73  O   UNL A   1      36.626  32.331  31.346  1.00  0.00    -0.744 OA
ENDBRANCH  69  70
ENDBRANCH  50  64
BRANCH  51  74
ATOM     74  C   UNL A   1      49.546  26.428  26.423  1.00  0.00    -0.014 A 
ATOM     75  C   UNL A   1      49.923  26.723  25.102  1.00  0.00     0.010 A 
ATOM     76  C   UNL A   1      50.447  25.736  27.254  1.00  0.00     0.010 A 
ATOM     77  C   UNL A   1      51.174  26.330  24.618  1.00  0.00     0.020 A 
ATOM     78  C   UNL A   1      51.707  25.361  26.781  1.00  0.00     0.020 A 
ATOM     79  C   UNL A   1      52.061  25.655  25.462  1.00  0.00     0.054 A 
BRANCH  79  80
ATOM     80  S   UNL A   1      53.709  25.223  24.837  1.00  0.00     0.124 S 
ATOM     81  O   UNL A   1      53.662  23.765  24.838  1.00  0.00    -0.237 OA
ATOM     82  O   UNL A   1      53.725  25.854  23.519  1.00  0.00    -0.237 OA
ATOM     83  O   UNL A   1      54.613  25.823  25.815  1.00  0.00    -0.744 OA
ENDBRANCH  79  80
ENDBRANCH  51  74
BRANCH  63  84
ATOM     84  C   UNL A   1      47.247  32.389  29.232  1.00  0.00    -0.014 A 
ATOM     85  C   UNL A   1      47.866  32.570  30.482  1.00  0.00     0.010 A 
ATOM     86  C   UNL A   1      47.316  33.416  28.274  1.00  0.00     0.010 A 
ATOM     87  C   UNL A   1      48.521  33.770  30.776  1.00  0.00     0.020 A 
ATOM     88  C   UNL A   1      47.989  34.607  28.557  1.00  0.00     0.020 A 
ATOM     89  C   UNL A   1      48.576  34.781  29.812  1.00  0.00     0.054 A 
BRANCH  89  90
ATOM     90  S   UNL A   1      49.470  36.312  30.199  1.00  0.00     0.124 S 
ATOM     91  O   UNL A   1      48.376  37.246  30.448  1.00  0.00    -0.237 OA
ATOM     92  O   UNL A   1      50.257  35.938  31.372  1.00  0.00    -0.237 OA
ATOM     93  O   UNL A   1      50.250  36.571  28.990  1.00  0.00    -0.744 OA
ENDBRANCH  89  90
ENDBRANCH  63  84
ENDBRANCH  37  38
ENDBRANCH  29  32
ENDBRANCH  27  28
ENDBRANCH   1  27
TORSDOF 16
ENDMDL
