MODEL 1
REMARK VINA RESULT:     -10.9      0.000      0.000
REMARK SMILES CC[C@H](C(=O)NCCCNC(=O)c1ccc(-c2c3nc(c(-c4ccc(S(=O)(=O)[O-])cc4)c4ccc([nH]4)c(-c4ccc(S(=O)(=O)[O-])cc4)c4nc(c(-c5ccc(S(=O)(=O)[O-])cc5)c5ccc2[nH]5)C=C4)C=C3)cc1)N1C(=O)/C(=C\c2cc(OC)ccc2OC)SC1=S
REMARK SMILES IDX 8 1 7 2 6 3 4 4 5 5 3 7 2 8 1 9 73 10 74 11 89 12 75 13
REMARK SMILES IDX 76 14 88 15 90 16 77 17 78 18 79 19 85 20 80 21 84 22 83 23
REMARK SMILES IDX 86 24 87 25 81 26 82 27 9 28 10 29 11 30 12 32 13 33 14 34
REMARK SMILES IDX 72 35 15 36 71 37 16 38 17 39 18 40 65 41 19 42 70 43 64 44
REMARK SMILES IDX 66 45 20 46 69 47 63 48 62 49 21 51 51 52 32 53 50 54 33 55
REMARK SMILES IDX 36 56 49 57 67 58 34 59 35 60 48 62 68 63 37 64 22 65 23 66
REMARK SMILES IDX 31 67 24 68 30 69 25 70 26 71 27 72 28 73 29 74 52 75 53 76
REMARK SMILES IDX 61 77 54 78 60 79 55 80 56 81 57 82 58 83 59 84 38 85 39 86
REMARK SMILES IDX 47 87 40 88 46 89 41 90 42 91 43 92 44 93 45 94
REMARK H PARENT 6 6 10 31 66 50 36 61
REMARK Flexibility Score: inf
ROOT
ATOM      1  C   UNL A   1      32.986  27.805  25.792  1.00  0.00     0.042 C 
ENDROOT
BRANCH   1   2
ATOM      2  C   UNL A   1      31.481  27.944  26.000  1.00  0.00     0.117 C 
BRANCH   2   3
ATOM      3  N   UNL A   1      30.909  26.727  26.546  1.00  0.00    -0.354 N 
ATOM      4  C   UNL A   1      30.257  25.691  25.948  1.00  0.00     0.243 C 
ATOM      5  O   UNL A   1      29.766  24.834  26.689  1.00  0.00    -0.273 OA
ATOM      6  H   UNL A   1      31.011  26.634  27.520  1.00  0.00     0.163 HD
BRANCH   4   7
ATOM      7  C   UNL A   1      30.034  25.614  24.425  1.00  0.00     0.181 C 
BRANCH   7   8
ATOM      8  C   UNL A   1      29.106  26.813  24.045  1.00  0.00     0.032 C 
ATOM      9  C   UNL A   1      27.621  26.478  24.102  1.00  0.00     0.006 C 
ENDBRANCH   7   8
BRANCH   7  10
ATOM     10  N   UNL A   1      31.272  25.548  23.595  1.00  0.00    -0.280 N 
ATOM     11  C   UNL A   1      32.288  24.727  24.056  1.00  0.00     0.266 C 
ATOM     12  C   UNL A   1      31.756  26.522  22.736  1.00  0.00     0.149 C 
ATOM     13  O   UNL A   1      32.386  24.268  25.187  1.00  0.00    -0.268 OA
ATOM     14  C   UNL A   1      33.385  24.644  23.063  1.00  0.00     0.081 C 
ATOM     15  S   UNL A   1      33.295  26.000  22.027  1.00  0.00    -0.054 SA
ATOM     16  S   UNL A   1      31.133  28.008  22.306  1.00  0.00    -0.052 S 
ATOM     17  C   UNL A   1      34.273  23.650  22.941  1.00  0.00     0.033 C 
BRANCH  17  18
ATOM     18  C   UNL A   1      34.241  22.433  23.761  1.00  0.00     0.021 A 
ATOM     19  C   UNL A   1      33.202  21.523  23.499  1.00  0.00     0.058 A 
ATOM     20  C   UNL A   1      35.219  22.097  24.712  1.00  0.00     0.126 A 
ATOM     21  C   UNL A   1      33.140  20.283  24.145  1.00  0.00     0.119 A 
ATOM     22  C   UNL A   1      35.158  20.851  25.346  1.00  0.00     0.051 A 
ATOM     23  C   UNL A   1      34.126  19.949  25.069  1.00  0.00     0.050 A 
BRANCH  20  24
ATOM     24  O   UNL A   1      36.334  22.828  25.032  1.00  0.00    -0.496 OA
ATOM     25  C   UNL A   1      37.424  22.124  25.613  1.00  0.00     0.278 C 
ENDBRANCH  20  24
BRANCH  21  26
ATOM     26  O   UNL A   1      32.087  19.496  23.769  1.00  0.00    -0.497 OA
ATOM     27  C   UNL A   1      32.359  18.469  22.824  1.00  0.00     0.278 C 
ENDBRANCH  21  26
ENDBRANCH  17  18
ENDBRANCH   7  10
ENDBRANCH   4   7
ENDBRANCH   2   3
ENDBRANCH   1   2
BRANCH   1  28
ATOM     28  C   UNL A   1      33.815  28.208  27.009  1.00  0.00     0.118 C 
BRANCH  28  29
ATOM     29  N   UNL A   1      33.638  29.610  27.359  1.00  0.00    -0.352 N 
ATOM     30  C   UNL A   1      34.485  30.448  28.041  1.00  0.00     0.251 C 
ATOM     31  H   UNL A   1      32.790  30.014  27.064  1.00  0.00     0.163 HD
ATOM     32  O   UNL A   1      34.079  31.543  28.422  1.00  0.00    -0.269 OA
BRANCH  30  33
ATOM     33  C   UNL A   1      35.874  30.030  28.326  1.00  0.00     0.039 A 
ATOM     34  C   UNL A   1      36.824  30.091  27.304  1.00  0.00     0.014 A 
ATOM     35  C   UNL A   1      36.234  29.559  29.593  1.00  0.00     0.014 A 
ATOM     36  C   UNL A   1      38.149  29.731  27.566  1.00  0.00     0.010 A 
ATOM     37  C   UNL A   1      37.567  29.265  29.870  1.00  0.00     0.010 A 
ATOM     38  C   UNL A   1      38.535  29.340  28.857  1.00  0.00    -0.014 A 
BRANCH  38  39
ATOM     39  C   UNL A   1      39.945  28.997  29.170  1.00  0.00     0.031 A 
ATOM     40  C   UNL A   1      40.852  30.025  29.790  1.00  0.00     0.074 A 
ATOM     41  C   UNL A   1      40.427  27.785  28.833  1.00  0.00     0.049 A 
ATOM     42  N   UNL A   1      42.126  29.938  30.074  1.00  0.00    -0.248 NA
ATOM     43  C   UNL A   1      40.254  31.331  30.109  1.00  0.00     0.031 C 
ATOM     44  C   UNL A   1      39.662  26.718  28.184  1.00  0.00     0.029 A 
ATOM     45  N   UNL A   1      41.682  27.249  28.979  1.00  0.00    -0.354 N 
ATOM     46  C   UNL A   1      42.488  31.181  30.577  1.00  0.00     0.074 A 
ATOM     47  C   UNL A   1      41.309  32.018  30.523  1.00  0.00     0.031 C 
ATOM     48  C   UNL A   1      40.456  25.650  28.010  1.00  0.00     0.029 A 
ATOM     49  C   UNL A   1      41.794  25.966  28.500  1.00  0.00     0.049 A 
ATOM     50  H   UNL A   1      42.432  27.739  29.389  1.00  0.00     0.167 HD
ATOM     51  C   UNL A   1      43.688  31.587  31.058  1.00  0.00     0.031 A 
ATOM     52  C   UNL A   1      42.854  25.136  28.457  1.00  0.00     0.031 A 
ATOM     53  C   UNL A   1      44.853  30.746  31.129  1.00  0.00     0.049 A 
ATOM     54  C   UNL A   1      44.170  25.598  29.016  1.00  0.00     0.074 A 
ATOM     55  C   UNL A   1      46.098  31.042  31.656  1.00  0.00     0.029 A 
ATOM     56  N   UNL A   1      44.915  29.442  30.661  1.00  0.00    -0.354 N 
ATOM     57  N   UNL A   1      44.477  26.759  29.545  1.00  0.00    -0.248 NA
ATOM     58  C   UNL A   1      45.280  24.635  28.984  1.00  0.00     0.031 C 
ATOM     59  C   UNL A   1      46.925  29.928  31.472  1.00  0.00     0.029 A 
ATOM     60  C   UNL A   1      46.181  28.924  30.872  1.00  0.00     0.049 A 
ATOM     61  H   UNL A   1      44.169  28.956  30.241  1.00  0.00     0.167 HD
ATOM     62  C   UNL A   1      45.809  26.659  29.930  1.00  0.00     0.074 A 
ATOM     63  C   UNL A   1      46.245  25.321  29.584  1.00  0.00     0.031 C 
ATOM     64  C   UNL A   1      46.598  27.590  30.519  1.00  0.00     0.031 A 
BRANCH  51  65
ATOM     65  C   UNL A   1      43.795  33.011  31.537  1.00  0.00    -0.014 A 
ATOM     66  C   UNL A   1      44.164  34.046  30.658  1.00  0.00     0.010 A 
ATOM     67  C   UNL A   1      43.511  33.321  32.878  1.00  0.00     0.010 A 
ATOM     68  C   UNL A   1      44.299  35.356  31.124  1.00  0.00     0.020 A 
ATOM     69  C   UNL A   1      43.619  34.636  33.344  1.00  0.00     0.020 A 
ATOM     70  C   UNL A   1      44.035  35.641  32.467  1.00  0.00     0.054 A 
BRANCH  70  71
ATOM     71  S   UNL A   1      44.218  37.349  33.049  1.00  0.00     0.124 S 
ATOM     72  O   UNL A   1      45.424  37.258  33.870  1.00  0.00    -0.237 OA
ATOM     73  O   UNL A   1      44.361  38.101  31.805  1.00  0.00    -0.237 OA
ATOM     74  O   UNL A   1      42.981  37.599  33.784  1.00  0.00    -0.744 OA
ENDBRANCH  70  71
ENDBRANCH  51  65
BRANCH  52  75
ATOM     75  C   UNL A   1      42.698  23.772  27.887  1.00  0.00    -0.014 A 
ATOM     76  C   UNL A   1      42.152  22.736  28.663  1.00  0.00     0.010 A 
ATOM     77  C   UNL A   1      43.057  23.511  26.552  1.00  0.00     0.010 A 
ATOM     78  C   UNL A   1      41.973  21.461  28.119  1.00  0.00     0.020 A 
ATOM     79  C   UNL A   1      42.858  22.244  25.996  1.00  0.00     0.020 A 
ATOM     80  C   UNL A   1      42.324  21.224  26.786  1.00  0.00     0.054 A 
BRANCH  80  81
ATOM     81  S   UNL A   1      42.011  19.584  26.076  1.00  0.00     0.124 S 
ATOM     82  O   UNL A   1      40.568  19.616  25.861  1.00  0.00    -0.237 OA
ATOM     83  O   UNL A   1      42.831  19.600  24.867  1.00  0.00    -0.237 OA
ATOM     84  O   UNL A   1      42.472  18.668  27.118  1.00  0.00    -0.744 OA
ENDBRANCH  80  81
ENDBRANCH  52  75
BRANCH  64  85
ATOM     85  C   UNL A   1      48.008  27.188  30.851  1.00  0.00    -0.014 A 
ATOM     86  C   UNL A   1      48.310  26.519  32.050  1.00  0.00     0.010 A 
ATOM     87  C   UNL A   1      49.036  27.433  29.922  1.00  0.00     0.010 A 
ATOM     88  C   UNL A   1      49.621  26.125  32.327  1.00  0.00     0.020 A 
ATOM     89  C   UNL A   1      50.345  27.021  30.186  1.00  0.00     0.020 A 
ATOM     90  C   UNL A   1      50.631  26.381  31.393  1.00  0.00     0.054 A 
BRANCH  90  91
ATOM     91  S   UNL A   1      52.318  25.820  31.753  1.00  0.00     0.124 S 
ATOM     92  O   UNL A   1      52.719  26.731  32.821  1.00  0.00    -0.237 OA
ATOM     93  O   UNL A   1      52.117  24.429  32.156  1.00  0.00    -0.237 OA
ATOM     94  O   UNL A   1      53.019  25.998  30.484  1.00  0.00    -0.744 OA
ENDBRANCH  90  91
ENDBRANCH  64  85
ENDBRANCH  38  39
ENDBRANCH  30  33
ENDBRANCH  28  29
ENDBRANCH   1  28
TORSDOF 18
ENDMDL
MODEL 2
REMARK VINA RESULT:     -10.7      1.397      2.132
REMARK SMILES CC[C@H](C(=O)NCCCNC(=O)c1ccc(-c2c3nc(c(-c4ccc(S(=O)(=O)[O-])cc4)c4ccc([nH]4)c(-c4ccc(S(=O)(=O)[O-])cc4)c4nc(c(-c5ccc(S(=O)(=O)[O-])cc5)c5ccc2[nH]5)C=C4)C=C3)cc1)N1C(=O)/C(=C\c2cc(OC)ccc2OC)SC1=S
REMARK SMILES IDX 8 1 7 2 6 3 4 4 5 5 3 7 2 8 1 9 73 10 74 11 89 12 75 13
REMARK SMILES IDX 76 14 88 15 90 16 77 17 78 18 79 19 85 20 80 21 84 22 83 23
REMARK SMILES IDX 86 24 87 25 81 26 82 27 9 28 10 29 11 30 12 32 13 33 14 34
REMARK SMILES IDX 72 35 15 36 71 37 16 38 17 39 18 40 65 41 19 42 70 43 64 44
REMARK SMILES IDX 66 45 20 46 69 47 63 48 62 49 21 51 51 52 32 53 50 54 33 55
REMARK SMILES IDX 36 56 49 57 67 58 34 59 35 60 48 62 68 63 37 64 22 65 23 66
REMARK SMILES IDX 31 67 24 68 30 69 25 70 26 71 27 72 28 73 29 74 52 75 53 76
REMARK SMILES IDX 61 77 54 78 60 79 55 80 56 81 57 82 58 83 59 84 38 85 39 86
REMARK SMILES IDX 47 87 40 88 46 89 41 90 42 91 43 92 44 93 45 94
REMARK H PARENT 6 6 10 31 66 50 36 61
REMARK Flexibility Score: inf
ROOT
ATOM      1  C   UNL A   1      32.974  27.708  25.725  1.00  0.00     0.042 C 
ENDROOT
BRANCH   1   2
ATOM      2  C   UNL A   1      33.419  26.990  24.454  1.00  0.00     0.117 C 
BRANCH   2   3
ATOM      3  N   UNL A   1      32.486  27.219  23.366  1.00  0.00    -0.354 N 
ATOM      4  C   UNL A   1      31.800  26.352  22.570  1.00  0.00     0.243 C 
ATOM      5  O   UNL A   1      31.161  26.838  21.630  1.00  0.00    -0.273 OA
ATOM      6  H   UNL A   1      32.321  28.169  23.168  1.00  0.00     0.163 HD
BRANCH   4   7
ATOM      7  C   UNL A   1      31.876  24.823  22.742  1.00  0.00     0.181 C 
BRANCH   7   8
ATOM      8  C   UNL A   1      33.270  24.377  22.193  1.00  0.00     0.032 C 
ATOM      9  C   UNL A   1      33.212  23.785  20.790  1.00  0.00     0.006 C 
ENDBRANCH   7   8
BRANCH   7  10
ATOM     10  N   UNL A   1      31.602  24.315  24.119  1.00  0.00    -0.280 N 
ATOM     11  C   UNL A   1      31.917  22.989  24.369  1.00  0.00     0.266 C 
ATOM     12  C   UNL A   1      30.654  24.790  25.012  1.00  0.00     0.149 C 
ATOM     13  O   UNL A   1      32.138  22.131  23.523  1.00  0.00    -0.268 OA
ATOM     14  C   UNL A   1      31.734  22.669  25.803  1.00  0.00     0.081 C 
ATOM     15  S   UNL A   1      30.671  23.816  26.493  1.00  0.00    -0.054 SA
ATOM     16  S   UNL A   1      29.580  26.060  24.893  1.00  0.00    -0.052 S 
ATOM     17  C   UNL A   1      32.338  21.687  26.482  1.00  0.00     0.033 C 
BRANCH  17  18
ATOM     18  C   UNL A   1      33.349  20.801  25.892  1.00  0.00     0.021 A 
ATOM     19  C   UNL A   1      32.901  19.550  25.434  1.00  0.00     0.058 A 
ATOM     20  C   UNL A   1      34.692  21.162  25.688  1.00  0.00     0.126 A 
ATOM     21  C   UNL A   1      33.756  18.673  24.757  1.00  0.00     0.119 A 
ATOM     22  C   UNL A   1      35.539  20.286  25.000  1.00  0.00     0.051 A 
ATOM     23  C   UNL A   1      35.079  19.048  24.538  1.00  0.00     0.050 A 
BRANCH  20  24
ATOM     24  O   UNL A   1      35.272  22.364  26.001  1.00  0.00    -0.496 OA
ATOM     25  C   UNL A   1      36.596  22.585  25.530  1.00  0.00     0.278 C 
ENDBRANCH  20  24
BRANCH  21  26
ATOM     26  O   UNL A   1      33.171  17.506  24.350  1.00  0.00    -0.497 OA
ATOM     27  C   UNL A   1      33.061  16.472  25.320  1.00  0.00     0.278 C 
ENDBRANCH  21  26
ENDBRANCH  17  18
ENDBRANCH   7  10
ENDBRANCH   4   7
ENDBRANCH   2   3
ENDBRANCH   1   2
BRANCH   1  28
ATOM     28  C   UNL A   1      34.125  28.323  26.518  1.00  0.00     0.118 C 
BRANCH  28  29
ATOM     29  N   UNL A   1      33.821  29.671  26.977  1.00  0.00    -0.352 N 
ATOM     30  C   UNL A   1      34.533  30.479  27.828  1.00  0.00     0.251 C 
ATOM     31  H   UNL A   1      32.985  30.057  26.627  1.00  0.00     0.163 HD
ATOM     32  O   UNL A   1      34.018  31.505  28.264  1.00  0.00    -0.269 OA
BRANCH  30  33
ATOM     33  C   UNL A   1      35.907  30.108  28.230  1.00  0.00     0.039 A 
ATOM     34  C   UNL A   1      36.123  29.588  29.509  1.00  0.00     0.014 A 
ATOM     35  C   UNL A   1      36.983  30.291  27.356  1.00  0.00     0.014 A 
ATOM     36  C   UNL A   1      37.410  29.202  29.892  1.00  0.00     0.010 A 
ATOM     37  C   UNL A   1      38.252  29.844  27.715  1.00  0.00     0.010 A 
ATOM     38  C   UNL A   1      38.479  29.303  28.989  1.00  0.00    -0.014 A 
BRANCH  38  39
ATOM     39  C   UNL A   1      39.846  28.857  29.358  1.00  0.00     0.031 A 
ATOM     40  C   UNL A   1      40.777  29.794  30.079  1.00  0.00     0.074 A 
ATOM     41  C   UNL A   1      40.273  27.635  28.985  1.00  0.00     0.049 A 
ATOM     42  N   UNL A   1      42.025  29.613  30.425  1.00  0.00    -0.248 NA
ATOM     43  C   UNL A   1      40.241  31.118  30.434  1.00  0.00     0.031 C 
ATOM     44  C   UNL A   1      39.482  26.651  28.241  1.00  0.00     0.029 A 
ATOM     45  N   UNL A   1      41.483  27.014  29.170  1.00  0.00    -0.354 N 
ATOM     46  C   UNL A   1      42.432  30.805  31.011  1.00  0.00     0.074 A 
ATOM     47  C   UNL A   1      41.311  31.717  30.938  1.00  0.00     0.031 C 
ATOM     48  C   UNL A   1      40.219  25.545  28.054  1.00  0.00     0.029 A 
ATOM     49  C   UNL A   1      41.544  25.751  28.630  1.00  0.00     0.049 A 
ATOM     50  H   UNL A   1      42.236  27.435  29.643  1.00  0.00     0.167 HD
ATOM     51  C   UNL A   1      43.624  31.110  31.577  1.00  0.00     0.031 A 
ATOM     52  C   UNL A   1      42.553  24.860  28.601  1.00  0.00     0.031 A 
ATOM     53  C   UNL A   1      44.731  30.195  31.666  1.00  0.00     0.049 A 
ATOM     54  C   UNL A   1      43.861  25.210  29.253  1.00  0.00     0.074 A 
ATOM     55  C   UNL A   1      45.959  30.386  32.274  1.00  0.00     0.029 A 
ATOM     56  N   UNL A   1      44.741  28.914  31.135  1.00  0.00    -0.354 N 
ATOM     57  N   UNL A   1      44.206  26.322  29.858  1.00  0.00    -0.248 NA
ATOM     58  C   UNL A   1      44.910  24.182  29.230  1.00  0.00     0.031 C 
ATOM     59  C   UNL A   1      46.728  29.233  32.076  1.00  0.00     0.029 A 
ATOM     60  C   UNL A   1      45.959  28.308  31.385  1.00  0.00     0.049 A 
ATOM     61  H   UNL A   1      43.992  28.498  30.650  1.00  0.00     0.167 HD
ATOM     62  C   UNL A   1      45.505  26.119  30.307  1.00  0.00     0.074 A 
ATOM     63  C   UNL A   1      45.880  24.775  29.916  1.00  0.00     0.031 C 
ATOM     64  C   UNL A   1      46.315  26.970  30.986  1.00  0.00     0.031 A 
BRANCH  51  65
ATOM     65  C   UNL A   1      43.790  32.500  32.135  1.00  0.00    -0.014 A 
ATOM     66  C   UNL A   1      44.261  33.553  31.330  1.00  0.00     0.010 A 
ATOM     67  C   UNL A   1      43.458  32.759  33.476  1.00  0.00     0.010 A 
ATOM     68  C   UNL A   1      44.449  34.828  31.870  1.00  0.00     0.020 A 
ATOM     69  C   UNL A   1      43.618  34.040  34.014  1.00  0.00     0.020 A 
ATOM     70  C   UNL A   1      44.135  35.061  33.212  1.00  0.00     0.054 A 
BRANCH  70  71
ATOM     71  S   UNL A   1      44.388  36.723  33.891  1.00  0.00     0.124 S 
ATOM     72  O   UNL A   1      44.606  36.439  35.308  1.00  0.00    -0.237 OA
ATOM     73  O   UNL A   1      45.558  37.198  33.158  1.00  0.00    -0.237 OA
ATOM     74  O   UNL A   1      43.141  37.417  33.581  1.00  0.00    -0.744 OA
ENDBRANCH  70  71
ENDBRANCH  51  65
BRANCH  52  75
ATOM     75  C   UNL A   1      42.348  23.538  27.952  1.00  0.00    -0.014 A 
ATOM     76  C   UNL A   1      42.745  23.331  26.620  1.00  0.00     0.010 A 
ATOM     77  C   UNL A   1      41.792  22.467  28.675  1.00  0.00     0.010 A 
ATOM     78  C   UNL A   1      42.584  22.080  26.018  1.00  0.00     0.020 A 
ATOM     79  C   UNL A   1      41.651  21.208  28.085  1.00  0.00     0.020 A 
ATOM     80  C   UNL A   1      42.041  21.023  26.757  1.00  0.00     0.054 A 
BRANCH  80  81
ATOM     81  S   UNL A   1      41.913  19.387  25.983  1.00  0.00     0.124 S 
ATOM     82  O   UNL A   1      42.417  18.513  27.037  1.00  0.00    -0.237 OA
ATOM     83  O   UNL A   1      40.483  19.281  25.702  1.00  0.00    -0.237 OA
ATOM     84  O   UNL A   1      42.764  19.503  24.800  1.00  0.00    -0.744 OA
ENDBRANCH  80  81
ENDBRANCH  52  75
BRANCH  64  85
ATOM     85  C   UNL A   1      47.677  26.463  31.372  1.00  0.00    -0.014 A 
ATOM     86  C   UNL A   1      47.882  25.776  32.580  1.00  0.00     0.010 A 
ATOM     87  C   UNL A   1      48.755  26.629  30.483  1.00  0.00     0.010 A 
ATOM     88  C   UNL A   1      49.149  25.286  32.907  1.00  0.00     0.020 A 
ATOM     89  C   UNL A   1      50.018  26.120  30.796  1.00  0.00     0.020 A 
ATOM     90  C   UNL A   1      50.210  25.464  32.013  1.00  0.00     0.054 A 
BRANCH  90  91
ATOM     91  S   UNL A   1      51.835  24.778  32.437  1.00  0.00     0.124 S 
ATOM     92  O   UNL A   1      52.708  25.455  31.482  1.00  0.00    -0.237 OA
ATOM     93  O   UNL A   1      52.000  25.178  33.833  1.00  0.00    -0.237 OA
ATOM     94  O   UNL A   1      51.670  23.342  32.223  1.00  0.00    -0.744 OA
ENDBRANCH  90  91
ENDBRANCH  64  85
ENDBRANCH  38  39
ENDBRANCH  30  33
ENDBRANCH  28  29
ENDBRANCH   1  28
TORSDOF 18
ENDMDL
MODEL 3
REMARK VINA RESULT:     -10.7      2.527      3.545
REMARK SMILES CC[C@H](C(=O)NCCCNC(=O)c1ccc(-c2c3nc(c(-c4ccc(S(=O)(=O)[O-])cc4)c4ccc([nH]4)c(-c4ccc(S(=O)(=O)[O-])cc4)c4nc(c(-c5ccc(S(=O)(=O)[O-])cc5)c5ccc2[nH]5)C=C4)C=C3)cc1)N1C(=O)/C(=C\c2cc(OC)ccc2OC)SC1=S
REMARK SMILES IDX 8 1 7 2 6 3 4 4 5 5 3 7 2 8 1 9 73 10 74 11 89 12 75 13
REMARK SMILES IDX 76 14 88 15 90 16 77 17 78 18 79 19 85 20 80 21 84 22 83 23
REMARK SMILES IDX 86 24 87 25 81 26 82 27 9 28 10 29 11 30 12 32 13 33 14 34
REMARK SMILES IDX 72 35 15 36 71 37 16 38 17 39 18 40 65 41 19 42 70 43 64 44
REMARK SMILES IDX 66 45 20 46 69 47 63 48 62 49 21 51 51 52 32 53 50 54 33 55
REMARK SMILES IDX 36 56 49 57 67 58 34 59 35 60 48 62 68 63 37 64 22 65 23 66
REMARK SMILES IDX 31 67 24 68 30 69 25 70 26 71 27 72 28 73 29 74 52 75 53 76
REMARK SMILES IDX 61 77 54 78 60 79 55 80 56 81 57 82 58 83 59 84 38 85 39 86
REMARK SMILES IDX 47 87 40 88 46 89 41 90 42 91 43 92 44 93 45 94
REMARK H PARENT 6 6 10 31 66 50 36 61
REMARK Flexibility Score: inf
ROOT
ATOM      1  C   UNL A   1      33.268  27.765  25.561  1.00  0.00     0.042 C 
ENDROOT
BRANCH   1   2
ATOM      2  C   UNL A   1      33.566  27.291  24.142  1.00  0.00     0.117 C 
BRANCH   2   3
ATOM      3  N   UNL A   1      32.465  27.589  23.244  1.00  0.00    -0.354 N 
ATOM      4  C   UNL A   1      31.607  26.775  22.568  1.00  0.00     0.243 C 
ATOM      5  O   UNL A   1      30.834  27.313  21.769  1.00  0.00    -0.273 OA
ATOM      6  H   UNL A   1      32.312  28.551  23.098  1.00  0.00     0.163 HD
BRANCH   4   7
ATOM      7  C   UNL A   1      31.641  25.240  22.695  1.00  0.00     0.181 C 
BRANCH   7   8
ATOM      8  C   UNL A   1      32.967  24.762  22.018  1.00  0.00     0.032 C 
ATOM      9  C   UNL A   1      32.977  24.938  20.504  1.00  0.00     0.006 C 
ENDBRANCH   7   8
BRANCH   7  10
ATOM     10  N   UNL A   1      31.465  24.703  24.076  1.00  0.00    -0.280 N 
ATOM     11  C   UNL A   1      31.951  23.427  24.315  1.00  0.00     0.266 C 
ATOM     12  C   UNL A   1      30.485  25.053  24.991  1.00  0.00     0.149 C 
ATOM     13  O   UNL A   1      32.260  22.603  23.464  1.00  0.00    -0.268 OA
ATOM     14  C   UNL A   1      31.843  23.088  25.753  1.00  0.00     0.081 C 
ATOM     15  S   UNL A   1      30.659  24.091  26.469  1.00  0.00    -0.054 SA
ATOM     16  S   UNL A   1      29.256  26.177  24.899  1.00  0.00    -0.052 S 
ATOM     17  C   UNL A   1      32.582  22.191  26.416  1.00  0.00     0.033 C 
BRANCH  17  18
ATOM     18  C   UNL A   1      33.684  21.440  25.802  1.00  0.00     0.021 A 
ATOM     19  C   UNL A   1      34.956  22.037  25.844  1.00  0.00     0.058 A 
ATOM     20  C   UNL A   1      33.553  20.149  25.262  1.00  0.00     0.126 A 
ATOM     21  C   UNL A   1      36.093  21.363  25.387  1.00  0.00     0.119 A 
ATOM     22  C   UNL A   1      34.696  19.475  24.817  1.00  0.00     0.051 A 
ATOM     23  C   UNL A   1      35.958  20.075  24.875  1.00  0.00     0.050 A 
BRANCH  20  24
ATOM     24  O   UNL A   1      32.410  19.395  25.213  1.00  0.00    -0.496 OA
ATOM     25  C   UNL A   1      32.557  17.987  25.353  1.00  0.00     0.278 C 
ENDBRANCH  20  24
BRANCH  21  26
ATOM     26  O   UNL A   1      37.262  22.061  25.516  1.00  0.00    -0.497 OA
ATOM     27  C   UNL A   1      37.162  23.479  25.536  1.00  0.00     0.278 C 
ENDBRANCH  21  26
ENDBRANCH  17  18
ENDBRANCH   7  10
ENDBRANCH   4   7
ENDBRANCH   2   3
ENDBRANCH   1   2
BRANCH   1  28
ATOM     28  C   UNL A   1      34.392  28.589  26.183  1.00  0.00     0.118 C 
BRANCH  28  29
ATOM     29  N   UNL A   1      33.954  29.924  26.565  1.00  0.00    -0.352 N 
ATOM     30  C   UNL A   1      34.444  30.752  27.544  1.00  0.00     0.251 C 
ATOM     31  H   UNL A   1      33.197  30.283  26.047  1.00  0.00     0.163 HD
ATOM     32  O   UNL A   1      33.815  31.759  27.859  1.00  0.00    -0.269 OA
BRANCH  30  33
ATOM     33  C   UNL A   1      35.716  30.427  28.224  1.00  0.00     0.039 A 
ATOM     34  C   UNL A   1      35.683  29.650  29.385  1.00  0.00     0.014 A 
ATOM     35  C   UNL A   1      36.934  30.902  27.731  1.00  0.00     0.014 A 
ATOM     36  C   UNL A   1      36.878  29.306  30.023  1.00  0.00     0.010 A 
ATOM     37  C   UNL A   1      38.127  30.503  28.328  1.00  0.00     0.010 A 
ATOM     38  C   UNL A   1      38.111  29.708  29.484  1.00  0.00    -0.014 A 
BRANCH  38  39
ATOM     39  C   UNL A   1      39.395  29.315  30.118  1.00  0.00     0.031 A 
ATOM     40  C   UNL A   1      39.917  30.084  31.302  1.00  0.00     0.074 A 
ATOM     41  C   UNL A   1      40.122  28.314  29.586  1.00  0.00     0.049 A 
ATOM     42  N   UNL A   1      41.045  29.938  31.947  1.00  0.00    -0.248 NA
ATOM     43  C   UNL A   1      39.072  31.176  31.809  1.00  0.00     0.031 C 
ATOM     44  C   UNL A   1      39.747  27.524  28.412  1.00  0.00     0.029 A 
ATOM     45  N   UNL A   1      41.338  27.796  29.959  1.00  0.00    -0.354 N 
ATOM     46  C   UNL A   1      41.059  30.933  32.916  1.00  0.00     0.074 A 
ATOM     47  C   UNL A   1      39.845  31.703  32.748  1.00  0.00     0.031 C 
ATOM     48  C   UNL A   1      40.700  26.609  28.175  1.00  0.00     0.029 A 
ATOM     49  C   UNL A   1      41.769  26.768  29.155  1.00  0.00     0.049 A 
ATOM     50  H   UNL A   1      41.852  28.131  30.729  1.00  0.00     0.167 HD
ATOM     51  C   UNL A   1      41.987  31.176  33.872  1.00  0.00     0.031 A 
ATOM     52  C   UNL A   1      42.899  26.037  29.200  1.00  0.00     0.031 A 
ATOM     53  C   UNL A   1      43.183  30.397  34.049  1.00  0.00     0.049 A 
ATOM     54  C   UNL A   1      43.906  26.308  30.282  1.00  0.00     0.074 A 
ATOM     55  C   UNL A   1      44.156  30.523  35.025  1.00  0.00     0.029 A 
ATOM     56  N   UNL A   1      43.568  29.344  33.233  1.00  0.00    -0.354 N 
ATOM     57  N   UNL A   1      43.871  27.216  31.229  1.00  0.00    -0.248 NA
ATOM     58  C   UNL A   1      45.099  25.450  30.310  1.00  0.00     0.031 C 
ATOM     59  C   UNL A   1      45.150  29.569  34.776  1.00  0.00     0.029 A 
ATOM     60  C   UNL A   1      44.771  28.820  33.672  1.00  0.00     0.049 A 
ATOM     61  H   UNL A   1      43.060  29.017  32.455  1.00  0.00     0.167 HD
ATOM     62  C   UNL A   1      45.025  27.024  31.979  1.00  0.00     0.074 A 
ATOM     63  C   UNL A   1      45.731  25.906  31.384  1.00  0.00     0.031 C 
ATOM     64  C   UNL A   1      45.460  27.709  33.065  1.00  0.00     0.031 A 
BRANCH  51  65
ATOM     65  C   UNL A   1      41.742  32.342  34.793  1.00  0.00    -0.014 A 
ATOM     66  C   UNL A   1      40.975  32.192  35.964  1.00  0.00     0.010 A 
ATOM     67  C   UNL A   1      42.295  33.599  34.494  1.00  0.00     0.010 A 
ATOM     68  C   UNL A   1      40.720  33.291  36.789  1.00  0.00     0.020 A 
ATOM     69  C   UNL A   1      42.065  34.696  35.331  1.00  0.00     0.020 A 
ATOM     70  C   UNL A   1      41.259  34.539  36.462  1.00  0.00     0.054 A 
BRANCH  70  71
ATOM     71  S   UNL A   1      40.915  35.949  37.548  1.00  0.00     0.124 S 
ATOM     72  O   UNL A   1      40.602  35.285  38.812  1.00  0.00    -0.237 OA
ATOM     73  O   UNL A   1      42.173  36.691  37.523  1.00  0.00    -0.237 OA
ATOM     74  O   UNL A   1      39.790  36.619  36.901  1.00  0.00    -0.744 OA
ENDBRANCH  70  71
ENDBRANCH  51  65
BRANCH  52  75
ATOM     75  C   UNL A   1      43.118  24.958  28.201  1.00  0.00    -0.014 A 
ATOM     76  C   UNL A   1      43.772  25.235  26.988  1.00  0.00     0.010 A 
ATOM     77  C   UNL A   1      42.709  23.640  28.474  1.00  0.00     0.010 A 
ATOM     78  C   UNL A   1      44.008  24.215  26.061  1.00  0.00     0.020 A 
ATOM     79  C   UNL A   1      42.964  22.613  27.560  1.00  0.00     0.020 A 
ATOM     80  C   UNL A   1      43.606  22.908  26.355  1.00  0.00     0.054 A 
BRANCH  80  81
ATOM     81  S   UNL A   1      43.992  21.586  25.174  1.00  0.00     0.124 S 
ATOM     82  O   UNL A   1      42.944  20.611  25.458  1.00  0.00    -0.237 OA
ATOM     83  O   UNL A   1      43.888  22.270  23.887  1.00  0.00    -0.237 OA
ATOM     84  O   UNL A   1      45.345  21.181  25.547  1.00  0.00    -0.744 OA
ENDBRANCH  80  81
ENDBRANCH  52  75
BRANCH  64  85
ATOM     85  C   UNL A   1      46.747  27.255  33.697  1.00  0.00    -0.014 A 
ATOM     86  C   UNL A   1      47.980  27.812  33.317  1.00  0.00     0.010 A 
ATOM     87  C   UNL A   1      46.712  26.297  34.727  1.00  0.00     0.010 A 
ATOM     88  C   UNL A   1      49.161  27.399  33.937  1.00  0.00     0.020 A 
ATOM     89  C   UNL A   1      47.889  25.898  35.365  1.00  0.00     0.020 A 
ATOM     90  C   UNL A   1      49.108  26.442  34.956  1.00  0.00     0.054 A 
BRANCH  90  91
ATOM     91  S   UNL A   1      50.650  25.955  35.780  1.00  0.00     0.124 S 
ATOM     92  O   UNL A   1      50.681  26.860  36.925  1.00  0.00    -0.237 OA
ATOM     93  O   UNL A   1      50.416  24.548  36.096  1.00  0.00    -0.237 OA
ATOM     94  O   UNL A   1      51.673  26.196  34.765  1.00  0.00    -0.744 OA
ENDBRANCH  90  91
ENDBRANCH  64  85
ENDBRANCH  38  39
ENDBRANCH  30  33
ENDBRANCH  28  29
ENDBRANCH   1  28
TORSDOF 18
ENDMDL
