MODEL 1
REMARK VINA RESULT:     -12.4      0.000      0.000
REMARK SMILES O=C(NCCCNC(=O)c1cnccc1C(=O)N1CCC(Cc2ccccc2)CC1)c1ccc(-c2c3nc(c(-c4ccc(S(=O)(=O)[O-])cc4)c4ccc([nH]4)c(-c4ccc(S(=O)(=O)[O-])cc4)c4nc(c(-c5ccc(S(=O)(=O)[O-])cc5)c5ccc2[nH]5)C=C4)C=C3)cc1
REMARK SMILES IDX 5 1 4 2 3 3 1 4 2 5 31 7 32 8 90 9 33 10 89 11 34 12 35 13
REMARK SMILES IDX 36 14 83 15 37 16 88 17 82 18 84 19 38 20 87 21 81 22 80 23
REMARK SMILES IDX 39 25 69 26 50 27 68 28 51 29 54 30 67 31 85 32 52 33 53 34
REMARK SMILES IDX 66 36 86 37 55 38 40 39 41 40 49 41 42 42 48 43 43 44 44 45
REMARK SMILES IDX 45 46 46 47 47 48 70 49 71 50 79 51 72 52 78 53 73 54 74 55
REMARK SMILES IDX 75 56 76 57 77 58 56 59 57 60 65 61 58 62 64 63 59 64 60 65
REMARK SMILES IDX 61 66 62 67 63 68 6 69 7 70 8 71 9 73 10 74 11 75 15 76
REMARK SMILES IDX 12 77 14 78 13 79 16 80 17 81 18 82 19 83 30 84 20 85 29 86
REMARK SMILES IDX 21 87 22 88 23 89 24 90 28 91 25 92 27 93 26 94
REMARK H PARENT 3 6 84 24 54 35 7 72
REMARK Flexibility Score: inf
ROOT
ATOM      1  C   UNL A   1      33.822  30.602  27.274  1.00  0.00     0.042 C 
ENDROOT
BRANCH   1   2
ATOM      2  C   UNL A   1      35.002  30.011  28.031  1.00  0.00     0.118 C 
BRANCH   2   3
ATOM      3  N   UNL A   1      35.282  30.638  29.319  1.00  0.00    -0.352 N 
ATOM      4  O   UNL A   1      36.476  31.232  31.145  1.00  0.00    -0.269 OA
ATOM      5  C   UNL A   1      36.452  30.687  30.046  1.00  0.00     0.251 C 
ATOM      6  H   UNL A   1      34.516  31.097  29.733  1.00  0.00     0.163 HD
BRANCH   5   7
ATOM      7  C   UNL A   1      37.659  30.022  29.515  1.00  0.00     0.039 A 
ATOM      8  C   UNL A   1      38.602  29.496  30.391  1.00  0.00     0.014 A 
ATOM      9  C   UNL A   1      37.902  30.024  28.139  1.00  0.00     0.014 A 
ATOM     10  C   UNL A   1      39.882  29.244  29.929  1.00  0.00     0.010 A 
ATOM     11  C   UNL A   1      39.150  29.615  27.657  1.00  0.00     0.010 A 
ATOM     12  C   UNL A   1      40.176  29.287  28.554  1.00  0.00    -0.014 A 
BRANCH  12  13
ATOM     13  C   UNL A   1      41.562  28.964  28.119  1.00  0.00     0.031 A 
ATOM     14  C   UNL A   1      42.680  29.971  28.209  1.00  0.00     0.074 A 
ATOM     15  C   UNL A   1      41.826  27.696  27.740  1.00  0.00     0.049 A 
ATOM     16  N   UNL A   1      43.953  29.805  27.948  1.00  0.00    -0.248 NA
ATOM     17  C   UNL A   1      42.335  31.339  28.631  1.00  0.00     0.031 C 
ATOM     18  C   UNL A   1      40.823  26.633  27.600  1.00  0.00     0.029 A 
ATOM     19  N   UNL A   1      43.011  27.065  27.466  1.00  0.00    -0.354 N 
ATOM     20  C   UNL A   1      44.552  31.046  28.138  1.00  0.00     0.074 A 
ATOM     21  C   UNL A   1      43.501  31.963  28.525  1.00  0.00     0.031 C 
ATOM     22  C   UNL A   1      41.443  25.467  27.375  1.00  0.00     0.029 A 
ATOM     23  C   UNL A   1      42.874  25.712  27.263  1.00  0.00     0.049 A 
ATOM     24  H   UNL A   1      43.876  27.534  27.419  1.00  0.00     0.167 HD
ATOM     25  C   UNL A   1      45.857  31.390  28.002  1.00  0.00     0.031 A 
ATOM     26  C   UNL A   1      43.793  24.764  27.002  1.00  0.00     0.031 A 
ATOM     27  C   UNL A   1      46.902  30.468  27.635  1.00  0.00     0.049 A 
ATOM     28  C   UNL A   1      45.232  25.165  26.895  1.00  0.00     0.074 A 
ATOM     29  C   UNL A   1      48.253  30.720  27.461  1.00  0.00     0.029 A 
ATOM     30  N   UNL A   1      46.717  29.113  27.402  1.00  0.00    -0.354 N 
ATOM     31  N   UNL A   1      45.765  26.352  27.051  1.00  0.00    -0.248 NA
ATOM     32  C   UNL A   1      46.189  24.102  26.563  1.00  0.00     0.031 C 
ATOM     33  C   UNL A   1      48.878  29.522  27.093  1.00  0.00     0.029 A 
ATOM     34  C   UNL A   1      47.925  28.517  27.081  1.00  0.00     0.049 A 
ATOM     35  H   UNL A   1      45.853  28.644  27.456  1.00  0.00     0.167 HD
ATOM     36  C   UNL A   1      47.124  26.184  26.821  1.00  0.00     0.074 A 
ATOM     37  C   UNL A   1      47.333  24.772  26.560  1.00  0.00     0.031 C 
ATOM     38  C   UNL A   1      48.106  27.116  26.805  1.00  0.00     0.031 A 
BRANCH  25  39
ATOM     39  C   UNL A   1      46.232  32.830  28.231  1.00  0.00    -0.014 A 
ATOM     40  C   UNL A   1      46.633  33.287  29.500  1.00  0.00     0.010 A 
ATOM     41  C   UNL A   1      46.240  33.730  27.148  1.00  0.00     0.010 A 
ATOM     42  C   UNL A   1      47.009  34.621  29.686  1.00  0.00     0.020 A 
ATOM     43  C   UNL A   1      46.635  35.060  27.326  1.00  0.00     0.020 A 
ATOM     44  C   UNL A   1      47.005  35.500  28.599  1.00  0.00     0.054 A 
BRANCH  44  45
ATOM     45  S   UNL A   1      47.530  37.218  28.861  1.00  0.00     0.124 S 
ATOM     46  O   UNL A   1      47.914  37.202  30.270  1.00  0.00    -0.237 OA
ATOM     47  O   UNL A   1      48.631  37.368  27.913  1.00  0.00    -0.237 OA
ATOM     48  O   UNL A   1      46.335  37.997  28.550  1.00  0.00    -0.744 OA
ENDBRANCH  44  45
ENDBRANCH  25  39
BRANCH  26  49
ATOM     49  C   UNL A   1      43.357  23.358  26.793  1.00  0.00    -0.014 A 
ATOM     50  C   UNL A   1      43.137  22.856  25.499  1.00  0.00     0.010 A 
ATOM     51  C   UNL A   1      43.207  22.500  27.898  1.00  0.00     0.010 A 
ATOM     52  C   UNL A   1      42.765  21.520  25.316  1.00  0.00     0.020 A 
ATOM     53  C   UNL A   1      42.867  21.159  27.716  1.00  0.00     0.020 A 
ATOM     54  C   UNL A   1      42.635  20.679  26.427  1.00  0.00     0.054 A 
BRANCH  54  55
ATOM     55  S   UNL A   1      42.224  18.932  26.173  1.00  0.00     0.124 S 
ATOM     56  O   UNL A   1      42.367  18.390  27.520  1.00  0.00    -0.237 OA
ATOM     57  O   UNL A   1      40.858  18.994  25.656  1.00  0.00    -0.237 OA
ATOM     58  O   UNL A   1      43.225  18.487  25.206  1.00  0.00    -0.744 OA
ENDBRANCH  54  55
ENDBRANCH  26  49
BRANCH  38  59
ATOM     59  C   UNL A   1      49.491  26.625  26.489  1.00  0.00    -0.014 A 
ATOM     60  C   UNL A   1      50.027  26.772  25.198  1.00  0.00     0.010 A 
ATOM     61  C   UNL A   1      50.260  26.008  27.491  1.00  0.00     0.010 A 
ATOM     62  C   UNL A   1      51.293  26.266  24.900  1.00  0.00     0.020 A 
ATOM     63  C   UNL A   1      51.536  25.521  27.200  1.00  0.00     0.020 A 
ATOM     64  C   UNL A   1      52.035  25.634  25.901  1.00  0.00     0.054 A 
BRANCH  64  65
ATOM     65  S   UNL A   1      53.679  24.984  25.495  1.00  0.00     0.124 S 
ATOM     66  O   UNL A   1      54.461  25.398  26.657  1.00  0.00    -0.237 OA
ATOM     67  O   UNL A   1      53.441  23.547  25.377  1.00  0.00    -0.237 OA
ATOM     68  O   UNL A   1      54.015  25.658  24.243  1.00  0.00    -0.744 OA
ENDBRANCH  64  65
ENDBRANCH  38  59
ENDBRANCH  12  13
ENDBRANCH   5   7
ENDBRANCH   2   3
ENDBRANCH   1   2
BRANCH   1  69
ATOM     69  C   UNL A   1      32.994  29.590  26.510  1.00  0.00     0.118 C 
BRANCH  69  70
ATOM     70  N   UNL A   1      33.789  28.747  25.628  1.00  0.00    -0.352 N 
ATOM     71  C   UNL A   1      33.377  27.985  24.570  1.00  0.00     0.253 C 
ATOM     72  H   UNL A   1      34.754  28.724  25.820  1.00  0.00     0.163 HD
ATOM     73  O   UNL A   1      34.175  27.304  23.941  1.00  0.00    -0.269 OA
BRANCH  71  74
ATOM     74  C   UNL A   1      31.965  27.934  24.204  1.00  0.00     0.070 A 
ATOM     75  C   UNL A   1      31.591  28.770  23.158  1.00  0.00     0.125 A 
ATOM     76  C   UNL A   1      31.003  27.095  24.765  1.00  0.00     0.055 A 
ATOM     77  N   UNL A   1      30.358  28.778  22.600  1.00  0.00    -0.264 NA
ATOM     78  C   UNL A   1      29.728  27.071  24.180  1.00  0.00     0.035 A 
ATOM     79  C   UNL A   1      29.461  27.910  23.110  1.00  0.00     0.112 A 
BRANCH  76  80
ATOM     80  C   UNL A   1      31.287  26.038  25.765  1.00  0.00     0.254 C 
ATOM     81  O   UNL A   1      31.104  26.366  26.940  1.00  0.00    -0.269 OA
ATOM     82  N   UNL A   1      31.641  24.736  25.417  1.00  0.00    -0.339 N 
ATOM     83  C   UNL A   1      31.242  23.675  26.338  1.00  0.00     0.120 C 
ATOM     84  C   UNL A   1      32.239  24.295  24.155  1.00  0.00     0.120 C 
ATOM     85  C   UNL A   1      32.337  22.656  26.587  1.00  0.00     0.025 C 
ATOM     86  C   UNL A   1      33.338  23.244  24.379  1.00  0.00     0.025 C 
ATOM     87  C   UNL A   1      32.831  22.079  25.254  1.00  0.00    -0.003 C 
BRANCH  87  88
ATOM     88  C   UNL A   1      33.912  21.004  25.466  1.00  0.00     0.039 C 
BRANCH  88  89
ATOM     89  C   UNL A   1      33.689  19.768  24.619  1.00  0.00    -0.048 A 
ATOM     90  C   UNL A   1      34.618  18.718  24.638  1.00  0.00     0.004 A 
ATOM     91  C   UNL A   1      32.529  19.628  23.846  1.00  0.00     0.004 A 
ATOM     92  C   UNL A   1      34.385  17.549  23.908  1.00  0.00     0.000 A 
ATOM     93  C   UNL A   1      32.297  18.460  23.117  1.00  0.00     0.000 A 
ATOM     94  C   UNL A   1      33.224  17.419  23.150  1.00  0.00     0.000 A 
ENDBRANCH  88  89
ENDBRANCH  87  88
ENDBRANCH  76  80
ENDBRANCH  71  74
ENDBRANCH  69  70
ENDBRANCH   1  69
TORSDOF 16
ENDMDL
MODEL 2
REMARK VINA RESULT:     -12.2      0.582      8.075
REMARK SMILES O=C(NCCCNC(=O)c1cnccc1C(=O)N1CCC(Cc2ccccc2)CC1)c1ccc(-c2c3nc(c(-c4ccc(S(=O)(=O)[O-])cc4)c4ccc([nH]4)c(-c4ccc(S(=O)(=O)[O-])cc4)c4nc(c(-c5ccc(S(=O)(=O)[O-])cc5)c5ccc2[nH]5)C=C4)C=C3)cc1
REMARK SMILES IDX 5 1 4 2 3 3 1 4 2 5 31 7 32 8 90 9 33 10 89 11 34 12 35 13
REMARK SMILES IDX 36 14 83 15 37 16 88 17 82 18 84 19 38 20 87 21 81 22 80 23
REMARK SMILES IDX 39 25 69 26 50 27 68 28 51 29 54 30 67 31 85 32 52 33 53 34
REMARK SMILES IDX 66 36 86 37 55 38 40 39 41 40 49 41 42 42 48 43 43 44 44 45
REMARK SMILES IDX 45 46 46 47 47 48 70 49 71 50 79 51 72 52 78 53 73 54 74 55
REMARK SMILES IDX 75 56 76 57 77 58 56 59 57 60 65 61 58 62 64 63 59 64 60 65
REMARK SMILES IDX 61 66 62 67 63 68 6 69 7 70 8 71 9 73 10 74 11 75 15 76
REMARK SMILES IDX 12 77 14 78 13 79 16 80 17 81 18 82 19 83 30 84 20 85 29 86
REMARK SMILES IDX 21 87 22 88 23 89 24 90 28 91 25 92 27 93 26 94
REMARK H PARENT 3 6 84 24 54 35 7 72
REMARK Flexibility Score: inf
ROOT
ATOM      1  C   UNL A   1      33.791  30.203  26.997  1.00  0.00     0.042 C 
ENDROOT
BRANCH   1   2
ATOM      2  C   UNL A   1      35.116  29.885  27.672  1.00  0.00     0.118 C 
BRANCH   2   3
ATOM      3  N   UNL A   1      35.251  30.396  29.032  1.00  0.00    -0.352 N 
ATOM      4  O   UNL A   1      36.225  30.797  31.033  1.00  0.00    -0.269 OA
ATOM      5  C   UNL A   1      36.323  30.342  29.897  1.00  0.00     0.251 C 
ATOM      6  H   UNL A   1      34.453  30.849  29.387  1.00  0.00     0.163 HD
BRANCH   5   7
ATOM      7  C   UNL A   1      37.568  29.678  29.463  1.00  0.00     0.039 A 
ATOM      8  C   UNL A   1      38.346  28.992  30.388  1.00  0.00     0.014 A 
ATOM      9  C   UNL A   1      38.015  29.836  28.149  1.00  0.00     0.014 A 
ATOM     10  C   UNL A   1      39.670  28.722  30.086  1.00  0.00     0.010 A 
ATOM     11  C   UNL A   1      39.303  29.416  27.801  1.00  0.00     0.010 A 
ATOM     12  C   UNL A   1      40.169  28.918  28.785  1.00  0.00    -0.014 A 
BRANCH  12  13
ATOM     13  C   UNL A   1      41.590  28.569  28.516  1.00  0.00     0.031 A 
ATOM     14  C   UNL A   1      41.996  27.198  28.037  1.00  0.00     0.074 A 
ATOM     15  C   UNL A   1      42.510  29.552  28.605  1.00  0.00     0.049 A 
ATOM     16  N   UNL A   1      43.184  26.775  27.680  1.00  0.00    -0.248 NA
ATOM     17  C   UNL A   1      40.950  26.165  27.957  1.00  0.00     0.031 C 
ATOM     18  C   UNL A   1      42.241  30.917  29.071  1.00  0.00     0.029 A 
ATOM     19  N   UNL A   1      43.834  29.582  28.252  1.00  0.00    -0.354 N 
ATOM     20  C   UNL A   1      43.037  25.427  27.370  1.00  0.00     0.074 A 
ATOM     21  C   UNL A   1      41.646  25.096  27.591  1.00  0.00     0.031 C 
ATOM     22  C   UNL A   1      43.328  31.674  28.873  1.00  0.00     0.029 A 
ATOM     23  C   UNL A   1      44.398  30.832  28.356  1.00  0.00     0.049 A 
ATOM     24  H   UNL A   1      44.333  28.787  27.954  1.00  0.00     0.167 HD
ATOM     25  C   UNL A   1      43.975  24.547  26.940  1.00  0.00     0.031 A 
ATOM     26  C   UNL A   1      45.642  31.262  28.078  1.00  0.00     0.031 A 
ATOM     27  C   UNL A   1      45.355  24.888  26.703  1.00  0.00     0.049 A 
ATOM     28  C   UNL A   1      46.648  30.276  27.569  1.00  0.00     0.074 A 
ATOM     29  C   UNL A   1      46.386  24.066  26.278  1.00  0.00     0.029 A 
ATOM     30  N   UNL A   1      45.895  26.157  26.855  1.00  0.00    -0.354 N 
ATOM     31  N   UNL A   1      46.488  29.001  27.312  1.00  0.00    -0.248 NA
ATOM     32  C   UNL A   1      48.004  30.785  27.326  1.00  0.00     0.031 C 
ATOM     33  C   UNL A   1      47.555  24.833  26.202  1.00  0.00     0.029 A 
ATOM     34  C   UNL A   1      47.242  26.140  26.537  1.00  0.00     0.049 A 
ATOM     35  H   UNL A   1      45.393  26.952  27.147  1.00  0.00     0.167 HD
ATOM     36  C   UNL A   1      47.730  28.547  26.890  1.00  0.00     0.074 A 
ATOM     37  C   UNL A   1      48.616  29.696  26.884  1.00  0.00     0.031 C 
ATOM     38  C   UNL A   1      48.109  27.289  26.558  1.00  0.00     0.031 A 
BRANCH  25  39
ATOM     39  C   UNL A   1      43.549  23.120  26.715  1.00  0.00    -0.014 A 
ATOM     40  C   UNL A   1      43.813  22.463  25.500  1.00  0.00     0.010 A 
ATOM     41  C   UNL A   1      42.927  22.405  27.757  1.00  0.00     0.010 A 
ATOM     42  C   UNL A   1      43.439  21.127  25.321  1.00  0.00     0.020 A 
ATOM     43  C   UNL A   1      42.572  21.063  27.589  1.00  0.00     0.020 A 
ATOM     44  C   UNL A   1      42.818  20.436  26.366  1.00  0.00     0.054 A 
BRANCH  44  45
ATOM     45  S   UNL A   1      42.374  18.693  26.120  1.00  0.00     0.124 S 
ATOM     46  O   UNL A   1      42.651  18.124  27.437  1.00  0.00    -0.237 OA
ATOM     47  O   UNL A   1      40.963  18.768  25.753  1.00  0.00    -0.237 OA
ATOM     48  O   UNL A   1      43.269  18.255  25.052  1.00  0.00    -0.744 OA
ENDBRANCH  44  45
ENDBRANCH  25  39
BRANCH  26  49
ATOM     49  C   UNL A   1      45.996  32.686  28.317  1.00  0.00    -0.014 A 
ATOM     50  C   UNL A   1      46.531  33.100  29.548  1.00  0.00     0.010 A 
ATOM     51  C   UNL A   1      45.840  33.628  27.284  1.00  0.00     0.010 A 
ATOM     52  C   UNL A   1      46.896  34.436  29.744  1.00  0.00     0.020 A 
ATOM     53  C   UNL A   1      46.232  34.955  27.465  1.00  0.00     0.020 A 
ATOM     54  C   UNL A   1      46.746  35.354  28.699  1.00  0.00     0.054 A 
BRANCH  54  55
ATOM     55  S   UNL A   1      47.290  37.067  28.939  1.00  0.00     0.124 S 
ATOM     56  O   UNL A   1      46.765  37.367  30.266  1.00  0.00    -0.237 OA
ATOM     57  O   UNL A   1      48.744  36.961  28.842  1.00  0.00    -0.237 OA
ATOM     58  O   UNL A   1      46.653  37.780  27.834  1.00  0.00    -0.744 OA
ENDBRANCH  54  55
ENDBRANCH  26  49
BRANCH  38  59
ATOM     59  C   UNL A   1      49.548  27.105  26.167  1.00  0.00    -0.014 A 
ATOM     60  C   UNL A   1      50.523  26.812  27.138  1.00  0.00     0.010 A 
ATOM     61  C   UNL A   1      49.929  27.229  24.821  1.00  0.00     0.010 A 
ATOM     62  C   UNL A   1      51.865  26.694  26.773  1.00  0.00     0.020 A 
ATOM     63  C   UNL A   1      51.268  27.089  24.450  1.00  0.00     0.020 A 
ATOM     64  C   UNL A   1      52.231  26.844  25.433  1.00  0.00     0.054 A 
BRANCH  64  65
ATOM     65  S   UNL A   1      53.978  26.685  24.978  1.00  0.00     0.124 S 
ATOM     66  O   UNL A   1      54.025  25.333  24.428  1.00  0.00    -0.237 OA
ATOM     67  O   UNL A   1      54.162  27.764  24.010  1.00  0.00    -0.237 OA
ATOM     68  O   UNL A   1      54.681  26.869  26.246  1.00  0.00    -0.744 OA
ENDBRANCH  64  65
ENDBRANCH  38  59
ENDBRANCH  12  13
ENDBRANCH   5   7
ENDBRANCH   2   3
ENDBRANCH   1   2
BRANCH   1  69
ATOM     69  C   UNL A   1      33.039  28.992  26.483  1.00  0.00     0.118 C 
BRANCH  69  70
ATOM     70  N   UNL A   1      33.766  28.260  25.456  1.00  0.00    -0.352 N 
ATOM     71  C   UNL A   1      33.279  27.635  24.341  1.00  0.00     0.253 C 
ATOM     72  H   UNL A   1      34.741  28.210  25.581  1.00  0.00     0.163 HD
ATOM     73  O   UNL A   1      34.026  27.033  23.583  1.00  0.00    -0.269 OA
BRANCH  71  74
ATOM     74  C   UNL A   1      31.845  27.636  24.064  1.00  0.00     0.070 A 
ATOM     75  C   UNL A   1      31.440  28.473  23.030  1.00  0.00     0.125 A 
ATOM     76  C   UNL A   1      30.888  26.842  24.695  1.00  0.00     0.055 A 
ATOM     77  N   UNL A   1      30.176  28.523  22.550  1.00  0.00    -0.264 NA
ATOM     78  C   UNL A   1      29.580  26.862  24.190  1.00  0.00     0.035 A 
ATOM     79  C   UNL A   1      29.280  27.698  23.126  1.00  0.00     0.112 A 
BRANCH  76  80
ATOM     80  C   UNL A   1      31.193  25.787  25.691  1.00  0.00     0.254 C 
ATOM     81  O   UNL A   1      30.998  26.105  26.867  1.00  0.00    -0.269 OA
ATOM     82  N   UNL A   1      31.578  24.496  25.338  1.00  0.00    -0.339 N 
ATOM     83  C   UNL A   1      31.200  23.421  26.252  1.00  0.00     0.120 C 
ATOM     84  C   UNL A   1      32.190  24.074  24.075  1.00  0.00     0.120 C 
ATOM     85  C   UNL A   1      32.316  22.426  26.500  1.00  0.00     0.025 C 
ATOM     86  C   UNL A   1      33.312  23.048  24.299  1.00  0.00     0.025 C 
ATOM     87  C   UNL A   1      32.828  21.867  25.166  1.00  0.00    -0.003 C 
BRANCH  87  88
ATOM     88  C   UNL A   1      33.933  20.816  25.377  1.00  0.00     0.039 C 
BRANCH  88  89
ATOM     89  C   UNL A   1      33.684  19.535  24.607  1.00  0.00    -0.048 A 
ATOM     90  C   UNL A   1      32.535  19.396  23.814  1.00  0.00     0.004 A 
ATOM     91  C   UNL A   1      34.618  18.491  24.631  1.00  0.00     0.004 A 
ATOM     92  C   UNL A   1      32.333  18.243  23.052  1.00  0.00     0.000 A 
ATOM     93  C   UNL A   1      34.414  17.338  23.868  1.00  0.00     0.000 A 
ATOM     94  C   UNL A   1      33.273  17.215  23.078  1.00  0.00     0.000 A 
ENDBRANCH  88  89
ENDBRANCH  87  88
ENDBRANCH  76  80
ENDBRANCH  71  74
ENDBRANCH  69  70
ENDBRANCH   1  69
TORSDOF 16
ENDMDL
MODEL 3
REMARK VINA RESULT:     -12.2      5.947      7.854
REMARK SMILES O=C(NCCCNC(=O)c1cnccc1C(=O)N1CCC(Cc2ccccc2)CC1)c1ccc(-c2c3nc(c(-c4ccc(S(=O)(=O)[O-])cc4)c4ccc([nH]4)c(-c4ccc(S(=O)(=O)[O-])cc4)c4nc(c(-c5ccc(S(=O)(=O)[O-])cc5)c5ccc2[nH]5)C=C4)C=C3)cc1
REMARK SMILES IDX 5 1 4 2 3 3 1 4 2 5 31 7 32 8 90 9 33 10 89 11 34 12 35 13
REMARK SMILES IDX 36 14 83 15 37 16 88 17 82 18 84 19 38 20 87 21 81 22 80 23
REMARK SMILES IDX 39 25 69 26 50 27 68 28 51 29 54 30 67 31 85 32 52 33 53 34
REMARK SMILES IDX 66 36 86 37 55 38 40 39 41 40 49 41 42 42 48 43 43 44 44 45
REMARK SMILES IDX 45 46 46 47 47 48 70 49 71 50 79 51 72 52 78 53 73 54 74 55
REMARK SMILES IDX 75 56 76 57 77 58 56 59 57 60 65 61 58 62 64 63 59 64 60 65
REMARK SMILES IDX 61 66 62 67 63 68 6 69 7 70 8 71 9 73 10 74 11 75 15 76
REMARK SMILES IDX 12 77 14 78 13 79 16 80 17 81 18 82 19 83 30 84 20 85 29 86
REMARK SMILES IDX 21 87 22 88 23 89 24 90 28 91 25 92 27 93 26 94
REMARK H PARENT 3 6 84 24 54 35 7 72
REMARK Flexibility Score: inf
ROOT
ATOM      1  C   UNL A   1      32.879  30.605  26.511  1.00  0.00     0.042 C 
ENDROOT
BRANCH   1   2
ATOM      2  C   UNL A   1      33.433  31.459  27.642  1.00  0.00     0.118 C 
BRANCH   2   3
ATOM      3  N   UNL A   1      32.935  32.830  27.677  1.00  0.00    -0.352 N 
ATOM      4  O   UNL A   1      32.774  34.984  28.345  1.00  0.00    -0.269 OA
ATOM      5  C   UNL A   1      33.358  33.908  28.426  1.00  0.00     0.251 C 
ATOM      6  H   UNL A   1      32.180  33.014  27.073  1.00  0.00     0.163 HD
BRANCH   5   7
ATOM      7  C   UNL A   1      34.481  33.735  29.368  1.00  0.00     0.039 A 
ATOM      8  C   UNL A   1      35.733  34.254  29.056  1.00  0.00     0.014 A 
ATOM      9  C   UNL A   1      34.308  32.957  30.516  1.00  0.00     0.014 A 
ATOM     10  C   UNL A   1      36.846  33.765  29.717  1.00  0.00     0.010 A 
ATOM     11  C   UNL A   1      35.424  32.593  31.279  1.00  0.00     0.010 A 
ATOM     12  C   UNL A   1      36.712  32.936  30.846  1.00  0.00    -0.014 A 
BRANCH  12  13
ATOM     13  C   UNL A   1      37.949  32.480  31.536  1.00  0.00     0.031 A 
ATOM     14  C   UNL A   1      38.336  32.994  32.899  1.00  0.00     0.074 A 
ATOM     15  C   UNL A   1      38.671  31.499  30.955  1.00  0.00     0.049 A 
ATOM     16  N   UNL A   1      39.339  32.624  33.658  1.00  0.00    -0.248 NA
ATOM     17  C   UNL A   1      37.511  34.063  33.486  1.00  0.00     0.031 C 
ATOM     18  C   UNL A   1      38.403  30.929  29.629  1.00  0.00     0.029 A 
ATOM     19  N   UNL A   1      39.730  30.763  31.419  1.00  0.00    -0.354 N 
ATOM     20  C   UNL A   1      39.287  33.433  34.788  1.00  0.00     0.074 A 
ATOM     21  C   UNL A   1      38.161  34.325  34.613  1.00  0.00     0.031 C 
ATOM     22  C   UNL A   1      39.198  29.869  29.434  1.00  0.00     0.029 A 
ATOM     23  C   UNL A   1      40.093  29.739  30.576  1.00  0.00     0.049 A 
ATOM     24  H   UNL A   1      40.186  30.949  32.272  1.00  0.00     0.167 HD
ATOM     25  C   UNL A   1      40.102  33.433  35.871  1.00  0.00     0.031 A 
ATOM     26  C   UNL A   1      41.049  28.799  30.695  1.00  0.00     0.031 A 
ATOM     27  C   UNL A   1      41.210  32.529  36.049  1.00  0.00     0.049 A 
ATOM     28  C   UNL A   1      41.911  28.798  31.919  1.00  0.00     0.074 A 
ATOM     29  C   UNL A   1      42.103  32.455  37.105  1.00  0.00     0.029 A 
ATOM     30  N   UNL A   1      41.568  31.530  35.156  1.00  0.00    -0.354 N 
ATOM     31  N   UNL A   1      41.857  29.595  32.960  1.00  0.00    -0.248 NA
ATOM     32  C   UNL A   1      42.969  27.783  31.980  1.00  0.00     0.031 C 
ATOM     33  C   UNL A   1      43.019  31.431  36.836  1.00  0.00     0.029 A 
ATOM     34  C   UNL A   1      42.670  30.839  35.633  1.00  0.00     0.049 A 
ATOM     35  H   UNL A   1      41.108  31.341  34.306  1.00  0.00     0.167 HD
ATOM     36  C   UNL A   1      42.888  29.186  33.795  1.00  0.00     0.074 A 
ATOM     37  C   UNL A   1      43.516  28.044  33.158  1.00  0.00     0.031 C 
ATOM     38  C   UNL A   1      43.291  29.721  34.973  1.00  0.00     0.031 A 
BRANCH  25  39
ATOM     39  C   UNL A   1      39.843  34.455  36.947  1.00  0.00    -0.014 A 
ATOM     40  C   UNL A   1      39.128  34.123  38.112  1.00  0.00     0.010 A 
ATOM     41  C   UNL A   1      40.373  35.753  36.818  1.00  0.00     0.010 A 
ATOM     42  C   UNL A   1      38.925  35.077  39.115  1.00  0.00     0.020 A 
ATOM     43  C   UNL A   1      40.191  36.703  37.828  1.00  0.00     0.020 A 
ATOM     44  C   UNL A   1      39.455  36.362  38.965  1.00  0.00     0.054 A 
BRANCH  44  45
ATOM     45  S   UNL A   1      39.207  37.571  40.297  1.00  0.00     0.124 S 
ATOM     46  O   UNL A   1      40.560  38.088  40.488  1.00  0.00    -0.237 OA
ATOM     47  O   UNL A   1      38.255  38.508  39.709  1.00  0.00    -0.237 OA
ATOM     48  O   UNL A   1      38.685  36.768  41.400  1.00  0.00    -0.744 OA
ENDBRANCH  44  45
ENDBRANCH  25  39
BRANCH  26  49
ATOM     49  C   UNL A   1      41.250  27.815  29.599  1.00  0.00    -0.014 A 
ATOM     50  C   UNL A   1      40.387  26.716  29.449  1.00  0.00     0.010 A 
ATOM     51  C   UNL A   1      42.287  28.006  28.668  1.00  0.00     0.010 A 
ATOM     52  C   UNL A   1      40.565  25.820  28.390  1.00  0.00     0.020 A 
ATOM     53  C   UNL A   1      42.448  27.132  27.592  1.00  0.00     0.020 A 
ATOM     54  C   UNL A   1      41.594  26.036  27.467  1.00  0.00     0.054 A 
BRANCH  54  55
ATOM     55  S   UNL A   1      41.771  24.910  26.057  1.00  0.00     0.124 S 
ATOM     56  O   UNL A   1      42.970  24.162  26.417  1.00  0.00    -0.237 OA
ATOM     57  O   UNL A   1      40.519  24.155  26.088  1.00  0.00    -0.237 OA
ATOM     58  O   UNL A   1      41.911  25.815  24.919  1.00  0.00    -0.744 OA
ENDBRANCH  54  55
ENDBRANCH  26  49
BRANCH  38  59
ATOM     59  C   UNL A   1      44.472  29.068  35.635  1.00  0.00    -0.014 A 
ATOM     60  C   UNL A   1      44.292  27.993  36.522  1.00  0.00     0.010 A 
ATOM     61  C   UNL A   1      45.770  29.537  35.370  1.00  0.00     0.010 A 
ATOM     62  C   UNL A   1      45.390  27.427  37.173  1.00  0.00     0.020 A 
ATOM     63  C   UNL A   1      46.872  28.957  36.003  1.00  0.00     0.020 A 
ATOM     64  C   UNL A   1      46.672  27.920  36.917  1.00  0.00     0.054 A 
BRANCH  64  65
ATOM     65  S   UNL A   1      48.086  27.171  37.770  1.00  0.00     0.124 S 
ATOM     66  O   UNL A   1      48.228  28.039  38.936  1.00  0.00    -0.237 OA
ATOM     67  O   UNL A   1      47.617  25.815  38.049  1.00  0.00    -0.237 OA
ATOM     68  O   UNL A   1      49.165  27.259  36.789  1.00  0.00    -0.744 OA
ENDBRANCH  64  65
ENDBRANCH  38  59
ENDBRANCH  12  13
ENDBRANCH   5   7
ENDBRANCH   2   3
ENDBRANCH   1   2
BRANCH   1  69
ATOM     69  C   UNL A   1      32.950  29.112  26.756  1.00  0.00     0.118 C 
BRANCH  69  70
ATOM     70  N   UNL A   1      33.738  28.404  25.757  1.00  0.00    -0.352 N 
ATOM     71  C   UNL A   1      33.313  27.767  24.624  1.00  0.00     0.253 C 
ATOM     72  H   UNL A   1      34.708  28.383  25.921  1.00  0.00     0.163 HD
ATOM     73  O   UNL A   1      34.108  27.190  23.895  1.00  0.00    -0.269 OA
BRANCH  71  74
ATOM     74  C   UNL A   1      31.892  27.726  24.291  1.00  0.00     0.070 A 
ATOM     75  C   UNL A   1      31.492  28.597  23.283  1.00  0.00     0.125 A 
ATOM     76  C   UNL A   1      30.946  26.865  24.844  1.00  0.00     0.055 A 
ATOM     77  N   UNL A   1      30.246  28.622  22.756  1.00  0.00    -0.264 NA
ATOM     78  C   UNL A   1      29.657  26.859  24.290  1.00  0.00     0.035 A 
ATOM     79  C   UNL A   1      29.363  27.734  23.257  1.00  0.00     0.112 A 
BRANCH  76  80
ATOM     80  C   UNL A   1      31.256  25.775  25.800  1.00  0.00     0.254 C 
ATOM     81  O   UNL A   1      31.062  26.047  26.987  1.00  0.00    -0.269 OA
ATOM     82  N   UNL A   1      31.645  24.499  25.398  1.00  0.00    -0.339 N 
ATOM     83  C   UNL A   1      31.272  23.389  26.272  1.00  0.00     0.120 C 
ATOM     84  C   UNL A   1      32.257  24.127  24.120  1.00  0.00     0.120 C 
ATOM     85  C   UNL A   1      32.393  22.390  26.480  1.00  0.00     0.025 C 
ATOM     86  C   UNL A   1      33.383  23.097  24.303  1.00  0.00     0.025 C 
ATOM     87  C   UNL A   1      32.905  21.883  25.125  1.00  0.00    -0.003 C 
BRANCH  87  88
ATOM     88  C   UNL A   1      34.014  20.829  25.295  1.00  0.00     0.039 C 
BRANCH  88  89
ATOM     89  C   UNL A   1      33.730  19.547  24.539  1.00  0.00    -0.048 A 
ATOM     90  C   UNL A   1      32.592  19.440  23.727  1.00  0.00     0.004 A 
ATOM     91  C   UNL A   1      34.624  18.469  24.595  1.00  0.00     0.004 A 
ATOM     92  C   UNL A   1      32.360  18.283  22.978  1.00  0.00     0.000 A 
ATOM     93  C   UNL A   1      34.391  17.313  23.845  1.00  0.00     0.000 A 
ATOM     94  C   UNL A   1      33.260  17.221  23.036  1.00  0.00     0.000 A 
ENDBRANCH  88  89
ENDBRANCH  87  88
ENDBRANCH  76  80
ENDBRANCH  71  74
ENDBRANCH  69  70
ENDBRANCH   1  69
TORSDOF 16
ENDMDL
