MODEL 1
REMARK VINA RESULT:     -11.6      0.000      0.000
REMARK SMILES CC(C)CN(C)c1cc2c(cc1Cl)C=C(C(=O)NCCCNC(=O)c1ccc(-c3c4nc(c(-c5ccc(S(=O)(=O)[O-])cc5)c5ccc([nH]5)c(-c5ccc(S(=O)(=O)[O-])cc5)c5nc(c(-c6ccc(S(=O)(=O)[O-])cc6)c6ccc3[nH]6)C=C5)C=C4)cc1)[C@@H](C(F)(F)F)O2
REMARK SMILES IDX 20 1 19 2 18 3 16 4 17 5 15 7 7 8 8 9 12 10 9 11 11 12 13 13
REMARK SMILES IDX 10 14 90 15 14 16 85 17 5 18 6 19 4 20 2 21 1 22 3 23 86 24
REMARK SMILES IDX 87 25 88 26 89 27 21 28 22 29 23 30 24 32 25 33 26 34 84 35
REMARK SMILES IDX 27 36 83 37 28 38 29 39 30 40 77 41 31 42 82 43 76 44 78 45
REMARK SMILES IDX 32 46 81 47 75 48 74 49 33 51 63 52 44 53 62 54 45 55 48 56
REMARK SMILES IDX 61 57 79 58 46 59 47 60 60 62 80 63 49 64 34 65 35 66 43 67
REMARK SMILES IDX 36 68 42 69 37 70 38 71 39 72 40 73 41 74 64 75 65 76 73 77
REMARK SMILES IDX 66 78 72 79 67 80 68 81 69 82 70 83 71 84 50 85 51 86 59 87
REMARK SMILES IDX 52 88 58 89 53 90 54 91 55 92 56 93 57 94
REMARK H PARENT 18 6 22 31 78 50 48 61
REMARK Flexibility Score: inf
ROOT
ATOM      1  C   UNL A   1      37.856  19.505  25.077  1.00  0.00     0.042 C 
ENDROOT
BRANCH   1   2
ATOM      2  C   UNL A   1      36.625  20.395  24.995  1.00  0.00     0.118 C 
BRANCH   2   3
ATOM      3  N   UNL A   1      35.411  19.611  24.827  1.00  0.00    -0.352 N 
ATOM      4  C   UNL A   1      34.082  19.845  24.810  1.00  0.00     0.251 C 
ATOM      5  O   UNL A   1      33.375  18.851  24.617  1.00  0.00    -0.270 OA
ATOM      6  H   UNL A   1      35.613  18.658  24.689  1.00  0.00     0.163 HD
BRANCH   4   7
ATOM      7  C   UNL A   1      33.447  21.176  24.991  1.00  0.00     0.067 C 
ATOM      8  C   UNL A   1      31.657  25.836  24.335  1.00  0.00     0.059 A 
ATOM      9  C   UNL A   1      31.251  24.731  25.101  1.00  0.00     0.074 A 
ATOM     10  C   UNL A   1      32.791  25.676  23.503  1.00  0.00     0.065 A 
ATOM     11  C   UNL A   1      31.937  23.522  25.017  1.00  0.00     0.130 A 
ATOM     12  C   UNL A   1      33.404  24.428  23.340  1.00  0.00     0.034 A 
ATOM     13  Cl  UNL A   1      33.528  27.010  22.681  1.00  0.00    -0.082 Cl
ATOM     14  C   UNL A   1      32.968  23.345  24.092  1.00  0.00     0.019 A 
ATOM     15  O   UNL A   1      31.584  22.522  25.887  1.00  0.00    -0.475 OA
ATOM     16  C   UNL A   1      33.572  22.027  23.956  1.00  0.00     0.025 C 
ATOM     17  C   UNL A   1      32.694  21.626  26.214  1.00  0.00     0.314 C 
BRANCH   8  18
ATOM     18  N   UNL A   1      30.941  27.043  24.392  1.00  0.00    -0.373 N 
ATOM     19  C   UNL A   1      30.216  27.390  23.171  1.00  0.00     0.143 C 
BRANCH  18  20
ATOM     20  C   UNL A   1      31.611  28.164  25.089  1.00  0.00     0.119 C 
BRANCH  20  21
ATOM     21  C   UNL A   1      32.289  27.730  26.405  1.00  0.00     0.002 C 
ATOM     22  C   UNL A   1      33.756  28.165  26.471  1.00  0.00     0.009 C 
ATOM     23  C   UNL A   1      31.550  28.294  27.621  1.00  0.00     0.009 C 
ENDBRANCH  20  21
ENDBRANCH  18  20
ENDBRANCH   8  18
BRANCH  17  24
ATOM     24  C   UNL A   1      33.629  22.272  27.266  1.00  0.00     0.429 C 
ATOM     25  F   UNL A   1      32.962  22.500  28.425  1.00  0.00    -0.167 F 
ATOM     26  F   UNL A   1      34.680  21.473  27.577  1.00  0.00    -0.167 F 
ATOM     27  F   UNL A   1      34.158  23.451  26.868  1.00  0.00    -0.167 F 
ENDBRANCH  17  24
ENDBRANCH   4   7
ENDBRANCH   2   3
ENDBRANCH   1   2
BRANCH   1  28
ATOM     28  C   UNL A   1      39.038  20.206  25.731  1.00  0.00     0.118 C 
BRANCH  28  29
ATOM     29  N   UNL A   1      40.197  19.327  25.858  1.00  0.00    -0.352 N 
ATOM     30  C   UNL A   1      41.515  19.632  26.111  1.00  0.00     0.251 C 
ATOM     31  H   UNL A   1      40.007  18.368  25.744  1.00  0.00     0.163 HD
ATOM     32  O   UNL A   1      42.381  18.777  25.949  1.00  0.00    -0.269 OA
BRANCH  30  33
ATOM     33  C   UNL A   1      41.882  20.992  26.553  1.00  0.00     0.039 A 
ATOM     34  C   UNL A   1      41.887  22.048  25.641  1.00  0.00     0.014 A 
ATOM     35  C   UNL A   1      42.240  21.215  27.886  1.00  0.00     0.014 A 
ATOM     36  C   UNL A   1      42.440  23.266  26.006  1.00  0.00     0.010 A 
ATOM     37  C   UNL A   1      42.690  22.479  28.279  1.00  0.00     0.010 A 
ATOM     38  C   UNL A   1      42.844  23.501  27.331  1.00  0.00    -0.014 A 
BRANCH  38  39
ATOM     39  C   UNL A   1      43.418  24.824  27.686  1.00  0.00     0.031 A 
ATOM     40  C   UNL A   1      44.865  25.133  27.412  1.00  0.00     0.074 A 
ATOM     41  C   UNL A   1      42.601  25.781  28.170  1.00  0.00     0.049 A 
ATOM     42  N   UNL A   1      45.518  26.248  27.621  1.00  0.00    -0.248 NA
ATOM     43  C   UNL A   1      45.687  24.062  26.826  1.00  0.00     0.031 C 
ATOM     44  C   UNL A   1      41.169  25.606  28.431  1.00  0.00     0.029 A 
ATOM     45  N   UNL A   1      42.834  27.097  28.477  1.00  0.00    -0.354 N 
ATOM     46  C   UNL A   1      46.823  26.010  27.208  1.00  0.00     0.074 A 
ATOM     47  C   UNL A   1      46.882  24.634  26.765  1.00  0.00     0.031 C 
ATOM     48  C   UNL A   1      40.636  26.789  28.762  1.00  0.00     0.029 A 
ATOM     49  C   UNL A   1      41.698  27.788  28.830  1.00  0.00     0.049 A 
ATOM     50  H   UNL A   1      43.728  27.508  28.447  1.00  0.00     0.167 HD
ATOM     51  C   UNL A   1      47.873  26.865  27.186  1.00  0.00     0.031 A 
ATOM     52  C   UNL A   1      41.521  29.078  29.175  1.00  0.00     0.031 A 
ATOM     53  C   UNL A   1      47.803  28.235  27.626  1.00  0.00     0.049 A 
ATOM     54  C   UNL A   1      42.713  29.987  29.214  1.00  0.00     0.074 A 
ATOM     55  C   UNL A   1      48.818  29.173  27.672  1.00  0.00     0.029 A 
ATOM     56  N   UNL A   1      46.653  28.866  28.081  1.00  0.00    -0.354 N 
ATOM     57  N   UNL A   1      43.951  29.726  28.871  1.00  0.00    -0.248 NA
ATOM     58  C   UNL A   1      42.493  31.355  29.702  1.00  0.00     0.031 C 
ATOM     59  C   UNL A   1      48.296  30.355  28.204  1.00  0.00     0.029 A 
ATOM     60  C   UNL A   1      46.939  30.175  28.428  1.00  0.00     0.049 A 
ATOM     61  H   UNL A   1      45.766  28.444  28.147  1.00  0.00     0.167 HD
ATOM     62  C   UNL A   1      44.662  30.897  29.102  1.00  0.00     0.074 A 
ATOM     63  C   UNL A   1      43.710  31.875  29.593  1.00  0.00     0.031 C 
ATOM     64  C   UNL A   1      45.984  31.134  28.929  1.00  0.00     0.031 A 
BRANCH  51  65
ATOM     65  C   UNL A   1      49.197  26.352  26.680  1.00  0.00    -0.014 A 
ATOM     66  C   UNL A   1      50.129  25.808  27.581  1.00  0.00     0.010 A 
ATOM     67  C   UNL A   1      49.553  26.486  25.325  1.00  0.00     0.010 A 
ATOM     68  C   UNL A   1      51.400  25.420  27.143  1.00  0.00     0.020 A 
ATOM     69  C   UNL A   1      50.813  26.075  24.878  1.00  0.00     0.020 A 
ATOM     70  C   UNL A   1      51.735  25.562  25.794  1.00  0.00     0.054 A 
BRANCH  70  71
ATOM     71  S   UNL A   1      53.383  25.043  25.238  1.00  0.00     0.124 S 
ATOM     72  O   UNL A   1      53.486  25.691  23.934  1.00  0.00    -0.237 OA
ATOM     73  O   UNL A   1      54.257  25.576  26.279  1.00  0.00    -0.237 OA
ATOM     74  O   UNL A   1      53.287  23.585  25.208  1.00  0.00    -0.744 OA
ENDBRANCH  70  71
ENDBRANCH  51  65
BRANCH  52  75
ATOM     75  C   UNL A   1      40.147  29.558  29.485  1.00  0.00    -0.014 A 
ATOM     76  C   UNL A   1      39.289  29.977  28.450  1.00  0.00     0.010 A 
ATOM     77  C   UNL A   1      39.740  29.725  30.820  1.00  0.00     0.010 A 
ATOM     78  C   UNL A   1      38.087  30.623  28.743  1.00  0.00     0.020 A 
ATOM     79  C   UNL A   1      38.522  30.345  31.117  1.00  0.00     0.020 A 
ATOM     80  C   UNL A   1      37.722  30.823  30.077  1.00  0.00     0.054 A 
BRANCH  80  81
ATOM     81  S   UNL A   1      36.201  31.746  30.435  1.00  0.00     0.124 S 
ATOM     82  O   UNL A   1      35.329  31.316  29.346  1.00  0.00    -0.237 OA
ATOM     83  O   UNL A   1      35.837  31.261  31.763  1.00  0.00    -0.237 OA
ATOM     84  O   UNL A   1      36.630  33.142  30.379  1.00  0.00    -0.744 OA
ENDBRANCH  80  81
ENDBRANCH  52  75
BRANCH  64  85
ATOM     85  C   UNL A   1      46.509  32.498  29.280  1.00  0.00    -0.014 A 
ATOM     86  C   UNL A   1      46.891  32.779  30.605  1.00  0.00     0.010 A 
ATOM     87  C   UNL A   1      46.491  33.538  28.333  1.00  0.00     0.010 A 
ATOM     88  C   UNL A   1      47.208  34.084  30.988  1.00  0.00     0.020 A 
ATOM     89  C   UNL A   1      46.831  34.840  28.708  1.00  0.00     0.020 A 
ATOM     90  C   UNL A   1      47.160  35.109  30.040  1.00  0.00     0.054 A 
BRANCH  90  91
ATOM     91  S   UNL A   1      47.526  36.806  30.566  1.00  0.00     0.124 S 
ATOM     92  O   UNL A   1      46.322  37.521  30.151  1.00  0.00    -0.237 OA
ATOM     93  O   UNL A   1      47.708  36.664  32.009  1.00  0.00    -0.237 OA
ATOM     94  O   UNL A   1      48.740  37.141  29.824  1.00  0.00    -0.744 OA
ENDBRANCH  90  91
ENDBRANCH  64  85
ENDBRANCH  38  39
ENDBRANCH  30  33
ENDBRANCH  28  29
ENDBRANCH   1  28
TORSDOF 17
ENDMDL
MODEL 2
REMARK VINA RESULT:     -11.5      3.369      9.473
REMARK SMILES CC(C)CN(C)c1cc2c(cc1Cl)C=C(C(=O)NCCCNC(=O)c1ccc(-c3c4nc(c(-c5ccc(S(=O)(=O)[O-])cc5)c5ccc([nH]5)c(-c5ccc(S(=O)(=O)[O-])cc5)c5nc(c(-c6ccc(S(=O)(=O)[O-])cc6)c6ccc3[nH]6)C=C5)C=C4)cc1)[C@@H](C(F)(F)F)O2
REMARK SMILES IDX 20 1 19 2 18 3 16 4 17 5 15 7 7 8 8 9 12 10 9 11 11 12 13 13
REMARK SMILES IDX 10 14 90 15 14 16 85 17 5 18 6 19 4 20 2 21 1 22 3 23 86 24
REMARK SMILES IDX 87 25 88 26 89 27 21 28 22 29 23 30 24 32 25 33 26 34 84 35
REMARK SMILES IDX 27 36 83 37 28 38 29 39 30 40 77 41 31 42 82 43 76 44 78 45
REMARK SMILES IDX 32 46 81 47 75 48 74 49 33 51 63 52 44 53 62 54 45 55 48 56
REMARK SMILES IDX 61 57 79 58 46 59 47 60 60 62 80 63 49 64 34 65 35 66 43 67
REMARK SMILES IDX 36 68 42 69 37 70 38 71 39 72 40 73 41 74 64 75 65 76 73 77
REMARK SMILES IDX 66 78 72 79 67 80 68 81 69 82 70 83 71 84 50 85 51 86 59 87
REMARK SMILES IDX 52 88 58 89 53 90 54 91 55 92 56 93 57 94
REMARK H PARENT 18 6 22 31 78 50 48 61
REMARK Flexibility Score: inf
ROOT
ATOM      1  C   UNL A   1      32.858  28.923  25.584  1.00  0.00     0.042 C 
ENDROOT
BRANCH   1   2
ATOM      2  C   UNL A   1      31.442  28.491  25.932  1.00  0.00     0.118 C 
BRANCH   2   3
ATOM      3  N   UNL A   1      30.645  28.264  24.737  1.00  0.00    -0.352 N 
ATOM      4  C   UNL A   1      30.474  27.269  23.841  1.00  0.00     0.251 C 
ATOM      5  O   UNL A   1      29.653  27.501  22.947  1.00  0.00    -0.270 OA
ATOM      6  H   UNL A   1      30.080  29.042  24.527  1.00  0.00     0.163 HD
BRANCH   4   7
ATOM      7  C   UNL A   1      31.179  25.962  23.871  1.00  0.00     0.067 C 
ATOM      8  C   UNL A   1      33.080  21.497  25.214  1.00  0.00     0.059 A 
ATOM      9  C   UNL A   1      32.615  22.039  24.004  1.00  0.00     0.074 A 
ATOM     10  C   UNL A   1      32.994  22.307  26.370  1.00  0.00     0.065 A 
ATOM     11  C   UNL A   1      32.072  23.320  23.966  1.00  0.00     0.130 A 
ATOM     12  C   UNL A   1      32.344  23.547  26.344  1.00  0.00     0.034 A 
ATOM     13  Cl  UNL A   1      33.727  21.852  27.872  1.00  0.00    -0.082 Cl
ATOM     14  C   UNL A   1      31.872  24.050  25.139  1.00  0.00     0.019 A 
ATOM     15  O   UNL A   1      31.762  23.850  22.739  1.00  0.00    -0.475 OA
ATOM     16  C   UNL A   1      31.188  25.333  25.061  1.00  0.00     0.025 C 
ATOM     17  C   UNL A   1      31.863  25.309  22.701  1.00  0.00     0.314 C 
BRANCH   8  18
ATOM     18  N   UNL A   1      33.592  20.189  25.256  1.00  0.00    -0.373 N 
ATOM     19  C   UNL A   1      35.010  20.070  24.917  1.00  0.00     0.143 C 
BRANCH  18  20
ATOM     20  C   UNL A   1      32.707  19.127  24.728  1.00  0.00     0.119 C 
BRANCH  20  21
ATOM     21  C   UNL A   1      33.400  17.751  24.659  1.00  0.00     0.002 C 
ATOM     22  C   UNL A   1      32.659  16.688  25.476  1.00  0.00     0.009 C 
ATOM     23  C   UNL A   1      33.526  17.265  23.213  1.00  0.00     0.009 C 
ENDBRANCH  20  21
ENDBRANCH  18  20
ENDBRANCH   8  18
BRANCH  17  24
ATOM     24  C   UNL A   1      33.340  25.754  22.569  1.00  0.00     0.429 C 
ATOM     25  F   UNL A   1      33.455  26.787  21.698  1.00  0.00    -0.167 F 
ATOM     26  F   UNL A   1      33.853  26.187  23.749  1.00  0.00    -0.167 F 
ATOM     27  F   UNL A   1      34.164  24.772  22.139  1.00  0.00    -0.167 F 
ENDBRANCH  17  24
ENDBRANCH   4   7
ENDBRANCH   2   3
ENDBRANCH   1   2
BRANCH   1  28
ATOM     28  C   UNL A   1      33.774  28.951  26.800  1.00  0.00     0.118 C 
BRANCH  28  29
ATOM     29  N   UNL A   1      33.736  30.238  27.487  1.00  0.00    -0.352 N 
ATOM     30  C   UNL A   1      34.649  30.813  28.341  1.00  0.00     0.251 C 
ATOM     31  H   UNL A   1      32.933  30.780  27.314  1.00  0.00     0.163 HD
ATOM     32  O   UNL A   1      34.333  31.800  28.999  1.00  0.00    -0.269 OA
BRANCH  30  33
ATOM     33  C   UNL A   1      35.997  30.226  28.477  1.00  0.00     0.039 A 
ATOM     34  C   UNL A   1      36.355  29.557  29.647  1.00  0.00     0.014 A 
ATOM     35  C   UNL A   1      36.919  30.355  27.434  1.00  0.00     0.014 A 
ATOM     36  C   UNL A   1      37.680  29.203  29.857  1.00  0.00     0.010 A 
ATOM     37  C   UNL A   1      38.227  29.893  27.605  1.00  0.00     0.010 A 
ATOM     38  C   UNL A   1      38.633  29.361  28.837  1.00  0.00    -0.014 A 
BRANCH  38  39
ATOM     39  C   UNL A   1      40.039  28.956  29.095  1.00  0.00     0.031 A 
ATOM     40  C   UNL A   1      40.944  29.814  29.937  1.00  0.00     0.074 A 
ATOM     41  C   UNL A   1      40.467  27.759  28.644  1.00  0.00     0.049 A 
ATOM     42  N   UNL A   1      42.183  29.593  30.294  1.00  0.00    -0.248 NA
ATOM     43  C   UNL A   1      40.394  31.081  30.449  1.00  0.00     0.031 C 
ATOM     44  C   UNL A   1      39.658  26.824  27.857  1.00  0.00     0.029 A 
ATOM     45  N   UNL A   1      41.655  27.099  28.823  1.00  0.00    -0.354 N 
ATOM     46  C   UNL A   1      42.564  30.690  31.057  1.00  0.00     0.074 A 
ATOM     47  C   UNL A   1      41.437  31.596  31.085  1.00  0.00     0.031 C 
ATOM     48  C   UNL A   1      40.336  25.679  27.706  1.00  0.00     0.029 A 
ATOM     49  C   UNL A   1      41.660  25.826  28.302  1.00  0.00     0.049 A 
ATOM     50  H   UNL A   1      42.431  27.498  29.280  1.00  0.00     0.167 HD
ATOM     51  C   UNL A   1      43.741  30.915  31.688  1.00  0.00     0.031 A 
ATOM     52  C   UNL A   1      42.618  24.880  28.294  1.00  0.00     0.031 A 
ATOM     53  C   UNL A   1      44.856  30.005  31.655  1.00  0.00     0.049 A 
ATOM     54  C   UNL A   1      43.939  25.181  28.936  1.00  0.00     0.074 A 
ATOM     55  C   UNL A   1      46.103  30.155  32.237  1.00  0.00     0.029 A 
ATOM     56  N   UNL A   1      44.857  28.770  31.021  1.00  0.00    -0.354 N 
ATOM     57  N   UNL A   1      44.298  26.250  29.606  1.00  0.00    -0.248 NA
ATOM     58  C   UNL A   1      44.991  24.165  28.808  1.00  0.00     0.031 C 
ATOM     59  C   UNL A   1      46.874  29.037  31.910  1.00  0.00     0.029 A 
ATOM     60  C   UNL A   1      46.088  28.158  31.181  1.00  0.00     0.049 A 
ATOM     61  H   UNL A   1      44.095  28.387  30.531  1.00  0.00     0.167 HD
ATOM     62  C   UNL A   1      45.619  26.037  29.979  1.00  0.00     0.074 A 
ATOM     63  C   UNL A   1      45.989  24.727  29.480  1.00  0.00     0.031 C 
ATOM     64  C   UNL A   1      46.447  26.858  30.667  1.00  0.00     0.031 A 
BRANCH  51  65
ATOM     65  C   UNL A   1      43.898  32.198  32.461  1.00  0.00    -0.014 A 
ATOM     66  C   UNL A   1      43.501  32.259  33.809  1.00  0.00     0.010 A 
ATOM     67  C   UNL A   1      44.360  33.370  31.832  1.00  0.00     0.010 A 
ATOM     68  C   UNL A   1      43.546  33.467  34.512  1.00  0.00     0.020 A 
ATOM     69  C   UNL A   1      44.433  34.574  32.539  1.00  0.00     0.020 A 
ATOM     70  C   UNL A   1      44.007  34.619  33.869  1.00  0.00     0.054 A 
BRANCH  70  71
ATOM     71  S   UNL A   1      44.073  36.178  34.797  1.00  0.00     0.124 S 
ATOM     72  O   UNL A   1      44.873  35.810  35.961  1.00  0.00    -0.237 OA
ATOM     73  O   UNL A   1      44.714  37.089  33.851  1.00  0.00    -0.237 OA
ATOM     74  O   UNL A   1      42.667  36.470  35.069  1.00  0.00    -0.744 OA
ENDBRANCH  70  71
ENDBRANCH  51  65
BRANCH  52  75
ATOM     75  C   UNL A   1      42.323  23.562  27.668  1.00  0.00    -0.014 A 
ATOM     76  C   UNL A   1      41.774  22.516  28.435  1.00  0.00     0.010 A 
ATOM     77  C   UNL A   1      42.713  23.306  26.342  1.00  0.00     0.010 A 
ATOM     78  C   UNL A   1      41.692  21.224  27.916  1.00  0.00     0.020 A 
ATOM     79  C   UNL A   1      42.604  22.018  25.808  1.00  0.00     0.020 A 
ATOM     80  C   UNL A   1      42.129  20.978  26.611  1.00  0.00     0.054 A 
BRANCH  80  81
ATOM     81  S   UNL A   1      42.099  19.274  25.989  1.00  0.00     0.124 S 
ATOM     82  O   UNL A   1      42.643  18.534  27.124  1.00  0.00    -0.237 OA
ATOM     83  O   UNL A   1      40.681  19.057  25.716  1.00  0.00    -0.237 OA
ATOM     84  O   UNL A   1      42.958  19.329  24.808  1.00  0.00    -0.744 OA
ENDBRANCH  80  81
ENDBRANCH  52  75
BRANCH  64  85
ATOM     85  C   UNL A   1      47.853  26.390  30.922  1.00  0.00    -0.014 A 
ATOM     86  C   UNL A   1      48.164  25.739  32.130  1.00  0.00     0.010 A 
ATOM     87  C   UNL A   1      48.890  26.719  30.030  1.00  0.00     0.010 A 
ATOM     88  C   UNL A   1      49.491  25.460  32.462  1.00  0.00     0.020 A 
ATOM     89  C   UNL A   1      50.217  26.419  30.349  1.00  0.00     0.020 A 
ATOM     90  C   UNL A   1      50.511  25.816  31.576  1.00  0.00     0.054 A 
BRANCH  90  91
ATOM     91  S   UNL A   1      52.233  25.492  32.045  1.00  0.00     0.124 S 
ATOM     92  O   UNL A   1      52.197  24.069  32.375  1.00  0.00    -0.237 OA
ATOM     93  O   UNL A   1      52.968  25.839  30.831  1.00  0.00    -0.237 OA
ATOM     94  O   UNL A   1      52.454  26.391  33.176  1.00  0.00    -0.744 OA
ENDBRANCH  90  91
ENDBRANCH  64  85
ENDBRANCH  38  39
ENDBRANCH  30  33
ENDBRANCH  28  29
ENDBRANCH   1  28
TORSDOF 17
ENDMDL
MODEL 3
REMARK VINA RESULT:     -11.5      1.359      2.051
REMARK SMILES CC(C)CN(C)c1cc2c(cc1Cl)C=C(C(=O)NCCCNC(=O)c1ccc(-c3c4nc(c(-c5ccc(S(=O)(=O)[O-])cc5)c5ccc([nH]5)c(-c5ccc(S(=O)(=O)[O-])cc5)c5nc(c(-c6ccc(S(=O)(=O)[O-])cc6)c6ccc3[nH]6)C=C5)C=C4)cc1)[C@@H](C(F)(F)F)O2
REMARK SMILES IDX 20 1 19 2 18 3 16 4 17 5 15 7 7 8 8 9 12 10 9 11 11 12 13 13
REMARK SMILES IDX 10 14 90 15 14 16 85 17 5 18 6 19 4 20 2 21 1 22 3 23 86 24
REMARK SMILES IDX 87 25 88 26 89 27 21 28 22 29 23 30 24 32 25 33 26 34 84 35
REMARK SMILES IDX 27 36 83 37 28 38 29 39 30 40 77 41 31 42 82 43 76 44 78 45
REMARK SMILES IDX 32 46 81 47 75 48 74 49 33 51 63 52 44 53 62 54 45 55 48 56
REMARK SMILES IDX 61 57 79 58 46 59 47 60 60 62 80 63 49 64 34 65 35 66 43 67
REMARK SMILES IDX 36 68 42 69 37 70 38 71 39 72 40 73 41 74 64 75 65 76 73 77
REMARK SMILES IDX 66 78 72 79 67 80 68 81 69 82 70 83 71 84 50 85 51 86 59 87
REMARK SMILES IDX 52 88 58 89 53 90 54 91 55 92 56 93 57 94
REMARK H PARENT 18 6 22 31 78 50 48 61
REMARK Flexibility Score: inf
ROOT
ATOM      1  C   UNL A   1      38.159  19.844  24.844  1.00  0.00     0.042 C 
ENDROOT
BRANCH   1   2
ATOM      2  C   UNL A   1      37.116  20.942  24.711  1.00  0.00     0.118 C 
BRANCH   2   3
ATOM      3  N   UNL A   1      35.795  20.472  25.096  1.00  0.00    -0.352 N 
ATOM      4  C   UNL A   1      34.546  20.982  25.158  1.00  0.00     0.251 C 
ATOM      5  O   UNL A   1      33.676  20.198  25.548  1.00  0.00    -0.270 OA
ATOM      6  H   UNL A   1      35.817  19.532  25.387  1.00  0.00     0.163 HD
BRANCH   4   7
ATOM      7  C   UNL A   1      34.173  22.372  24.791  1.00  0.00     0.067 C 
ATOM      8  C   UNL A   1      32.909  27.246  24.870  1.00  0.00     0.059 A 
ATOM      9  C   UNL A   1      33.655  26.443  23.992  1.00  0.00     0.074 A 
ATOM     10  C   UNL A   1      32.395  26.636  26.039  1.00  0.00     0.065 A 
ATOM     11  C   UNL A   1      33.890  25.102  24.287  1.00  0.00     0.130 A 
ATOM     12  C   UNL A   1      32.730  25.321  26.382  1.00  0.00     0.034 A 
ATOM     13  Cl  UNL A   1      31.280  27.446  27.088  1.00  0.00    -0.082 Cl
ATOM     14  C   UNL A   1      33.490  24.555  25.507  1.00  0.00     0.019 A 
ATOM     15  O   UNL A   1      34.504  24.333  23.332  1.00  0.00    -0.475 OA
ATOM     16  C   UNL A   1      33.866  23.184  25.821  1.00  0.00     0.025 C 
ATOM     17  C   UNL A   1      34.116  22.923  23.392  1.00  0.00     0.314 C 
BRANCH   8  18
ATOM     18  N   UNL A   1      32.706  28.608  24.590  1.00  0.00    -0.373 N 
ATOM     19  C   UNL A   1      33.529  29.529  25.371  1.00  0.00     0.143 C 
BRANCH  18  20
ATOM     20  C   UNL A   1      31.303  29.023  24.366  1.00  0.00     0.119 C 
BRANCH  20  21
ATOM     21  C   UNL A   1      30.688  28.393  23.099  1.00  0.00     0.002 C 
ATOM     22  C   UNL A   1      29.583  27.385  23.431  1.00  0.00     0.009 C 
ATOM     23  C   UNL A   1      30.117  29.465  22.168  1.00  0.00     0.009 C 
ENDBRANCH  20  21
ENDBRANCH  18  20
ENDBRANCH   8  18
BRANCH  17  24
ATOM     24  C   UNL A   1      32.730  22.706  22.739  1.00  0.00     0.429 C 
ATOM     25  F   UNL A   1      32.575  23.516  21.662  1.00  0.00    -0.167 F 
ATOM     26  F   UNL A   1      32.566  21.436  22.293  1.00  0.00    -0.167 F 
ATOM     27  F   UNL A   1      31.695  22.948  23.574  1.00  0.00    -0.167 F 
ENDBRANCH  17  24
ENDBRANCH   4   7
ENDBRANCH   2   3
ENDBRANCH   1   2
BRANCH   1  28
ATOM     28  C   UNL A   1      39.024  20.009  26.086  1.00  0.00     0.118 C 
BRANCH  28  29
ATOM     29  N   UNL A   1      40.229  19.189  26.030  1.00  0.00    -0.352 N 
ATOM     30  C   UNL A   1      41.553  19.554  26.116  1.00  0.00     0.251 C 
ATOM     31  H   UNL A   1      40.072  18.224  25.912  1.00  0.00     0.163 HD
ATOM     32  O   UNL A   1      42.429  18.749  25.815  1.00  0.00    -0.269 OA
BRANCH  30  33
ATOM     33  C   UNL A   1      41.911  20.920  26.549  1.00  0.00     0.039 A 
ATOM     34  C   UNL A   1      41.868  21.977  25.640  1.00  0.00     0.014 A 
ATOM     35  C   UNL A   1      42.308  21.147  27.870  1.00  0.00     0.014 A 
ATOM     36  C   UNL A   1      42.411  23.204  25.989  1.00  0.00     0.010 A 
ATOM     37  C   UNL A   1      42.749  22.418  28.251  1.00  0.00     0.010 A 
ATOM     38  C   UNL A   1      42.854  23.444  27.300  1.00  0.00    -0.014 A 
BRANCH  38  39
ATOM     39  C   UNL A   1      43.416  24.777  27.639  1.00  0.00     0.031 A 
ATOM     40  C   UNL A   1      44.861  25.094  27.363  1.00  0.00     0.074 A 
ATOM     41  C   UNL A   1      42.590  25.733  28.110  1.00  0.00     0.049 A 
ATOM     42  N   UNL A   1      45.504  26.217  27.559  1.00  0.00    -0.248 NA
ATOM     43  C   UNL A   1      45.693  24.023  26.792  1.00  0.00     0.031 C 
ATOM     44  C   UNL A   1      41.160  25.548  28.372  1.00  0.00     0.029 A 
ATOM     45  N   UNL A   1      42.811  27.055  28.400  1.00  0.00    -0.354 N 
ATOM     46  C   UNL A   1      46.812  25.985  27.151  1.00  0.00     0.074 A 
ATOM     47  C   UNL A   1      46.883  24.605  26.725  1.00  0.00     0.031 C 
ATOM     48  C   UNL A   1      40.616  26.731  28.687  1.00  0.00     0.029 A 
ATOM     49  C   UNL A   1      41.669  27.740  28.743  1.00  0.00     0.049 A 
ATOM     50  H   UNL A   1      43.702  27.473  28.367  1.00  0.00     0.167 HD
ATOM     51  C   UNL A   1      47.855  26.849  27.119  1.00  0.00     0.031 A 
ATOM     52  C   UNL A   1      41.481  29.032  29.072  1.00  0.00     0.031 A 
ATOM     53  C   UNL A   1      47.772  28.223  27.541  1.00  0.00     0.049 A 
ATOM     54  C   UNL A   1      42.665  29.952  29.100  1.00  0.00     0.074 A 
ATOM     55  C   UNL A   1      48.779  29.171  27.577  1.00  0.00     0.029 A 
ATOM     56  N   UNL A   1      46.617  28.850  27.988  1.00  0.00    -0.354 N 
ATOM     57  N   UNL A   1      43.906  29.698  28.762  1.00  0.00    -0.248 NA
ATOM     58  C   UNL A   1      42.433  31.324  29.571  1.00  0.00     0.031 C 
ATOM     59  C   UNL A   1      48.246  30.355  28.093  1.00  0.00     0.029 A 
ATOM     60  C   UNL A   1      46.891  30.166  28.317  1.00  0.00     0.049 A 
ATOM     61  H   UNL A   1      45.733  28.422  28.058  1.00  0.00     0.167 HD
ATOM     62  C   UNL A   1      44.607  30.878  28.980  1.00  0.00     0.074 A 
ATOM     63  C   UNL A   1      43.646  31.853  29.457  1.00  0.00     0.031 C 
ATOM     64  C   UNL A   1      45.927  31.123  28.805  1.00  0.00     0.031 A 
BRANCH  51  65
ATOM     65  C   UNL A   1      49.183  26.341  26.621  1.00  0.00    -0.014 A 
ATOM     66  C   UNL A   1      50.116  25.809  27.530  1.00  0.00     0.010 A 
ATOM     67  C   UNL A   1      49.543  26.467  25.267  1.00  0.00     0.010 A 
ATOM     68  C   UNL A   1      51.391  25.426  27.099  1.00  0.00     0.020 A 
ATOM     69  C   UNL A   1      50.807  26.061  24.827  1.00  0.00     0.020 A 
ATOM     70  C   UNL A   1      51.730  25.561  25.750  1.00  0.00     0.054 A 
BRANCH  70  71
ATOM     71  S   UNL A   1      53.382  25.048  25.203  1.00  0.00     0.124 S 
ATOM     72  O   UNL A   1      54.248  25.709  26.175  1.00  0.00    -0.237 OA
ATOM     73  O   UNL A   1      53.317  23.592  25.303  1.00  0.00    -0.237 OA
ATOM     74  O   UNL A   1      53.463  25.564  23.838  1.00  0.00    -0.744 OA
ENDBRANCH  70  71
ENDBRANCH  51  65
BRANCH  52  75
ATOM     75  C   UNL A   1      40.102  29.505  29.374  1.00  0.00    -0.014 A 
ATOM     76  C   UNL A   1      39.218  29.836  28.329  1.00  0.00     0.010 A 
ATOM     77  C   UNL A   1      39.715  29.752  30.702  1.00  0.00     0.010 A 
ATOM     78  C   UNL A   1      38.008  30.477  28.600  1.00  0.00     0.020 A 
ATOM     79  C   UNL A   1      38.489  30.366  30.979  1.00  0.00     0.020 A 
ATOM     80  C   UNL A   1      37.661  30.758  29.924  1.00  0.00     0.054 A 
BRANCH  80  81
ATOM     81  S   UNL A   1      36.128  31.672  30.247  1.00  0.00     0.124 S 
ATOM     82  O   UNL A   1      36.588  33.057  30.183  1.00  0.00    -0.237 OA
ATOM     83  O   UNL A   1      35.262  31.244  29.152  1.00  0.00    -0.237 OA
ATOM     84  O   UNL A   1      35.728  31.207  31.573  1.00  0.00    -0.744 OA
ENDBRANCH  80  81
ENDBRANCH  52  75
BRANCH  64  85
ATOM     85  C   UNL A   1      46.440  32.496  29.140  1.00  0.00    -0.014 A 
ATOM     86  C   UNL A   1      46.802  32.802  30.464  1.00  0.00     0.010 A 
ATOM     87  C   UNL A   1      46.429  33.519  28.175  1.00  0.00     0.010 A 
ATOM     88  C   UNL A   1      47.106  34.115  30.829  1.00  0.00     0.020 A 
ATOM     89  C   UNL A   1      46.757  34.830  28.531  1.00  0.00     0.020 A 
ATOM     90  C   UNL A   1      47.067  35.123  29.863  1.00  0.00     0.054 A 
BRANCH  90  91
ATOM     91  S   UNL A   1      47.416  36.832  30.364  1.00  0.00     0.124 S 
ATOM     92  O   UNL A   1      46.849  36.877  31.710  1.00  0.00    -0.237 OA
ATOM     93  O   UNL A   1      48.874  36.896  30.292  1.00  0.00    -0.237 OA
ATOM     94  O   UNL A   1      46.715  37.632  29.363  1.00  0.00    -0.744 OA
ENDBRANCH  90  91
ENDBRANCH  64  85
ENDBRANCH  38  39
ENDBRANCH  30  33
ENDBRANCH  28  29
ENDBRANCH   1  28
TORSDOF 17
ENDMDL
