MODEL 1
REMARK VINA RESULT:     -13.3      0.000      0.000
REMARK SMILES CCOc1cc2c(cc1/C=C1/C(=O)N(c3cccc(C(=O)NCCCNC(=O)c4ccc(-c5c6nc(c(-c7ccc(S(=O)(=O)[O-])cc7)c7ccc([nH]7)c(-c7ccc(S(=O)(=O)[O-])cc7)c7nc(c(-c8ccc(S(=O)(=O)[O-])cc8)c8ccc5[nH]8)C=C7)C=C6)cc4)c3)C(=S)N=C1O)OCO2
REMARK SMILES IDX 23 1 22 2 20 3 21 4 19 6 15 7 16 8 89 9 17 10 18 11 14 12
REMARK SMILES IDX 10 13 11 14 12 15 93 16 13 17 92 18 90 19 91 20 9 21 4 22
REMARK SMILES IDX 5 23 6 24 8 25 7 26 97 27 95 28 96 29 3 30 2 31 1 32 94 33
REMARK SMILES IDX 24 35 25 36 26 37 27 38 28 40 29 41 30 42 88 43 31 44 87 45
REMARK SMILES IDX 32 46 33 47 34 48 81 49 35 50 86 51 80 52 82 53 36 54 85 55
REMARK SMILES IDX 79 56 78 57 37 59 67 60 48 61 66 62 49 63 52 64 65 65 83 66
REMARK SMILES IDX 50 67 51 68 64 70 84 71 53 72 38 73 39 74 47 75 40 76 46 77
REMARK SMILES IDX 41 78 42 79 43 80 44 81 45 82 68 83 69 84 77 85 70 86 76 87
REMARK SMILES IDX 71 88 72 89 73 90 74 91 75 92 54 93 55 94 63 95 56 96 62 97
REMARK SMILES IDX 57 98 58 99 59 100 60 101 61 102
REMARK H PARENT 22 5 94 34 26 39 82 58 52 69
REMARK Flexibility Score: inf
ROOT
ATOM      1  C   UNL A   1      33.758  29.384  26.463  1.00  0.00     0.118 C 
ENDROOT
BRANCH   1   2
ATOM      2  N   UNL A   1      32.790  30.474  26.491  1.00  0.00    -0.352 N 
ATOM      3  C   UNL A   1      31.586  30.701  25.863  1.00  0.00     0.251 C 
ATOM      4  O   UNL A   1      30.999  31.754  26.119  1.00  0.00    -0.269 OA
ATOM      5  H   UNL A   1      33.055  31.209  27.090  1.00  0.00     0.163 HD
BRANCH   3   6
ATOM      6  C   UNL A   1      30.996  29.783  24.849  1.00  0.00     0.041 A 
ATOM      7  C   UNL A   1      31.042  27.711  23.577  1.00  0.00     0.052 A 
ATOM      8  C   UNL A   1      30.081  28.244  22.704  1.00  0.00     0.027 A 
ATOM      9  C   UNL A   1      31.357  28.442  24.728  1.00  0.00     0.040 A 
ATOM     10  C   UNL A   1      29.567  29.526  22.909  1.00  0.00     0.003 A 
ATOM     11  C   UNL A   1      30.062  30.311  23.949  1.00  0.00     0.014 A 
BRANCH   7  12
ATOM     12  N   UNL A   1      31.787  26.511  23.246  1.00  0.00    -0.251 N 
ATOM     13  C   UNL A   1      32.157  23.024  24.306  1.00  0.00     0.031 C 
ATOM     14  C   UNL A   1      32.266  24.119  23.518  1.00  0.00     0.103 C 
ATOM     15  C   UNL A   1      31.377  25.289  23.812  1.00  0.00     0.270 C 
ATOM     16  C   UNL A   1      33.128  24.337  22.361  1.00  0.00     0.226 C 
ATOM     17  O   UNL A   1      30.365  25.129  24.496  1.00  0.00    -0.268 OA
ATOM     18  N   UNL A   1      33.441  25.467  21.860  1.00  0.00    -0.184 NA
ATOM     19  C   UNL A   1      32.979  26.601  22.484  1.00  0.00     0.210 C 
ATOM     20  S   UNL A   1      33.940  27.998  22.327  1.00  0.00    -0.038 S 
BRANCH  13  21
ATOM     21  C   UNL A   1      32.842  21.711  24.209  1.00  0.00     0.021 A 
ATOM     22  C   UNL A   1      34.106  21.510  24.830  1.00  0.00     0.130 A 
ATOM     23  C   UNL A   1      34.648  20.228  24.986  1.00  0.00     0.097 A 
ATOM     24  C   UNL A   1      33.977  19.179  24.412  1.00  0.00     0.169 A 
ATOM     25  C   UNL A   1      32.267  20.627  23.529  1.00  0.00     0.062 A 
ATOM     26  C   UNL A   1      32.835  19.376  23.679  1.00  0.00     0.166 A 
ATOM     27  O   UNL A   1      34.335  17.870  24.485  1.00  0.00    -0.453 OA
ATOM     28  O   UNL A   1      32.330  18.213  23.191  1.00  0.00    -0.454 OA
ATOM     29  C   UNL A   1      33.245  17.256  23.763  1.00  0.00     0.468 C 
BRANCH  22  30
ATOM     30  O   UNL A   1      34.815  22.565  25.354  1.00  0.00    -0.493 OA
BRANCH  30  31
ATOM     31  C   UNL A   1      36.234  22.358  25.209  1.00  0.00     0.226 C 
ATOM     32  C   UNL A   1      37.032  23.637  25.438  1.00  0.00     0.049 C 
ENDBRANCH  30  31
ENDBRANCH  22  30
ENDBRANCH  13  21
BRANCH  16  33
ATOM     33  O   UNL A   1      33.591  23.264  21.724  1.00  0.00    -0.493 OA
ATOM     34  H   UNL A   1      34.269  23.356  21.084  1.00  0.00     0.295 HD
ENDBRANCH  16  33
ENDBRANCH   7  12
ENDBRANCH   3   6
ENDBRANCH   1   2
BRANCH   1  35
ATOM     35  C   UNL A   1      34.736  29.383  27.625  1.00  0.00     0.042 C 
BRANCH  35  36
ATOM     36  C   UNL A   1      35.315  30.745  27.965  1.00  0.00     0.118 C 
BRANCH  36  37
ATOM     37  N   UNL A   1      35.370  30.992  29.402  1.00  0.00    -0.352 N 
ATOM     38  C   UNL A   1      36.320  30.672  30.343  1.00  0.00     0.251 C 
ATOM     39  H   UNL A   1      34.589  31.471  29.761  1.00  0.00     0.163 HD
ATOM     40  O   UNL A   1      36.043  30.795  31.533  1.00  0.00    -0.269 OA
BRANCH  38  41
ATOM     41  C   UNL A   1      37.656  30.168  29.946  1.00  0.00     0.039 A 
ATOM     42  C   UNL A   1      38.034  30.231  28.601  1.00  0.00     0.014 A 
ATOM     43  C   UNL A   1      38.521  29.593  30.878  1.00  0.00     0.014 A 
ATOM     44  C   UNL A   1      39.302  29.791  28.211  1.00  0.00     0.010 A 
ATOM     45  C   UNL A   1      39.819  29.254  30.508  1.00  0.00     0.010 A 
ATOM     46  C   UNL A   1      40.222  29.337  29.169  1.00  0.00    -0.014 A 
BRANCH  46  47
ATOM     47  C   UNL A   1      41.603  28.929  28.801  1.00  0.00     0.031 A 
ATOM     48  C   UNL A   1      42.708  29.953  28.763  1.00  0.00     0.074 A 
ATOM     49  C   UNL A   1      41.846  27.659  28.420  1.00  0.00     0.049 A 
ATOM     50  N   UNL A   1      43.948  29.816  28.369  1.00  0.00    -0.248 NA
ATOM     51  C   UNL A   1      42.365  31.321  29.191  1.00  0.00     0.031 C 
ATOM     52  C   UNL A   1      40.853  26.583  28.368  1.00  0.00     0.029 A 
ATOM     53  N   UNL A   1      43.005  27.059  27.992  1.00  0.00    -0.354 N 
ATOM     54  C   UNL A   1      44.521  31.078  28.475  1.00  0.00     0.074 A 
ATOM     55  C   UNL A   1      43.482  31.979  28.921  1.00  0.00     0.031 C 
ATOM     56  C   UNL A   1      41.450  25.451  27.961  1.00  0.00     0.029 A 
ATOM     57  C   UNL A   1      42.854  25.728  27.680  1.00  0.00     0.049 A 
ATOM     58  H   UNL A   1      43.862  27.536  27.917  1.00  0.00     0.167 HD
ATOM     59  C   UNL A   1      45.803  31.453  28.243  1.00  0.00     0.031 A 
ATOM     60  C   UNL A   1      43.744  24.831  27.210  1.00  0.00     0.031 A 
ATOM     61  C   UNL A   1      46.840  30.548  27.824  1.00  0.00     0.049 A 
ATOM     62  C   UNL A   1      45.163  25.267  26.970  1.00  0.00     0.074 A 
ATOM     63  C   UNL A   1      48.183  30.814  27.624  1.00  0.00     0.029 A 
ATOM     64  N   UNL A   1      46.651  29.203  27.544  1.00  0.00    -0.354 N 
ATOM     65  N   UNL A   1      45.699  26.453  27.136  1.00  0.00    -0.248 NA
ATOM     66  C   UNL A   1      46.100  24.241  26.490  1.00  0.00     0.031 C 
ATOM     67  C   UNL A   1      48.798  29.639  27.180  1.00  0.00     0.029 A 
ATOM     68  C   UNL A   1      47.849  28.629  27.156  1.00  0.00     0.049 A 
ATOM     69  H   UNL A   1      45.792  28.728  27.613  1.00  0.00     0.167 HD
ATOM     70  C   UNL A   1      47.042  26.309  26.805  1.00  0.00     0.074 A 
ATOM     71  C   UNL A   1      47.238  24.920  26.445  1.00  0.00     0.031 C 
ATOM     72  C   UNL A   1      48.025  27.244  26.801  1.00  0.00     0.031 A 
BRANCH  59  73
ATOM     73  C   UNL A   1      46.151  32.906  28.437  1.00  0.00    -0.014 A 
ATOM     74  C   UNL A   1      46.210  33.791  27.345  1.00  0.00     0.010 A 
ATOM     75  C   UNL A   1      46.391  33.402  29.731  1.00  0.00     0.010 A 
ATOM     76  C   UNL A   1      46.548  35.133  27.537  1.00  0.00     0.020 A 
ATOM     77  C   UNL A   1      46.701  34.751  29.932  1.00  0.00     0.020 A 
ATOM     78  C   UNL A   1      46.795  35.604  28.831  1.00  0.00     0.054 A 
BRANCH  78  79
ATOM     79  S   UNL A   1      47.214  37.354  29.053  1.00  0.00     0.124 S 
ATOM     80  O   UNL A   1      46.517  37.975  27.929  1.00  0.00    -0.237 OA
ATOM     81  O   UNL A   1      46.664  37.651  30.373  1.00  0.00    -0.237 OA
ATOM     82  O   UNL A   1      48.673  37.375  28.970  1.00  0.00    -0.744 OA
ENDBRANCH  78  79
ENDBRANCH  59  73
BRANCH  60  83
ATOM     83  C   UNL A   1      43.320  23.427  26.959  1.00  0.00    -0.014 A 
ATOM     84  C   UNL A   1      43.235  22.935  25.644  1.00  0.00     0.010 A 
ATOM     85  C   UNL A   1      43.017  22.568  28.030  1.00  0.00     0.010 A 
ATOM     86  C   UNL A   1      42.842  21.614  25.405  1.00  0.00     0.020 A 
ATOM     87  C   UNL A   1      42.651  21.240  27.797  1.00  0.00     0.020 A 
ATOM     88  C   UNL A   1      42.554  20.774  26.484  1.00  0.00     0.054 A 
BRANCH  88  89
ATOM     89  S   UNL A   1      42.103  19.048  26.152  1.00  0.00     0.124 S 
ATOM     90  O   UNL A   1      43.034  18.691  25.086  1.00  0.00    -0.237 OA
ATOM     91  O   UNL A   1      42.342  18.406  27.442  1.00  0.00    -0.237 OA
ATOM     92  O   UNL A   1      40.700  19.131  25.758  1.00  0.00    -0.744 OA
ENDBRANCH  88  89
ENDBRANCH  60  83
BRANCH  72  93
ATOM     93  C   UNL A   1      49.410  26.789  26.427  1.00  0.00    -0.014 A 
ATOM     94  C   UNL A   1      50.253  26.173  27.368  1.00  0.00     0.010 A 
ATOM     95  C   UNL A   1      49.850  26.929  25.098  1.00  0.00     0.010 A 
ATOM     96  C   UNL A   1      51.525  25.732  26.993  1.00  0.00     0.020 A 
ATOM     97  C   UNL A   1      51.109  26.465  24.713  1.00  0.00     0.020 A 
ATOM     98  C   UNL A   1      51.946  25.882  25.668  1.00  0.00     0.054 A 
BRANCH  98  99
ATOM     99  S   UNL A   1      53.583  25.262  25.195  1.00  0.00     0.124 S 
ATOM    100  O   UNL A   1      53.641  25.610  23.778  1.00  0.00    -0.237 OA
ATOM    101  O   UNL A   1      54.477  26.021  26.067  1.00  0.00    -0.237 OA
ATOM    102  O   UNL A   1      53.507  23.831  25.483  1.00  0.00    -0.744 OA
ENDBRANCH  98  99
ENDBRANCH  72  93
ENDBRANCH  46  47
ENDBRANCH  38  41
ENDBRANCH  36  37
ENDBRANCH  35  36
ENDBRANCH   1  35
TORSDOF 18
ENDMDL
MODEL 2
REMARK VINA RESULT:     -13.1      0.625      7.762
REMARK SMILES CCOc1cc2c(cc1/C=C1/C(=O)N(c3cccc(C(=O)NCCCNC(=O)c4ccc(-c5c6nc(c(-c7ccc(S(=O)(=O)[O-])cc7)c7ccc([nH]7)c(-c7ccc(S(=O)(=O)[O-])cc7)c7nc(c(-c8ccc(S(=O)(=O)[O-])cc8)c8ccc5[nH]8)C=C7)C=C6)cc4)c3)C(=S)N=C1O)OCO2
REMARK SMILES IDX 23 1 22 2 20 3 21 4 19 6 15 7 16 8 89 9 17 10 18 11 14 12
REMARK SMILES IDX 10 13 11 14 12 15 93 16 13 17 92 18 90 19 91 20 9 21 4 22
REMARK SMILES IDX 5 23 6 24 8 25 7 26 97 27 95 28 96 29 3 30 2 31 1 32 94 33
REMARK SMILES IDX 24 35 25 36 26 37 27 38 28 40 29 41 30 42 88 43 31 44 87 45
REMARK SMILES IDX 32 46 33 47 34 48 81 49 35 50 86 51 80 52 82 53 36 54 85 55
REMARK SMILES IDX 79 56 78 57 37 59 67 60 48 61 66 62 49 63 52 64 65 65 83 66
REMARK SMILES IDX 50 67 51 68 64 70 84 71 53 72 38 73 39 74 47 75 40 76 46 77
REMARK SMILES IDX 41 78 42 79 43 80 44 81 45 82 68 83 69 84 77 85 70 86 76 87
REMARK SMILES IDX 71 88 72 89 73 90 74 91 75 92 54 93 55 94 63 95 56 96 62 97
REMARK SMILES IDX 57 98 58 99 59 100 60 101 61 102
REMARK H PARENT 22 5 94 34 26 39 82 58 52 69
REMARK Flexibility Score: inf
ROOT
ATOM      1  C   UNL A   1      33.405  28.969  27.266  1.00  0.00     0.118 C 
ENDROOT
BRANCH   1   2
ATOM      2  N   UNL A   1      32.721  30.240  27.054  1.00  0.00    -0.352 N 
ATOM      3  C   UNL A   1      31.736  30.664  26.190  1.00  0.00     0.251 C 
ATOM      4  O   UNL A   1      31.367  31.836  26.279  1.00  0.00    -0.269 OA
ATOM      5  H   UNL A   1      33.031  30.950  27.661  1.00  0.00     0.163 HD
BRANCH   3   6
ATOM      6  C   UNL A   1      31.150  29.809  25.120  1.00  0.00     0.041 A 
ATOM      7  C   UNL A   1      31.174  27.794  23.759  1.00  0.00     0.052 A 
ATOM      8  C   UNL A   1      30.255  28.394  22.885  1.00  0.00     0.027 A 
ATOM      9  C   UNL A   1      31.476  28.465  24.950  1.00  0.00     0.040 A 
ATOM     10  C   UNL A   1      29.771  29.680  23.132  1.00  0.00     0.003 A 
ATOM     11  C   UNL A   1      30.258  30.404  24.220  1.00  0.00     0.014 A 
BRANCH   7  12
ATOM     12  N   UNL A   1      31.894  26.588  23.396  1.00  0.00    -0.251 N 
ATOM     13  C   UNL A   1      32.288  23.100  24.444  1.00  0.00     0.031 C 
ATOM     14  C   UNL A   1      32.367  24.193  23.650  1.00  0.00     0.103 C 
ATOM     15  C   UNL A   1      31.502  25.371  23.983  1.00  0.00     0.270 C 
ATOM     16  C   UNL A   1      33.175  24.402  22.454  1.00  0.00     0.226 C 
ATOM     17  O   UNL A   1      30.523  25.219  24.714  1.00  0.00    -0.268 OA
ATOM     18  N   UNL A   1      33.473  25.530  21.936  1.00  0.00    -0.184 NA
ATOM     19  C   UNL A   1      33.049  26.668  22.578  1.00  0.00     0.210 C 
ATOM     20  S   UNL A   1      34.012  28.058  22.374  1.00  0.00    -0.038 S 
BRANCH  13  21
ATOM     21  C   UNL A   1      32.958  21.783  24.318  1.00  0.00     0.021 A 
ATOM     22  C   UNL A   1      34.274  21.592  24.821  1.00  0.00     0.130 A 
ATOM     23  C   UNL A   1      34.827  20.312  24.960  1.00  0.00     0.097 A 
ATOM     24  C   UNL A   1      34.102  19.252  24.480  1.00  0.00     0.169 A 
ATOM     25  C   UNL A   1      32.319  20.683  23.725  1.00  0.00     0.062 A 
ATOM     26  C   UNL A   1      32.896  19.435  23.854  1.00  0.00     0.166 A 
ATOM     27  O   UNL A   1      34.463  17.943  24.553  1.00  0.00    -0.453 OA
ATOM     28  O   UNL A   1      32.345  18.260  23.447  1.00  0.00    -0.454 OA
ATOM     29  C   UNL A   1      33.308  17.315  23.955  1.00  0.00     0.468 C 
BRANCH  22  30
ATOM     30  O   UNL A   1      35.032  22.657  25.248  1.00  0.00    -0.493 OA
BRANCH  30  31
ATOM     31  C   UNL A   1      36.426  22.299  25.334  1.00  0.00     0.226 C 
ATOM     32  C   UNL A   1      37.322  23.511  25.565  1.00  0.00     0.049 C 
ENDBRANCH  30  31
ENDBRANCH  22  30
ENDBRANCH  13  21
BRANCH  16  33
ATOM     33  O   UNL A   1      33.600  23.326  21.798  1.00  0.00    -0.493 OA
ATOM     34  H   UNL A   1      34.448  23.325  21.398  1.00  0.00     0.295 HD
ENDBRANCH  16  33
ENDBRANCH   7  12
ENDBRANCH   3   6
ENDBRANCH   1   2
BRANCH   1  35
ATOM     35  C   UNL A   1      34.921  29.062  27.247  1.00  0.00     0.042 C 
BRANCH  35  36
ATOM     36  C   UNL A   1      35.489  30.277  27.960  1.00  0.00     0.118 C 
BRANCH  36  37
ATOM     37  N   UNL A   1      35.513  30.120  29.410  1.00  0.00    -0.352 N 
ATOM     38  C   UNL A   1      36.506  29.696  30.261  1.00  0.00     0.251 C 
ATOM     39  H   UNL A   1      34.670  30.360  29.858  1.00  0.00     0.163 HD
ATOM     40  O   UNL A   1      36.220  29.442  31.428  1.00  0.00    -0.269 OA
BRANCH  38  41
ATOM     41  C   UNL A   1      37.901  29.526  29.791  1.00  0.00     0.039 A 
ATOM     42  C   UNL A   1      38.886  29.148  30.710  1.00  0.00     0.014 A 
ATOM     43  C   UNL A   1      38.257  29.778  28.466  1.00  0.00     0.014 A 
ATOM     44  C   UNL A   1      40.202  28.951  30.281  1.00  0.00     0.010 A 
ATOM     45  C   UNL A   1      39.541  29.480  28.019  1.00  0.00     0.010 A 
ATOM     46  C   UNL A   1      40.532  29.074  28.922  1.00  0.00    -0.014 A 
BRANCH  46  47
ATOM     47  C   UNL A   1      41.904  28.803  28.420  1.00  0.00     0.031 A 
ATOM     48  C   UNL A   1      42.284  27.412  27.978  1.00  0.00     0.074 A 
ATOM     49  C   UNL A   1      42.830  29.782  28.439  1.00  0.00     0.049 A 
ATOM     50  N   UNL A   1      43.452  26.954  27.608  1.00  0.00    -0.248 NA
ATOM     51  C   UNL A   1      41.218  26.395  27.987  1.00  0.00     0.031 C 
ATOM     52  C   UNL A   1      42.602  31.158  28.887  1.00  0.00     0.029 A 
ATOM     53  N   UNL A   1      44.156  29.767  28.082  1.00  0.00    -0.354 N 
ATOM     54  C   UNL A   1      43.268  25.597  27.369  1.00  0.00     0.074 A 
ATOM     55  C   UNL A   1      41.890  25.294  27.684  1.00  0.00     0.031 C 
ATOM     56  C   UNL A   1      43.738  31.860  28.752  1.00  0.00     0.029 A 
ATOM     57  C   UNL A   1      44.787  30.977  28.253  1.00  0.00     0.049 A 
ATOM     58  H   UNL A   1      44.612  28.966  27.737  1.00  0.00     0.167 HD
ATOM     59  C   UNL A   1      44.159  24.686  26.908  1.00  0.00     0.031 A 
ATOM     60  C   UNL A   1      46.068  31.336  28.040  1.00  0.00     0.031 A 
ATOM     61  C   UNL A   1      45.523  24.997  26.571  1.00  0.00     0.049 A 
ATOM     62  C   UNL A   1      47.037  30.311  27.518  1.00  0.00     0.074 A 
ATOM     63  C   UNL A   1      46.488  24.162  26.036  1.00  0.00     0.029 A 
ATOM     64  N   UNL A   1      46.114  26.241  26.734  1.00  0.00    -0.354 N 
ATOM     65  N   UNL A   1      46.826  29.046  27.240  1.00  0.00    -0.248 NA
ATOM     66  C   UNL A   1      48.413  30.764  27.271  1.00  0.00     0.031 C 
ATOM     67  C   UNL A   1      47.676  24.889  25.917  1.00  0.00     0.029 A 
ATOM     68  C   UNL A   1      47.437  26.191  26.326  1.00  0.00     0.049 A 
ATOM     69  H   UNL A   1      45.660  27.040  27.086  1.00  0.00     0.167 HD
ATOM     70  C   UNL A   1      48.037  28.559  26.760  1.00  0.00     0.074 A 
ATOM     71  C   UNL A   1      48.969  29.668  26.773  1.00  0.00     0.031 C 
ATOM     72  C   UNL A   1      48.349  27.306  26.346  1.00  0.00     0.031 A 
BRANCH  59  73
ATOM     73  C   UNL A   1      43.683  23.266  26.743  1.00  0.00    -0.014 A 
ATOM     74  C   UNL A   1      43.182  22.536  27.837  1.00  0.00     0.010 A 
ATOM     75  C   UNL A   1      43.707  22.662  25.473  1.00  0.00     0.010 A 
ATOM     76  C   UNL A   1      42.757  21.215  27.673  1.00  0.00     0.020 A 
ATOM     77  C   UNL A   1      43.255  21.350  25.298  1.00  0.00     0.020 A 
ATOM     78  C   UNL A   1      42.800  20.629  26.404  1.00  0.00     0.054 A 
BRANCH  78  79
ATOM     79  S   UNL A   1      42.225  18.919  26.217  1.00  0.00     0.124 S 
ATOM     80  O   UNL A   1      43.189  18.380  25.262  1.00  0.00    -0.237 OA
ATOM     81  O   UNL A   1      42.330  18.395  27.577  1.00  0.00    -0.237 OA
ATOM     82  O   UNL A   1      40.862  19.065  25.712  1.00  0.00    -0.744 OA
ENDBRANCH  78  79
ENDBRANCH  59  73
BRANCH  60  83
ATOM     83  C   UNL A   1      46.500  32.737  28.300  1.00  0.00    -0.014 A 
ATOM     84  C   UNL A   1      47.011  33.101  29.558  1.00  0.00     0.010 A 
ATOM     85  C   UNL A   1      46.421  33.709  27.287  1.00  0.00     0.010 A 
ATOM     86  C   UNL A   1      47.422  34.415  29.804  1.00  0.00     0.020 A 
ATOM     87  C   UNL A   1      46.856  35.017  27.520  1.00  0.00     0.020 A 
ATOM     88  C   UNL A   1      47.344  35.364  28.782  1.00  0.00     0.054 A 
BRANCH  88  89
ATOM     89  S   UNL A   1      47.938  37.048  29.105  1.00  0.00     0.124 S 
ATOM     90  O   UNL A   1      46.704  37.824  29.032  1.00  0.00    -0.237 OA
ATOM     91  O   UNL A   1      48.530  36.925  30.434  1.00  0.00    -0.237 OA
ATOM     92  O   UNL A   1      48.893  37.286  28.027  1.00  0.00    -0.744 OA
ENDBRANCH  88  89
ENDBRANCH  60  83
BRANCH  72  93
ATOM     93  C   UNL A   1      49.747  27.074  25.840  1.00  0.00    -0.014 A 
ATOM     94  C   UNL A   1      50.726  26.475  26.652  1.00  0.00     0.010 A 
ATOM     95  C   UNL A   1      50.067  27.408  24.511  1.00  0.00     0.010 A 
ATOM     96  C   UNL A   1      52.011  26.243  26.152  1.00  0.00     0.020 A 
ATOM     97  C   UNL A   1      51.341  27.153  24.000  1.00  0.00     0.020 A 
ATOM     98  C   UNL A   1      52.310  26.584  24.830  1.00  0.00     0.054 A 
BRANCH  98  99
ATOM     99  S   UNL A   1      53.970  26.232  24.191  1.00  0.00     0.124 S 
ATOM    100  O   UNL A   1      54.716  27.412  24.621  1.00  0.00    -0.237 OA
ATOM    101  O   UNL A   1      54.318  24.986  24.871  1.00  0.00    -0.237 OA
ATOM    102  O   UNL A   1      53.769  26.113  22.749  1.00  0.00    -0.744 OA
ENDBRANCH  98  99
ENDBRANCH  72  93
ENDBRANCH  46  47
ENDBRANCH  38  41
ENDBRANCH  36  37
ENDBRANCH  35  36
ENDBRANCH   1  35
TORSDOF 18
ENDMDL
MODEL 3
REMARK VINA RESULT:     -13.1      5.911     11.955
REMARK SMILES CCOc1cc2c(cc1/C=C1/C(=O)N(c3cccc(C(=O)NCCCNC(=O)c4ccc(-c5c6nc(c(-c7ccc(S(=O)(=O)[O-])cc7)c7ccc([nH]7)c(-c7ccc(S(=O)(=O)[O-])cc7)c7nc(c(-c8ccc(S(=O)(=O)[O-])cc8)c8ccc5[nH]8)C=C7)C=C6)cc4)c3)C(=S)N=C1O)OCO2
REMARK SMILES IDX 23 1 22 2 20 3 21 4 19 6 15 7 16 8 89 9 17 10 18 11 14 12
REMARK SMILES IDX 10 13 11 14 12 15 93 16 13 17 92 18 90 19 91 20 9 21 4 22
REMARK SMILES IDX 5 23 6 24 8 25 7 26 97 27 95 28 96 29 3 30 2 31 1 32 94 33
REMARK SMILES IDX 24 35 25 36 26 37 27 38 28 40 29 41 30 42 88 43 31 44 87 45
REMARK SMILES IDX 32 46 33 47 34 48 81 49 35 50 86 51 80 52 82 53 36 54 85 55
REMARK SMILES IDX 79 56 78 57 37 59 67 60 48 61 66 62 49 63 52 64 65 65 83 66
REMARK SMILES IDX 50 67 51 68 64 70 84 71 53 72 38 73 39 74 47 75 40 76 46 77
REMARK SMILES IDX 41 78 42 79 43 80 44 81 45 82 68 83 69 84 77 85 70 86 76 87
REMARK SMILES IDX 71 88 72 89 73 90 74 91 75 92 54 93 55 94 63 95 56 96 62 97
REMARK SMILES IDX 57 98 58 99 59 100 60 101 61 102
REMARK H PARENT 22 5 94 34 26 39 82 58 52 69
REMARK Flexibility Score: inf
ROOT
ATOM      1  C   UNL A   1      36.712  22.591  26.169  1.00  0.00     0.118 C 
ENDROOT
BRANCH   1   2
ATOM      2  N   UNL A   1      37.081  21.283  25.640  1.00  0.00    -0.352 N 
ATOM      3  C   UNL A   1      36.388  20.276  25.006  1.00  0.00     0.251 C 
ATOM      4  O   UNL A   1      37.019  19.272  24.672  1.00  0.00    -0.269 OA
ATOM      5  H   UNL A   1      38.036  21.074  25.761  1.00  0.00     0.163 HD
BRANCH   3   6
ATOM      6  C   UNL A   1      34.917  20.308  24.769  1.00  0.00     0.041 A 
ATOM      7  C   UNL A   1      32.791  21.487  24.763  1.00  0.00     0.052 A 
ATOM      8  C   UNL A   1      32.126  20.256  24.665  1.00  0.00     0.027 A 
ATOM      9  C   UNL A   1      34.186  21.488  24.650  1.00  0.00     0.040 A 
ATOM     10  C   UNL A   1      32.846  19.061  24.600  1.00  0.00     0.003 A 
ATOM     11  C   UNL A   1      34.237  19.086  24.704  1.00  0.00     0.014 A 
BRANCH   7  12
ATOM     12  N   UNL A   1      32.084  22.708  25.102  1.00  0.00    -0.251 N 
ATOM     13  C   UNL A   1      30.999  25.865  23.592  1.00  0.00     0.031 C 
ATOM     14  C   UNL A   1      31.066  24.857  24.493  1.00  0.00     0.103 C 
ATOM     15  C   UNL A   1      31.683  23.562  24.058  1.00  0.00     0.270 C 
ATOM     16  C   UNL A   1      30.584  24.822  25.869  1.00  0.00     0.226 C 
ATOM     17  O   UNL A   1      31.793  23.314  22.856  1.00  0.00    -0.268 OA
ATOM     18  N   UNL A   1      30.952  24.000  26.773  1.00  0.00    -0.184 NA
ATOM     19  C   UNL A   1      31.931  23.089  26.459  1.00  0.00     0.210 C 
ATOM     20  S   UNL A   1      32.915  22.558  27.743  1.00  0.00    -0.038 S 
BRANCH  13  21
ATOM     21  C   UNL A   1      30.386  27.211  23.715  1.00  0.00     0.021 A 
ATOM     22  C   UNL A   1      31.132  28.297  24.248  1.00  0.00     0.130 A 
ATOM     23  C   UNL A   1      30.685  29.619  24.132  1.00  0.00     0.097 A 
ATOM     24  C   UNL A   1      29.442  29.825  23.591  1.00  0.00     0.169 A 
ATOM     25  C   UNL A   1      29.072  27.464  23.294  1.00  0.00     0.062 A 
ATOM     26  C   UNL A   1      28.646  28.775  23.210  1.00  0.00     0.166 A 
ATOM     27  O   UNL A   1      28.859  31.033  23.373  1.00  0.00    -0.453 OA
ATOM     28  O   UNL A   1      27.453  29.191  22.707  1.00  0.00    -0.454 OA
ATOM     29  C   UNL A   1      27.622  30.622  22.748  1.00  0.00     0.468 C 
BRANCH  22  30
ATOM     30  O   UNL A   1      32.353  28.093  24.847  1.00  0.00    -0.493 OA
BRANCH  30  31
ATOM     31  C   UNL A   1      32.318  28.476  26.237  1.00  0.00     0.226 C 
ATOM     32  C   UNL A   1      33.677  28.328  26.913  1.00  0.00     0.049 C 
ENDBRANCH  30  31
ENDBRANCH  22  30
ENDBRANCH  13  21
BRANCH  16  33
ATOM     33  O   UNL A   1      29.631  25.684  26.214  1.00  0.00    -0.493 OA
ATOM     34  H   UNL A   1      29.027  25.467  26.897  1.00  0.00     0.295 HD
ENDBRANCH  16  33
ENDBRANCH   7  12
ENDBRANCH   3   6
ENDBRANCH   1   2
BRANCH   1  35
ATOM     35  C   UNL A   1      37.491  23.751  25.574  1.00  0.00     0.042 C 
BRANCH  35  36
ATOM     36  C   UNL A   1      38.468  24.413  26.528  1.00  0.00     0.118 C 
BRANCH  36  37
ATOM     37  N   UNL A   1      39.848  24.352  26.057  1.00  0.00    -0.352 N 
ATOM     38  C   UNL A   1      40.947  25.117  26.363  1.00  0.00     0.251 C 
ATOM     39  H   UNL A   1      40.021  23.636  25.403  1.00  0.00     0.163 HD
ATOM     40  O   UNL A   1      41.957  25.011  25.672  1.00  0.00    -0.269 OA
BRANCH  38  41
ATOM     41  C   UNL A   1      40.927  26.074  27.494  1.00  0.00     0.039 A 
ATOM     42  C   UNL A   1      41.718  27.226  27.424  1.00  0.00     0.014 A 
ATOM     43  C   UNL A   1      40.171  25.828  28.641  1.00  0.00     0.014 A 
ATOM     44  C   UNL A   1      41.689  28.158  28.466  1.00  0.00     0.010 A 
ATOM     45  C   UNL A   1      40.061  26.804  29.628  1.00  0.00     0.010 A 
ATOM     46  C   UNL A   1      40.827  27.974  29.559  1.00  0.00    -0.014 A 
BRANCH  46  47
ATOM     47  C   UNL A   1      40.716  28.978  30.649  1.00  0.00     0.031 A 
ATOM     48  C   UNL A   1      41.619  28.887  31.853  1.00  0.00     0.074 A 
ATOM     49  C   UNL A   1      39.752  29.919  30.598  1.00  0.00     0.049 A 
ATOM     50  N   UNL A   1      41.608  29.601  32.948  1.00  0.00    -0.248 NA
ATOM     51  C   UNL A   1      42.647  27.831  31.837  1.00  0.00     0.031 C 
ATOM     52  C   UNL A   1      38.785  30.085  29.510  1.00  0.00     0.029 A 
ATOM     53  N   UNL A   1      39.419  30.908  31.489  1.00  0.00    -0.354 N 
ATOM     54  C   UNL A   1      42.602  29.065  33.760  1.00  0.00     0.074 A 
ATOM     55  C   UNL A   1      43.163  27.935  33.052  1.00  0.00     0.031 C 
ATOM     56  C   UNL A   1      37.987  31.129  29.785  1.00  0.00     0.029 A 
ATOM     57  C   UNL A   1      38.354  31.679  31.086  1.00  0.00     0.049 A 
ATOM     58  H   UNL A   1      39.897  31.053  32.338  1.00  0.00     0.167 HD
ATOM     59  C   UNL A   1      43.028  29.486  34.975  1.00  0.00     0.031 A 
ATOM     60  C   UNL A   1      37.734  32.708  31.697  1.00  0.00     0.031 A 
ATOM     61  C   UNL A   1      42.485  30.627  35.664  1.00  0.00     0.049 A 
ATOM     62  C   UNL A   1      38.230  33.166  33.041  1.00  0.00     0.074 A 
ATOM     63  C   UNL A   1      42.888  31.176  36.869  1.00  0.00     0.029 A 
ATOM     64  N   UNL A   1      41.425  31.396  35.208  1.00  0.00    -0.354 N 
ATOM     65  N   UNL A   1      39.213  32.683  33.763  1.00  0.00    -0.248 NA
ATOM     66  C   UNL A   1      37.540  34.313  33.647  1.00  0.00     0.031 C 
ATOM     67  C   UNL A   1      42.043  32.250  37.163  1.00  0.00     0.029 A 
ATOM     68  C   UNL A   1      41.148  32.404  36.116  1.00  0.00     0.049 A 
ATOM     69  H   UNL A   1      40.942  31.247  34.364  1.00  0.00     0.167 HD
ATOM     70  C   UNL A   1      39.276  33.484  34.898  1.00  0.00     0.074 A 
ATOM     71  C   UNL A   1      38.244  34.491  34.757  1.00  0.00     0.031 C 
ATOM     72  C   UNL A   1      40.115  33.396  35.960  1.00  0.00     0.031 A 
BRANCH  59  73
ATOM     73  C   UNL A   1      44.134  28.706  35.636  1.00  0.00    -0.014 A 
ATOM     74  C   UNL A   1      43.851  27.623  36.489  1.00  0.00     0.010 A 
ATOM     75  C   UNL A   1      45.476  29.038  35.378  1.00  0.00     0.010 A 
ATOM     76  C   UNL A   1      44.887  26.917  37.107  1.00  0.00     0.020 A 
ATOM     77  C   UNL A   1      46.517  28.316  35.971  1.00  0.00     0.020 A 
ATOM     78  C   UNL A   1      46.214  27.271  36.846  1.00  0.00     0.054 A 
BRANCH  78  79
ATOM     79  S   UNL A   1      47.538  26.326  37.648  1.00  0.00     0.124 S 
ATOM     80  O   UNL A   1      46.787  25.486  38.577  1.00  0.00    -0.237 OA
ATOM     81  O   UNL A   1      48.156  25.624  36.525  1.00  0.00    -0.237 OA
ATOM     82  O   UNL A   1      48.371  27.353  38.269  1.00  0.00    -0.744 OA
ENDBRANCH  78  79
ENDBRANCH  59  73
BRANCH  60  83
ATOM     83  C   UNL A   1      36.591  33.388  31.029  1.00  0.00    -0.014 A 
ATOM     84  C   UNL A   1      35.393  33.617  31.730  1.00  0.00     0.010 A 
ATOM     85  C   UNL A   1      36.698  33.829  29.698  1.00  0.00     0.010 A 
ATOM     86  C   UNL A   1      34.319  34.260  31.106  1.00  0.00     0.020 A 
ATOM     87  C   UNL A   1      35.637  34.496  29.081  1.00  0.00     0.020 A 
ATOM     88  C   UNL A   1      34.448  34.698  29.786  1.00  0.00     0.054 A 
BRANCH  88  89
ATOM     89  S   UNL A   1      33.063  35.582  29.017  1.00  0.00     0.124 S 
ATOM     90  O   UNL A   1      32.274  35.979  30.179  1.00  0.00    -0.237 OA
ATOM     91  O   UNL A   1      33.735  36.668  28.309  1.00  0.00    -0.237 OA
ATOM     92  O   UNL A   1      32.450  34.574  28.157  1.00  0.00    -0.744 OA
ENDBRANCH  88  89
ENDBRANCH  60  83
BRANCH  72  93
ATOM     93  C   UNL A   1      39.975  34.434  37.040  1.00  0.00    -0.014 A 
ATOM     94  C   UNL A   1      40.732  35.618  37.015  1.00  0.00     0.010 A 
ATOM     95  C   UNL A   1      39.027  34.246  38.063  1.00  0.00     0.010 A 
ATOM     96  C   UNL A   1      40.566  36.582  38.013  1.00  0.00     0.020 A 
ATOM     97  C   UNL A   1      38.839  35.219  39.046  1.00  0.00     0.020 A 
ATOM     98  C   UNL A   1      39.621  36.376  39.023  1.00  0.00     0.054 A 
BRANCH  98  99
ATOM     99  S   UNL A   1      39.392  37.662  40.281  1.00  0.00     0.124 S 
ATOM    100  O   UNL A   1      40.599  38.467  40.115  1.00  0.00    -0.237 OA
ATOM    101  O   UNL A   1      38.147  38.302  39.864  1.00  0.00    -0.237 OA
ATOM    102  O   UNL A   1      39.311  36.911  41.532  1.00  0.00    -0.744 OA
ENDBRANCH  98  99
ENDBRANCH  72  93
ENDBRANCH  46  47
ENDBRANCH  38  41
ENDBRANCH  36  37
ENDBRANCH  35  36
ENDBRANCH   1  35
TORSDOF 18
ENDMDL
