MODEL 1
REMARK VINA RESULT:     -11.4      0.000      0.000
REMARK SMILES C[C@@H]1[C@H](C(=O)NCCCNC(=O)c2ccc(-c3c4nc(c(-c5ccc(S(=O)(=O)[O-])cc5)c5ccc([nH]5)c(-c5ccc(S(=O)(=O)[O-])cc5)c5nc(c(-c6ccc(S(=O)(=O)[O-])cc6)c6ccc3[nH]6)C=C5)C=C4)cc2)CC[N@@H+]1Cc1cnn(-c2ccccc2)c1
REMARK SMILES IDX 8 1 7 2 6 3 4 4 5 5 3 7 1 8 2 9 75 10 73 11 74 12 76 14
REMARK SMILES IDX 77 15 78 16 87 17 79 18 80 19 81 20 82 21 86 22 83 23 85 24
REMARK SMILES IDX 84 25 9 26 10 27 11 28 12 30 13 31 14 32 72 33 15 34 71 35
REMARK SMILES IDX 16 36 17 37 18 38 65 39 19 40 70 41 64 42 66 43 20 44 69 45
REMARK SMILES IDX 63 46 62 47 21 49 51 50 32 51 50 52 33 53 36 54 49 55 67 56
REMARK SMILES IDX 34 57 35 58 48 60 68 61 37 62 22 63 23 64 31 65 24 66 30 67
REMARK SMILES IDX 25 68 26 69 27 70 28 71 29 72 52 73 53 74 61 75 54 76 60 77
REMARK SMILES IDX 55 78 56 79 57 80 58 81 59 82 38 83 39 84 47 85 40 86 46 87
REMARK SMILES IDX 41 88 42 89 43 90 44 91 45 92
REMARK H PARENT 6 6 75 13 10 29 66 48 36 59
REMARK Flexibility Score: inf
ROOT
ATOM      1  C   UNL A   1      33.242  28.777  24.590  1.00  0.00     0.042 C 
ENDROOT
BRANCH   1   2
ATOM      2  C   UNL A   1      34.006  28.357  23.340  1.00  0.00     0.117 C 
BRANCH   2   3
ATOM      3  N   UNL A   1      33.476  27.137  22.760  1.00  0.00    -0.356 N 
ATOM      4  C   UNL A   1      33.580  25.832  23.111  1.00  0.00     0.229 C 
ATOM      5  O   UNL A   1      33.055  25.019  22.339  1.00  0.00    -0.275 OA
ATOM      6  H   UNL A   1      32.932  27.286  21.952  1.00  0.00     0.163 HD
BRANCH   4   7
ATOM      7  C   UNL A   1      34.272  25.318  24.366  1.00  0.00     0.142 C 
ATOM      8  C   UNL A   1      31.973  25.336  25.627  1.00  0.00     0.076 C 
ATOM      9  C   UNL A   1      33.482  25.177  25.681  1.00  0.00     0.193 C 
ATOM     10  N   UNL A   1      34.026  23.970  26.306  1.00  0.00    -0.328 N 
ATOM     11  C   UNL A   1      35.098  24.044  24.225  1.00  0.00     0.081 C 
ATOM     12  C   UNL A   1      35.258  23.569  25.657  1.00  0.00     0.263 C 
ATOM     13  H   UNL A   1      34.204  24.294  27.257  1.00  0.00     0.348 HD
BRANCH  10  14
ATOM     14  C   UNL A   1      33.224  22.981  26.996  1.00  0.00     0.302 C 
BRANCH  14  15
ATOM     15  C   UNL A   1      32.900  21.779  26.173  1.00  0.00     0.045 A 
ATOM     16  C   UNL A   1      32.048  21.678  25.053  1.00  0.00     0.145 A 
ATOM     17  C   UNL A   1      33.455  20.516  26.256  1.00  0.00     0.124 A 
ATOM     18  N   UNL A   1      32.040  20.466  24.502  1.00  0.00    -0.176 NA
ATOM     19  N   UNL A   1      32.903  19.741  25.257  1.00  0.00    -0.240 N 
BRANCH  19  20
ATOM     20  C   UNL A   1      33.118  18.361  25.008  1.00  0.00     0.065 A 
ATOM     21  C   UNL A   1      32.620  17.401  25.903  1.00  0.00     0.028 A 
ATOM     22  C   UNL A   1      33.853  17.947  23.894  1.00  0.00     0.028 A 
ATOM     23  C   UNL A   1      32.840  16.041  25.673  1.00  0.00     0.002 A 
ATOM     24  C   UNL A   1      34.093  16.590  23.694  1.00  0.00     0.002 A 
ATOM     25  C   UNL A   1      33.580  15.636  24.566  1.00  0.00     0.000 A 
ENDBRANCH  19  20
ENDBRANCH  14  15
ENDBRANCH  10  14
ENDBRANCH   4   7
ENDBRANCH   2   3
ENDBRANCH   1   2
BRANCH   1  26
ATOM     26  C   UNL A   1      34.035  28.779  25.888  1.00  0.00     0.118 C 
BRANCH  26  27
ATOM     27  N   UNL A   1      33.719  29.895  26.763  1.00  0.00    -0.352 N 
ATOM     28  C   UNL A   1      34.440  30.529  27.749  1.00  0.00     0.251 C 
ATOM     29  H   UNL A   1      32.819  30.269  26.623  1.00  0.00     0.163 HD
ATOM     30  O   UNL A   1      33.879  31.416  28.394  1.00  0.00    -0.269 OA
BRANCH  28  31
ATOM     31  C   UNL A   1      35.843  30.164  28.090  1.00  0.00     0.039 A 
ATOM     32  C   UNL A   1      36.105  29.670  29.378  1.00  0.00     0.014 A 
ATOM     33  C   UNL A   1      36.914  30.335  27.212  1.00  0.00     0.014 A 
ATOM     34  C   UNL A   1      37.395  29.260  29.741  1.00  0.00     0.010 A 
ATOM     35  C   UNL A   1      38.185  29.858  27.543  1.00  0.00     0.010 A 
ATOM     36  C   UNL A   1      38.440  29.319  28.812  1.00  0.00    -0.014 A 
BRANCH  36  37
ATOM     37  C   UNL A   1      39.826  28.913  29.163  1.00  0.00     0.031 A 
ATOM     38  C   UNL A   1      40.742  29.915  29.804  1.00  0.00     0.074 A 
ATOM     39  C   UNL A   1      40.286  27.684  28.856  1.00  0.00     0.049 A 
ATOM     40  N   UNL A   1      42.002  29.788  30.130  1.00  0.00    -0.248 NA
ATOM     41  C   UNL A   1      40.171  31.240  30.102  1.00  0.00     0.031 C 
ATOM     42  C   UNL A   1      39.507  26.629  28.220  1.00  0.00     0.029 A 
ATOM     43  N   UNL A   1      41.526  27.117  29.021  1.00  0.00    -0.354 N 
ATOM     44  C   UNL A   1      42.375  31.011  30.669  1.00  0.00     0.074 A 
ATOM     45  C   UNL A   1      41.225  31.886  30.576  1.00  0.00     0.031 C 
ATOM     46  C   UNL A   1      40.274  25.542  28.044  1.00  0.00     0.029 A 
ATOM     47  C   UNL A   1      41.616  25.831  28.534  1.00  0.00     0.049 A 
ATOM     48  H   UNL A   1      42.280  27.584  29.446  1.00  0.00     0.167 HD
ATOM     49  C   UNL A   1      43.561  31.371  31.213  1.00  0.00     0.031 A 
ATOM     50  C   UNL A   1      42.659  24.982  28.482  1.00  0.00     0.031 A 
ATOM     51  C   UNL A   1      44.704  30.505  31.296  1.00  0.00     0.049 A 
ATOM     52  C   UNL A   1      43.979  25.416  29.053  1.00  0.00     0.074 A 
ATOM     53  C   UNL A   1      45.942  30.765  31.857  1.00  0.00     0.029 A 
ATOM     54  N   UNL A   1      44.752  29.211  30.799  1.00  0.00    -0.354 N 
ATOM     55  N   UNL A   1      44.293  26.560  29.612  1.00  0.00    -0.248 NA
ATOM     56  C   UNL A   1      45.079  24.444  29.002  1.00  0.00     0.031 C 
ATOM     57  C   UNL A   1      46.753  29.642  31.662  1.00  0.00     0.029 A 
ATOM     58  C   UNL A   1      46.004  28.666  31.022  1.00  0.00     0.049 A 
ATOM     59  H   UNL A   1      44.006  28.749  30.353  1.00  0.00     0.167 HD
ATOM     60  C   UNL A   1      45.618  26.433  30.012  1.00  0.00     0.074 A 
ATOM     61  C   UNL A   1      46.043  25.099  29.634  1.00  0.00     0.031 C 
ATOM     62  C   UNL A   1      46.408  27.335  30.642  1.00  0.00     0.031 A 
BRANCH  49  63
ATOM     63  C   UNL A   1      43.667  32.770  31.752  1.00  0.00    -0.014 A 
ATOM     64  C   UNL A   1      43.318  33.055  33.085  1.00  0.00     0.010 A 
ATOM     65  C   UNL A   1      44.119  33.810  30.922  1.00  0.00     0.010 A 
ATOM     66  C   UNL A   1      43.373  34.365  33.564  1.00  0.00     0.020 A 
ATOM     67  C   UNL A   1      44.201  35.119  31.405  1.00  0.00     0.020 A 
ATOM     68  C   UNL A   1      43.806  35.391  32.718  1.00  0.00     0.054 A 
BRANCH  68  69
ATOM     69  S   UNL A   1      43.870  37.084  33.365  1.00  0.00     0.124 S 
ATOM     70  O   UNL A   1      42.659  37.138  34.181  1.00  0.00    -0.237 OA
ATOM     71  O   UNL A   1      45.127  37.098  34.107  1.00  0.00    -0.237 OA
ATOM     72  O   UNL A   1      43.849  37.914  32.164  1.00  0.00    -0.744 OA
ENDBRANCH  68  69
ENDBRANCH  49  63
BRANCH  50  73
ATOM     73  C   UNL A   1      42.494  23.628  27.885  1.00  0.00    -0.014 A 
ATOM     74  C   UNL A   1      42.681  23.430  26.506  1.00  0.00     0.010 A 
ATOM     75  C   UNL A   1      42.152  22.527  28.693  1.00  0.00     0.010 A 
ATOM     76  C   UNL A   1      42.508  22.163  25.941  1.00  0.00     0.020 A 
ATOM     77  C   UNL A   1      42.001  21.255  28.135  1.00  0.00     0.020 A 
ATOM     78  C   UNL A   1      42.167  21.082  26.759  1.00  0.00     0.054 A 
BRANCH  78  79
ATOM     79  S   UNL A   1      41.985  19.439  26.011  1.00  0.00     0.124 S 
ATOM     80  O   UNL A   1      42.505  18.569  27.060  1.00  0.00    -0.237 OA
ATOM     81  O   UNL A   1      40.546  19.357  25.773  1.00  0.00    -0.237 OA
ATOM     82  O   UNL A   1      42.804  19.523  24.803  1.00  0.00    -0.744 OA
ENDBRANCH  78  79
ENDBRANCH  50  73
BRANCH  62  83
ATOM     83  C   UNL A   1      47.802  26.901  30.999  1.00  0.00    -0.014 A 
ATOM     84  C   UNL A   1      48.872  27.090  30.108  1.00  0.00     0.010 A 
ATOM     85  C   UNL A   1      48.050  26.350  32.269  1.00  0.00     0.010 A 
ATOM     86  C   UNL A   1      50.167  26.715  30.475  1.00  0.00     0.020 A 
ATOM     87  C   UNL A   1      49.347  25.995  32.647  1.00  0.00     0.020 A 
ATOM     88  C   UNL A   1      50.395  26.169  31.742  1.00  0.00     0.054 A 
BRANCH  88  89
ATOM     89  S   UNL A   1      52.093  25.742  32.219  1.00  0.00     0.124 S 
ATOM     90  O   UNL A   1      52.874  26.393  31.170  1.00  0.00    -0.237 OA
ATOM     91  O   UNL A   1      52.212  26.332  33.550  1.00  0.00    -0.237 OA
ATOM     92  O   UNL A   1      52.103  24.282  32.189  1.00  0.00    -0.744 OA
ENDBRANCH  88  89
ENDBRANCH  62  83
ENDBRANCH  36  37
ENDBRANCH  28  31
ENDBRANCH  26  27
ENDBRANCH   1  26
TORSDOF 16
ENDMDL
MODEL 2
REMARK VINA RESULT:     -11.3      2.123      4.337
REMARK SMILES C[C@@H]1[C@H](C(=O)NCCCNC(=O)c2ccc(-c3c4nc(c(-c5ccc(S(=O)(=O)[O-])cc5)c5ccc([nH]5)c(-c5ccc(S(=O)(=O)[O-])cc5)c5nc(c(-c6ccc(S(=O)(=O)[O-])cc6)c6ccc3[nH]6)C=C5)C=C4)cc2)CC[N@@H+]1Cc1cnn(-c2ccccc2)c1
REMARK SMILES IDX 8 1 7 2 6 3 4 4 5 5 3 7 1 8 2 9 75 10 73 11 74 12 76 14
REMARK SMILES IDX 77 15 78 16 87 17 79 18 80 19 81 20 82 21 86 22 83 23 85 24
REMARK SMILES IDX 84 25 9 26 10 27 11 28 12 30 13 31 14 32 72 33 15 34 71 35
REMARK SMILES IDX 16 36 17 37 18 38 65 39 19 40 70 41 64 42 66 43 20 44 69 45
REMARK SMILES IDX 63 46 62 47 21 49 51 50 32 51 50 52 33 53 36 54 49 55 67 56
REMARK SMILES IDX 34 57 35 58 48 60 68 61 37 62 22 63 23 64 31 65 24 66 30 67
REMARK SMILES IDX 25 68 26 69 27 70 28 71 29 72 52 73 53 74 61 75 54 76 60 77
REMARK SMILES IDX 55 78 56 79 57 80 58 81 59 82 38 83 39 84 47 85 40 86 46 87
REMARK SMILES IDX 41 88 42 89 43 90 44 91 45 92
REMARK H PARENT 6 6 75 13 10 29 66 48 36 59
REMARK Flexibility Score: inf
ROOT
ATOM      1  C   UNL A   1      32.148  27.445  27.375  1.00  0.00     0.042 C 
ENDROOT
BRANCH   1   2
ATOM      2  C   UNL A   1      31.651  26.410  26.371  1.00  0.00     0.117 C 
BRANCH   2   3
ATOM      3  N   UNL A   1      31.501  25.096  26.970  1.00  0.00    -0.356 N 
ATOM      4  C   UNL A   1      32.006  23.879  26.653  1.00  0.00     0.229 C 
ATOM      5  O   UNL A   1      31.609  22.931  27.342  1.00  0.00    -0.275 OA
ATOM      6  H   UNL A   1      30.916  25.087  27.763  1.00  0.00     0.163 HD
BRANCH   4   7
ATOM      7  C   UNL A   1      33.013  23.615  25.542  1.00  0.00     0.142 C 
ATOM      8  C   UNL A   1      31.068  23.655  23.783  1.00  0.00     0.076 C 
ATOM      9  C   UNL A   1      32.529  23.383  24.098  1.00  0.00     0.193 C 
ATOM     10  N   UNL A   1      33.545  24.025  23.263  1.00  0.00    -0.328 N 
ATOM     11  C   UNL A   1      34.199  24.568  25.446  1.00  0.00     0.081 C 
ATOM     12  C   UNL A   1      34.728  24.332  24.043  1.00  0.00     0.263 C 
ATOM     13  H   UNL A   1      33.740  23.294  22.578  1.00  0.00     0.348 HD
BRANCH  10  14
ATOM     14  C   UNL A   1      33.250  24.798  22.074  1.00  0.00     0.302 C 
BRANCH  14  15
ATOM     15  C   UNL A   1      32.624  26.124  22.351  1.00  0.00     0.045 A 
ATOM     16  C   UNL A   1      33.231  27.306  22.822  1.00  0.00     0.145 A 
ATOM     17  C   UNL A   1      31.325  26.521  22.097  1.00  0.00     0.124 A 
ATOM     18  N   UNL A   1      32.395  28.340  22.889  1.00  0.00    -0.176 NA
ATOM     19  N   UNL A   1      31.208  27.849  22.453  1.00  0.00    -0.240 N 
BRANCH  19  20
ATOM     20  C   UNL A   1      30.039  28.654  22.436  1.00  0.00     0.065 A 
ATOM     21  C   UNL A   1      30.085  29.944  21.884  1.00  0.00     0.028 A 
ATOM     22  C   UNL A   1      28.847  28.187  22.995  1.00  0.00     0.028 A 
ATOM     23  C   UNL A   1      28.943  30.748  21.877  1.00  0.00     0.002 A 
ATOM     24  C   UNL A   1      27.725  29.011  23.011  1.00  0.00     0.002 A 
ATOM     25  C   UNL A   1      27.762  30.280  22.443  1.00  0.00     0.000 A 
ENDBRANCH  19  20
ENDBRANCH  14  15
ENDBRANCH  10  14
ENDBRANCH   4   7
ENDBRANCH   2   3
ENDBRANCH   1   2
BRANCH   1  26
ATOM     26  C   UNL A   1      33.438  28.163  27.010  1.00  0.00     0.118 C 
BRANCH  26  27
ATOM     27  N   UNL A   1      33.377  29.602  27.199  1.00  0.00    -0.352 N 
ATOM     28  C   UNL A   1      34.300  30.513  27.660  1.00  0.00     0.251 C 
ATOM     29  H   UNL A   1      32.512  30.001  26.949  1.00  0.00     0.163 HD
ATOM     30  O   UNL A   1      33.939  31.684  27.789  1.00  0.00    -0.269 OA
BRANCH  28  31
ATOM     31  C   UNL A   1      35.689  30.138  28.042  1.00  0.00     0.039 A 
ATOM     32  C   UNL A   1      35.926  29.724  29.362  1.00  0.00     0.014 A 
ATOM     33  C   UNL A   1      36.773  30.226  27.168  1.00  0.00     0.014 A 
ATOM     34  C   UNL A   1      37.201  29.308  29.767  1.00  0.00     0.010 A 
ATOM     35  C   UNL A   1      38.029  29.742  27.544  1.00  0.00     0.010 A 
ATOM     36  C   UNL A   1      38.257  29.282  28.849  1.00  0.00    -0.014 A 
BRANCH  36  37
ATOM     37  C   UNL A   1      39.629  28.867  29.243  1.00  0.00     0.031 A 
ATOM     38  C   UNL A   1      40.520  29.853  29.941  1.00  0.00     0.074 A 
ATOM     39  C   UNL A   1      40.100  27.645  28.926  1.00  0.00     0.049 A 
ATOM     40  N   UNL A   1      41.766  29.718  30.311  1.00  0.00    -0.248 NA
ATOM     41  C   UNL A   1      39.938  31.171  30.247  1.00  0.00     0.031 C 
ATOM     42  C   UNL A   1      39.346  26.604  28.237  1.00  0.00     0.029 A 
ATOM     43  N   UNL A   1      41.333  27.073  29.125  1.00  0.00    -0.354 N 
ATOM     44  C   UNL A   1      42.119  30.928  30.891  1.00  0.00     0.074 A 
ATOM     45  C   UNL A   1      40.973  31.805  30.775  1.00  0.00     0.031 C 
ATOM     46  C   UNL A   1      40.120  25.522  28.066  1.00  0.00     0.029 A 
ATOM     47  C   UNL A   1      41.441  25.799  28.612  1.00  0.00     0.049 A 
ATOM     48  H   UNL A   1      42.071  27.530  29.588  1.00  0.00     0.167 HD
ATOM     49  C   UNL A   1      43.283  31.274  31.488  1.00  0.00     0.031 A 
ATOM     50  C   UNL A   1      42.486  24.950  28.580  1.00  0.00     0.031 A 
ATOM     51  C   UNL A   1      44.423  30.406  31.594  1.00  0.00     0.049 A 
ATOM     52  C   UNL A   1      43.783  25.370  29.211  1.00  0.00     0.074 A 
ATOM     53  C   UNL A   1      45.638  30.652  32.208  1.00  0.00     0.029 A 
ATOM     54  N   UNL A   1      44.490  29.123  31.070  1.00  0.00    -0.354 N 
ATOM     55  N   UNL A   1      44.076  26.501  29.807  1.00  0.00    -0.248 NA
ATOM     56  C   UNL A   1      44.884  24.398  29.180  1.00  0.00     0.031 C 
ATOM     57  C   UNL A   1      46.456  29.533  32.018  1.00  0.00     0.029 A 
ATOM     58  C   UNL A   1      45.732  28.573  31.329  1.00  0.00     0.049 A 
ATOM     59  H   UNL A   1      43.761  28.673  30.586  1.00  0.00     0.167 HD
ATOM     60  C   UNL A   1      45.384  26.363  30.254  1.00  0.00     0.074 A 
ATOM     61  C   UNL A   1      45.824  25.038  29.862  1.00  0.00     0.031 C 
ATOM     62  C   UNL A   1      46.150  27.250  30.934  1.00  0.00     0.031 A 
BRANCH  49  63
ATOM     63  C   UNL A   1      43.369  32.661  32.062  1.00  0.00    -0.014 A 
ATOM     64  C   UNL A   1      43.068  32.898  33.416  1.00  0.00     0.010 A 
ATOM     65  C   UNL A   1      43.753  33.737  31.244  1.00  0.00     0.010 A 
ATOM     66  C   UNL A   1      43.102  34.196  33.930  1.00  0.00     0.020 A 
ATOM     67  C   UNL A   1      43.814  35.034  31.761  1.00  0.00     0.020 A 
ATOM     68  C   UNL A   1      43.467  35.257  33.096  1.00  0.00     0.054 A 
BRANCH  68  69
ATOM     69  S   UNL A   1      43.506  36.933  33.789  1.00  0.00     0.124 S 
ATOM     70  O   UNL A   1      44.648  36.854  34.697  1.00  0.00    -0.237 OA
ATOM     71  O   UNL A   1      43.701  37.767  32.606  1.00  0.00    -0.237 OA
ATOM     72  O   UNL A   1      42.204  37.069  34.437  1.00  0.00    -0.744 OA
ENDBRANCH  68  69
ENDBRANCH  49  63
BRANCH  50  73
ATOM     73  C   UNL A   1      42.344  23.610  27.948  1.00  0.00    -0.014 A 
ATOM     74  C   UNL A   1      42.660  23.426  26.589  1.00  0.00     0.010 A 
ATOM     75  C   UNL A   1      41.895  22.508  28.699  1.00  0.00     0.010 A 
ATOM     76  C   UNL A   1      42.508  22.173  25.989  1.00  0.00     0.020 A 
ATOM     77  C   UNL A   1      41.765  21.248  28.107  1.00  0.00     0.020 A 
ATOM     78  C   UNL A   1      42.060  21.091  26.752  1.00  0.00     0.054 A 
BRANCH  78  79
ATOM     79  S   UNL A   1      41.909  19.464  25.961  1.00  0.00     0.124 S 
ATOM     80  O   UNL A   1      42.325  18.566  27.032  1.00  0.00    -0.237 OA
ATOM     81  O   UNL A   1      40.492  19.415  25.606  1.00  0.00    -0.237 OA
ATOM     82  O   UNL A   1      42.824  19.552  24.825  1.00  0.00    -0.744 OA
ENDBRANCH  78  79
ENDBRANCH  50  73
BRANCH  62  83
ATOM     83  C   UNL A   1      47.530  26.807  31.333  1.00  0.00    -0.014 A 
ATOM     84  C   UNL A   1      47.757  26.150  32.553  1.00  0.00     0.010 A 
ATOM     85  C   UNL A   1      48.602  27.001  30.443  1.00  0.00     0.010 A 
ATOM     86  C   UNL A   1      49.041  25.711  32.888  1.00  0.00     0.020 A 
ATOM     87  C   UNL A   1      49.882  26.543  30.764  1.00  0.00     0.020 A 
ATOM     88  C   UNL A   1      50.095  25.912  31.990  1.00  0.00     0.054 A 
BRANCH  88  89
ATOM     89  S   UNL A   1      51.742  25.284  32.420  1.00  0.00     0.124 S 
ATOM     90  O   UNL A   1      51.866  25.692  33.817  1.00  0.00    -0.237 OA
ATOM     91  O   UNL A   1      51.607  23.847  32.195  1.00  0.00    -0.237 OA
ATOM     92  O   UNL A   1      52.629  25.974  31.487  1.00  0.00    -0.744 OA
ENDBRANCH  88  89
ENDBRANCH  62  83
ENDBRANCH  36  37
ENDBRANCH  28  31
ENDBRANCH  26  27
ENDBRANCH   1  26
TORSDOF 16
ENDMDL
MODEL 3
REMARK VINA RESULT:     -11.2      1.771      2.693
REMARK SMILES C[C@@H]1[C@H](C(=O)NCCCNC(=O)c2ccc(-c3c4nc(c(-c5ccc(S(=O)(=O)[O-])cc5)c5ccc([nH]5)c(-c5ccc(S(=O)(=O)[O-])cc5)c5nc(c(-c6ccc(S(=O)(=O)[O-])cc6)c6ccc3[nH]6)C=C5)C=C4)cc2)CC[N@@H+]1Cc1cnn(-c2ccccc2)c1
REMARK SMILES IDX 8 1 7 2 6 3 4 4 5 5 3 7 1 8 2 9 75 10 73 11 74 12 76 14
REMARK SMILES IDX 77 15 78 16 87 17 79 18 80 19 81 20 82 21 86 22 83 23 85 24
REMARK SMILES IDX 84 25 9 26 10 27 11 28 12 30 13 31 14 32 72 33 15 34 71 35
REMARK SMILES IDX 16 36 17 37 18 38 65 39 19 40 70 41 64 42 66 43 20 44 69 45
REMARK SMILES IDX 63 46 62 47 21 49 51 50 32 51 50 52 33 53 36 54 49 55 67 56
REMARK SMILES IDX 34 57 35 58 48 60 68 61 37 62 22 63 23 64 31 65 24 66 30 67
REMARK SMILES IDX 25 68 26 69 27 70 28 71 29 72 52 73 53 74 61 75 54 76 60 77
REMARK SMILES IDX 55 78 56 79 57 80 58 81 59 82 38 83 39 84 47 85 40 86 46 87
REMARK SMILES IDX 41 88 42 89 43 90 44 91 45 92
REMARK H PARENT 6 6 75 13 10 29 66 48 36 59
REMARK Flexibility Score: inf
ROOT
ATOM      1  C   UNL A   1      34.366  27.878  26.067  1.00  0.00     0.042 C 
ENDROOT
BRANCH   1   2
ATOM      2  C   UNL A   1      33.600  27.599  24.779  1.00  0.00     0.117 C 
BRANCH   2   3
ATOM      3  N   UNL A   1      32.531  28.557  24.562  1.00  0.00    -0.356 N 
ATOM      4  C   UNL A   1      31.185  28.426  24.469  1.00  0.00     0.229 C 
ATOM      5  O   UNL A   1      30.557  29.458  24.199  1.00  0.00    -0.275 OA
ATOM      6  H   UNL A   1      32.845  29.485  24.462  1.00  0.00     0.163 HD
BRANCH   4   7
ATOM      7  C   UNL A   1      30.418  27.129  24.683  1.00  0.00     0.142 C 
ATOM      8  C   UNL A   1      31.055  26.363  22.257  1.00  0.00     0.076 C 
ATOM      9  C   UNL A   1      30.249  26.129  23.523  1.00  0.00     0.193 C 
ATOM     10  N   UNL A   1      30.331  24.813  24.159  1.00  0.00    -0.328 N 
ATOM     11  C   UNL A   1      30.792  26.301  25.908  1.00  0.00     0.081 C 
ATOM     12  C   UNL A   1      30.213  24.933  25.598  1.00  0.00     0.263 C 
ATOM     13  H   UNL A   1      29.516  24.344  23.764  1.00  0.00     0.348 HD
BRANCH  10  14
ATOM     14  C   UNL A   1      31.025  23.677  23.587  1.00  0.00     0.302 C 
BRANCH  14  15
ATOM     15  C   UNL A   1      32.162  23.180  24.416  1.00  0.00     0.045 A 
ATOM     16  C   UNL A   1      32.141  22.253  25.479  1.00  0.00     0.145 A 
ATOM     17  C   UNL A   1      33.510  23.433  24.251  1.00  0.00     0.124 A 
ATOM     18  N   UNL A   1      33.351  21.971  25.959  1.00  0.00    -0.176 NA
ATOM     19  N   UNL A   1      34.200  22.714  25.205  1.00  0.00    -0.240 N 
BRANCH  19  20
ATOM     20  C   UNL A   1      35.595  22.723  25.461  1.00  0.00     0.065 A 
ATOM     21  C   UNL A   1      36.223  23.907  25.880  1.00  0.00     0.028 A 
ATOM     22  C   UNL A   1      36.360  21.570  25.269  1.00  0.00     0.028 A 
ATOM     23  C   UNL A   1      37.599  23.928  26.120  1.00  0.00     0.002 A 
ATOM     24  C   UNL A   1      37.735  21.613  25.480  1.00  0.00     0.002 A 
ATOM     25  C   UNL A   1      38.356  22.778  25.918  1.00  0.00     0.000 A 
ENDBRANCH  19  20
ENDBRANCH  14  15
ENDBRANCH  10  14
ENDBRANCH   4   7
ENDBRANCH   2   3
ENDBRANCH   1   2
BRANCH   1  26
ATOM     26  C   UNL A   1      33.528  28.303  27.263  1.00  0.00     0.118 C 
BRANCH  26  27
ATOM     27  N   UNL A   1      33.552  29.734  27.513  1.00  0.00    -0.352 N 
ATOM     28  C   UNL A   1      34.532  30.570  27.998  1.00  0.00     0.251 C 
ATOM     29  H   UNL A   1      32.709  30.192  27.293  1.00  0.00     0.163 HD
ATOM     30  O   UNL A   1      34.241  31.754  28.180  1.00  0.00    -0.269 OA
BRANCH  28  31
ATOM     31  C   UNL A   1      35.902  30.101  28.342  1.00  0.00     0.039 A 
ATOM     32  C   UNL A   1      36.883  30.126  27.338  1.00  0.00     0.014 A 
ATOM     33  C   UNL A   1      36.245  29.593  29.595  1.00  0.00     0.014 A 
ATOM     34  C   UNL A   1      38.204  29.748  27.614  1.00  0.00     0.010 A 
ATOM     35  C   UNL A   1      37.575  29.286  29.896  1.00  0.00     0.010 A 
ATOM     36  C   UNL A   1      38.567  29.357  28.908  1.00  0.00    -0.014 A 
BRANCH  36  37
ATOM     37  C   UNL A   1      39.952  28.929  29.238  1.00  0.00     0.031 A 
ATOM     38  C   UNL A   1      40.891  29.914  29.871  1.00  0.00     0.074 A 
ATOM     39  C   UNL A   1      40.390  27.695  28.920  1.00  0.00     0.049 A 
ATOM     40  N   UNL A   1      42.154  29.767  30.179  1.00  0.00    -0.248 NA
ATOM     41  C   UNL A   1      40.344  31.245  30.183  1.00  0.00     0.031 C 
ATOM     42  C   UNL A   1      39.586  26.654  28.289  1.00  0.00     0.029 A 
ATOM     43  N   UNL A   1      41.624  27.108  29.065  1.00  0.00    -0.354 N 
ATOM     44  C   UNL A   1      42.552  30.982  30.718  1.00  0.00     0.074 A 
ATOM     45  C   UNL A   1      41.414  31.874  30.645  1.00  0.00     0.031 C 
ATOM     46  C   UNL A   1      40.336  25.557  28.098  1.00  0.00     0.029 A 
ATOM     47  C   UNL A   1      41.688  25.824  28.571  1.00  0.00     0.049 A 
ATOM     48  H   UNL A   1      42.390  27.563  29.481  1.00  0.00     0.167 HD
ATOM     49  C   UNL A   1      43.750  31.322  31.247  1.00  0.00     0.031 A 
ATOM     50  C   UNL A   1      42.718  24.959  28.500  1.00  0.00     0.031 A 
ATOM     51  C   UNL A   1      44.882  30.439  31.311  1.00  0.00     0.049 A 
ATOM     52  C   UNL A   1      44.052  25.372  29.056  1.00  0.00     0.074 A 
ATOM     53  C   UNL A   1      46.131  30.678  31.856  1.00  0.00     0.029 A 
ATOM     54  N   UNL A   1      44.904  29.146  30.808  1.00  0.00    -0.354 N 
ATOM     55  N   UNL A   1      44.390  26.508  29.615  1.00  0.00    -0.248 NA
ATOM     56  C   UNL A   1      45.136  24.384  28.985  1.00  0.00     0.031 C 
ATOM     57  C   UNL A   1      46.923  29.544  31.645  1.00  0.00     0.029 A 
ATOM     58  C   UNL A   1      46.151  28.582  31.011  1.00  0.00     0.049 A 
ATOM     59  H   UNL A   1      44.146  28.698  30.369  1.00  0.00     0.167 HD
ATOM     60  C   UNL A   1      45.718  26.360  29.996  1.00  0.00     0.074 A 
ATOM     61  C   UNL A   1      46.118  25.022  29.607  1.00  0.00     0.031 C 
ATOM     62  C   UNL A   1      46.530  27.247  30.619  1.00  0.00     0.031 A 
BRANCH  49  63
ATOM     63  C   UNL A   1      43.885  32.717  31.792  1.00  0.00    -0.014 A 
ATOM     64  C   UNL A   1      44.401  33.753  30.993  1.00  0.00     0.010 A 
ATOM     65  C   UNL A   1      43.492  32.996  33.112  1.00  0.00     0.010 A 
ATOM     66  C   UNL A   1      44.569  35.035  31.522  1.00  0.00     0.020 A 
ATOM     67  C   UNL A   1      43.634  34.283  33.637  1.00  0.00     0.020 A 
ATOM     68  C   UNL A   1      44.192  35.289  32.844  1.00  0.00     0.054 A 
BRANCH  68  69
ATOM     69  S   UNL A   1      44.418  36.963  33.505  1.00  0.00     0.124 S 
ATOM     70  O   UNL A   1      45.780  37.272  33.076  1.00  0.00    -0.237 OA
ATOM     71  O   UNL A   1      43.362  37.719  32.838  1.00  0.00    -0.237 OA
ATOM     72  O   UNL A   1      44.244  36.792  34.945  1.00  0.00    -0.744 OA
ENDBRANCH  68  69
ENDBRANCH  49  63
BRANCH  50  73
ATOM     73  C   UNL A   1      42.525  23.611  27.901  1.00  0.00    -0.014 A 
ATOM     74  C   UNL A   1      42.778  23.397  26.534  1.00  0.00     0.010 A 
ATOM     75  C   UNL A   1      42.089  22.531  28.692  1.00  0.00     0.010 A 
ATOM     76  C   UNL A   1      42.578  22.135  25.964  1.00  0.00     0.020 A 
ATOM     77  C   UNL A   1      41.912  21.263  28.130  1.00  0.00     0.020 A 
ATOM     78  C   UNL A   1      42.145  21.076  26.767  1.00  0.00     0.054 A 
BRANCH  78  79
ATOM     79  S   UNL A   1      41.931  19.438  26.014  1.00  0.00     0.124 S 
ATOM     80  O   UNL A   1      42.401  18.554  27.075  1.00  0.00    -0.237 OA
ATOM     81  O   UNL A   1      40.495  19.398  25.746  1.00  0.00    -0.237 OA
ATOM     82  O   UNL A   1      42.777  19.497  24.825  1.00  0.00    -0.744 OA
ENDBRANCH  78  79
ENDBRANCH  50  73
BRANCH  62  83
ATOM     83  C   UNL A   1      47.922  26.791  30.955  1.00  0.00    -0.014 A 
ATOM     84  C   UNL A   1      48.980  26.958  30.046  1.00  0.00     0.010 A 
ATOM     85  C   UNL A   1      48.182  26.243  32.223  1.00  0.00     0.010 A 
ATOM     86  C   UNL A   1      50.274  26.562  30.392  1.00  0.00     0.020 A 
ATOM     87  C   UNL A   1      49.479  25.867  32.582  1.00  0.00     0.020 A 
ATOM     88  C   UNL A   1      50.515  26.019  31.659  1.00  0.00     0.054 A 
BRANCH  88  89
ATOM     89  S   UNL A   1      52.213  25.565  32.109  1.00  0.00     0.124 S 
ATOM     90  O   UNL A   1      52.106  24.117  32.267  1.00  0.00    -0.237 OA
ATOM     91  O   UNL A   1      52.983  26.016  30.953  1.00  0.00    -0.237 OA
ATOM     92  O   UNL A   1      52.455  26.311  33.341  1.00  0.00    -0.744 OA
ENDBRANCH  88  89
ENDBRANCH  62  83
ENDBRANCH  36  37
ENDBRANCH  28  31
ENDBRANCH  26  27
ENDBRANCH   1  26
TORSDOF 16
ENDMDL
