MODEL 1
REMARK VINA RESULT:     -12.2      0.000      0.000
REMARK SMILES O=C(CCC(=O)Nc1ccc2nc(-c3ccccc3)oc2c1)NCCCNC(=O)c1ccc(-c2c3nc(c(-c4ccc(S(=O)(=O)[O-])cc4)c4ccc([nH]4)c(-c4ccc(S(=O)(=O)[O-])cc4)c4nc(c(-c5ccc(S(=O)(=O)[O-])cc5)c5ccc2[nH]5)C=C4)C=C3)cc1
REMARK SMILES IDX 24 1 23 2 1 3 2 4 3 6 4 7 5 8 6 9 7 10 8 12 9 13 22 14 10 15
REMARK SMILES IDX 21 16 11 17 20 18 12 19 13 20 14 21 15 22 19 23 16 24 18 25
REMARK SMILES IDX 17 26 25 27 26 28 27 29 28 30 29 32 30 33 31 34 89 35 32 36
REMARK SMILES IDX 88 37 33 38 34 39 35 40 82 41 36 42 87 43 81 44 83 45 37 46
REMARK SMILES IDX 86 47 80 48 79 49 38 51 68 52 49 53 67 54 50 55 53 56 66 57
REMARK SMILES IDX 84 58 51 59 52 60 65 62 85 63 54 64 39 65 40 66 48 67 41 68
REMARK SMILES IDX 47 69 42 70 43 71 44 72 45 73 46 74 69 75 70 76 78 77 71 78
REMARK SMILES IDX 77 79 72 80 73 81 74 82 75 83 76 84 55 85 56 86 64 87 57 88
REMARK SMILES IDX 63 89 58 90 59 91 60 92 61 93 62 94
REMARK H PARENT 23 5 7 11 27 31 83 50 53 61
REMARK Flexibility Score: inf
ROOT
ATOM      1  C   UNL A   1      31.600  26.943  26.514  1.00  0.00     0.117 C 
ENDROOT
BRANCH   1   2
ATOM      2  N   UNL A   1      32.577  25.942  26.125  1.00  0.00    -0.356 N 
ATOM      3  O   UNL A   1      31.611  24.176  27.244  1.00  0.00    -0.275 OA
ATOM      4  C   UNL A   1      32.428  24.610  26.438  1.00  0.00     0.220 C 
ATOM      5  H   UNL A   1      33.373  26.225  25.619  1.00  0.00     0.163 HD
BRANCH   4   6
ATOM      6  C   UNL A   1      33.298  23.685  25.617  1.00  0.00     0.110 C 
BRANCH   6   7
ATOM      7  C   UNL A   1      34.260  24.430  24.691  1.00  0.00     0.110 C 
BRANCH   7   8
ATOM      8  C   UNL A   1      34.115  24.052  23.234  1.00  0.00     0.224 C 
ATOM      9  O   UNL A   1      35.082  23.534  22.661  1.00  0.00    -0.275 OA
ATOM     10  N   UNL A   1      33.005  24.269  22.474  1.00  0.00    -0.326 N 
ATOM     11  H   UNL A   1      33.032  23.775  21.622  1.00  0.00     0.169 HD
BRANCH  10  12
ATOM     12  C   UNL A   1      31.826  25.032  22.616  1.00  0.00     0.045 A 
ATOM     13  C   UNL A   1      30.677  24.598  23.287  1.00  0.00     0.028 A 
ATOM     14  C   UNL A   1      31.891  26.366  22.151  1.00  0.00     0.075 A 
ATOM     15  C   UNL A   1      29.649  25.476  23.659  1.00  0.00     0.034 A 
ATOM     16  C   UNL A   1      30.832  27.204  22.506  1.00  0.00     0.157 A 
ATOM     17  C   UNL A   1      29.755  26.807  23.278  1.00  0.00     0.110 A 
ATOM     18  O   UNL A   1      30.645  28.524  22.190  1.00  0.00    -0.436 OA
ATOM     19  N   UNL A   1      28.930  27.859  23.524  1.00  0.00    -0.209 NA
ATOM     20  C   UNL A   1      29.468  28.838  22.828  1.00  0.00     0.227 A 
BRANCH  20  21
ATOM     21  C   UNL A   1      28.851  30.118  22.534  1.00  0.00     0.037 A 
ATOM     22  C   UNL A   1      28.326  30.370  21.261  1.00  0.00     0.014 A 
ATOM     23  C   UNL A   1      28.979  31.172  23.448  1.00  0.00     0.014 A 
ATOM     24  C   UNL A   1      27.962  31.668  20.897  1.00  0.00     0.001 A 
ATOM     25  C   UNL A   1      28.631  32.470  23.075  1.00  0.00     0.001 A 
ATOM     26  C   UNL A   1      28.132  32.718  21.797  1.00  0.00     0.000 A 
ENDBRANCH  20  21
ENDBRANCH  10  12
ENDBRANCH   7   8
ENDBRANCH   6   7
ENDBRANCH   4   6
ENDBRANCH   1   2
BRANCH   1  27
ATOM     27  C   UNL A   1      32.058  27.857  27.630  1.00  0.00     0.042 C 
BRANCH  27  28
ATOM     28  C   UNL A   1      33.367  28.583  27.366  1.00  0.00     0.118 C 
BRANCH  28  29
ATOM     29  N   UNL A   1      33.366  30.004  27.692  1.00  0.00    -0.352 N 
ATOM     30  C   UNL A   1      34.414  30.783  28.139  1.00  0.00     0.251 C 
ATOM     31  H   UNL A   1      32.505  30.468  27.581  1.00  0.00     0.163 HD
ATOM     32  O   UNL A   1      34.226  31.966  28.407  1.00  0.00    -0.269 OA
BRANCH  30  33
ATOM     33  C   UNL A   1      35.748  30.169  28.343  1.00  0.00     0.039 A 
ATOM     34  C   UNL A   1      36.676  30.185  27.298  1.00  0.00     0.014 A 
ATOM     35  C   UNL A   1      36.110  29.643  29.584  1.00  0.00     0.014 A 
ATOM     36  C   UNL A   1      37.988  29.759  27.530  1.00  0.00     0.010 A 
ATOM     37  C   UNL A   1      37.440  29.334  29.844  1.00  0.00     0.010 A 
ATOM     38  C   UNL A   1      38.395  29.375  28.818  1.00  0.00    -0.014 A 
BRANCH  38  39
ATOM     39  C   UNL A   1      39.799  28.982  29.118  1.00  0.00     0.031 A 
ATOM     40  C   UNL A   1      40.734  29.977  29.757  1.00  0.00     0.074 A 
ATOM     41  C   UNL A   1      40.259  27.768  28.749  1.00  0.00     0.049 A 
ATOM     42  N   UNL A   1      42.012  29.861  30.020  1.00  0.00    -0.248 NA
ATOM     43  C   UNL A   1      40.171  31.292  30.108  1.00  0.00     0.031 C 
ATOM     44  C   UNL A   1      39.481  26.732  28.065  1.00  0.00     0.029 A 
ATOM     45  N   UNL A   1      41.502  27.201  28.896  1.00  0.00    -0.354 N 
ATOM     46  C   UNL A   1      42.406  31.093  30.532  1.00  0.00     0.074 A 
ATOM     47  C   UNL A   1      41.251  31.961  30.481  1.00  0.00     0.031 C 
ATOM     48  C   UNL A   1      40.251  25.645  27.889  1.00  0.00     0.029 A 
ATOM     49  C   UNL A   1      41.586  25.916  28.411  1.00  0.00     0.049 A 
ATOM     50  H   UNL A   1      42.261  27.671  29.310  1.00  0.00     0.167 HD
ATOM     51  C   UNL A   1      43.608  31.465  31.029  1.00  0.00     0.031 A 
ATOM     52  C   UNL A   1      42.621  25.052  28.393  1.00  0.00     0.031 A 
ATOM     53  C   UNL A   1      44.745  30.589  31.121  1.00  0.00     0.049 A 
ATOM     54  C   UNL A   1      43.936  25.469  28.994  1.00  0.00     0.074 A 
ATOM     55  C   UNL A   1      45.988  30.846  31.671  1.00  0.00     0.029 A 
ATOM     56  N   UNL A   1      44.771  29.281  30.663  1.00  0.00    -0.354 N 
ATOM     57  N   UNL A   1      44.269  26.620  29.531  1.00  0.00    -0.248 NA
ATOM     58  C   UNL A   1      45.009  24.466  29.005  1.00  0.00     0.031 C 
ATOM     59  C   UNL A   1      46.778  29.703  31.516  1.00  0.00     0.029 A 
ATOM     60  C   UNL A   1      46.010  28.719  30.914  1.00  0.00     0.049 A 
ATOM     61  H   UNL A   1      44.019  28.820  30.224  1.00  0.00     0.167 HD
ATOM     62  C   UNL A   1      45.577  26.465  29.975  1.00  0.00     0.074 A 
ATOM     63  C   UNL A   1      45.971  25.108  29.653  1.00  0.00     0.031 C 
ATOM     64  C   UNL A   1      46.381  27.363  30.596  1.00  0.00     0.031 A 
BRANCH  51  65
ATOM     65  C   UNL A   1      43.744  32.881  31.525  1.00  0.00    -0.014 A 
ATOM     66  C   UNL A   1      43.272  33.252  32.797  1.00  0.00     0.010 A 
ATOM     67  C   UNL A   1      44.367  33.850  30.718  1.00  0.00     0.010 A 
ATOM     68  C   UNL A   1      43.368  34.576  33.231  1.00  0.00     0.020 A 
ATOM     69  C   UNL A   1      44.495  35.169  31.161  1.00  0.00     0.020 A 
ATOM     70  C   UNL A   1      43.974  35.529  32.407  1.00  0.00     0.054 A 
BRANCH  70  71
ATOM     71  S   UNL A   1      44.096  37.238  32.999  1.00  0.00     0.124 S 
ATOM     72  O   UNL A   1      43.812  37.997  31.784  1.00  0.00    -0.237 OA
ATOM     73  O   UNL A   1      43.065  37.296  34.031  1.00  0.00    -0.237 OA
ATOM     74  O   UNL A   1      45.469  37.338  33.488  1.00  0.00    -0.744 OA
ENDBRANCH  70  71
ENDBRANCH  51  65
BRANCH  52  75
ATOM     75  C   UNL A   1      42.442  23.685  27.829  1.00  0.00    -0.014 A 
ATOM     76  C   UNL A   1      42.913  23.383  26.538  1.00  0.00     0.010 A 
ATOM     77  C   UNL A   1      41.807  22.678  28.577  1.00  0.00     0.010 A 
ATOM     78  C   UNL A   1      42.734  22.106  25.998  1.00  0.00     0.020 A 
ATOM     79  C   UNL A   1      41.650  21.392  28.050  1.00  0.00     0.020 A 
ATOM     80  C   UNL A   1      42.103  21.118  26.758  1.00  0.00     0.054 A 
BRANCH  80  81
ATOM     81  S   UNL A   1      41.924  19.454  26.055  1.00  0.00     0.124 S 
ATOM     82  O   UNL A   1      42.482  18.616  27.112  1.00  0.00    -0.237 OA
ATOM     83  O   UNL A   1      40.480  19.348  25.859  1.00  0.00    -0.237 OA
ATOM     84  O   UNL A   1      42.709  19.517  24.824  1.00  0.00    -0.744 OA
ENDBRANCH  80  81
ENDBRANCH  52  75
BRANCH  64  85
ATOM     85  C   UNL A   1      47.747  26.897  31.018  1.00  0.00    -0.014 A 
ATOM     86  C   UNL A   1      47.963  26.304  32.274  1.00  0.00     0.010 A 
ATOM     87  C   UNL A   1      48.823  27.010  30.118  1.00  0.00     0.010 A 
ATOM     88  C   UNL A   1      49.240  25.863  32.635  1.00  0.00     0.020 A 
ATOM     89  C   UNL A   1      50.093  26.545  30.464  1.00  0.00     0.020 A 
ATOM     90  C   UNL A   1      50.296  25.989  31.729  1.00  0.00     0.054 A 
BRANCH  90  91
ATOM     91  S   UNL A   1      51.936  25.377  32.205  1.00  0.00     0.124 S 
ATOM     92  O   UNL A   1      52.111  25.973  33.526  1.00  0.00    -0.237 OA
ATOM     93  O   UNL A   1      51.755  23.926  32.189  1.00  0.00    -0.237 OA
ATOM     94  O   UNL A   1      52.817  25.899  31.163  1.00  0.00    -0.744 OA
ENDBRANCH  90  91
ENDBRANCH  64  85
ENDBRANCH  38  39
ENDBRANCH  30  33
ENDBRANCH  28  29
ENDBRANCH  27  28
ENDBRANCH   1  27
TORSDOF 17
ENDMDL
MODEL 2
REMARK VINA RESULT:     -11.4      3.414      5.708
REMARK SMILES O=C(CCC(=O)Nc1ccc2nc(-c3ccccc3)oc2c1)NCCCNC(=O)c1ccc(-c2c3nc(c(-c4ccc(S(=O)(=O)[O-])cc4)c4ccc([nH]4)c(-c4ccc(S(=O)(=O)[O-])cc4)c4nc(c(-c5ccc(S(=O)(=O)[O-])cc5)c5ccc2[nH]5)C=C4)C=C3)cc1
REMARK SMILES IDX 24 1 23 2 1 3 2 4 3 6 4 7 5 8 6 9 7 10 8 12 9 13 22 14 10 15
REMARK SMILES IDX 21 16 11 17 20 18 12 19 13 20 14 21 15 22 19 23 16 24 18 25
REMARK SMILES IDX 17 26 25 27 26 28 27 29 28 30 29 32 30 33 31 34 89 35 32 36
REMARK SMILES IDX 88 37 33 38 34 39 35 40 82 41 36 42 87 43 81 44 83 45 37 46
REMARK SMILES IDX 86 47 80 48 79 49 38 51 68 52 49 53 67 54 50 55 53 56 66 57
REMARK SMILES IDX 84 58 51 59 52 60 65 62 85 63 54 64 39 65 40 66 48 67 41 68
REMARK SMILES IDX 47 69 42 70 43 71 44 72 45 73 46 74 69 75 70 76 78 77 71 78
REMARK SMILES IDX 77 79 72 80 73 81 74 82 75 83 76 84 55 85 56 86 64 87 57 88
REMARK SMILES IDX 63 89 58 90 59 91 60 92 61 93 62 94
REMARK H PARENT 23 5 7 11 27 31 83 50 53 61
REMARK Flexibility Score: inf
ROOT
ATOM      1  C   UNL A   1      33.646  30.843  27.574  1.00  0.00     0.117 C 
ENDROOT
BRANCH   1   2
ATOM      2  N   UNL A   1      32.926  29.598  27.378  1.00  0.00    -0.356 N 
ATOM      3  O   UNL A   1      31.465  30.382  25.779  1.00  0.00    -0.275 OA
ATOM      4  C   UNL A   1      31.963  29.451  26.406  1.00  0.00     0.220 C 
ATOM      5  H   UNL A   1      33.133  28.832  27.962  1.00  0.00     0.163 HD
BRANCH   4   6
ATOM      6  C   UNL A   1      31.629  28.012  26.084  1.00  0.00     0.110 C 
BRANCH   6   7
ATOM      7  C   UNL A   1      31.465  27.754  24.586  1.00  0.00     0.110 C 
BRANCH   7   8
ATOM      8  C   UNL A   1      32.769  27.765  23.822  1.00  0.00     0.224 C 
ATOM      9  O   UNL A   1      32.968  28.677  23.010  1.00  0.00    -0.275 OA
ATOM     10  N   UNL A   1      33.746  26.820  23.924  1.00  0.00    -0.326 N 
ATOM     11  H   UNL A   1      34.591  27.108  23.507  1.00  0.00     0.169 HD
BRANCH  10  12
ATOM     12  C   UNL A   1      33.838  25.529  24.486  1.00  0.00     0.045 A 
ATOM     13  C   UNL A   1      33.870  25.262  25.859  1.00  0.00     0.028 A 
ATOM     14  C   UNL A   1      33.760  24.450  23.575  1.00  0.00     0.075 A 
ATOM     15  C   UNL A   1      33.666  23.976  26.379  1.00  0.00     0.034 A 
ATOM     16  C   UNL A   1      33.597  23.178  24.126  1.00  0.00     0.157 A 
ATOM     17  C   UNL A   1      33.501  22.927  25.484  1.00  0.00     0.110 A 
ATOM     18  O   UNL A   1      33.496  21.973  23.480  1.00  0.00    -0.436 OA
ATOM     19  N   UNL A   1      33.265  21.608  25.711  1.00  0.00    -0.209 NA
ATOM     20  C   UNL A   1      33.315  21.077  24.507  1.00  0.00     0.227 A 
BRANCH  20  21
ATOM     21  C   UNL A   1      33.380  19.661  24.199  1.00  0.00     0.037 A 
ATOM     22  C   UNL A   1      34.487  18.904  24.603  1.00  0.00     0.014 A 
ATOM     23  C   UNL A   1      32.451  19.104  23.312  1.00  0.00     0.014 A 
ATOM     24  C   UNL A   1      34.676  17.615  24.100  1.00  0.00     0.001 A 
ATOM     25  C   UNL A   1      32.651  17.823  22.798  1.00  0.00     0.001 A 
ATOM     26  C   UNL A   1      33.768  17.084  23.185  1.00  0.00     0.000 A 
ENDBRANCH  20  21
ENDBRANCH  10  12
ENDBRANCH   7   8
ENDBRANCH   6   7
ENDBRANCH   4   6
ENDBRANCH   1   2
BRANCH   1  27
ATOM     27  C   UNL A   1      35.150  30.717  27.455  1.00  0.00     0.042 C 
BRANCH  27  28
ATOM     28  C   UNL A   1      35.771  29.634  28.323  1.00  0.00     0.118 C 
BRANCH  28  29
ATOM     29  N   UNL A   1      35.641  29.840  29.761  1.00  0.00    -0.352 N 
ATOM     30  C   UNL A   1      36.636  29.887  30.715  1.00  0.00     0.251 C 
ATOM     31  H   UNL A   1      34.722  29.960  30.094  1.00  0.00     0.163 HD
ATOM     32  O   UNL A   1      36.342  30.029  31.899  1.00  0.00    -0.269 OA
BRANCH  30  33
ATOM     33  C   UNL A   1      38.051  29.709  30.307  1.00  0.00     0.039 A 
ATOM     34  C   UNL A   1      38.943  29.088  31.185  1.00  0.00     0.014 A 
ATOM     35  C   UNL A   1      38.481  30.090  29.035  1.00  0.00     0.014 A 
ATOM     36  C   UNL A   1      40.233  28.769  30.751  1.00  0.00     0.010 A 
ATOM     37  C   UNL A   1      39.719  29.666  28.568  1.00  0.00     0.010 A 
ATOM     38  C   UNL A   1      40.618  29.011  29.422  1.00  0.00    -0.014 A 
BRANCH  38  39
ATOM     39  C   UNL A   1      41.958  28.622  28.904  1.00  0.00     0.031 A 
ATOM     40  C   UNL A   1      43.049  29.658  28.799  1.00  0.00     0.074 A 
ATOM     41  C   UNL A   1      42.177  27.368  28.457  1.00  0.00     0.049 A 
ATOM     42  N   UNL A   1      44.253  29.544  28.297  1.00  0.00    -0.248 NA
ATOM     43  C   UNL A   1      42.731  31.013  29.281  1.00  0.00     0.031 C 
ATOM     44  C   UNL A   1      41.192  26.283  28.441  1.00  0.00     0.029 A 
ATOM     45  N   UNL A   1      43.305  26.793  27.924  1.00  0.00    -0.354 N 
ATOM     46  C   UNL A   1      44.816  30.813  28.373  1.00  0.00     0.074 A 
ATOM     47  C   UNL A   1      43.802  31.694  28.906  1.00  0.00     0.031 C 
ATOM     48  C   UNL A   1      41.770  25.168  27.962  1.00  0.00     0.029 A 
ATOM     49  C   UNL A   1      43.153  25.464  27.603  1.00  0.00     0.049 A 
ATOM     50  H   UNL A   1      44.146  27.287  27.785  1.00  0.00     0.167 HD
ATOM     51  C   UNL A   1      46.072  31.209  28.059  1.00  0.00     0.031 A 
ATOM     52  C   UNL A   1      44.029  24.582  27.082  1.00  0.00     0.031 A 
ATOM     53  C   UNL A   1      47.094  30.325  27.570  1.00  0.00     0.049 A 
ATOM     54  C   UNL A   1      45.434  25.032  26.783  1.00  0.00     0.074 A 
ATOM     55  C   UNL A   1      48.418  30.611  27.287  1.00  0.00     0.029 A 
ATOM     56  N   UNL A   1      46.910  28.976  27.307  1.00  0.00    -0.354 N 
ATOM     57  N   UNL A   1      45.965  26.224  26.922  1.00  0.00    -0.248 NA
ATOM     58  C   UNL A   1      46.364  24.013  26.278  1.00  0.00     0.031 C 
ATOM     59  C   UNL A   1      49.026  29.443  26.820  1.00  0.00     0.029 A 
ATOM     60  C   UNL A   1      48.094  28.417  26.860  1.00  0.00     0.049 A 
ATOM     61  H   UNL A   1      46.062  28.489  27.420  1.00  0.00     0.167 HD
ATOM     62  C   UNL A   1      47.298  26.088  26.555  1.00  0.00     0.074 A 
ATOM     63  C   UNL A   1      47.495  24.698  26.197  1.00  0.00     0.031 C 
ATOM     64  C   UNL A   1      48.274  27.029  26.519  1.00  0.00     0.031 A 
BRANCH  51  65
ATOM     65  C   UNL A   1      46.406  32.666  28.251  1.00  0.00    -0.014 A 
ATOM     66  C   UNL A   1      46.921  33.136  29.473  1.00  0.00     0.010 A 
ATOM     67  C   UNL A   1      46.221  33.573  27.193  1.00  0.00     0.010 A 
ATOM     68  C   UNL A   1      47.191  34.494  29.653  1.00  0.00     0.020 A 
ATOM     69  C   UNL A   1      46.520  34.929  27.358  1.00  0.00     0.020 A 
ATOM     70  C   UNL A   1      46.983  35.384  28.595  1.00  0.00     0.054 A 
BRANCH  70  71
ATOM     71  S   UNL A   1      47.352  37.141  28.851  1.00  0.00     0.124 S 
ATOM     72  O   UNL A   1      47.006  37.712  27.552  1.00  0.00    -0.237 OA
ATOM     73  O   UNL A   1      46.462  37.499  29.952  1.00  0.00    -0.237 OA
ATOM     74  O   UNL A   1      48.776  37.151  29.176  1.00  0.00    -0.744 OA
ENDBRANCH  70  71
ENDBRANCH  51  65
BRANCH  52  75
ATOM     75  C   UNL A   1      43.618  23.169  26.853  1.00  0.00    -0.014 A 
ATOM     76  C   UNL A   1      42.989  22.437  27.877  1.00  0.00     0.010 A 
ATOM     77  C   UNL A   1      43.846  22.548  25.612  1.00  0.00     0.010 A 
ATOM     78  C   UNL A   1      42.617  21.105  27.671  1.00  0.00     0.020 A 
ATOM     79  C   UNL A   1      43.451  21.225  25.394  1.00  0.00     0.020 A 
ATOM     80  C   UNL A   1      42.849  20.507  26.431  1.00  0.00     0.054 A 
BRANCH  80  81
ATOM     81  S   UNL A   1      42.313  18.793  26.171  1.00  0.00     0.124 S 
ATOM     82  O   UNL A   1      42.518  18.207  27.492  1.00  0.00    -0.237 OA
ATOM     83  O   UNL A   1      40.921  18.955  25.759  1.00  0.00    -0.237 OA
ATOM     84  O   UNL A   1      43.211  18.309  25.124  1.00  0.00    -0.744 OA
ENDBRANCH  80  81
ENDBRANCH  52  75
BRANCH  64  85
ATOM     85  C   UNL A   1      49.657  26.581  26.130  1.00  0.00    -0.014 A 
ATOM     86  C   UNL A   1      50.173  26.828  24.846  1.00  0.00     0.010 A 
ATOM     87  C   UNL A   1      50.471  25.947  27.087  1.00  0.00     0.010 A 
ATOM     88  C   UNL A   1      51.467  26.417  24.516  1.00  0.00     0.020 A 
ATOM     89  C   UNL A   1      51.774  25.560  26.770  1.00  0.00     0.020 A 
ATOM     90  C   UNL A   1      52.258  25.783  25.479  1.00  0.00     0.054 A 
BRANCH  90  91
ATOM     91  S   UNL A   1      53.948  25.291  25.039  1.00  0.00     0.124 S 
ATOM     92  O   UNL A   1      53.820  23.841  24.920  1.00  0.00    -0.237 OA
ATOM     93  O   UNL A   1      54.176  26.008  23.786  1.00  0.00    -0.237 OA
ATOM     94  O   UNL A   1      54.749  25.756  26.169  1.00  0.00    -0.744 OA
ENDBRANCH  90  91
ENDBRANCH  64  85
ENDBRANCH  38  39
ENDBRANCH  30  33
ENDBRANCH  28  29
ENDBRANCH  27  28
ENDBRANCH   1  27
TORSDOF 17
ENDMDL
MODEL 3
REMARK VINA RESULT:     -11.3      2.653      3.330
REMARK SMILES O=C(CCC(=O)Nc1ccc2nc(-c3ccccc3)oc2c1)NCCCNC(=O)c1ccc(-c2c3nc(c(-c4ccc(S(=O)(=O)[O-])cc4)c4ccc([nH]4)c(-c4ccc(S(=O)(=O)[O-])cc4)c4nc(c(-c5ccc(S(=O)(=O)[O-])cc5)c5ccc2[nH]5)C=C4)C=C3)cc1
REMARK SMILES IDX 24 1 23 2 1 3 2 4 3 6 4 7 5 8 6 9 7 10 8 12 9 13 22 14 10 15
REMARK SMILES IDX 21 16 11 17 20 18 12 19 13 20 14 21 15 22 19 23 16 24 18 25
REMARK SMILES IDX 17 26 25 27 26 28 27 29 28 30 29 32 30 33 31 34 89 35 32 36
REMARK SMILES IDX 88 37 33 38 34 39 35 40 82 41 36 42 87 43 81 44 83 45 37 46
REMARK SMILES IDX 86 47 80 48 79 49 38 51 68 52 49 53 67 54 50 55 53 56 66 57
REMARK SMILES IDX 84 58 51 59 52 60 65 62 85 63 54 64 39 65 40 66 48 67 41 68
REMARK SMILES IDX 47 69 42 70 43 71 44 72 45 73 46 74 69 75 70 76 78 77 71 78
REMARK SMILES IDX 77 79 72 80 73 81 74 82 75 83 76 84 55 85 56 86 64 87 57 88
REMARK SMILES IDX 63 89 58 90 59 91 60 92 61 93 62 94
REMARK H PARENT 23 5 7 11 27 31 83 50 53 61
REMARK Flexibility Score: inf
ROOT
ATOM      1  C   UNL A   1      31.456  27.183  26.523  1.00  0.00     0.117 C 
ENDROOT
BRANCH   1   2
ATOM      2  N   UNL A   1      32.081  25.875  26.599  1.00  0.00    -0.356 N 
ATOM      3  O   UNL A   1      30.136  24.644  26.546  1.00  0.00    -0.275 OA
ATOM      4  C   UNL A   1      31.360  24.709  26.489  1.00  0.00     0.220 C 
ATOM      5  H   UNL A   1      33.055  25.821  26.733  1.00  0.00     0.163 HD
BRANCH   4   6
ATOM      6  C   UNL A   1      32.203  23.493  26.180  1.00  0.00     0.110 C 
BRANCH   6   7
ATOM      7  C   UNL A   1      31.588  22.591  25.109  1.00  0.00     0.110 C 
BRANCH   7   8
ATOM      8  C   UNL A   1      32.381  22.550  23.823  1.00  0.00     0.224 C 
ATOM      9  O   UNL A   1      32.886  21.475  23.476  1.00  0.00    -0.275 OA
ATOM     10  N   UNL A   1      32.623  23.621  23.016  1.00  0.00    -0.326 N 
ATOM     11  H   UNL A   1      32.978  23.356  22.136  1.00  0.00     0.169 HD
BRANCH  10  12
ATOM     12  C   UNL A   1      32.487  25.021  23.139  1.00  0.00     0.045 A 
ATOM     13  C   UNL A   1      33.551  25.908  23.332  1.00  0.00     0.028 A 
ATOM     14  C   UNL A   1      31.189  25.537  22.917  1.00  0.00     0.075 A 
ATOM     15  C   UNL A   1      33.415  27.292  23.157  1.00  0.00     0.034 A 
ATOM     16  C   UNL A   1      31.083  26.923  22.786  1.00  0.00     0.157 A 
ATOM     17  C   UNL A   1      32.157  27.793  22.851  1.00  0.00     0.110 A 
ATOM     18  O   UNL A   1      29.958  27.678  22.571  1.00  0.00    -0.436 OA
ATOM     19  N   UNL A   1      31.755  29.068  22.607  1.00  0.00    -0.209 NA
ATOM     20  C   UNL A   1      30.448  28.960  22.491  1.00  0.00     0.227 A 
BRANCH  20  21
ATOM     21  C   UNL A   1      29.497  30.056  22.477  1.00  0.00     0.037 A 
ATOM     22  C   UNL A   1      28.919  30.469  21.270  1.00  0.00     0.014 A 
ATOM     23  C   UNL A   1      29.327  30.838  23.625  1.00  0.00     0.014 A 
ATOM     24  C   UNL A   1      28.206  31.668  21.208  1.00  0.00     0.001 A 
ATOM     25  C   UNL A   1      28.629  32.044  23.557  1.00  0.00     0.001 A 
ATOM     26  C   UNL A   1      28.077  32.462  22.347  1.00  0.00     0.000 A 
ENDBRANCH  20  21
ENDBRANCH  10  12
ENDBRANCH   7   8
ENDBRANCH   6   7
ENDBRANCH   4   6
ENDBRANCH   1   2
BRANCH   1  27
ATOM     27  C   UNL A   1      31.997  28.191  27.515  1.00  0.00     0.042 C 
BRANCH  27  28
ATOM     28  C   UNL A   1      33.264  28.904  27.072  1.00  0.00     0.118 C 
BRANCH  28  29
ATOM     29  N   UNL A   1      33.245  30.354  27.222  1.00  0.00    -0.352 N 
ATOM     30  C   UNL A   1      34.220  31.176  27.750  1.00  0.00     0.251 C 
ATOM     31  H   UNL A   1      32.430  30.806  26.907  1.00  0.00     0.163 HD
ATOM     32  O   UNL A   1      34.020  32.385  27.838  1.00  0.00    -0.269 OA
BRANCH  30  33
ATOM     33  C   UNL A   1      35.482  30.585  28.257  1.00  0.00     0.039 A 
ATOM     34  C   UNL A   1      36.701  31.018  27.730  1.00  0.00     0.014 A 
ATOM     35  C   UNL A   1      35.467  29.657  29.299  1.00  0.00     0.014 A 
ATOM     36  C   UNL A   1      37.899  30.591  28.312  1.00  0.00     0.010 A 
ATOM     37  C   UNL A   1      36.650  29.329  29.950  1.00  0.00     0.010 A 
ATOM     38  C   UNL A   1      37.884  29.780  29.458  1.00  0.00    -0.014 A 
BRANCH  38  39
ATOM     39  C   UNL A   1      39.136  29.361  30.146  1.00  0.00     0.031 A 
ATOM     40  C   UNL A   1      39.572  30.071  31.403  1.00  0.00     0.074 A 
ATOM     41  C   UNL A   1      39.921  28.406  29.607  1.00  0.00     0.049 A 
ATOM     42  N   UNL A   1      40.669  29.918  32.102  1.00  0.00    -0.248 NA
ATOM     43  C   UNL A   1      38.679  31.123  31.919  1.00  0.00     0.031 C 
ATOM     44  C   UNL A   1      39.653  27.682  28.361  1.00  0.00     0.029 A 
ATOM     45  N   UNL A   1      41.114  27.879  30.040  1.00  0.00    -0.354 N 
ATOM     46  C   UNL A   1      40.610  30.871  33.112  1.00  0.00     0.074 A 
ATOM     47  C   UNL A   1      39.405  31.641  32.898  1.00  0.00     0.031 C 
ATOM     48  C   UNL A   1      40.628  26.782  28.154  1.00  0.00     0.029 A 
ATOM     49  C   UNL A   1      41.611  26.887  29.228  1.00  0.00     0.049 A 
ATOM     50  H   UNL A   1      41.571  28.184  30.858  1.00  0.00     0.167 HD
ATOM     51  C   UNL A   1      41.460  31.072  34.146  1.00  0.00     0.031 A 
ATOM     52  C   UNL A   1      42.728  26.142  29.337  1.00  0.00     0.031 A 
ATOM     53  C   UNL A   1      42.635  30.279  34.385  1.00  0.00     0.049 A 
ATOM     54  C   UNL A   1      43.637  26.350  30.519  1.00  0.00     0.074 A 
ATOM     55  C   UNL A   1      43.526  30.356  35.441  1.00  0.00     0.029 A 
ATOM     56  N   UNL A   1      43.073  29.252  33.564  1.00  0.00    -0.354 N 
ATOM     57  N   UNL A   1      43.529  27.216  31.499  1.00  0.00    -0.248 NA
ATOM     58  C   UNL A   1      44.806  25.467  30.621  1.00  0.00     0.031 C 
ATOM     59  C   UNL A   1      44.523  29.397  35.240  1.00  0.00     0.029 A 
ATOM     60  C   UNL A   1      44.224  28.690  34.086  1.00  0.00     0.049 A 
ATOM     61  H   UNL A   1      42.631  28.965  32.732  1.00  0.00     0.167 HD
ATOM     62  C   UNL A   1      44.597  26.957  32.351  1.00  0.00     0.074 A 
ATOM     63  C   UNL A   1      45.332  25.849  31.777  1.00  0.00     0.031 C 
ATOM     64  C   UNL A   1      44.937  27.580  33.507  1.00  0.00     0.031 A 
BRANCH  51  65
ATOM     65  C   UNL A   1      41.136  32.191  35.101  1.00  0.00    -0.014 A 
ATOM     66  C   UNL A   1      41.656  33.485  34.906  1.00  0.00     0.010 A 
ATOM     67  C   UNL A   1      40.289  31.955  36.198  1.00  0.00     0.010 A 
ATOM     68  C   UNL A   1      41.381  34.505  35.819  1.00  0.00     0.020 A 
ATOM     69  C   UNL A   1      39.985  32.981  37.097  1.00  0.00     0.020 A 
ATOM     70  C   UNL A   1      40.551  34.245  36.913  1.00  0.00     0.054 A 
BRANCH  70  71
ATOM     71  S   UNL A   1      40.201  35.590  38.077  1.00  0.00     0.124 S 
ATOM     72  O   UNL A   1      39.030  35.077  38.784  1.00  0.00    -0.237 OA
ATOM     73  O   UNL A   1      41.428  35.661  38.865  1.00  0.00    -0.237 OA
ATOM     74  O   UNL A   1      39.952  36.740  37.212  1.00  0.00    -0.744 OA
ENDBRANCH  70  71
ENDBRANCH  51  65
BRANCH  52  75
ATOM     75  C   UNL A   1      43.029  25.093  28.323  1.00  0.00    -0.014 A 
ATOM     76  C   UNL A   1      43.783  25.408  27.177  1.00  0.00     0.010 A 
ATOM     77  C   UNL A   1      42.571  23.775  28.497  1.00  0.00     0.010 A 
ATOM     78  C   UNL A   1      44.053  24.431  26.215  1.00  0.00     0.020 A 
ATOM     79  C   UNL A   1      42.863  22.789  27.549  1.00  0.00     0.020 A 
ATOM     80  C   UNL A   1      43.592  23.126  26.407  1.00  0.00     0.054 A 
BRANCH  80  81
ATOM     81  S   UNL A   1      43.997  21.864  25.168  1.00  0.00     0.124 S 
ATOM     82  O   UNL A   1      43.821  22.596  23.918  1.00  0.00    -0.237 OA
ATOM     83  O   UNL A   1      45.374  21.516  25.510  1.00  0.00    -0.237 OA
ATOM     84  O   UNL A   1      43.016  20.810  25.421  1.00  0.00    -0.744 OA
ENDBRANCH  80  81
ENDBRANCH  52  75
BRANCH  64  85
ATOM     85  C   UNL A   1      46.125  27.045  34.259  1.00  0.00    -0.014 A 
ATOM     86  C   UNL A   1      47.419  27.548  34.038  1.00  0.00     0.010 A 
ATOM     87  C   UNL A   1      45.932  26.057  35.241  1.00  0.00     0.010 A 
ATOM     88  C   UNL A   1      48.504  27.047  34.763  1.00  0.00     0.020 A 
ATOM     89  C   UNL A   1      47.008  25.573  35.987  1.00  0.00     0.020 A 
ATOM     90  C   UNL A   1      48.291  26.061  35.730  1.00  0.00     0.054 A 
BRANCH  90  91
ATOM     91  S   UNL A   1      49.708  25.451  36.685  1.00  0.00     0.124 S 
ATOM     92  O   UNL A   1      49.778  24.054  36.265  1.00  0.00    -0.237 OA
ATOM     93  O   UNL A   1      50.801  26.303  36.219  1.00  0.00    -0.237 OA
ATOM     94  O   UNL A   1      49.309  25.665  38.074  1.00  0.00    -0.744 OA
ENDBRANCH  90  91
ENDBRANCH  64  85
ENDBRANCH  38  39
ENDBRANCH  30  33
ENDBRANCH  28  29
ENDBRANCH  27  28
ENDBRANCH   1  27
TORSDOF 17
ENDMDL
