MODEL 1
REMARK VINA RESULT:     -11.4      0.000      0.000
REMARK SMILES O=C(NCCCNC(=O)c1c(F)cccc1NC(=O)C1CCCCC1)c1ccc(-c2c3nc(c(-c4ccc(S(=O)(=O)[O-])cc4)c4ccc([nH]4)c(-c4ccc(S(=O)(=O)[O-])cc4)c4nc(c(-c5ccc(S(=O)(=O)[O-])cc5)c5ccc2[nH]5)C=C4)C=C3)cc1
REMARK SMILES IDX 4 1 3 2 1 3 2 4 26 6 27 7 85 8 28 9 84 10 29 11 30 12 31 13
REMARK SMILES IDX 78 14 32 15 83 16 77 17 79 18 33 19 82 20 76 21 75 22 34 24
REMARK SMILES IDX 64 25 45 26 63 27 46 28 49 29 62 30 80 31 47 32 48 33 61 35
REMARK SMILES IDX 81 36 50 37 35 38 36 39 44 40 37 41 43 42 38 43 39 44 40 45
REMARK SMILES IDX 41 46 42 47 65 48 66 49 74 50 67 51 73 52 68 53 69 54 70 55
REMARK SMILES IDX 71 56 72 57 51 58 52 59 60 60 53 61 59 62 54 63 55 64 56 65
REMARK SMILES IDX 57 66 58 67 5 68 6 69 7 70 8 71 9 73 10 74 11 75 16 76 12 77
REMARK SMILES IDX 13 78 15 79 14 80 17 81 18 82 19 84 20 85 21 86 25 87 22 88
REMARK SMILES IDX 24 89 23 90
REMARK H PARENT 3 5 79 23 49 34 7 72 17 83
REMARK Flexibility Score: inf
ROOT
ATOM      1  C   UNL A   1      34.102  28.569  25.919  1.00  0.00     0.118 C 
ENDROOT
BRANCH   1   2
ATOM      2  N   UNL A   1      33.829  29.871  26.511  1.00  0.00    -0.352 N 
ATOM      3  O   UNL A   1      33.982  31.555  27.987  1.00  0.00    -0.269 OA
ATOM      4  C   UNL A   1      34.505  30.566  27.482  1.00  0.00     0.251 C 
ATOM      5  H   UNL A   1      33.031  30.326  26.156  1.00  0.00     0.163 HD
BRANCH   4   6
ATOM      6  C   UNL A   1      35.842  30.123  27.935  1.00  0.00     0.039 A 
ATOM      7  C   UNL A   1      36.962  30.240  27.106  1.00  0.00     0.014 A 
ATOM      8  C   UNL A   1      35.985  29.625  29.233  1.00  0.00     0.014 A 
ATOM      9  C   UNL A   1      38.191  29.735  27.522  1.00  0.00     0.010 A 
ATOM     10  C   UNL A   1      37.235  29.194  29.678  1.00  0.00     0.010 A 
ATOM     11  C   UNL A   1      38.342  29.219  28.817  1.00  0.00    -0.014 A 
BRANCH  11  12
ATOM     12  C   UNL A   1      39.673  28.761  29.284  1.00  0.00     0.031 A 
ATOM     13  C   UNL A   1      40.556  29.668  30.094  1.00  0.00     0.074 A 
ATOM     14  C   UNL A   1      40.094  27.526  28.950  1.00  0.00     0.049 A 
ATOM     15  N   UNL A   1      41.777  29.463  30.516  1.00  0.00    -0.248 NA
ATOM     16  C   UNL A   1      40.001  30.977  30.468  1.00  0.00     0.031 C 
ATOM     17  C   UNL A   1      39.325  26.555  28.168  1.00  0.00     0.029 A 
ATOM     18  N   UNL A   1      41.274  26.879  29.218  1.00  0.00    -0.354 N 
ATOM     19  C   UNL A   1      42.150  30.627  31.178  1.00  0.00     0.074 A 
ATOM     20  C   UNL A   1      41.028  31.538  31.089  1.00  0.00     0.031 C 
ATOM     21  C   UNL A   1      40.044  25.433  28.032  1.00  0.00     0.029 A 
ATOM     22  C   UNL A   1      41.346  25.624  28.662  1.00  0.00     0.049 A 
ATOM     23  H   UNL A   1      41.997  27.275  29.756  1.00  0.00     0.167 HD
ATOM     24  C   UNL A   1      43.321  30.910  31.798  1.00  0.00     0.031 A 
ATOM     25  C   UNL A   1      42.356  24.736  28.630  1.00  0.00     0.031 A 
ATOM     26  C   UNL A   1      44.431  29.998  31.881  1.00  0.00     0.049 A 
ATOM     27  C   UNL A   1      43.651  25.074  29.306  1.00  0.00     0.074 A 
ATOM     28  C   UNL A   1      45.649  30.180  32.512  1.00  0.00     0.029 A 
ATOM     29  N   UNL A   1      44.462  28.736  31.308  1.00  0.00    -0.354 N 
ATOM     30  N   UNL A   1      43.976  26.171  29.948  1.00  0.00    -0.248 NA
ATOM     31  C   UNL A   1      44.713  24.062  29.255  1.00  0.00     0.031 C 
ATOM     32  C   UNL A   1      46.432  29.041  32.286  1.00  0.00     0.029 A 
ATOM     33  C   UNL A   1      45.684  28.133  31.554  1.00  0.00     0.049 A 
ATOM     34  H   UNL A   1      43.723  28.328  30.801  1.00  0.00     0.167 HD
ATOM     35  C   UNL A   1      45.277  25.974  30.394  1.00  0.00     0.074 A 
ATOM     36  C   UNL A   1      45.676  24.652  29.953  1.00  0.00     0.031 C 
ATOM     37  C   UNL A   1      46.064  26.815  31.108  1.00  0.00     0.031 A 
BRANCH  24  38
ATOM     38  C   UNL A   1      43.468  32.284  32.395  1.00  0.00    -0.014 A 
ATOM     39  C   UNL A   1      43.962  33.361  31.637  1.00  0.00     0.010 A 
ATOM     40  C   UNL A   1      43.110  32.498  33.738  1.00  0.00     0.010 A 
ATOM     41  C   UNL A   1      44.153  34.612  32.229  1.00  0.00     0.020 A 
ATOM     42  C   UNL A   1      43.277  33.754  34.327  1.00  0.00     0.020 A 
ATOM     43  C   UNL A   1      43.824  34.797  33.577  1.00  0.00     0.054 A 
BRANCH  43  44
ATOM     44  S   UNL A   1      44.112  36.419  34.335  1.00  0.00     0.124 S 
ATOM     45  O   UNL A   1      44.193  37.286  33.163  1.00  0.00    -0.237 OA
ATOM     46  O   UNL A   1      42.926  36.603  35.169  1.00  0.00    -0.237 OA
ATOM     47  O   UNL A   1      45.363  36.242  35.068  1.00  0.00    -0.744 OA
ENDBRANCH  43  44
ENDBRANCH  24  38
BRANCH  25  48
ATOM     48  C   UNL A   1      42.158  23.451  27.910  1.00  0.00    -0.014 A 
ATOM     49  C   UNL A   1      42.763  23.232  26.662  1.00  0.00     0.010 A 
ATOM     50  C   UNL A   1      41.446  22.403  28.524  1.00  0.00     0.010 A 
ATOM     51  C   UNL A   1      42.674  21.980  26.046  1.00  0.00     0.020 A 
ATOM     52  C   UNL A   1      41.374  21.145  27.921  1.00  0.00     0.020 A 
ATOM     53  C   UNL A   1      41.989  20.941  26.685  1.00  0.00     0.054 A 
BRANCH  53  54
ATOM     54  S   UNL A   1      41.986  19.294  25.925  1.00  0.00     0.124 S 
ATOM     55  O   UNL A   1      42.892  19.480  24.796  1.00  0.00    -0.237 OA
ATOM     56  O   UNL A   1      42.485  18.444  27.003  1.00  0.00    -0.237 OA
ATOM     57  O   UNL A   1      40.583  19.082  25.576  1.00  0.00    -0.744 OA
ENDBRANCH  53  54
ENDBRANCH  25  48
BRANCH  37  58
ATOM     58  C   UNL A   1      47.433  26.326  31.489  1.00  0.00    -0.014 A 
ATOM     59  C   UNL A   1      47.676  25.767  32.757  1.00  0.00     0.010 A 
ATOM     60  C   UNL A   1      48.464  26.342  30.533  1.00  0.00     0.010 A 
ATOM     61  C   UNL A   1      48.932  25.237  33.063  1.00  0.00     0.020 A 
ATOM     62  C   UNL A   1      49.716  25.798  30.830  1.00  0.00     0.020 A 
ATOM     63  C   UNL A   1      49.943  25.253  32.096  1.00  0.00     0.054 A 
BRANCH  63  64
ATOM     64  S   UNL A   1      51.541  24.486  32.486  1.00  0.00     0.124 S 
ATOM     65  O   UNL A   1      51.633  24.695  33.928  1.00  0.00    -0.237 OA
ATOM     66  O   UNL A   1      51.346  23.101  32.062  1.00  0.00    -0.237 OA
ATOM     67  O   UNL A   1      52.494  25.247  31.683  1.00  0.00    -0.744 OA
ENDBRANCH  63  64
ENDBRANCH  37  58
ENDBRANCH  11  12
ENDBRANCH   4   6
ENDBRANCH   1   2
BRANCH   1  68
ATOM     68  C   UNL A   1      33.233  27.468  26.510  1.00  0.00     0.042 C 
BRANCH  68  69
ATOM     69  C   UNL A   1      31.742  27.664  26.283  1.00  0.00     0.118 C 
BRANCH  69  70
ATOM     70  N   UNL A   1      30.948  26.515  26.703  1.00  0.00    -0.352 N 
ATOM     71  C   UNL A   1      30.813  25.297  26.083  1.00  0.00     0.256 C 
ATOM     72  H   UNL A   1      30.442  26.627  27.541  1.00  0.00     0.163 HD
ATOM     73  O   UNL A   1      30.013  24.464  26.500  1.00  0.00    -0.269 OA
BRANCH  71  74
ATOM     74  C   UNL A   1      31.566  25.029  24.848  1.00  0.00     0.099 A 
ATOM     75  C   UNL A   1      31.140  25.656  23.671  1.00  0.00     0.138 A 
ATOM     76  C   UNL A   1      32.649  24.127  24.842  1.00  0.00     0.057 A 
ATOM     77  F   UNL A   1      30.162  26.574  23.695  1.00  0.00    -0.206 F 
ATOM     78  C   UNL A   1      31.679  25.306  22.444  1.00  0.00     0.040 A 
ATOM     79  C   UNL A   1      33.126  23.748  23.589  1.00  0.00     0.027 A 
ATOM     80  C   UNL A   1      32.653  24.320  22.401  1.00  0.00     0.005 A 
BRANCH  76  81
ATOM     81  N   UNL A   1      33.173  23.667  26.075  1.00  0.00    -0.325 N 
ATOM     82  C   UNL A   1      34.341  23.140  26.536  1.00  0.00     0.227 C 
ATOM     83  H   UNL A   1      32.511  23.752  26.798  1.00  0.00     0.169 HD
ATOM     84  O   UNL A   1      34.365  22.847  27.742  1.00  0.00    -0.274 OA
BRANCH  82  85
ATOM     85  C   UNL A   1      35.607  22.892  25.720  1.00  0.00     0.079 C 
ATOM     86  C   UNL A   1      36.758  23.788  26.196  1.00  0.00     0.013 C 
ATOM     87  C   UNL A   1      35.896  21.403  25.484  1.00  0.00     0.013 C 
ATOM     88  C   UNL A   1      38.122  23.390  25.642  1.00  0.00     0.001 C 
ATOM     89  C   UNL A   1      37.304  21.113  24.974  1.00  0.00     0.001 C 
ATOM     90  C   UNL A   1      38.383  21.891  25.713  1.00  0.00     0.000 C 
ENDBRANCH  82  85
ENDBRANCH  76  81
ENDBRANCH  71  74
ENDBRANCH  69  70
ENDBRANCH  68  69
ENDBRANCH   1  68
TORSDOF 15
ENDMDL
MODEL 2
REMARK VINA RESULT:     -11.4      1.488      3.527
REMARK SMILES O=C(NCCCNC(=O)c1c(F)cccc1NC(=O)C1CCCCC1)c1ccc(-c2c3nc(c(-c4ccc(S(=O)(=O)[O-])cc4)c4ccc([nH]4)c(-c4ccc(S(=O)(=O)[O-])cc4)c4nc(c(-c5ccc(S(=O)(=O)[O-])cc5)c5ccc2[nH]5)C=C4)C=C3)cc1
REMARK SMILES IDX 4 1 3 2 1 3 2 4 26 6 27 7 85 8 28 9 84 10 29 11 30 12 31 13
REMARK SMILES IDX 78 14 32 15 83 16 77 17 79 18 33 19 82 20 76 21 75 22 34 24
REMARK SMILES IDX 64 25 45 26 63 27 46 28 49 29 62 30 80 31 47 32 48 33 61 35
REMARK SMILES IDX 81 36 50 37 35 38 36 39 44 40 37 41 43 42 38 43 39 44 40 45
REMARK SMILES IDX 41 46 42 47 65 48 66 49 74 50 67 51 73 52 68 53 69 54 70 55
REMARK SMILES IDX 71 56 72 57 51 58 52 59 60 60 53 61 59 62 54 63 55 64 56 65
REMARK SMILES IDX 57 66 58 67 5 68 6 69 7 70 8 71 9 73 10 74 11 75 16 76 12 77
REMARK SMILES IDX 13 78 15 79 14 80 17 81 18 82 19 84 20 85 21 86 25 87 22 88
REMARK SMILES IDX 24 89 23 90
REMARK H PARENT 3 5 79 23 49 34 7 72 17 83
REMARK Flexibility Score: inf
ROOT
ATOM      1  C   UNL A   1      34.037  28.657  25.821  1.00  0.00     0.118 C 
ENDROOT
BRANCH   1   2
ATOM      2  N   UNL A   1      33.764  29.954  26.422  1.00  0.00    -0.352 N 
ATOM      3  O   UNL A   1      33.900  31.619  27.922  1.00  0.00    -0.269 OA
ATOM      4  C   UNL A   1      34.424  30.630  27.417  1.00  0.00     0.251 C 
ATOM      5  H   UNL A   1      32.980  30.422  26.053  1.00  0.00     0.163 HD
BRANCH   4   6
ATOM      6  C   UNL A   1      35.745  30.167  27.896  1.00  0.00     0.039 A 
ATOM      7  C   UNL A   1      35.910  29.665  29.190  1.00  0.00     0.014 A 
ATOM      8  C   UNL A   1      36.829  30.192  27.015  1.00  0.00     0.014 A 
ATOM      9  C   UNL A   1      37.180  29.319  29.646  1.00  0.00     0.010 A 
ATOM     10  C   UNL A   1      38.087  29.768  27.447  1.00  0.00     0.010 A 
ATOM     11  C   UNL A   1      38.278  29.355  28.775  1.00  0.00    -0.014 A 
BRANCH  11  12
ATOM     12  C   UNL A   1      39.612  28.905  29.240  1.00  0.00     0.031 A 
ATOM     13  C   UNL A   1      40.497  29.822  30.036  1.00  0.00     0.074 A 
ATOM     14  C   UNL A   1      40.033  27.668  28.918  1.00  0.00     0.049 A 
ATOM     15  N   UNL A   1      41.720  29.625  30.455  1.00  0.00    -0.248 NA
ATOM     16  C   UNL A   1      39.940  31.135  30.398  1.00  0.00     0.031 C 
ATOM     17  C   UNL A   1      39.262  26.686  28.151  1.00  0.00     0.029 A 
ATOM     18  N   UNL A   1      41.216  27.025  29.188  1.00  0.00    -0.354 N 
ATOM     19  C   UNL A   1      42.093  30.797  31.102  1.00  0.00     0.074 A 
ATOM     20  C   UNL A   1      40.969  31.705  31.008  1.00  0.00     0.031 C 
ATOM     21  C   UNL A   1      39.984  25.564  28.024  1.00  0.00     0.029 A 
ATOM     22  C   UNL A   1      41.288  25.765  28.646  1.00  0.00     0.049 A 
ATOM     23  H   UNL A   1      41.940  27.429  29.718  1.00  0.00     0.167 HD
ATOM     24  C   UNL A   1      43.266  31.089  31.713  1.00  0.00     0.031 A 
ATOM     25  C   UNL A   1      42.300  24.878  28.619  1.00  0.00     0.031 A 
ATOM     26  C   UNL A   1      44.379  30.181  31.801  1.00  0.00     0.049 A 
ATOM     27  C   UNL A   1      43.597  25.227  29.285  1.00  0.00     0.074 A 
ATOM     28  C   UNL A   1      45.600  30.372  32.424  1.00  0.00     0.029 A 
ATOM     29  N   UNL A   1      44.410  28.912  31.242  1.00  0.00    -0.354 N 
ATOM     30  N   UNL A   1      43.923  26.331  29.913  1.00  0.00    -0.248 NA
ATOM     31  C   UNL A   1      44.661  24.216  29.241  1.00  0.00     0.031 C 
ATOM     32  C   UNL A   1      46.384  29.232  32.207  1.00  0.00     0.029 A 
ATOM     33  C   UNL A   1      45.635  28.314  31.488  1.00  0.00     0.049 A 
ATOM     34  H   UNL A   1      43.669  28.497  30.743  1.00  0.00     0.167 HD
ATOM     35  C   UNL A   1      45.226  26.142  30.355  1.00  0.00     0.074 A 
ATOM     36  C   UNL A   1      45.626  24.816  29.927  1.00  0.00     0.031 C 
ATOM     37  C   UNL A   1      46.015  26.993  31.056  1.00  0.00     0.031 A 
BRANCH  24  38
ATOM     38  C   UNL A   1      43.414  32.470  32.294  1.00  0.00    -0.014 A 
ATOM     39  C   UNL A   1      43.108  32.733  33.641  1.00  0.00     0.010 A 
ATOM     40  C   UNL A   1      43.863  33.522  31.475  1.00  0.00     0.010 A 
ATOM     41  C   UNL A   1      43.189  34.035  34.143  1.00  0.00     0.020 A 
ATOM     42  C   UNL A   1      43.967  34.821  31.979  1.00  0.00     0.020 A 
ATOM     43  C   UNL A   1      43.603  35.075  33.303  1.00  0.00     0.054 A 
BRANCH  43  44
ATOM     44  S   UNL A   1      43.668  36.762  33.965  1.00  0.00     0.124 S 
ATOM     45  O   UNL A   1      43.925  37.546  32.760  1.00  0.00    -0.237 OA
ATOM     46  O   UNL A   1      42.340  36.933  34.551  1.00  0.00    -0.237 OA
ATOM     47  O   UNL A   1      44.767  36.715  34.926  1.00  0.00    -0.744 OA
ENDBRANCH  43  44
ENDBRANCH  24  38
BRANCH  25  48
ATOM     48  C   UNL A   1      42.101  23.585  27.914  1.00  0.00    -0.014 A 
ATOM     49  C   UNL A   1      42.696  23.355  26.664  1.00  0.00     0.010 A 
ATOM     50  C   UNL A   1      41.398  22.541  28.546  1.00  0.00     0.010 A 
ATOM     51  C   UNL A   1      42.607  22.096  26.062  1.00  0.00     0.020 A 
ATOM     52  C   UNL A   1      41.326  21.276  27.956  1.00  0.00     0.020 A 
ATOM     53  C   UNL A   1      41.932  21.061  26.718  1.00  0.00     0.054 A 
BRANCH  53  54
ATOM     54  S   UNL A   1      41.930  19.406  25.975  1.00  0.00     0.124 S 
ATOM     55  O   UNL A   1      40.515  19.211  25.673  1.00  0.00    -0.237 OA
ATOM     56  O   UNL A   1      42.806  19.574  24.819  1.00  0.00    -0.237 OA
ATOM     57  O   UNL A   1      42.469  18.557  27.035  1.00  0.00    -0.744 OA
ENDBRANCH  53  54
ENDBRANCH  25  48
BRANCH  37  58
ATOM     58  C   UNL A   1      47.387  26.510  31.436  1.00  0.00    -0.014 A 
ATOM     59  C   UNL A   1      47.608  25.839  32.652  1.00  0.00     0.010 A 
ATOM     60  C   UNL A   1      48.446  26.650  30.523  1.00  0.00     0.010 A 
ATOM     61  C   UNL A   1      48.870  25.321  32.950  1.00  0.00     0.020 A 
ATOM     62  C   UNL A   1      49.706  26.118  30.809  1.00  0.00     0.020 A 
ATOM     63  C   UNL A   1      49.911  25.460  32.025  1.00  0.00     0.054 A 
BRANCH  63  64
ATOM     64  S   UNL A   1      51.520  24.707  32.395  1.00  0.00     0.124 S 
ATOM     65  O   UNL A   1      52.400  25.396  31.456  1.00  0.00    -0.237 OA
ATOM     66  O   UNL A   1      51.717  25.043  33.803  1.00  0.00    -0.237 OA
ATOM     67  O   UNL A   1      51.307  23.288  32.125  1.00  0.00    -0.744 OA
ENDBRANCH  63  64
ENDBRANCH  37  58
ENDBRANCH  11  12
ENDBRANCH   4   6
ENDBRANCH   1   2
BRANCH   1  68
ATOM     68  C   UNL A   1      33.408  27.511  26.600  1.00  0.00     0.042 C 
BRANCH  68  69
ATOM     69  C   UNL A   1      31.895  27.428  26.471  1.00  0.00     0.118 C 
BRANCH  69  70
ATOM     70  N   UNL A   1      31.355  26.152  26.929  1.00  0.00    -0.352 N 
ATOM     71  C   UNL A   1      31.190  24.989  26.218  1.00  0.00     0.256 C 
ATOM     72  H   UNL A   1      31.072  26.121  27.872  1.00  0.00     0.163 HD
ATOM     73  O   UNL A   1      30.612  24.026  26.712  1.00  0.00    -0.269 OA
BRANCH  71  74
ATOM     74  C   UNL A   1      31.625  24.935  24.813  1.00  0.00     0.099 A 
ATOM     75  C   UNL A   1      32.932  24.507  24.548  1.00  0.00     0.138 A 
ATOM     76  C   UNL A   1      30.770  25.353  23.774  1.00  0.00     0.057 A 
ATOM     77  F   UNL A   1      33.714  24.034  25.529  1.00  0.00    -0.206 F 
ATOM     78  C   UNL A   1      33.468  24.611  23.274  1.00  0.00     0.040 A 
ATOM     79  C   UNL A   1      31.357  25.507  22.519  1.00  0.00     0.027 A 
ATOM     80  C   UNL A   1      32.686  25.147  22.263  1.00  0.00     0.005 A 
BRANCH  76  81
ATOM     81  N   UNL A   1      29.403  25.591  24.056  1.00  0.00    -0.325 N 
ATOM     82  C   UNL A   1      28.500  26.595  23.882  1.00  0.00     0.227 C 
ATOM     83  H   UNL A   1      28.990  24.815  24.500  1.00  0.00     0.169 HD
ATOM     84  O   UNL A   1      27.358  26.380  24.315  1.00  0.00    -0.274 OA
BRANCH  82  85
ATOM     85  C   UNL A   1      28.759  27.937  23.201  1.00  0.00     0.079 C 
ATOM     86  C   UNL A   1      27.455  28.716  22.992  1.00  0.00     0.013 C 
ATOM     87  C   UNL A   1      29.968  28.687  23.777  1.00  0.00     0.013 C 
ATOM     88  C   UNL A   1      27.661  30.175  22.601  1.00  0.00     0.001 C 
ATOM     89  C   UNL A   1      30.053  30.152  23.360  1.00  0.00     0.001 C 
ATOM     90  C   UNL A   1      28.717  30.877  23.443  1.00  0.00     0.000 C 
ENDBRANCH  82  85
ENDBRANCH  76  81
ENDBRANCH  71  74
ENDBRANCH  69  70
ENDBRANCH  68  69
ENDBRANCH   1  68
TORSDOF 15
ENDMDL
MODEL 3
REMARK VINA RESULT:     -11.4      1.372      1.995
REMARK SMILES O=C(NCCCNC(=O)c1c(F)cccc1NC(=O)C1CCCCC1)c1ccc(-c2c3nc(c(-c4ccc(S(=O)(=O)[O-])cc4)c4ccc([nH]4)c(-c4ccc(S(=O)(=O)[O-])cc4)c4nc(c(-c5ccc(S(=O)(=O)[O-])cc5)c5ccc2[nH]5)C=C4)C=C3)cc1
REMARK SMILES IDX 4 1 3 2 1 3 2 4 26 6 27 7 85 8 28 9 84 10 29 11 30 12 31 13
REMARK SMILES IDX 78 14 32 15 83 16 77 17 79 18 33 19 82 20 76 21 75 22 34 24
REMARK SMILES IDX 64 25 45 26 63 27 46 28 49 29 62 30 80 31 47 32 48 33 61 35
REMARK SMILES IDX 81 36 50 37 35 38 36 39 44 40 37 41 43 42 38 43 39 44 40 45
REMARK SMILES IDX 41 46 42 47 65 48 66 49 74 50 67 51 73 52 68 53 69 54 70 55
REMARK SMILES IDX 71 56 72 57 51 58 52 59 60 60 53 61 59 62 54 63 55 64 56 65
REMARK SMILES IDX 57 66 58 67 5 68 6 69 7 70 8 71 9 73 10 74 11 75 16 76 12 77
REMARK SMILES IDX 13 78 15 79 14 80 17 81 18 82 19 84 20 85 21 86 25 87 22 88
REMARK SMILES IDX 24 89 23 90
REMARK H PARENT 3 5 79 23 49 34 7 72 17 83
REMARK Flexibility Score: inf
ROOT
ATOM      1  C   UNL A   1      33.829  28.198  26.858  1.00  0.00     0.118 C 
ENDROOT
BRANCH   1   2
ATOM      2  N   UNL A   1      33.653  29.605  27.187  1.00  0.00    -0.352 N 
ATOM      3  O   UNL A   1      34.035  31.560  28.223  1.00  0.00    -0.269 OA
ATOM      4  C   UNL A   1      34.473  30.467  27.871  1.00  0.00     0.251 C 
ATOM      5  H   UNL A   1      32.810  30.001  26.867  1.00  0.00     0.163 HD
BRANCH   4   6
ATOM      6  C   UNL A   1      35.863  30.086  28.201  1.00  0.00     0.039 A 
ATOM      7  C   UNL A   1      36.886  30.187  27.253  1.00  0.00     0.014 A 
ATOM      8  C   UNL A   1      36.156  29.664  29.501  1.00  0.00     0.014 A 
ATOM      9  C   UNL A   1      38.167  29.738  27.561  1.00  0.00     0.010 A 
ATOM     10  C   UNL A   1      37.460  29.291  29.832  1.00  0.00     0.010 A 
ATOM     11  C   UNL A   1      38.470  29.298  28.858  1.00  0.00    -0.014 A 
BRANCH  11  12
ATOM     12  C   UNL A   1      39.856  28.902  29.204  1.00  0.00     0.031 A 
ATOM     13  C   UNL A   1      40.786  29.871  29.877  1.00  0.00     0.074 A 
ATOM     14  C   UNL A   1      40.282  27.666  28.882  1.00  0.00     0.049 A 
ATOM     15  N   UNL A   1      42.050  29.722  30.179  1.00  0.00    -0.248 NA
ATOM     16  C   UNL A   1      40.227  31.179  30.250  1.00  0.00     0.031 C 
ATOM     17  C   UNL A   1      39.470  26.637  28.226  1.00  0.00     0.029 A 
ATOM     18  N   UNL A   1      41.505  27.066  29.054  1.00  0.00    -0.354 N 
ATOM     19  C   UNL A   1      42.448  30.926  30.748  1.00  0.00     0.074 A 
ATOM     20  C   UNL A   1      41.293  31.799  30.737  1.00  0.00     0.031 C 
ATOM     21  C   UNL A   1      40.210  25.531  28.066  1.00  0.00     0.029 A 
ATOM     22  C   UNL A   1      41.562  25.790  28.548  1.00  0.00     0.049 A 
ATOM     23  H   UNL A   1      42.265  27.508  29.496  1.00  0.00     0.167 HD
ATOM     24  C   UNL A   1      43.666  31.272  31.230  1.00  0.00     0.031 A 
ATOM     25  C   UNL A   1      42.594  24.931  28.450  1.00  0.00     0.031 A 
ATOM     26  C   UNL A   1      44.810  30.399  31.237  1.00  0.00     0.049 A 
ATOM     27  C   UNL A   1      43.938  25.339  28.973  1.00  0.00     0.074 A 
ATOM     28  C   UNL A   1      46.079  30.645  31.730  1.00  0.00     0.029 A 
ATOM     29  N   UNL A   1      44.825  29.112  30.719  1.00  0.00    -0.354 N 
ATOM     30  N   UNL A   1      44.290  26.473  29.530  1.00  0.00    -0.248 NA
ATOM     31  C   UNL A   1      45.024  24.357  28.856  1.00  0.00     0.031 C 
ATOM     32  C   UNL A   1      46.873  29.521  31.474  1.00  0.00     0.029 A 
ATOM     33  C   UNL A   1      46.086  28.558  30.863  1.00  0.00     0.049 A 
ATOM     34  H   UNL A   1      44.052  28.659  30.310  1.00  0.00     0.167 HD
ATOM     35  C   UNL A   1      45.635  26.336  29.846  1.00  0.00     0.074 A 
ATOM     36  C   UNL A   1      46.033  25.007  29.424  1.00  0.00     0.031 C 
ATOM     37  C   UNL A   1      46.463  27.232  30.438  1.00  0.00     0.031 A 
BRANCH  24  38
ATOM     38  C   UNL A   1      43.827  32.676  31.748  1.00  0.00    -0.014 A 
ATOM     39  C   UNL A   1      43.592  32.988  33.100  1.00  0.00     0.010 A 
ATOM     40  C   UNL A   1      44.216  33.700  30.866  1.00  0.00     0.010 A 
ATOM     41  C   UNL A   1      43.683  34.310  33.546  1.00  0.00     0.020 A 
ATOM     42  C   UNL A   1      44.331  35.019  31.314  1.00  0.00     0.020 A 
ATOM     43  C   UNL A   1      44.037  35.320  32.645  1.00  0.00     0.054 A 
BRANCH  43  44
ATOM     44  S   UNL A   1      44.116  37.033  33.237  1.00  0.00     0.124 S 
ATOM     45  O   UNL A   1      42.867  37.149  33.984  1.00  0.00    -0.237 OA
ATOM     46  O   UNL A   1      45.333  37.042  34.046  1.00  0.00    -0.237 OA
ATOM     47  O   UNL A   1      44.184  37.821  32.008  1.00  0.00    -0.744 OA
ENDBRANCH  43  44
ENDBRANCH  24  38
BRANCH  25  48
ATOM     48  C   UNL A   1      42.367  23.609  27.811  1.00  0.00    -0.014 A 
ATOM     49  C   UNL A   1      42.737  23.390  26.475  1.00  0.00     0.010 A 
ATOM     50  C   UNL A   1      41.874  22.534  28.575  1.00  0.00     0.010 A 
ATOM     51  C   UNL A   1      42.634  22.112  25.916  1.00  0.00     0.020 A 
ATOM     52  C   UNL A   1      41.791  21.252  28.025  1.00  0.00     0.020 A 
ATOM     53  C   UNL A   1      42.172  21.049  26.698  1.00  0.00     0.054 A 
BRANCH  53  54
ATOM     54  S   UNL A   1      42.158  19.379  25.990  1.00  0.00     0.124 S 
ATOM     55  O   UNL A   1      42.723  18.585  27.076  1.00  0.00    -0.237 OA
ATOM     56  O   UNL A   1      40.740  19.160  25.716  1.00  0.00    -0.237 OA
ATOM     57  O   UNL A   1      42.999  19.507  24.802  1.00  0.00    -0.744 OA
ENDBRANCH  53  54
ENDBRANCH  25  48
BRANCH  37  58
ATOM     58  C   UNL A   1      47.879  26.802  30.696  1.00  0.00    -0.014 A 
ATOM     59  C   UNL A   1      48.885  27.004  29.735  1.00  0.00     0.010 A 
ATOM     60  C   UNL A   1      48.222  26.272  31.952  1.00  0.00     0.010 A 
ATOM     61  C   UNL A   1      50.212  26.677  30.026  1.00  0.00     0.020 A 
ATOM     62  C   UNL A   1      49.550  25.960  32.253  1.00  0.00     0.020 A 
ATOM     63  C   UNL A   1      50.537  26.161  31.285  1.00  0.00     0.054 A 
BRANCH  63  64
ATOM     64  S   UNL A   1      52.277  25.821  31.670  1.00  0.00     0.124 S 
ATOM     65  O   UNL A   1      52.234  24.411  32.046  1.00  0.00    -0.237 OA
ATOM     66  O   UNL A   1      52.951  26.115  30.408  1.00  0.00    -0.237 OA
ATOM     67  O   UNL A   1      52.576  26.748  32.759  1.00  0.00    -0.744 OA
ENDBRANCH  63  64
ENDBRANCH  37  58
ENDBRANCH  11  12
ENDBRANCH   4   6
ENDBRANCH   1   2
BRANCH   1  68
ATOM     68  C   UNL A   1      33.893  27.956  25.357  1.00  0.00     0.042 C 
BRANCH  68  69
ATOM     69  C   UNL A   1      33.693  26.504  24.952  1.00  0.00     0.118 C 
BRANCH  69  70
ATOM     70  N   UNL A   1      33.227  26.356  23.577  1.00  0.00    -0.352 N 
ATOM     71  C   UNL A   1      32.583  25.288  23.003  1.00  0.00     0.256 C 
ATOM     72  H   UNL A   1      33.397  27.123  22.983  1.00  0.00     0.163 HD
ATOM     73  O   UNL A   1      32.355  25.265  21.798  1.00  0.00    -0.269 OA
BRANCH  71  74
ATOM     74  C   UNL A   1      32.252  24.117  23.830  1.00  0.00     0.099 A 
ATOM     75  C   UNL A   1      31.008  24.097  24.471  1.00  0.00     0.138 A 
ATOM     76  C   UNL A   1      33.182  23.074  24.012  1.00  0.00     0.057 A 
ATOM     77  F   UNL A   1      30.094  25.049  24.232  1.00  0.00    -0.206 F 
ATOM     78  C   UNL A   1      30.707  23.123  25.410  1.00  0.00     0.040 A 
ATOM     79  C   UNL A   1      32.879  22.146  25.007  1.00  0.00     0.027 A 
ATOM     80  C   UNL A   1      31.663  22.163  25.704  1.00  0.00     0.005 A 
BRANCH  76  81
ATOM     81  N   UNL A   1      34.342  23.031  23.200  1.00  0.00    -0.325 N 
ATOM     82  C   UNL A   1      35.684  22.873  23.372  1.00  0.00     0.227 C 
ATOM     83  H   UNL A   1      34.116  23.146  22.250  1.00  0.00     0.169 HD
ATOM     84  O   UNL A   1      36.371  22.920  22.341  1.00  0.00    -0.274 OA
BRANCH  82  85
ATOM     85  C   UNL A   1      36.405  22.633  24.696  1.00  0.00     0.079 C 
ATOM     86  C   UNL A   1      37.439  21.507  24.570  1.00  0.00     0.013 C 
ATOM     87  C   UNL A   1      36.827  23.930  25.401  1.00  0.00     0.013 C 
ATOM     88  C   UNL A   1      38.401  21.415  25.749  1.00  0.00     0.001 C 
ATOM     89  C   UNL A   1      37.827  23.729  26.535  1.00  0.00     0.001 C 
ATOM     90  C   UNL A   1      38.952  22.768  26.179  1.00  0.00     0.000 C 
ENDBRANCH  82  85
ENDBRANCH  76  81
ENDBRANCH  71  74
ENDBRANCH  69  70
ENDBRANCH  68  69
ENDBRANCH   1  68
TORSDOF 15
ENDMDL
