MODEL 1
REMARK VINA RESULT:     -13.2      0.000      0.000
REMARK SMILES O=C(NCCCNC(=O)[C@@H]1CC=CC[C@H]1C(=O)N1CC[NH+](Cc2ccc3c(c2)OCO3)CC1)c1ccc(-c2c3nc(c(-c4ccc(S(=O)(=O)[O-])cc4)c4ccc([nH]4)c(-c4ccc(S(=O)(=O)[O-])cc4)c4nc(c(-c5ccc(S(=O)(=O)[O-])cc5)c5ccc2[nH]5)C=C4)C=C3)cc1
REMARK SMILES IDX 5 1 4 2 3 3 1 4 2 5 34 7 35 8 93 9 36 10 92 11 37 12 38 13
REMARK SMILES IDX 39 14 86 15 40 16 91 17 85 18 87 19 41 20 90 21 84 22 83 23
REMARK SMILES IDX 42 25 72 26 53 27 71 28 54 29 57 30 70 31 88 32 55 33 56 34
REMARK SMILES IDX 69 36 89 37 58 38 43 39 44 40 52 41 45 42 51 43 46 44 47 45
REMARK SMILES IDX 48 46 49 47 50 48 73 49 74 50 82 51 75 52 81 53 76 54 77 55
REMARK SMILES IDX 78 56 79 57 80 58 59 59 60 60 68 61 61 62 67 63 62 64 63 65
REMARK SMILES IDX 64 66 65 67 66 68 6 69 7 70 8 71 9 73 10 74 11 75 15 76
REMARK SMILES IDX 12 77 14 78 13 79 16 80 17 81 18 82 19 83 33 84 20 85 32 86
REMARK SMILES IDX 21 87 22 89 23 90 24 91 28 92 25 93 27 94 26 95 29 96 31 97
REMARK SMILES IDX 30 98
REMARK H PARENT 3 6 87 24 57 35 7 72 21 88
REMARK Flexibility Score: inf
ROOT
ATOM      1  C   UNL A   1      37.330  23.379  25.228  1.00  0.00     0.042 C 
ENDROOT
BRANCH   1   2
ATOM      2  C   UNL A   1      38.049  24.050  26.390  1.00  0.00     0.118 C 
BRANCH   2   3
ATOM      3  N   UNL A   1      39.475  23.765  26.343  1.00  0.00    -0.352 N 
ATOM      4  O   UNL A   1      41.645  24.343  26.254  1.00  0.00    -0.269 OA
ATOM      5  C   UNL A   1      40.515  24.587  26.689  1.00  0.00     0.251 C 
ATOM      6  H   UNL A   1      39.724  22.869  26.022  1.00  0.00     0.163 HD
BRANCH   5   7
ATOM      7  C   UNL A   1      40.303  25.741  27.592  1.00  0.00     0.039 A 
ATOM      8  C   UNL A   1      39.414  25.652  28.669  1.00  0.00     0.014 A 
ATOM      9  C   UNL A   1      41.092  26.885  27.434  1.00  0.00     0.014 A 
ATOM     10  C   UNL A   1      39.284  26.715  29.560  1.00  0.00     0.010 A 
ATOM     11  C   UNL A   1      41.004  27.929  28.360  1.00  0.00     0.010 A 
ATOM     12  C   UNL A   1      40.111  27.844  29.439  1.00  0.00    -0.014 A 
BRANCH  12  13
ATOM     13  C   UNL A   1      40.159  28.837  30.542  1.00  0.00     0.031 A 
ATOM     14  C   UNL A   1      41.085  28.671  31.711  1.00  0.00     0.074 A 
ATOM     15  C   UNL A   1      39.312  29.885  30.485  1.00  0.00     0.049 A 
ATOM     16  N   UNL A   1      41.220  29.442  32.760  1.00  0.00    -0.248 NA
ATOM     17  C   UNL A   1      41.967  27.495  31.711  1.00  0.00     0.031 C 
ATOM     18  C   UNL A   1      38.343  30.128  29.409  1.00  0.00     0.029 A 
ATOM     19  N   UNL A   1      39.117  30.935  31.345  1.00  0.00    -0.354 N 
ATOM     20  C   UNL A   1      42.186  28.839  33.555  1.00  0.00     0.074 A 
ATOM     21  C   UNL A   1      42.598  27.631  32.873  1.00  0.00     0.031 C 
ATOM     22  C   UNL A   1      37.672  31.260  29.666  1.00  0.00     0.029 A 
ATOM     23  C   UNL A   1      38.119  31.794  30.946  1.00  0.00     0.049 A 
ATOM     24  H   UNL A   1      39.641  31.062  32.168  1.00  0.00     0.167 HD
ATOM     25  C   UNL A   1      42.678  29.260  34.745  1.00  0.00     0.031 A 
ATOM     26  C   UNL A   1      37.595  32.875  31.554  1.00  0.00     0.031 A 
ATOM     27  C   UNL A   1      42.264  30.469  35.412  1.00  0.00     0.049 A 
ATOM     28  C   UNL A   1      38.142  33.295  32.888  1.00  0.00     0.074 A 
ATOM     29  C   UNL A   1      42.767  31.019  36.578  1.00  0.00     0.029 A 
ATOM     30  N   UNL A   1      41.241  31.302  34.986  1.00  0.00    -0.354 N 
ATOM     31  N   UNL A   1      39.121  32.762  33.578  1.00  0.00    -0.248 NA
ATOM     32  C   UNL A   1      37.511  34.456  33.529  1.00  0.00     0.031 C 
ATOM     33  C   UNL A   1      42.007  32.151  36.891  1.00  0.00     0.029 A 
ATOM     34  C   UNL A   1      41.065  32.334  35.892  1.00  0.00     0.049 A 
ATOM     35  H   UNL A   1      40.718  31.178  34.162  1.00  0.00     0.167 HD
ATOM     36  C   UNL A   1      39.224  33.524  34.734  1.00  0.00     0.074 A 
ATOM     37  C   UNL A   1      38.230  34.573  34.636  1.00  0.00     0.031 C 
ATOM     38  C   UNL A   1      40.062  33.362  35.786  1.00  0.00     0.031 A 
BRANCH  25  39
ATOM     39  C   UNL A   1      43.711  28.408  35.432  1.00  0.00    -0.014 A 
ATOM     40  C   UNL A   1      45.085  28.618  35.220  1.00  0.00     0.010 A 
ATOM     41  C   UNL A   1      43.303  27.461  36.390  1.00  0.00     0.010 A 
ATOM     42  C   UNL A   1      46.031  27.889  35.947  1.00  0.00     0.020 A 
ATOM     43  C   UNL A   1      44.245  26.744  37.131  1.00  0.00     0.020 A 
ATOM     44  C   UNL A   1      45.606  26.958  36.901  1.00  0.00     0.054 A 
BRANCH  44  45
ATOM     45  S   UNL A   1      46.856  26.076  37.876  1.00  0.00     0.124 S 
ATOM     46  O   UNL A   1      47.303  27.113  38.803  1.00  0.00    -0.237 OA
ATOM     47  O   UNL A   1      46.088  24.988  38.475  1.00  0.00    -0.237 OA
ATOM     48  O   UNL A   1      47.845  25.663  36.883  1.00  0.00    -0.744 OA
ENDBRANCH  44  45
ENDBRANCH  25  39
BRANCH  26  49
ATOM     49  C   UNL A   1      36.454  33.599  30.933  1.00  0.00    -0.014 A 
ATOM     50  C   UNL A   1      35.288  33.874  31.667  1.00  0.00     0.010 A 
ATOM     51  C   UNL A   1      36.532  34.015  29.590  1.00  0.00     0.010 A 
ATOM     52  C   UNL A   1      34.210  34.527  31.061  1.00  0.00     0.020 A 
ATOM     53  C   UNL A   1      35.469  34.694  28.991  1.00  0.00     0.020 A 
ATOM     54  C   UNL A   1      34.307  34.930  29.726  1.00  0.00     0.054 A 
BRANCH  54  55
ATOM     55  S   UNL A   1      32.908  35.799  28.965  1.00  0.00     0.124 S 
ATOM     56  O   UNL A   1      32.346  34.766  28.101  1.00  0.00    -0.237 OA
ATOM     57  O   UNL A   1      32.095  36.170  30.120  1.00  0.00    -0.237 OA
ATOM     58  O   UNL A   1      33.541  36.921  28.273  1.00  0.00    -0.744 OA
ENDBRANCH  54  55
ENDBRANCH  26  49
BRANCH  38  59
ATOM     59  C   UNL A   1      39.936  34.342  36.919  1.00  0.00    -0.014 A 
ATOM     60  C   UNL A   1      39.151  34.040  38.046  1.00  0.00     0.010 A 
ATOM     61  C   UNL A   1      40.650  35.553  36.882  1.00  0.00     0.010 A 
ATOM     62  C   UNL A   1      39.065  34.941  39.108  1.00  0.00     0.020 A 
ATOM     63  C   UNL A   1      40.585  36.446  37.955  1.00  0.00     0.020 A 
ATOM     64  C   UNL A   1      39.784  36.139  39.057  1.00  0.00     0.054 A 
BRANCH  64  65
ATOM     65  S   UNL A   1      39.700  37.268  40.473  1.00  0.00     0.124 S 
ATOM     66  O   UNL A   1      38.415  37.928  40.261  1.00  0.00    -0.237 OA
ATOM     67  O   UNL A   1      39.759  36.359  41.615  1.00  0.00    -0.237 OA
ATOM     68  O   UNL A   1      40.875  38.122  40.305  1.00  0.00    -0.744 OA
ENDBRANCH  64  65
ENDBRANCH  38  59
ENDBRANCH  12  13
ENDBRANCH   5   7
ENDBRANCH   2   3
ENDBRANCH   1   2
BRANCH   1  69
ATOM     69  C   UNL A   1      36.343  22.291  25.640  1.00  0.00     0.117 C 
BRANCH  69  70
ATOM     70  N   UNL A   1      35.330  22.734  26.587  1.00  0.00    -0.356 N 
ATOM     71  C   UNL A   1      33.977  22.814  26.525  1.00  0.00     0.224 C 
ATOM     72  H   UNL A   1      35.702  23.037  27.448  1.00  0.00     0.163 HD
ATOM     73  O   UNL A   1      33.389  23.222  27.533  1.00  0.00    -0.275 OA
BRANCH  71  74
ATOM     74  C   UNL A   1      33.168  22.409  25.303  1.00  0.00     0.095 C 
ATOM     75  C   UNL A   1      33.171  20.889  25.081  1.00  0.00     0.041 C 
ATOM     76  C   UNL A   1      33.512  23.205  24.045  1.00  0.00     0.095 C 
ATOM     77  C   UNL A   1      32.610  20.487  23.747  1.00  0.00    -0.030 C 
ATOM     78  C   UNL A   1      32.610  22.829  22.860  1.00  0.00     0.041 C 
ATOM     79  C   UNL A   1      32.349  21.355  22.759  1.00  0.00    -0.030 C 
BRANCH  76  80
ATOM     80  C   UNL A   1      33.547  24.725  24.228  1.00  0.00     0.227 C 
ATOM     81  O   UNL A   1      34.556  25.281  24.666  1.00  0.00    -0.275 OA
ATOM     82  N   UNL A   1      32.457  25.457  23.774  1.00  0.00    -0.331 N 
ATOM     83  C   UNL A   1      32.801  26.699  23.087  1.00  0.00     0.181 C 
ATOM     84  C   UNL A   1      31.283  25.561  24.638  1.00  0.00     0.181 C 
ATOM     85  C   UNL A   1      31.594  27.404  22.442  1.00  0.00     0.284 C 
ATOM     86  C   UNL A   1      30.091  26.272  23.970  1.00  0.00     0.284 C 
ATOM     87  N   UNL A   1      30.394  27.531  23.278  1.00  0.00    -0.328 N 
ATOM     88  H   UNL A   1      29.618  27.693  22.637  1.00  0.00     0.348 HD
BRANCH  87  89
ATOM     89  C   UNL A   1      30.305  28.751  24.092  1.00  0.00     0.299 C 
BRANCH  89  90
ATOM     90  C   UNL A   1      29.763  29.996  23.427  1.00  0.00     0.010 A 
ATOM     91  C   UNL A   1      29.617  31.196  24.161  1.00  0.00     0.013 A 
ATOM     92  C   UNL A   1      29.359  29.962  22.081  1.00  0.00     0.060 A 
ATOM     93  C   UNL A   1      28.989  32.314  23.603  1.00  0.00     0.051 A 
ATOM     94  C   UNL A   1      28.745  31.080  21.557  1.00  0.00     0.166 A 
ATOM     95  C   UNL A   1      28.550  32.218  22.302  1.00  0.00     0.165 A 
ATOM     96  O   UNL A   1      28.239  31.189  20.299  1.00  0.00    -0.454 OA
ATOM     97  O   UNL A   1      27.884  33.182  21.613  1.00  0.00    -0.454 OA
ATOM     98  C   UNL A   1      27.651  32.506  20.362  1.00  0.00     0.468 C 
ENDBRANCH  89  90
ENDBRANCH  87  89
ENDBRANCH  76  80
ENDBRANCH  71  74
ENDBRANCH  69  70
ENDBRANCH   1  69
TORSDOF 16
ENDMDL
MODEL 2
REMARK VINA RESULT:     -12.7      6.467     11.871
REMARK SMILES O=C(NCCCNC(=O)[C@@H]1CC=CC[C@H]1C(=O)N1CC[NH+](Cc2ccc3c(c2)OCO3)CC1)c1ccc(-c2c3nc(c(-c4ccc(S(=O)(=O)[O-])cc4)c4ccc([nH]4)c(-c4ccc(S(=O)(=O)[O-])cc4)c4nc(c(-c5ccc(S(=O)(=O)[O-])cc5)c5ccc2[nH]5)C=C4)C=C3)cc1
REMARK SMILES IDX 5 1 4 2 3 3 1 4 2 5 34 7 35 8 93 9 36 10 92 11 37 12 38 13
REMARK SMILES IDX 39 14 86 15 40 16 91 17 85 18 87 19 41 20 90 21 84 22 83 23
REMARK SMILES IDX 42 25 72 26 53 27 71 28 54 29 57 30 70 31 88 32 55 33 56 34
REMARK SMILES IDX 69 36 89 37 58 38 43 39 44 40 52 41 45 42 51 43 46 44 47 45
REMARK SMILES IDX 48 46 49 47 50 48 73 49 74 50 82 51 75 52 81 53 76 54 77 55
REMARK SMILES IDX 78 56 79 57 80 58 59 59 60 60 68 61 61 62 67 63 62 64 63 65
REMARK SMILES IDX 64 66 65 67 66 68 6 69 7 70 8 71 9 73 10 74 11 75 15 76
REMARK SMILES IDX 12 77 14 78 13 79 16 80 17 81 18 82 19 83 33 84 20 85 32 86
REMARK SMILES IDX 21 87 22 89 23 90 24 91 28 92 25 93 27 94 26 95 29 96 31 97
REMARK SMILES IDX 30 98
REMARK H PARENT 3 6 87 24 57 35 7 72 21 88
REMARK Flexibility Score: inf
ROOT
ATOM      1  C   UNL A   1      35.425  29.191  27.369  1.00  0.00     0.042 C 
ENDROOT
BRANCH   1   2
ATOM      2  C   UNL A   1      35.655  30.517  28.081  1.00  0.00     0.118 C 
BRANCH   2   3
ATOM      3  N   UNL A   1      35.640  30.333  29.524  1.00  0.00    -0.352 N 
ATOM      4  O   UNL A   1      36.320  29.381  31.442  1.00  0.00    -0.269 OA
ATOM      5  C   UNL A   1      36.619  29.801  30.320  1.00  0.00     0.251 C 
ATOM      6  H   UNL A   1      34.823  30.628  29.986  1.00  0.00     0.163 HD
BRANCH   5   7
ATOM      7  C   UNL A   1      38.026  29.749  29.861  1.00  0.00     0.039 A 
ATOM      8  C   UNL A   1      39.061  29.466  30.759  1.00  0.00     0.014 A 
ATOM      9  C   UNL A   1      38.303  29.865  28.494  1.00  0.00     0.014 A 
ATOM     10  C   UNL A   1      40.371  29.338  30.301  1.00  0.00     0.010 A 
ATOM     11  C   UNL A   1      39.608  29.680  28.027  1.00  0.00     0.010 A 
ATOM     12  C   UNL A   1      40.648  29.399  28.926  1.00  0.00    -0.014 A 
BRANCH  12  13
ATOM     13  C   UNL A   1      41.987  28.990  28.431  1.00  0.00     0.031 A 
ATOM     14  C   UNL A   1      42.271  27.580  28.003  1.00  0.00     0.074 A 
ATOM     15  C   UNL A   1      42.964  29.919  28.410  1.00  0.00     0.049 A 
ATOM     16  N   UNL A   1      43.397  27.069  27.573  1.00  0.00    -0.248 NA
ATOM     17  C   UNL A   1      41.160  26.618  28.069  1.00  0.00     0.031 C 
ATOM     18  C   UNL A   1      42.807  31.315  28.836  1.00  0.00     0.029 A 
ATOM     19  N   UNL A   1      44.278  29.839  28.028  1.00  0.00    -0.354 N 
ATOM     20  C   UNL A   1      43.140  25.725  27.333  1.00  0.00     0.074 A 
ATOM     21  C   UNL A   1      41.753  25.495  27.676  1.00  0.00     0.031 C 
ATOM     22  C   UNL A   1      43.972  31.960  28.675  1.00  0.00     0.029 A 
ATOM     23  C   UNL A   1      44.971  31.016  28.190  1.00  0.00     0.049 A 
ATOM     24  H   UNL A   1      44.686  29.018  27.671  1.00  0.00     0.167 HD
ATOM     25  C   UNL A   1      43.989  24.776  26.872  1.00  0.00     0.031 A 
ATOM     26  C   UNL A   1      46.273  31.303  28.002  1.00  0.00     0.031 A 
ATOM     27  C   UNL A   1      45.367  25.019  26.528  1.00  0.00     0.049 A 
ATOM     28  C   UNL A   1      47.193  30.218  27.521  1.00  0.00     0.074 A 
ATOM     29  C   UNL A   1      46.280  24.139  25.973  1.00  0.00     0.029 A 
ATOM     30  N   UNL A   1      46.036  26.219  26.722  1.00  0.00    -0.354 N 
ATOM     31  N   UNL A   1      46.907  28.977  27.212  1.00  0.00    -0.248 NA
ATOM     32  C   UNL A   1      48.612  30.570  27.369  1.00  0.00     0.031 C 
ATOM     33  C   UNL A   1      47.517  24.787  25.889  1.00  0.00     0.029 A 
ATOM     34  C   UNL A   1      47.362  26.087  26.344  1.00  0.00     0.049 A 
ATOM     35  H   UNL A   1      45.629  27.041  27.076  1.00  0.00     0.167 HD
ATOM     36  C   UNL A   1      48.110  28.399  26.827  1.00  0.00     0.074 A 
ATOM     37  C   UNL A   1      49.120  29.434  26.913  1.00  0.00     0.031 C 
ATOM     38  C   UNL A   1      48.356  27.122  26.447  1.00  0.00     0.031 A 
BRANCH  25  39
ATOM     39  C   UNL A   1      43.474  23.370  26.721  1.00  0.00    -0.014 A 
ATOM     40  C   UNL A   1      43.309  22.788  25.453  1.00  0.00     0.010 A 
ATOM     41  C   UNL A   1      43.263  22.583  27.869  1.00  0.00     0.010 A 
ATOM     42  C   UNL A   1      42.933  21.446  25.335  1.00  0.00     0.020 A 
ATOM     43  C   UNL A   1      42.904  21.237  27.756  1.00  0.00     0.020 A 
ATOM     44  C   UNL A   1      42.736  20.678  26.488  1.00  0.00     0.054 A 
BRANCH  44  45
ATOM     45  S   UNL A   1      42.312  18.922  26.303  1.00  0.00     0.124 S 
ATOM     46  O   UNL A   1      43.415  18.432  25.480  1.00  0.00    -0.237 OA
ATOM     47  O   UNL A   1      42.302  18.448  27.684  1.00  0.00    -0.237 OA
ATOM     48  O   UNL A   1      41.008  18.946  25.645  1.00  0.00    -0.744 OA
ENDBRANCH  44  45
ENDBRANCH  25  39
BRANCH  26  49
ATOM     49  C   UNL A   1      46.791  32.659  28.325  1.00  0.00    -0.014 A 
ATOM     50  C   UNL A   1      47.265  32.963  29.613  1.00  0.00     0.010 A 
ATOM     51  C   UNL A   1      46.809  33.660  27.335  1.00  0.00     0.010 A 
ATOM     52  C   UNL A   1      47.720  34.250  29.912  1.00  0.00     0.020 A 
ATOM     53  C   UNL A   1      47.290  34.938  27.623  1.00  0.00     0.020 A 
ATOM     54  C   UNL A   1      47.726  35.231  28.915  1.00  0.00     0.054 A 
BRANCH  54  55
ATOM     55  S   UNL A   1      48.344  36.889  29.315  1.00  0.00     0.124 S 
ATOM     56  O   UNL A   1      47.634  37.185  30.555  1.00  0.00    -0.237 OA
ATOM     57  O   UNL A   1      49.782  36.671  29.445  1.00  0.00    -0.237 OA
ATOM     58  O   UNL A   1      47.946  37.688  28.157  1.00  0.00    -0.744 OA
ENDBRANCH  54  55
ENDBRANCH  26  49
BRANCH  38  59
ATOM     59  C   UNL A   1      49.776  26.773  26.098  1.00  0.00    -0.014 A 
ATOM     60  C   UNL A   1      50.628  26.193  27.053  1.00  0.00     0.010 A 
ATOM     61  C   UNL A   1      50.247  26.977  24.788  1.00  0.00     0.010 A 
ATOM     62  C   UNL A   1      51.935  25.841  26.712  1.00  0.00     0.020 A 
ATOM     63  C   UNL A   1      51.547  26.604  24.437  1.00  0.00     0.020 A 
ATOM     64  C   UNL A   1      52.386  26.048  25.405  1.00  0.00     0.054 A 
BRANCH  64  65
ATOM     65  S   UNL A   1      54.070  25.532  24.970  1.00  0.00     0.124 S 
ATOM     66  O   UNL A   1      54.275  26.206  23.692  1.00  0.00    -0.237 OA
ATOM     67  O   UNL A   1      54.862  26.046  26.085  1.00  0.00    -0.237 OA
ATOM     68  O   UNL A   1      53.978  24.075  24.900  1.00  0.00    -0.744 OA
ENDBRANCH  64  65
ENDBRANCH  38  59
ENDBRANCH  12  13
ENDBRANCH   5   7
ENDBRANCH   2   3
ENDBRANCH   1   2
BRANCH   1  69
ATOM     69  C   UNL A   1      34.160  29.143  26.518  1.00  0.00     0.117 C 
BRANCH  69  70
ATOM     70  N   UNL A   1      32.990  28.632  27.218  1.00  0.00    -0.356 N 
ATOM     71  C   UNL A   1      31.776  28.197  26.797  1.00  0.00     0.224 C 
ATOM     72  H   UNL A   1      33.102  28.597  28.196  1.00  0.00     0.163 HD
ATOM     73  O   UNL A   1      30.988  27.797  27.661  1.00  0.00    -0.275 OA
BRANCH  71  74
ATOM     74  C   UNL A   1      31.359  28.159  25.335  1.00  0.00     0.095 C 
ATOM     75  C   UNL A   1      31.045  29.558  24.783  1.00  0.00     0.041 C 
ATOM     76  C   UNL A   1      30.272  27.130  25.030  1.00  0.00     0.095 C 
ATOM     77  C   UNL A   1      30.381  29.525  23.436  1.00  0.00    -0.030 C 
ATOM     78  C   UNL A   1      29.948  27.060  23.530  1.00  0.00     0.041 C 
ATOM     79  C   UNL A   1      29.902  28.408  22.872  1.00  0.00    -0.030 C 
BRANCH  76  80
ATOM     80  C   UNL A   1      30.533  25.727  25.585  1.00  0.00     0.227 C 
ATOM     81  O   UNL A   1      29.886  25.301  26.543  1.00  0.00    -0.275 OA
ATOM     82  N   UNL A   1      31.431  24.916  24.900  1.00  0.00    -0.331 N 
ATOM     83  C   UNL A   1      31.015  23.522  24.769  1.00  0.00     0.181 C 
ATOM     84  C   UNL A   1      32.859  25.089  25.161  1.00  0.00     0.181 C 
ATOM     85  C   UNL A   1      31.935  22.686  23.863  1.00  0.00     0.284 C 
ATOM     86  C   UNL A   1      33.756  24.239  24.242  1.00  0.00     0.284 C 
ATOM     87  N   UNL A   1      33.378  22.828  24.093  1.00  0.00    -0.328 N 
ATOM     88  H   UNL A   1      33.834  22.503  23.241  1.00  0.00     0.348 HD
BRANCH  87  89
ATOM     89  C   UNL A   1      33.968  21.897  25.063  1.00  0.00     0.299 C 
BRANCH  89  90
ATOM     90  C   UNL A   1      35.475  21.879  25.188  1.00  0.00     0.010 A 
ATOM     91  C   UNL A   1      36.216  20.746  24.776  1.00  0.00     0.013 A 
ATOM     92  C   UNL A   1      36.152  22.972  25.755  1.00  0.00     0.060 A 
ATOM     93  C   UNL A   1      37.590  20.657  25.014  1.00  0.00     0.051 A 
ATOM     94  C   UNL A   1      37.508  22.856  25.975  1.00  0.00     0.166 A 
ATOM     95  C   UNL A   1      38.205  21.723  25.630  1.00  0.00     0.165 A 
ATOM     96  O   UNL A   1      38.296  23.791  26.570  1.00  0.00    -0.454 OA
ATOM     97  O   UNL A   1      39.517  21.795  25.977  1.00  0.00    -0.454 OA
ATOM     98  C   UNL A   1      39.557  23.087  26.612  1.00  0.00     0.468 C 
ENDBRANCH  89  90
ENDBRANCH  87  89
ENDBRANCH  76  80
ENDBRANCH  71  74
ENDBRANCH  69  70
ENDBRANCH   1  69
TORSDOF 16
ENDMDL
MODEL 3
REMARK VINA RESULT:     -12.0      7.023     12.922
REMARK SMILES O=C(NCCCNC(=O)[C@@H]1CC=CC[C@H]1C(=O)N1CC[NH+](Cc2ccc3c(c2)OCO3)CC1)c1ccc(-c2c3nc(c(-c4ccc(S(=O)(=O)[O-])cc4)c4ccc([nH]4)c(-c4ccc(S(=O)(=O)[O-])cc4)c4nc(c(-c5ccc(S(=O)(=O)[O-])cc5)c5ccc2[nH]5)C=C4)C=C3)cc1
REMARK SMILES IDX 5 1 4 2 3 3 1 4 2 5 34 7 35 8 93 9 36 10 92 11 37 12 38 13
REMARK SMILES IDX 39 14 86 15 40 16 91 17 85 18 87 19 41 20 90 21 84 22 83 23
REMARK SMILES IDX 42 25 72 26 53 27 71 28 54 29 57 30 70 31 88 32 55 33 56 34
REMARK SMILES IDX 69 36 89 37 58 38 43 39 44 40 52 41 45 42 51 43 46 44 47 45
REMARK SMILES IDX 48 46 49 47 50 48 73 49 74 50 82 51 75 52 81 53 76 54 77 55
REMARK SMILES IDX 78 56 79 57 80 58 59 59 60 60 68 61 61 62 67 63 62 64 63 65
REMARK SMILES IDX 64 66 65 67 66 68 6 69 7 70 8 71 9 73 10 74 11 75 15 76
REMARK SMILES IDX 12 77 14 78 13 79 16 80 17 81 18 82 19 83 33 84 20 85 32 86
REMARK SMILES IDX 21 87 22 89 23 90 24 91 28 92 25 93 27 94 26 95 29 96 31 97
REMARK SMILES IDX 30 98
REMARK H PARENT 3 6 87 24 57 35 7 72 21 88
REMARK Flexibility Score: inf
ROOT
ATOM      1  C   UNL A   1      38.634  32.544  30.904  1.00  0.00     0.042 C 
ENDROOT
BRANCH   1   2
ATOM      2  C   UNL A   1      38.643  31.504  32.014  1.00  0.00     0.118 C 
BRANCH   2   3
ATOM      3  N   UNL A   1      37.677  30.451  31.738  1.00  0.00    -0.352 N 
ATOM      4  O   UNL A   1      36.705  28.897  30.439  1.00  0.00    -0.269 OA
ATOM      5  C   UNL A   1      37.743  29.470  30.785  1.00  0.00     0.251 C 
ATOM      6  H   UNL A   1      36.876  30.443  32.309  1.00  0.00     0.163 HD
BRANCH   5   7
ATOM      7  C   UNL A   1      39.040  29.077  30.188  1.00  0.00     0.039 A 
ATOM      8  C   UNL A   1      39.378  29.471  28.889  1.00  0.00     0.014 A 
ATOM      9  C   UNL A   1      39.980  28.408  30.979  1.00  0.00     0.014 A 
ATOM     10  C   UNL A   1      40.634  29.166  28.368  1.00  0.00     0.010 A 
ATOM     11  C   UNL A   1      41.260  28.151  30.477  1.00  0.00     0.010 A 
ATOM     12  C   UNL A   1      41.600  28.543  29.173  1.00  0.00    -0.014 A 
BRANCH  12  13
ATOM     13  C   UNL A   1      43.008  28.473  28.706  1.00  0.00     0.031 A 
ATOM     14  C   UNL A   1      43.940  29.641  28.836  1.00  0.00     0.074 A 
ATOM     15  C   UNL A   1      43.422  27.332  28.118  1.00  0.00     0.049 A 
ATOM     16  N   UNL A   1      45.187  29.737  28.450  1.00  0.00    -0.248 NA
ATOM     17  C   UNL A   1      43.412  30.858  29.471  1.00  0.00     0.031 C 
ATOM     18  C   UNL A   1      42.588  26.142  27.910  1.00  0.00     0.029 A 
ATOM     19  N   UNL A   1      44.635  26.981  27.583  1.00  0.00    -0.354 N 
ATOM     20  C   UNL A   1      45.591  31.025  28.777  1.00  0.00     0.074 A 
ATOM     21  C   UNL A   1      44.452  31.681  29.385  1.00  0.00     0.031 C 
ATOM     22  C   UNL A   1      43.318  25.191  27.308  1.00  0.00     0.029 A 
ATOM     23  C   UNL A   1      44.650  25.718  27.038  1.00  0.00     0.049 A 
ATOM     24  H   UNL A   1      45.419  27.575  27.590  1.00  0.00     0.167 HD
ATOM     25  C   UNL A   1      46.801  31.602  28.583  1.00  0.00     0.031 A 
ATOM     26  C   UNL A   1      45.615  25.062  26.366  1.00  0.00     0.031 A 
ATOM     27  C   UNL A   1      47.929  30.936  27.983  1.00  0.00     0.049 A 
ATOM     28  C   UNL A   1      46.934  25.743  26.140  1.00  0.00     0.074 A 
ATOM     29  C   UNL A   1      49.219  31.412  27.823  1.00  0.00     0.029 A 
ATOM     30  N   UNL A   1      47.901  29.665  27.429  1.00  0.00    -0.354 N 
ATOM     31  N   UNL A   1      47.324  26.929  26.541  1.00  0.00    -0.248 NA
ATOM     32  C   UNL A   1      47.940  25.003  25.368  1.00  0.00     0.031 C 
ATOM     33  C   UNL A   1      49.955  30.454  27.117  1.00  0.00     0.029 A 
ATOM     34  C   UNL A   1      49.137  29.361  26.883  1.00  0.00     0.049 A 
ATOM     35  H   UNL A   1      47.119  29.068  27.425  1.00  0.00     0.167 HD
ATOM     36  C   UNL A   1      48.622  27.076  26.071  1.00  0.00     0.074 A 
ATOM     37  C   UNL A   1      48.962  25.848  25.382  1.00  0.00     0.031 C 
ATOM     38  C   UNL A   1      49.454  28.139  26.190  1.00  0.00     0.031 A 
BRANCH  25  39
ATOM     39  C   UNL A   1      46.985  33.035  29.003  1.00  0.00    -0.014 A 
ATOM     40  C   UNL A   1      47.738  33.369  30.142  1.00  0.00     0.010 A 
ATOM     41  C   UNL A   1      46.492  34.067  28.181  1.00  0.00     0.010 A 
ATOM     42  C   UNL A   1      47.987  34.708  30.456  1.00  0.00     0.020 A 
ATOM     43  C   UNL A   1      46.754  35.406  28.482  1.00  0.00     0.020 A 
ATOM     44  C   UNL A   1      47.497  35.719  29.623  1.00  0.00     0.054 A 
BRANCH  44  45
ATOM     45  S   UNL A   1      47.892  37.445  30.020  1.00  0.00     0.124 S 
ATOM     46  O   UNL A   1      49.263  37.561  29.527  1.00  0.00    -0.237 OA
ATOM     47  O   UNL A   1      46.889  38.187  29.261  1.00  0.00    -0.237 OA
ATOM     48  O   UNL A   1      47.746  37.511  31.472  1.00  0.00    -0.744 OA
ENDBRANCH  44  45
ENDBRANCH  25  39
BRANCH  26  49
ATOM     49  C   UNL A   1      45.347  23.709  25.809  1.00  0.00    -0.014 A 
ATOM     50  C   UNL A   1      45.487  22.560  26.606  1.00  0.00     0.010 A 
ATOM     51  C   UNL A   1      44.952  23.567  24.465  1.00  0.00     0.010 A 
ATOM     52  C   UNL A   1      45.263  21.292  26.060  1.00  0.00     0.020 A 
ATOM     53  C   UNL A   1      44.699  22.305  23.926  1.00  0.00     0.020 A 
ATOM     54  C   UNL A   1      44.874  21.173  24.723  1.00  0.00     0.054 A 
BRANCH  54  55
ATOM     55  S   UNL A   1      44.563  19.521  24.040  1.00  0.00     0.124 S 
ATOM     56  O   UNL A   1      43.275  19.186  24.638  1.00  0.00    -0.237 OA
ATOM     57  O   UNL A   1      44.548  19.768  22.601  1.00  0.00    -0.237 OA
ATOM     58  O   UNL A   1      45.701  18.736  24.518  1.00  0.00    -0.744 OA
ENDBRANCH  54  55
ENDBRANCH  26  49
BRANCH  38  59
ATOM     59  C   UNL A   1      50.813  28.020  25.559  1.00  0.00    -0.014 A 
ATOM     60  C   UNL A   1      51.021  28.409  24.224  1.00  0.00     0.010 A 
ATOM     61  C   UNL A   1      51.904  27.564  26.321  1.00  0.00     0.010 A 
ATOM     62  C   UNL A   1      52.292  28.326  23.655  1.00  0.00     0.020 A 
ATOM     63  C   UNL A   1      53.182  27.503  25.762  1.00  0.00     0.020 A 
ATOM     64  C   UNL A   1      53.366  27.874  24.428  1.00  0.00     0.054 A 
BRANCH  64  65
ATOM     65  S   UNL A   1      55.020  27.828  23.683  1.00  0.00     0.124 S 
ATOM     66  O   UNL A   1      55.152  29.181  23.151  1.00  0.00    -0.237 OA
ATOM     67  O   UNL A   1      55.878  27.514  24.822  1.00  0.00    -0.237 OA
ATOM     68  O   UNL A   1      54.916  26.771  22.679  1.00  0.00    -0.744 OA
ENDBRANCH  64  65
ENDBRANCH  38  59
ENDBRANCH  12  13
ENDBRANCH   5   7
ENDBRANCH   2   3
ENDBRANCH   1   2
BRANCH   1  69
ATOM     69  C   UNL A   1      37.427  33.478  30.924  1.00  0.00     0.117 C 
BRANCH  69  70
ATOM     70  N   UNL A   1      36.193  32.847  31.368  1.00  0.00    -0.356 N 
ATOM     71  C   UNL A   1      34.884  33.169  31.222  1.00  0.00     0.224 C 
ATOM     72  H   UNL A   1      36.338  32.017  31.880  1.00  0.00     0.163 HD
ATOM     73  O   UNL A   1      34.054  32.395  31.712  1.00  0.00    -0.275 OA
BRANCH  71  74
ATOM     74  C   UNL A   1      34.402  34.404  30.477  1.00  0.00     0.095 C 
ATOM     75  C   UNL A   1      33.579  35.341  31.374  1.00  0.00     0.041 C 
ATOM     76  C   UNL A   1      33.725  34.094  29.143  1.00  0.00     0.095 C 
ATOM     77  C   UNL A   1      32.874  36.423  30.607  1.00  0.00    -0.030 C 
ATOM     78  C   UNL A   1      33.339  35.371  28.382  1.00  0.00     0.041 C 
ATOM     79  C   UNL A   1      32.777  36.442  29.270  1.00  0.00    -0.030 C 
BRANCH  76  80
ATOM     80  C   UNL A   1      34.500  33.142  28.228  1.00  0.00     0.227 C 
ATOM     81  O   UNL A   1      35.611  33.453  27.796  1.00  0.00    -0.275 OA
ATOM     82  N   UNL A   1      33.963  31.880  28.004  1.00  0.00    -0.331 N 
ATOM     83  C   UNL A   1      34.938  30.792  28.022  1.00  0.00     0.181 C 
ATOM     84  C   UNL A   1      32.932  31.737  26.979  1.00  0.00     0.181 C 
ATOM     85  C   UNL A   1      34.302  29.392  27.947  1.00  0.00     0.284 C 
ATOM     86  C   UNL A   1      32.314  30.327  26.923  1.00  0.00     0.284 C 
ATOM     87  N   UNL A   1      33.262  29.205  26.927  1.00  0.00    -0.328 N 
ATOM     88  H   UNL A   1      32.727  28.387  27.216  1.00  0.00     0.348 HD
BRANCH  87  89
ATOM     89  C   UNL A   1      33.727  28.749  25.611  1.00  0.00     0.299 C 
BRANCH  89  90
ATOM     90  C   UNL A   1      33.505  27.296  25.256  1.00  0.00     0.010 A 
ATOM     91  C   UNL A   1      32.979  26.396  26.212  1.00  0.00     0.013 A 
ATOM     92  C   UNL A   1      33.858  26.816  23.983  1.00  0.00     0.060 A 
ATOM     93  C   UNL A   1      32.900  25.026  25.947  1.00  0.00     0.051 A 
ATOM     94  C   UNL A   1      33.766  25.460  23.750  1.00  0.00     0.166 A 
ATOM     95  C   UNL A   1      33.316  24.587  24.711  1.00  0.00     0.165 A 
ATOM     96  O   UNL A   1      34.128  24.828  22.601  1.00  0.00    -0.454 OA
ATOM     97  O   UNL A   1      33.351  23.294  24.294  1.00  0.00    -0.454 OA
ATOM     98  C   UNL A   1      33.908  23.451  22.975  1.00  0.00     0.468 C 
ENDBRANCH  89  90
ENDBRANCH  87  89
ENDBRANCH  76  80
ENDBRANCH  71  74
ENDBRANCH  69  70
ENDBRANCH   1  69
TORSDOF 16
ENDMDL
