MODEL 1
REMARK VINA RESULT:     -11.2      0.000      0.000
REMARK SMILES C[C@@H](C(=O)NCCCNC(=O)c1ccc(-c2c3nc(c(-c4ccc(S(=O)(=O)[O-])cc4)c4ccc([nH]4)c(-c4ccc(S(=O)(=O)[O-])cc4)c4nc(c(-c5ccc(S(=O)(=O)[O-])cc5)c5ccc2[nH]5)C=C4)C=C3)cc1)c1ccc(N[C@H]2CCC[C@@H]2O)cc1F
REMARK SMILES IDX 6 1 5 2 3 3 4 4 2 6 1 7 72 8 73 9 84 10 74 11 83 12 85 13
REMARK SMILES IDX 75 14 76 15 77 17 78 18 81 19 79 20 80 21 82 22 7 24 8 25
REMARK SMILES IDX 9 26 10 27 11 29 12 30 13 31 71 32 14 33 70 34 15 35 16 36
REMARK SMILES IDX 17 37 64 38 18 39 69 40 63 41 65 42 19 43 68 44 62 45 61 46
REMARK SMILES IDX 20 48 50 49 31 50 49 51 32 52 35 53 48 54 66 55 33 56 34 57
REMARK SMILES IDX 47 59 67 60 36 61 21 62 22 63 30 64 23 65 29 66 24 67 25 68
REMARK SMILES IDX 26 69 27 70 28 71 51 72 52 73 60 74 53 75 59 76 54 77 55 78
REMARK SMILES IDX 56 79 57 80 58 81 37 82 38 83 46 84 39 85 45 86 40 87 41 88
REMARK SMILES IDX 42 89 43 90 44 91
REMARK H PARENT 5 5 76 16 82 23 9 28 65 47 35 58
REMARK Flexibility Score: inf
ROOT
ATOM      1  C   UNL A   1      31.579  27.377  26.199  1.00  0.00     0.117 C 
ENDROOT
BRANCH   1   2
ATOM      2  N   UNL A   1      30.919  26.162  26.633  1.00  0.00    -0.356 N 
ATOM      3  C   UNL A   1      30.956  24.897  26.119  1.00  0.00     0.227 C 
ATOM      4  O   UNL A   1      30.364  24.029  26.764  1.00  0.00    -0.274 OA
ATOM      5  H   UNL A   1      30.350  26.266  27.430  1.00  0.00     0.163 HD
BRANCH   3   6
ATOM      6  C   UNL A   1      31.764  24.606  24.844  1.00  0.00     0.108 C 
ATOM      7  C   UNL A   1      30.921  24.687  23.569  1.00  0.00     0.023 C 
BRANCH   6   8
ATOM      8  C   UNL A   1      32.478  23.263  24.889  1.00  0.00     0.000 A 
ATOM      9  C   UNL A   1      32.083  22.223  24.041  1.00  0.00     0.009 A 
ATOM     10  C   UNL A   1      33.505  23.001  25.797  1.00  0.00     0.129 A 
ATOM     11  C   UNL A   1      32.705  20.969  24.112  1.00  0.00     0.026 A 
ATOM     12  C   UNL A   1      34.132  21.758  25.850  1.00  0.00     0.065 A 
ATOM     13  F   UNL A   1      33.891  23.946  26.669  1.00  0.00    -0.207 F 
ATOM     14  C   UNL A   1      33.752  20.712  25.000  1.00  0.00     0.037 A 
BRANCH  14  15
ATOM     15  N   UNL A   1      34.379  19.493  25.143  1.00  0.00    -0.380 N 
ATOM     16  H   UNL A   1      35.188  19.506  25.702  1.00  0.00     0.160 HD
BRANCH  15  17
ATOM     17  C   UNL A   1      34.032  18.184  24.596  1.00  0.00     0.107 C 
ATOM     18  C   UNL A   1      35.225  17.235  24.434  1.00  0.00     0.027 C 
ATOM     19  C   UNL A   1      32.966  17.421  25.402  1.00  0.00     0.136 C 
ATOM     20  C   UNL A   1      34.799  15.910  25.063  1.00  0.00     0.005 C 
ATOM     21  C   UNL A   1      33.280  15.961  25.108  1.00  0.00     0.034 C 
BRANCH  19  22
ATOM     22  O   UNL A   1      31.648  17.734  24.963  1.00  0.00    -0.391 OA
ATOM     23  H   UNL A   1      31.444  18.657  25.183  1.00  0.00     0.211 HD
ENDBRANCH  19  22
ENDBRANCH  15  17
ENDBRANCH  14  15
ENDBRANCH   6   8
ENDBRANCH   3   6
ENDBRANCH   1   2
BRANCH   1  24
ATOM     24  C   UNL A   1      32.923  27.592  26.893  1.00  0.00     0.042 C 
BRANCH  24  25
ATOM     25  C   UNL A   1      33.895  28.494  26.137  1.00  0.00     0.118 C 
BRANCH  25  26
ATOM     26  N   UNL A   1      33.707  29.904  26.434  1.00  0.00    -0.352 N 
ATOM     27  C   UNL A   1      34.383  30.731  27.295  1.00  0.00     0.251 C 
ATOM     28  H   UNL A   1      32.975  30.336  25.937  1.00  0.00     0.163 HD
ATOM     29  O   UNL A   1      33.929  31.857  27.510  1.00  0.00    -0.269 OA
BRANCH  27  30
ATOM     30  C   UNL A   1      35.621  30.295  27.978  1.00  0.00     0.039 A 
ATOM     31  C   UNL A   1      36.842  30.487  27.324  1.00  0.00     0.014 A 
ATOM     32  C   UNL A   1      35.596  29.656  29.222  1.00  0.00     0.014 A 
ATOM     33  C   UNL A   1      38.034  30.090  27.936  1.00  0.00     0.010 A 
ATOM     34  C   UNL A   1      36.792  29.323  29.863  1.00  0.00     0.010 A 
ATOM     35  C   UNL A   1      38.023  29.533  29.226  1.00  0.00    -0.014 A 
BRANCH  35  36
ATOM     36  C   UNL A   1      39.297  29.187  29.907  1.00  0.00     0.031 A 
ATOM     37  C   UNL A   1      39.742  29.932  31.137  1.00  0.00     0.074 A 
ATOM     38  C   UNL A   1      40.072  28.209  29.397  1.00  0.00     0.049 A 
ATOM     39  N   UNL A   1      40.811  29.742  31.871  1.00  0.00    -0.248 NA
ATOM     40  C   UNL A   1      38.893  31.043  31.593  1.00  0.00     0.031 C 
ATOM     41  C   UNL A   1      39.781  27.449  28.178  1.00  0.00     0.029 A 
ATOM     42  N   UNL A   1      41.260  27.683  29.839  1.00  0.00    -0.354 N 
ATOM     43  C   UNL A   1      40.764  30.709  32.869  1.00  0.00     0.074 A 
ATOM     44  C   UNL A   1      39.588  31.516  32.617  1.00  0.00     0.031 C 
ATOM     45  C   UNL A   1      40.745  26.533  27.991  1.00  0.00     0.029 A 
ATOM     46  C   UNL A   1      41.735  26.659  29.056  1.00  0.00     0.049 A 
ATOM     47  H   UNL A   1      41.726  28.009  30.643  1.00  0.00     0.167 HD
ATOM     48  C   UNL A   1      41.608  30.898  33.913  1.00  0.00     0.031 A 
ATOM     49  C   UNL A   1      42.840  25.900  29.178  1.00  0.00     0.031 A 
ATOM     50  C   UNL A   1      42.776  30.095  34.165  1.00  0.00     0.049 A 
ATOM     51  C   UNL A   1      43.754  26.118  30.351  1.00  0.00     0.074 A 
ATOM     52  C   UNL A   1      43.666  30.178  35.222  1.00  0.00     0.029 A 
ATOM     53  N   UNL A   1      43.217  29.062  33.353  1.00  0.00    -0.354 N 
ATOM     54  N   UNL A   1      43.653  26.995  31.321  1.00  0.00    -0.248 NA
ATOM     55  C   UNL A   1      44.918  25.230  30.456  1.00  0.00     0.031 C 
ATOM     56  C   UNL A   1      44.670  29.221  35.026  1.00  0.00     0.029 A 
ATOM     57  C   UNL A   1      44.378  28.511  33.873  1.00  0.00     0.049 A 
ATOM     58  H   UNL A   1      42.772  28.763  32.527  1.00  0.00     0.167 HD
ATOM     59  C   UNL A   1      44.736  26.757  32.159  1.00  0.00     0.074 A 
ATOM     60  C   UNL A   1      45.462  25.636  31.595  1.00  0.00     0.031 C 
ATOM     61  C   UNL A   1      45.100  27.409  33.291  1.00  0.00     0.031 A 
BRANCH  48  62
ATOM     62  C   UNL A   1      41.292  32.022  34.865  1.00  0.00    -0.014 A 
ATOM     63  C   UNL A   1      41.866  33.295  34.695  1.00  0.00     0.010 A 
ATOM     64  C   UNL A   1      40.384  31.816  35.919  1.00  0.00     0.010 A 
ATOM     65  C   UNL A   1      41.571  34.330  35.585  1.00  0.00     0.020 A 
ATOM     66  C   UNL A   1      40.067  32.857  36.798  1.00  0.00     0.020 A 
ATOM     67  C   UNL A   1      40.676  34.104  36.636  1.00  0.00     0.054 A 
BRANCH  67  68
ATOM     68  S   UNL A   1      40.295  35.471  37.766  1.00  0.00     0.124 S 
ATOM     69  O   UNL A   1      39.728  36.463  36.856  1.00  0.00    -0.237 OA
ATOM     70  O   UNL A   1      39.350  34.863  38.699  1.00  0.00    -0.237 OA
ATOM     71  O   UNL A   1      41.592  35.820  38.337  1.00  0.00    -0.744 OA
ENDBRANCH  67  68
ENDBRANCH  48  62
BRANCH  49  72
ATOM     72  C   UNL A   1      43.128  24.845  28.169  1.00  0.00    -0.014 A 
ATOM     73  C   UNL A   1      43.849  25.150  27.002  1.00  0.00     0.010 A 
ATOM     74  C   UNL A   1      42.700  23.522  28.385  1.00  0.00     0.010 A 
ATOM     75  C   UNL A   1      44.126  24.155  26.061  1.00  0.00     0.020 A 
ATOM     76  C   UNL A   1      42.997  22.519  27.460  1.00  0.00     0.020 A 
ATOM     77  C   UNL A   1      43.699  22.845  26.297  1.00  0.00     0.054 A 
BRANCH  77  78
ATOM     78  S   UNL A   1      44.125  21.553  25.095  1.00  0.00     0.124 S 
ATOM     79  O   UNL A   1      43.105  20.543  25.361  1.00  0.00    -0.237 OA
ATOM     80  O   UNL A   1      44.006  22.254  23.820  1.00  0.00    -0.237 OA
ATOM     81  O   UNL A   1      45.489  21.181  25.466  1.00  0.00    -0.744 OA
ENDBRANCH  77  78
ENDBRANCH  49  72
BRANCH  61  82
ATOM     82  C   UNL A   1      46.334  26.915  33.996  1.00  0.00    -0.014 A 
ATOM     83  C   UNL A   1      47.600  27.455  33.706  1.00  0.00     0.010 A 
ATOM     84  C   UNL A   1      46.226  25.906  34.970  1.00  0.00     0.010 A 
ATOM     85  C   UNL A   1      48.741  26.963  34.343  1.00  0.00     0.020 A 
ATOM     86  C   UNL A   1      47.362  25.430  35.628  1.00  0.00     0.020 A 
ATOM     87  C   UNL A   1      48.616  25.946  35.296  1.00  0.00     0.054 A 
BRANCH  87  88
ATOM     88  S   UNL A   1      50.110  25.327  36.118  1.00  0.00     0.124 S 
ATOM     89  O   UNL A   1      49.612  25.020  37.456  1.00  0.00    -0.237 OA
ATOM     90  O   UNL A   1      50.473  24.172  35.301  1.00  0.00    -0.237 OA
ATOM     91  O   UNL A   1      51.037  26.453  36.040  1.00  0.00    -0.744 OA
ENDBRANCH  87  88
ENDBRANCH  61  82
ENDBRANCH  35  36
ENDBRANCH  27  30
ENDBRANCH  25  26
ENDBRANCH  24  25
ENDBRANCH   1  24
TORSDOF 17
ENDMDL
MODEL 2
REMARK VINA RESULT:     -11.0      4.756     10.882
REMARK SMILES C[C@@H](C(=O)NCCCNC(=O)c1ccc(-c2c3nc(c(-c4ccc(S(=O)(=O)[O-])cc4)c4ccc([nH]4)c(-c4ccc(S(=O)(=O)[O-])cc4)c4nc(c(-c5ccc(S(=O)(=O)[O-])cc5)c5ccc2[nH]5)C=C4)C=C3)cc1)c1ccc(N[C@H]2CCC[C@@H]2O)cc1F
REMARK SMILES IDX 6 1 5 2 3 3 4 4 2 6 1 7 72 8 73 9 84 10 74 11 83 12 85 13
REMARK SMILES IDX 75 14 76 15 77 17 78 18 81 19 79 20 80 21 82 22 7 24 8 25
REMARK SMILES IDX 9 26 10 27 11 29 12 30 13 31 71 32 14 33 70 34 15 35 16 36
REMARK SMILES IDX 17 37 64 38 18 39 69 40 63 41 65 42 19 43 68 44 62 45 61 46
REMARK SMILES IDX 20 48 50 49 31 50 49 51 32 52 35 53 48 54 66 55 33 56 34 57
REMARK SMILES IDX 47 59 67 60 36 61 21 62 22 63 30 64 23 65 29 66 24 67 25 68
REMARK SMILES IDX 26 69 27 70 28 71 51 72 52 73 60 74 53 75 59 76 54 77 55 78
REMARK SMILES IDX 56 79 57 80 58 81 37 82 38 83 46 84 39 85 45 86 40 87 41 88
REMARK SMILES IDX 42 89 43 90 44 91
REMARK H PARENT 5 5 76 16 82 23 9 28 65 47 35 58
REMARK Flexibility Score: inf
ROOT
ATOM      1  C   UNL A   1      35.146  32.840  30.423  1.00  0.00     0.117 C 
ENDROOT
BRANCH   1   2
ATOM      2  N   UNL A   1      34.515  32.741  31.724  1.00  0.00    -0.356 N 
ATOM      3  C   UNL A   1      34.985  33.057  32.967  1.00  0.00     0.227 C 
ATOM      4  O   UNL A   1      34.179  32.960  33.895  1.00  0.00    -0.274 OA
ATOM      5  H   UNL A   1      33.597  32.387  31.709  1.00  0.00     0.163 HD
BRANCH   3   6
ATOM      6  C   UNL A   1      36.423  33.572  33.140  1.00  0.00     0.108 C 
ATOM      7  C   UNL A   1      36.883  34.463  31.983  1.00  0.00     0.023 C 
BRANCH   6   8
ATOM      8  C   UNL A   1      37.433  32.452  33.344  1.00  0.00     0.000 A 
ATOM      9  C   UNL A   1      37.095  31.131  33.032  1.00  0.00     0.009 A 
ATOM     10  C   UNL A   1      38.696  32.685  33.887  1.00  0.00     0.129 A 
ATOM     11  C   UNL A   1      38.004  30.089  33.262  1.00  0.00     0.026 A 
ATOM     12  C   UNL A   1      39.603  31.647  34.096  1.00  0.00     0.065 A 
ATOM     13  F   UNL A   1      39.055  33.925  34.252  1.00  0.00    -0.207 F 
ATOM     14  C   UNL A   1      39.280  30.322  33.780  1.00  0.00     0.037 A 
BRANCH  14  15
ATOM     15  N   UNL A   1      40.204  29.338  34.062  1.00  0.00    -0.380 N 
ATOM     16  H   UNL A   1      39.827  28.514  34.446  1.00  0.00     0.160 HD
BRANCH  15  17
ATOM     17  C   UNL A   1      41.652  29.324  33.880  1.00  0.00     0.107 C 
ATOM     18  C   UNL A   1      42.445  29.704  35.137  1.00  0.00     0.027 C 
ATOM     19  C   UNL A   1      42.219  27.981  33.388  1.00  0.00     0.136 C 
ATOM     20  C   UNL A   1      43.518  28.628  35.299  1.00  0.00     0.005 C 
ATOM     21  C   UNL A   1      43.641  27.979  33.931  1.00  0.00     0.034 C 
BRANCH  19  22
ATOM     22  O   UNL A   1      42.239  27.906  31.966  1.00  0.00    -0.391 OA
ATOM     23  H   UNL A   1      42.138  28.796  31.594  1.00  0.00     0.211 HD
ENDBRANCH  19  22
ENDBRANCH  15  17
ENDBRANCH  14  15
ENDBRANCH   6   8
ENDBRANCH   3   6
ENDBRANCH   1   2
BRANCH   1  24
ATOM     24  C   UNL A   1      34.221  33.444  29.369  1.00  0.00     0.042 C 
BRANCH  24  25
ATOM     25  C   UNL A   1      34.414  32.894  27.958  1.00  0.00     0.118 C 
BRANCH  25  26
ATOM     26  N   UNL A   1      33.714  31.639  27.739  1.00  0.00    -0.352 N 
ATOM     27  C   UNL A   1      34.180  30.350  27.725  1.00  0.00     0.251 C 
ATOM     28  H   UNL A   1      32.747  31.730  27.575  1.00  0.00     0.163 HD
ATOM     29  O   UNL A   1      33.425  29.453  27.342  1.00  0.00    -0.269 OA
BRANCH  27  30
ATOM     30  C   UNL A   1      35.564  30.020  28.135  1.00  0.00     0.039 A 
ATOM     31  C   UNL A   1      36.588  30.175  27.195  1.00  0.00     0.014 A 
ATOM     32  C   UNL A   1      35.861  29.515  29.404  1.00  0.00     0.014 A 
ATOM     33  C   UNL A   1      37.908  29.876  27.543  1.00  0.00     0.010 A 
ATOM     34  C   UNL A   1      37.188  29.283  29.773  1.00  0.00     0.010 A 
ATOM     35  C   UNL A   1      38.224  29.457  28.846  1.00  0.00    -0.014 A 
BRANCH  35  36
ATOM     36  C   UNL A   1      39.638  29.217  29.237  1.00  0.00     0.031 A 
ATOM     37  C   UNL A   1      40.316  27.910  28.923  1.00  0.00     0.074 A 
ATOM     38  C   UNL A   1      40.309  30.179  29.904  1.00  0.00     0.049 A 
ATOM     39  N   UNL A   1      41.549  27.544  29.168  1.00  0.00    -0.248 NA
ATOM     40  C   UNL A   1      39.503  26.874  28.269  1.00  0.00     0.031 C 
ATOM     41  C   UNL A   1      39.749  31.468  30.318  1.00  0.00     0.029 A 
ATOM     42  N   UNL A   1      41.606  30.223  30.348  1.00  0.00    -0.354 N 
ATOM     43  C   UNL A   1      41.659  26.239  28.703  1.00  0.00     0.074 A 
ATOM     44  C   UNL A   1      40.353  25.859  28.208  1.00  0.00     0.031 C 
ATOM     45  C   UNL A   1      40.706  32.188  30.924  1.00  0.00     0.029 A 
ATOM     46  C   UNL A   1      41.936  31.404  30.968  1.00  0.00     0.049 A 
ATOM     47  H   UNL A   1      42.241  29.479  30.232  1.00  0.00     0.167 HD
ATOM     48  C   UNL A   1      42.750  25.435  28.671  1.00  0.00     0.031 A 
ATOM     49  C   UNL A   1      43.098  31.818  31.508  1.00  0.00     0.031 A 
ATOM     50  C   UNL A   1      44.050  25.813  29.161  1.00  0.00     0.049 A 
ATOM     51  C   UNL A   1      44.298  30.915  31.447  1.00  0.00     0.074 A 
ATOM     52  C   UNL A   1      45.228  25.086  29.129  1.00  0.00     0.029 A 
ATOM     53  N   UNL A   1      44.344  27.022  29.773  1.00  0.00    -0.354 N 
ATOM     54  N   UNL A   1      44.395  29.708  30.942  1.00  0.00    -0.248 NA
ATOM     55  C   UNL A   1      45.548  31.438  32.013  1.00  0.00     0.031 C 
ATOM     56  C   UNL A   1      46.225  25.840  29.759  1.00  0.00     0.029 A 
ATOM     57  C   UNL A   1      45.680  27.055  30.140  1.00  0.00     0.049 A 
ATOM     58  H   UNL A   1      43.699  27.750  29.925  1.00  0.00     0.167 HD
ATOM     59  C   UNL A   1      45.721  29.332  31.118  1.00  0.00     0.074 A 
ATOM     60  C   UNL A   1      46.393  30.450  31.752  1.00  0.00     0.031 C 
ATOM     61  C   UNL A   1      46.329  28.166  30.788  1.00  0.00     0.031 A 
BRANCH  48  62
ATOM     62  C   UNL A   1      42.580  24.060  28.078  1.00  0.00    -0.014 A 
ATOM     63  C   UNL A   1      42.215  22.967  28.884  1.00  0.00     0.010 A 
ATOM     64  C   UNL A   1      42.750  23.864  26.696  1.00  0.00     0.010 A 
ATOM     65  C   UNL A   1      42.064  21.694  28.328  1.00  0.00     0.020 A 
ATOM     66  C   UNL A   1      42.575  22.597  26.130  1.00  0.00     0.020 A 
ATOM     67  C   UNL A   1      42.250  21.516  26.953  1.00  0.00     0.054 A 
BRANCH  67  68
ATOM     68  S   UNL A   1      42.029  19.857  26.252  1.00  0.00     0.124 S 
ATOM     69  O   UNL A   1      42.914  19.901  25.092  1.00  0.00    -0.237 OA
ATOM     70  O   UNL A   1      42.464  18.987  27.341  1.00  0.00    -0.237 OA
ATOM     71  O   UNL A   1      40.602  19.799  25.945  1.00  0.00    -0.744 OA
ENDBRANCH  67  68
ENDBRANCH  48  62
BRANCH  49  72
ATOM     72  C   UNL A   1      43.184  33.165  32.133  1.00  0.00    -0.014 A 
ATOM     73  C   UNL A   1      42.920  33.336  33.503  1.00  0.00     0.010 A 
ATOM     74  C   UNL A   1      43.556  34.282  31.362  1.00  0.00     0.010 A 
ATOM     75  C   UNL A   1      43.012  34.601  34.089  1.00  0.00     0.020 A 
ATOM     76  C   UNL A   1      43.674  35.544  31.949  1.00  0.00     0.020 A 
ATOM     77  C   UNL A   1      43.389  35.697  33.308  1.00  0.00     0.054 A 
BRANCH  77  78
ATOM     78  S   UNL A   1      43.567  37.320  34.101  1.00  0.00     0.124 S 
ATOM     79  O   UNL A   1      42.213  37.570  34.586  1.00  0.00    -0.237 OA
ATOM     80  O   UNL A   1      44.572  37.063  35.129  1.00  0.00    -0.237 OA
ATOM     81  O   UNL A   1      44.013  38.184  33.009  1.00  0.00    -0.744 OA
ENDBRANCH  77  78
ENDBRANCH  49  72
BRANCH  61  82
ATOM     82  C   UNL A   1      47.797  28.049  31.101  1.00  0.00    -0.014 A 
ATOM     83  C   UNL A   1      48.771  28.384  30.143  1.00  0.00     0.010 A 
ATOM     84  C   UNL A   1      48.208  27.612  32.373  1.00  0.00     0.010 A 
ATOM     85  C   UNL A   1      50.128  28.239  30.436  1.00  0.00     0.020 A 
ATOM     86  C   UNL A   1      49.565  27.489  32.677  1.00  0.00     0.020 A 
ATOM     87  C   UNL A   1      50.518  27.784  31.700  1.00  0.00     0.054 A 
BRANCH  87  88
ATOM     88  S   UNL A   1      52.287  27.611  32.062  1.00  0.00     0.124 S 
ATOM     89  O   UNL A   1      52.768  26.898  30.881  1.00  0.00    -0.237 OA
ATOM     90  O   UNL A   1      52.729  28.998  32.182  1.00  0.00    -0.237 OA
ATOM     91  O   UNL A   1      52.310  26.845  33.306  1.00  0.00    -0.744 OA
ENDBRANCH  87  88
ENDBRANCH  61  82
ENDBRANCH  35  36
ENDBRANCH  27  30
ENDBRANCH  25  26
ENDBRANCH  24  25
ENDBRANCH   1  24
TORSDOF 17
ENDMDL
MODEL 3
REMARK VINA RESULT:     -10.7      3.465      9.914
REMARK SMILES C[C@@H](C(=O)NCCCNC(=O)c1ccc(-c2c3nc(c(-c4ccc(S(=O)(=O)[O-])cc4)c4ccc([nH]4)c(-c4ccc(S(=O)(=O)[O-])cc4)c4nc(c(-c5ccc(S(=O)(=O)[O-])cc5)c5ccc2[nH]5)C=C4)C=C3)cc1)c1ccc(N[C@H]2CCC[C@@H]2O)cc1F
REMARK SMILES IDX 6 1 5 2 3 3 4 4 2 6 1 7 72 8 73 9 84 10 74 11 83 12 85 13
REMARK SMILES IDX 75 14 76 15 77 17 78 18 81 19 79 20 80 21 82 22 7 24 8 25
REMARK SMILES IDX 9 26 10 27 11 29 12 30 13 31 71 32 14 33 70 34 15 35 16 36
REMARK SMILES IDX 17 37 64 38 18 39 69 40 63 41 65 42 19 43 68 44 62 45 61 46
REMARK SMILES IDX 20 48 50 49 31 50 49 51 32 52 35 53 48 54 66 55 33 56 34 57
REMARK SMILES IDX 47 59 67 60 36 61 21 62 22 63 30 64 23 65 29 66 24 67 25 68
REMARK SMILES IDX 26 69 27 70 28 71 51 72 52 73 60 74 53 75 59 76 54 77 55 78
REMARK SMILES IDX 56 79 57 80 58 81 37 82 38 83 46 84 39 85 45 86 40 87 41 88
REMARK SMILES IDX 42 89 43 90 44 91
REMARK H PARENT 5 5 76 16 82 23 9 28 65 47 35 58
REMARK Flexibility Score: inf
ROOT
ATOM      1  C   UNL A   1      43.777  22.748  27.043  1.00  0.00     0.117 C 
ENDROOT
BRANCH   1   2
ATOM      2  N   UNL A   1      43.662  21.611  26.151  1.00  0.00    -0.356 N 
ATOM      3  C   UNL A   1      42.700  20.645  26.060  1.00  0.00     0.227 C 
ATOM      4  O   UNL A   1      42.816  19.848  25.127  1.00  0.00    -0.274 OA
ATOM      5  H   UNL A   1      44.400  21.519  25.505  1.00  0.00     0.163 HD
BRANCH   3   6
ATOM      6  C   UNL A   1      41.518  20.639  27.043  1.00  0.00     0.108 C 
ATOM      7  C   UNL A   1      41.388  19.322  27.813  1.00  0.00     0.023 C 
BRANCH   6   8
ATOM      8  C   UNL A   1      40.190  20.963  26.376  1.00  0.00     0.000 A 
ATOM      9  C   UNL A   1      39.481  19.970  25.693  1.00  0.00     0.009 A 
ATOM     10  C   UNL A   1      39.660  22.254  26.374  1.00  0.00     0.129 A 
ATOM     11  C   UNL A   1      38.281  20.274  25.035  1.00  0.00     0.026 A 
ATOM     12  C   UNL A   1      38.456  22.546  25.733  1.00  0.00     0.065 A 
ATOM     13  F   UNL A   1      40.323  23.257  26.970  1.00  0.00    -0.207 F 
ATOM     14  C   UNL A   1      37.732  21.559  25.054  1.00  0.00     0.037 A 
BRANCH  14  15
ATOM     15  N   UNL A   1      36.578  21.929  24.399  1.00  0.00    -0.380 N 
ATOM     16  H   UNL A   1      36.665  22.014  23.422  1.00  0.00     0.160 HD
BRANCH  15  17
ATOM     17  C   UNL A   1      35.245  22.213  24.923  1.00  0.00     0.107 C 
ATOM     18  C   UNL A   1      34.171  22.390  23.843  1.00  0.00     0.027 C 
ATOM     19  C   UNL A   1      34.712  21.159  25.909  1.00  0.00     0.136 C 
ATOM     20  C   UNL A   1      32.996  21.511  24.269  1.00  0.00     0.005 C 
ATOM     21  C   UNL A   1      33.201  21.264  25.754  1.00  0.00     0.034 C 
BRANCH  19  22
ATOM     22  O   UNL A   1      35.086  21.454  27.251  1.00  0.00    -0.391 OA
ATOM     23  H   UNL A   1      36.049  21.384  27.341  1.00  0.00     0.211 HD
ENDBRANCH  19  22
ENDBRANCH  15  17
ENDBRANCH  14  15
ENDBRANCH   6   8
ENDBRANCH   3   6
ENDBRANCH   1   2
BRANCH   1  24
ATOM     24  C   UNL A   1      45.134  23.440  26.935  1.00  0.00     0.042 C 
BRANCH  24  25
ATOM     25  C   UNL A   1      45.071  24.916  26.551  1.00  0.00     0.118 C 
BRANCH  25  26
ATOM     26  N   UNL A   1      44.004  25.209  25.608  1.00  0.00    -0.352 N 
ATOM     27  C   UNL A   1      42.817  25.872  25.783  1.00  0.00     0.251 C 
ATOM     28  H   UNL A   1      44.160  24.877  24.694  1.00  0.00     0.163 HD
ATOM     29  O   UNL A   1      41.986  25.846  24.873  1.00  0.00    -0.269 OA
BRANCH  27  30
ATOM     30  C   UNL A   1      42.509  26.593  27.039  1.00  0.00     0.039 A 
ATOM     31  C   UNL A   1      43.082  27.853  27.237  1.00  0.00     0.014 A 
ATOM     32  C   UNL A   1      41.714  26.030  28.042  1.00  0.00     0.014 A 
ATOM     33  C   UNL A   1      42.815  28.567  28.409  1.00  0.00     0.010 A 
ATOM     34  C   UNL A   1      41.391  26.772  29.181  1.00  0.00     0.010 A 
ATOM     35  C   UNL A   1      41.942  28.046  29.378  1.00  0.00    -0.014 A 
BRANCH  35  36
ATOM     36  C   UNL A   1      41.596  28.841  30.585  1.00  0.00     0.031 A 
ATOM     37  C   UNL A   1      42.400  28.712  31.851  1.00  0.00     0.074 A 
ATOM     38  C   UNL A   1      40.532  29.668  30.546  1.00  0.00     0.049 A 
ATOM     39  N   UNL A   1      42.254  29.350  32.986  1.00  0.00    -0.248 NA
ATOM     40  C   UNL A   1      43.496  27.731  31.853  1.00  0.00     0.031 C 
ATOM     41  C   UNL A   1      39.637  29.841  29.399  1.00  0.00     0.029 A 
ATOM     42  N   UNL A   1      40.023  30.519  31.494  1.00  0.00    -0.354 N 
ATOM     43  C   UNL A   1      43.232  28.845  33.835  1.00  0.00     0.074 A 
ATOM     44  C   UNL A   1      43.933  27.814  33.101  1.00  0.00     0.031 C 
ATOM     45  C   UNL A   1      38.712  30.767  29.698  1.00  0.00     0.029 A 
ATOM     46  C   UNL A   1      38.928  31.231  31.065  1.00  0.00     0.049 A 
ATOM     47  H   UNL A   1      40.406  30.612  32.396  1.00  0.00     0.167 HD
ATOM     48  C   UNL A   1      43.535  29.219  35.102  1.00  0.00     0.031 A 
ATOM     49  C   UNL A   1      38.182  32.158  31.694  1.00  0.00     0.031 A 
ATOM     50  C   UNL A   1      42.839  30.247  35.832  1.00  0.00     0.049 A 
ATOM     51  C   UNL A   1      38.546  32.567  33.093  1.00  0.00     0.074 A 
ATOM     52  C   UNL A   1      43.103  30.729  37.103  1.00  0.00     0.029 A 
ATOM     53  N   UNL A   1      41.743  30.950  35.359  1.00  0.00    -0.354 N 
ATOM     54  N   UNL A   1      39.519  32.124  33.854  1.00  0.00    -0.248 NA
ATOM     55  C   UNL A   1      37.722  33.614  33.711  1.00  0.00     0.031 C 
ATOM     56  C   UNL A   1      42.138  31.696  37.413  1.00  0.00     0.029 A 
ATOM     57  C   UNL A   1      41.305  31.849  36.318  1.00  0.00     0.049 A 
ATOM     58  H   UNL A   1      41.334  30.828  34.471  1.00  0.00     0.167 HD
ATOM     59  C   UNL A   1      39.432  32.848  35.037  1.00  0.00     0.074 A 
ATOM     60  C   UNL A   1      38.328  33.775  34.880  1.00  0.00     0.031 C 
ATOM     61  C   UNL A   1      40.193  32.752  36.155  1.00  0.00     0.031 A 
BRANCH  48  62
ATOM     62  C   UNL A   1      44.678  28.509  35.780  1.00  0.00    -0.014 A 
ATOM     63  C   UNL A   1      44.455  27.354  36.552  1.00  0.00     0.010 A 
ATOM     64  C   UNL A   1      45.994  28.976  35.614  1.00  0.00     0.010 A 
ATOM     65  C   UNL A   1      45.519  26.704  37.180  1.00  0.00     0.020 A 
ATOM     66  C   UNL A   1      47.067  28.314  36.220  1.00  0.00     0.020 A 
ATOM     67  C   UNL A   1      46.820  27.191  37.015  1.00  0.00     0.054 A 
BRANCH  67  68
ATOM     68  S   UNL A   1      48.188  26.317  37.825  1.00  0.00     0.124 S 
ATOM     69  O   UNL A   1      47.740  26.284  39.215  1.00  0.00    -0.237 OA
ATOM     70  O   UNL A   1      48.197  25.028  37.139  1.00  0.00    -0.237 OA
ATOM     71  O   UNL A   1      49.346  27.167  37.564  1.00  0.00    -0.744 OA
ENDBRANCH  67  68
ENDBRANCH  48  62
BRANCH  49  72
ATOM     72  C   UNL A   1      37.028  32.779  30.991  1.00  0.00    -0.014 A 
ATOM     73  C   UNL A   1      35.710  32.463  31.362  1.00  0.00     0.010 A 
ATOM     74  C   UNL A   1      37.244  33.711  29.959  1.00  0.00     0.010 A 
ATOM     75  C   UNL A   1      34.628  33.056  30.706  1.00  0.00     0.020 A 
ATOM     76  C   UNL A   1      36.166  34.325  29.318  1.00  0.00     0.020 A 
ATOM     77  C   UNL A   1      34.863  33.985  29.688  1.00  0.00     0.054 A 
BRANCH  77  78
ATOM     78  S   UNL A   1      33.446  34.793  28.892  1.00  0.00     0.124 S 
ATOM     79  O   UNL A   1      32.531  34.973  30.015  1.00  0.00    -0.237 OA
ATOM     80  O   UNL A   1      34.038  36.015  28.355  1.00  0.00    -0.237 OA
ATOM     81  O   UNL A   1      33.022  33.822  27.886  1.00  0.00    -0.744 OA
ENDBRANCH  77  78
ENDBRANCH  49  72
BRANCH  61  82
ATOM     82  C   UNL A   1      39.861  33.683  37.289  1.00  0.00    -0.014 A 
ATOM     83  C   UNL A   1      40.285  35.024  37.273  1.00  0.00     0.010 A 
ATOM     84  C   UNL A   1      39.103  33.216  38.377  1.00  0.00     0.010 A 
ATOM     85  C   UNL A   1      39.998  35.868  38.348  1.00  0.00     0.020 A 
ATOM     86  C   UNL A   1      38.792  34.065  39.443  1.00  0.00     0.020 A 
ATOM     87  C   UNL A   1      39.260  35.381  39.432  1.00  0.00     0.054 A 
BRANCH  87  88
ATOM     88  S   UNL A   1      38.891  36.496  40.813  1.00  0.00     0.124 S 
ATOM     89  O   UNL A   1      40.179  36.565  41.498  1.00  0.00    -0.237 OA
ATOM     90  O   UNL A   1      38.472  37.721  40.137  1.00  0.00    -0.237 OA
ATOM     91  O   UNL A   1      37.832  35.803  41.543  1.00  0.00    -0.744 OA
ENDBRANCH  87  88
ENDBRANCH  61  82
ENDBRANCH  35  36
ENDBRANCH  27  30
ENDBRANCH  25  26
ENDBRANCH  24  25
ENDBRANCH   1  24
TORSDOF 17
ENDMDL
