MODEL 1
REMARK VINA RESULT:     -10.1      0.000      0.000
REMARK SMILES O=C(Cc1ccccc1Cl)Nc1ccc(C(=O)NCCCNC(=O)c2ccc(-c3c4nc(c(-c5ccc(S(=O)(=O)[O-])cc5)c5ccc([nH]5)c(-c5ccc(S(=O)(=O)[O-])cc5)c5nc(c(-c6ccc(S(=O)(=O)[O-])cc6)c6ccc3[nH]6)C=C5)C=C4)cc2)cc1
REMARK SMILES IDX 20 1 19 2 18 3 16 4 17 5 15 7 12 8 13 9 86 10 14 11 85 12
REMARK SMILES IDX 11 13 1 14 2 15 3 17 4 18 5 19 9 20 6 21 8 22 10 23 7 24
REMARK SMILES IDX 21 25 22 26 23 27 24 29 25 30 26 31 84 32 27 33 83 34 28 35
REMARK SMILES IDX 29 36 30 37 77 38 31 39 82 40 76 41 78 42 32 43 81 44 75 45
REMARK SMILES IDX 74 46 33 48 63 49 44 50 62 51 45 52 48 53 61 54 79 55 46 56
REMARK SMILES IDX 47 57 60 59 80 60 49 61 34 62 35 63 43 64 36 65 42 66 37 67
REMARK SMILES IDX 38 68 39 69 40 70 41 71 64 72 65 73 73 74 66 75 72 76 67 77
REMARK SMILES IDX 68 78 69 79 70 80 71 81 50 82 51 83 59 84 52 85 58 86 53 87
REMARK SMILES IDX 54 88 55 89 56 90 57 91
REMARK H PARENT 18 6 11 16 22 28 78 47 48 58
REMARK Flexibility Score: inf
ROOT
ATOM      1  C   UNL A   1      34.022  34.425  27.885  1.00  0.00     0.042 C 
ENDROOT
BRANCH   1   2
ATOM      2  C   UNL A   1      34.522  35.561  28.776  1.00  0.00     0.118 C 
BRANCH   2   3
ATOM      3  N   UNL A   1      33.492  35.993  29.707  1.00  0.00    -0.352 N 
ATOM      4  C   UNL A   1      33.303  35.759  31.045  1.00  0.00     0.251 C 
ATOM      5  O   UNL A   1      32.360  36.327  31.598  1.00  0.00    -0.269 OA
ATOM      6  H   UNL A   1      32.799  36.561  29.299  1.00  0.00     0.163 HD
BRANCH   4   7
ATOM      7  C   UNL A   1      34.216  34.913  31.863  1.00  0.00     0.039 A 
ATOM      8  C   UNL A   1      36.095  33.489  33.412  1.00  0.00     0.041 A 
ATOM      9  C   UNL A   1      35.802  34.820  33.713  1.00  0.00     0.027 A 
ATOM     10  C   UNL A   1      35.383  32.854  32.397  1.00  0.00     0.027 A 
ATOM     11  C   UNL A   1      34.883  35.532  32.932  1.00  0.00     0.016 A 
ATOM     12  C   UNL A   1      34.426  33.552  31.653  1.00  0.00     0.016 A 
BRANCH   8  13
ATOM     13  N   UNL A   1      37.061  32.822  34.187  1.00  0.00    -0.326 N 
ATOM     14  O   UNL A   1      38.991  33.361  33.017  1.00  0.00    -0.274 OA
ATOM     15  C   UNL A   1      38.406  32.695  33.868  1.00  0.00     0.228 C 
ATOM     16  H   UNL A   1      36.758  32.410  35.028  1.00  0.00     0.169 HD
BRANCH  15  17
ATOM     17  C   UNL A   1      39.119  31.567  34.594  1.00  0.00     0.137 C 
BRANCH  17  18
ATOM     18  C   UNL A   1      39.135  30.238  33.874  1.00  0.00    -0.020 A 
ATOM     19  C   UNL A   1      37.931  29.745  33.335  1.00  0.00     0.006 A 
ATOM     20  C   UNL A   1      40.298  29.468  33.723  1.00  0.00     0.044 A 
ATOM     21  C   UNL A   1      37.888  28.516  32.677  1.00  0.00     0.000 A 
ATOM     22  C   UNL A   1      40.256  28.246  33.043  1.00  0.00     0.021 A 
ATOM     23  Cl  UNL A   1      41.826  29.982  34.339  1.00  0.00    -0.084 Cl
ATOM     24  C   UNL A   1      39.052  27.769  32.526  1.00  0.00     0.002 A 
ENDBRANCH  17  18
ENDBRANCH  15  17
ENDBRANCH   8  13
ENDBRANCH   4   7
ENDBRANCH   2   3
ENDBRANCH   1   2
BRANCH   1  25
ATOM     25  C   UNL A   1      34.728  33.096  28.146  1.00  0.00     0.118 C 
BRANCH  25  26
ATOM     26  N   UNL A   1      33.893  31.958  27.785  1.00  0.00    -0.352 N 
ATOM     27  C   UNL A   1      34.232  30.642  27.586  1.00  0.00     0.251 C 
ATOM     28  H   UNL A   1      32.937  32.164  27.668  1.00  0.00     0.163 HD
ATOM     29  O   UNL A   1      33.424  29.886  27.056  1.00  0.00    -0.269 OA
BRANCH  27  30
ATOM     30  C   UNL A   1      35.561  30.137  27.994  1.00  0.00     0.039 A 
ATOM     31  C   UNL A   1      36.590  30.105  27.048  1.00  0.00     0.014 A 
ATOM     32  C   UNL A   1      35.786  29.662  29.289  1.00  0.00     0.014 A 
ATOM     33  C   UNL A   1      37.862  29.661  27.419  1.00  0.00     0.010 A 
ATOM     34  C   UNL A   1      37.068  29.277  29.674  1.00  0.00     0.010 A 
ATOM     35  C   UNL A   1      38.120  29.279  28.745  1.00  0.00    -0.014 A 
BRANCH  35  36
ATOM     36  C   UNL A   1      39.489  28.927  29.196  1.00  0.00     0.031 A 
ATOM     37  C   UNL A   1      40.357  29.947  29.878  1.00  0.00     0.074 A 
ATOM     38  C   UNL A   1      39.986  27.711  28.894  1.00  0.00     0.049 A 
ATOM     39  N   UNL A   1      41.607  29.848  30.248  1.00  0.00    -0.248 NA
ATOM     40  C   UNL A   1      39.747  31.255  30.156  1.00  0.00     0.031 C 
ATOM     41  C   UNL A   1      39.257  26.652  28.192  1.00  0.00     0.029 A 
ATOM     42  N   UNL A   1      41.229  27.171  29.114  1.00  0.00    -0.354 N 
ATOM     43  C   UNL A   1      41.943  31.088  30.780  1.00  0.00     0.074 A 
ATOM     44  C   UNL A   1      40.774  31.931  30.653  1.00  0.00     0.031 C 
ATOM     45  C   UNL A   1      40.065  25.592  28.039  1.00  0.00     0.029 A 
ATOM     46  C   UNL A   1      41.378  25.909  28.590  1.00  0.00     0.049 A 
ATOM     47  H   UNL A   1      41.944  27.642  29.599  1.00  0.00     0.167 HD
ATOM     48  C   UNL A   1      43.117  31.484  31.329  1.00  0.00     0.031 A 
ATOM     49  C   UNL A   1      42.456  25.102  28.533  1.00  0.00     0.031 A 
ATOM     50  C   UNL A   1      44.278  30.639  31.449  1.00  0.00     0.049 A 
ATOM     51  C   UNL A   1      43.751  25.564  29.133  1.00  0.00     0.074 A 
ATOM     52  C   UNL A   1      45.484  30.916  32.067  1.00  0.00     0.029 A 
ATOM     53  N   UNL A   1      44.385  29.361  30.919  1.00  0.00    -0.354 N 
ATOM     54  N   UNL A   1      44.022  26.705  29.722  1.00  0.00    -0.248 NA
ATOM     55  C   UNL A   1      44.885  24.633  29.064  1.00  0.00     0.031 C 
ATOM     56  C   UNL A   1      46.342  29.831  31.856  1.00  0.00     0.029 A 
ATOM     57  C   UNL A   1      45.653  28.854  31.154  1.00  0.00     0.049 A 
ATOM     58  H   UNL A   1      43.665  28.885  30.445  1.00  0.00     0.167 HD
ATOM     59  C   UNL A   1      45.358  26.629  30.095  1.00  0.00     0.074 A 
ATOM     60  C   UNL A   1      45.833  25.322  29.687  1.00  0.00     0.031 C 
ATOM     61  C   UNL A   1      46.121  27.563  30.717  1.00  0.00     0.031 A 
BRANCH  48  62
ATOM     62  C   UNL A   1      43.210  32.909  31.811  1.00  0.00    -0.014 A 
ATOM     63  C   UNL A   1      43.702  33.933  30.981  1.00  0.00     0.010 A 
ATOM     64  C   UNL A   1      42.790  33.231  33.115  1.00  0.00     0.010 A 
ATOM     65  C   UNL A   1      43.834  35.237  31.466  1.00  0.00     0.020 A 
ATOM     66  C   UNL A   1      42.893  34.541  33.595  1.00  0.00     0.020 A 
ATOM     67  C   UNL A   1      43.439  35.530  32.776  1.00  0.00     0.054 A 
BRANCH  67  68
ATOM     68  S   UNL A   1      43.641  37.226  33.387  1.00  0.00     0.124 S 
ATOM     69  O   UNL A   1      44.880  37.122  34.155  1.00  0.00    -0.237 OA
ATOM     70  O   UNL A   1      43.729  38.004  32.155  1.00  0.00    -0.237 OA
ATOM     71  O   UNL A   1      42.435  37.453  34.180  1.00  0.00    -0.744 OA
ENDBRANCH  67  68
ENDBRANCH  48  62
BRANCH  49  72
ATOM     72  C   UNL A   1      42.334  23.781  27.861  1.00  0.00    -0.014 A 
ATOM     73  C   UNL A   1      42.640  23.641  26.499  1.00  0.00     0.010 A 
ATOM     74  C   UNL A   1      41.992  22.638  28.610  1.00  0.00     0.010 A 
ATOM     75  C   UNL A   1      42.620  22.379  25.896  1.00  0.00     0.020 A 
ATOM     76  C   UNL A   1      41.994  21.372  28.016  1.00  0.00     0.020 A 
ATOM     77  C   UNL A   1      42.309  21.252  26.661  1.00  0.00     0.054 A 
BRANCH  77  78
ATOM     78  S   UNL A   1      42.400  19.614  25.885  1.00  0.00     0.124 S 
ATOM     79  O   UNL A   1      41.039  19.436  25.390  1.00  0.00    -0.237 OA
ATOM     80  O   UNL A   1      43.425  19.806  24.863  1.00  0.00    -0.237 OA
ATOM     81  O   UNL A   1      42.788  18.734  26.986  1.00  0.00    -0.744 OA
ENDBRANCH  77  78
ENDBRANCH  49  72
BRANCH  61  82
ATOM     82  C   UNL A   1      47.561  27.212  30.981  1.00  0.00    -0.014 A 
ATOM     83  C   UNL A   1      47.931  26.520  32.148  1.00  0.00     0.010 A 
ATOM     84  C   UNL A   1      48.545  27.514  30.022  1.00  0.00     0.010 A 
ATOM     85  C   UNL A   1      49.262  26.152  32.361  1.00  0.00     0.020 A 
ATOM     86  C   UNL A   1      49.874  27.126  30.219  1.00  0.00     0.020 A 
ATOM     87  C   UNL A   1      50.225  26.455  31.393  1.00  0.00     0.054 A 
BRANCH  87  88
ATOM     88  S   UNL A   1      51.935  25.913  31.665  1.00  0.00     0.124 S 
ATOM     89  O   UNL A   1      52.563  26.240  30.389  1.00  0.00    -0.237 OA
ATOM     90  O   UNL A   1      52.354  26.731  32.801  1.00  0.00    -0.237 OA
ATOM     91  O   UNL A   1      51.804  24.485  31.948  1.00  0.00    -0.744 OA
ENDBRANCH  87  88
ENDBRANCH  61  82
ENDBRANCH  35  36
ENDBRANCH  27  30
ENDBRANCH  25  26
ENDBRANCH   1  25
TORSDOF 16
ENDMDL
MODEL 2
REMARK VINA RESULT:      -9.6      0.856      8.237
REMARK SMILES O=C(Cc1ccccc1Cl)Nc1ccc(C(=O)NCCCNC(=O)c2ccc(-c3c4nc(c(-c5ccc(S(=O)(=O)[O-])cc5)c5ccc([nH]5)c(-c5ccc(S(=O)(=O)[O-])cc5)c5nc(c(-c6ccc(S(=O)(=O)[O-])cc6)c6ccc3[nH]6)C=C5)C=C4)cc2)cc1
REMARK SMILES IDX 20 1 19 2 18 3 16 4 17 5 15 7 12 8 13 9 86 10 14 11 85 12
REMARK SMILES IDX 11 13 1 14 2 15 3 17 4 18 5 19 9 20 6 21 8 22 10 23 7 24
REMARK SMILES IDX 21 25 22 26 23 27 24 29 25 30 26 31 84 32 27 33 83 34 28 35
REMARK SMILES IDX 29 36 30 37 77 38 31 39 82 40 76 41 78 42 32 43 81 44 75 45
REMARK SMILES IDX 74 46 33 48 63 49 44 50 62 51 45 52 48 53 61 54 79 55 46 56
REMARK SMILES IDX 47 57 60 59 80 60 49 61 34 62 35 63 43 64 36 65 42 66 37 67
REMARK SMILES IDX 38 68 39 69 40 70 41 71 64 72 65 73 73 74 66 75 72 76 67 77
REMARK SMILES IDX 68 78 69 79 70 80 71 81 50 82 51 83 59 84 52 85 58 86 53 87
REMARK SMILES IDX 54 88 55 89 56 90 57 91
REMARK H PARENT 18 6 11 16 22 28 78 47 48 58
REMARK Flexibility Score: inf
ROOT
ATOM      1  C   UNL A   1      33.751  34.050  28.093  1.00  0.00     0.042 C 
ENDROOT
BRANCH   1   2
ATOM      2  C   UNL A   1      34.293  35.314  28.760  1.00  0.00     0.118 C 
BRANCH   2   3
ATOM      3  N   UNL A   1      33.292  35.930  29.615  1.00  0.00    -0.352 N 
ATOM      4  C   UNL A   1      33.077  35.876  30.969  1.00  0.00     0.251 C 
ATOM      5  O   UNL A   1      32.175  36.573  31.435  1.00  0.00    -0.269 OA
ATOM      6  H   UNL A   1      32.644  36.491  29.131  1.00  0.00     0.163 HD
BRANCH   4   7
ATOM      7  C   UNL A   1      33.922  35.074  31.898  1.00  0.00     0.039 A 
ATOM      8  C   UNL A   1      35.692  33.706  33.616  1.00  0.00     0.041 A 
ATOM      9  C   UNL A   1      35.599  35.098  33.667  1.00  0.00     0.027 A 
ATOM     10  C   UNL A   1      34.837  33.003  32.771  1.00  0.00     0.027 A 
ATOM     11  C   UNL A   1      34.734  35.777  32.801  1.00  0.00     0.016 A 
ATOM     12  C   UNL A   1      33.934  33.681  31.945  1.00  0.00     0.016 A 
BRANCH   8  13
ATOM     13  N   UNL A   1      36.610  33.062  34.467  1.00  0.00    -0.326 N 
ATOM     14  O   UNL A   1      38.532  33.162  33.172  1.00  0.00    -0.274 OA
ATOM     15  C   UNL A   1      37.914  32.722  34.138  1.00  0.00     0.228 C 
ATOM     16  H   UNL A   1      36.300  32.834  35.373  1.00  0.00     0.169 HD
BRANCH  15  17
ATOM     17  C   UNL A   1      38.525  31.649  35.024  1.00  0.00     0.137 C 
BRANCH  17  18
ATOM     18  C   UNL A   1      39.215  30.519  34.295  1.00  0.00    -0.020 A 
ATOM     19  C   UNL A   1      40.560  30.238  34.601  1.00  0.00     0.006 A 
ATOM     20  C   UNL A   1      38.574  29.737  33.322  1.00  0.00     0.044 A 
ATOM     21  C   UNL A   1      41.248  29.217  33.945  1.00  0.00     0.000 A 
ATOM     22  C   UNL A   1      39.260  28.699  32.682  1.00  0.00     0.021 A 
ATOM     23  Cl  UNL A   1      36.926  29.992  32.878  1.00  0.00    -0.084 Cl
ATOM     24  C   UNL A   1      40.596  28.444  32.989  1.00  0.00     0.002 A 
ENDBRANCH  17  18
ENDBRANCH  15  17
ENDBRANCH   8  13
ENDBRANCH   4   7
ENDBRANCH   2   3
ENDBRANCH   1   2
BRANCH   1  25
ATOM     25  C   UNL A   1      34.433  32.772  28.576  1.00  0.00     0.118 C 
BRANCH  25  26
ATOM     26  N   UNL A   1      33.710  31.580  28.154  1.00  0.00    -0.352 N 
ATOM     27  C   UNL A   1      34.181  30.336  27.811  1.00  0.00     0.251 C 
ATOM     28  H   UNL A   1      32.731  31.680  28.110  1.00  0.00     0.163 HD
ATOM     29  O   UNL A   1      33.431  29.539  27.257  1.00  0.00    -0.269 OA
BRANCH  27  30
ATOM     30  C   UNL A   1      35.583  29.958  28.095  1.00  0.00     0.039 A 
ATOM     31  C   UNL A   1      36.530  30.059  27.071  1.00  0.00     0.014 A 
ATOM     32  C   UNL A   1      35.959  29.471  29.350  1.00  0.00     0.014 A 
ATOM     33  C   UNL A   1      37.866  29.736  27.325  1.00  0.00     0.010 A 
ATOM     34  C   UNL A   1      37.300  29.208  29.619  1.00  0.00     0.010 A 
ATOM     35  C   UNL A   1      38.267  29.344  28.612  1.00  0.00    -0.014 A 
BRANCH  35  36
ATOM     36  C   UNL A   1      39.697  29.121  28.941  1.00  0.00     0.031 A 
ATOM     37  C   UNL A   1      40.362  27.812  28.621  1.00  0.00     0.074 A 
ATOM     38  C   UNL A   1      40.366  30.069  29.626  1.00  0.00     0.049 A 
ATOM     39  N   UNL A   1      41.567  27.405  28.925  1.00  0.00    -0.248 NA
ATOM     40  C   UNL A   1      39.557  26.823  27.888  1.00  0.00     0.031 C 
ATOM     41  C   UNL A   1      39.815  31.362  30.037  1.00  0.00     0.029 A 
ATOM     42  N   UNL A   1      41.647  30.080  30.122  1.00  0.00    -0.354 N 
ATOM     43  C   UNL A   1      41.660  26.105  28.442  1.00  0.00     0.074 A 
ATOM     44  C   UNL A   1      40.376  25.781  27.857  1.00  0.00     0.031 C 
ATOM     45  C   UNL A   1      40.749  32.040  30.721  1.00  0.00     0.029 A 
ATOM     46  C   UNL A   1      41.948  31.216  30.836  1.00  0.00     0.049 A 
ATOM     47  H   UNL A   1      42.287  29.346  29.981  1.00  0.00     0.167 HD
ATOM     48  C   UNL A   1      42.720  25.261  28.479  1.00  0.00     0.031 A 
ATOM     49  C   UNL A   1      43.053  31.551  31.530  1.00  0.00     0.031 A 
ATOM     50  C   UNL A   1      43.992  25.590  29.067  1.00  0.00     0.049 A 
ATOM     51  C   UNL A   1      44.210  30.597  31.573  1.00  0.00     0.074 A 
ATOM     52  C   UNL A   1      45.155  24.840  29.079  1.00  0.00     0.029 A 
ATOM     53  N   UNL A   1      44.263  26.756  29.769  1.00  0.00    -0.354 N 
ATOM     54  N   UNL A   1      44.316  29.410  31.025  1.00  0.00    -0.248 NA
ATOM     55  C   UNL A   1      45.398  31.026  32.324  1.00  0.00     0.031 C 
ATOM     56  C   UNL A   1      46.108  25.524  29.842  1.00  0.00     0.029 A 
ATOM     57  C   UNL A   1      45.558  26.727  30.259  1.00  0.00     0.049 A 
ATOM     58  H   UNL A   1      43.627  27.496  29.900  1.00  0.00     0.167 HD
ATOM     59  C   UNL A   1      45.582  28.949  31.364  1.00  0.00     0.074 A 
ATOM     60  C   UNL A   1      46.213  29.995  32.143  1.00  0.00     0.031 C 
ATOM     61  C   UNL A   1      46.165  27.762  31.058  1.00  0.00     0.031 A 
BRANCH  48  62
ATOM     62  C   UNL A   1      42.529  23.885  27.894  1.00  0.00    -0.014 A 
ATOM     63  C   UNL A   1      42.081  22.809  28.682  1.00  0.00     0.010 A 
ATOM     64  C   UNL A   1      42.798  23.666  26.530  1.00  0.00     0.010 A 
ATOM     65  C   UNL A   1      41.967  21.528  28.134  1.00  0.00     0.020 A 
ATOM     66  C   UNL A   1      42.657  22.392  25.971  1.00  0.00     0.020 A 
ATOM     67  C   UNL A   1      42.268  21.326  26.783  1.00  0.00     0.054 A 
BRANCH  67  68
ATOM     68  S   UNL A   1      42.132  19.650  26.101  1.00  0.00     0.124 S 
ATOM     69  O   UNL A   1      42.512  18.830  27.249  1.00  0.00    -0.237 OA
ATOM     70  O   UNL A   1      40.726  19.573  25.713  1.00  0.00    -0.237 OA
ATOM     71  O   UNL A   1      43.083  19.649  24.993  1.00  0.00    -0.744 OA
ENDBRANCH  67  68
ENDBRANCH  48  62
BRANCH  49  72
ATOM     72  C   UNL A   1      43.087  32.852  32.250  1.00  0.00    -0.014 A 
ATOM     73  C   UNL A   1      42.631  32.949  33.574  1.00  0.00     0.010 A 
ATOM     74  C   UNL A   1      43.659  33.983  31.635  1.00  0.00     0.010 A 
ATOM     75  C   UNL A   1      42.757  34.151  34.278  1.00  0.00     0.020 A 
ATOM     76  C   UNL A   1      43.807  35.179  32.343  1.00  0.00     0.020 A 
ATOM     77  C   UNL A   1      43.355  35.254  33.662  1.00  0.00     0.054 A 
BRANCH  77  78
ATOM     78  S   UNL A   1      43.610  36.767  34.632  1.00  0.00     0.124 S 
ATOM     79  O   UNL A   1      42.333  37.452  34.468  1.00  0.00    -0.237 OA
ATOM     80  O   UNL A   1      43.881  36.243  35.969  1.00  0.00    -0.237 OA
ATOM     81  O   UNL A   1      44.752  37.403  33.979  1.00  0.00    -0.744 OA
ENDBRANCH  77  78
ENDBRANCH  49  72
BRANCH  61  82
ATOM     82  C   UNL A   1      47.555  27.521  31.582  1.00  0.00    -0.014 A 
ATOM     83  C   UNL A   1      47.757  26.881  32.818  1.00  0.00     0.010 A 
ATOM     84  C   UNL A   1      48.671  27.875  30.803  1.00  0.00     0.010 A 
ATOM     85  C   UNL A   1      49.050  26.614  33.274  1.00  0.00     0.020 A 
ATOM     86  C   UNL A   1      49.967  27.588  31.243  1.00  0.00     0.020 A 
ATOM     87  C   UNL A   1      50.148  26.967  32.481  1.00  0.00     0.054 A 
BRANCH  87  88
ATOM     88  S   UNL A   1      51.815  26.555  33.067  1.00  0.00     0.124 S 
ATOM     89  O   UNL A   1      52.652  27.389  32.211  1.00  0.00    -0.237 OA
ATOM     90  O   UNL A   1      51.766  26.947  34.474  1.00  0.00    -0.237 OA
ATOM     91  O   UNL A   1      51.919  25.116  32.831  1.00  0.00    -0.744 OA
ENDBRANCH  87  88
ENDBRANCH  61  82
ENDBRANCH  35  36
ENDBRANCH  27  30
ENDBRANCH  25  26
ENDBRANCH   1  25
TORSDOF 16
ENDMDL
MODEL 3
REMARK VINA RESULT:      -9.5      3.179     11.364
REMARK SMILES O=C(Cc1ccccc1Cl)Nc1ccc(C(=O)NCCCNC(=O)c2ccc(-c3c4nc(c(-c5ccc(S(=O)(=O)[O-])cc5)c5ccc([nH]5)c(-c5ccc(S(=O)(=O)[O-])cc5)c5nc(c(-c6ccc(S(=O)(=O)[O-])cc6)c6ccc3[nH]6)C=C5)C=C4)cc2)cc1
REMARK SMILES IDX 20 1 19 2 18 3 16 4 17 5 15 7 12 8 13 9 86 10 14 11 85 12
REMARK SMILES IDX 11 13 1 14 2 15 3 17 4 18 5 19 9 20 6 21 8 22 10 23 7 24
REMARK SMILES IDX 21 25 22 26 23 27 24 29 25 30 26 31 84 32 27 33 83 34 28 35
REMARK SMILES IDX 29 36 30 37 77 38 31 39 82 40 76 41 78 42 32 43 81 44 75 45
REMARK SMILES IDX 74 46 33 48 63 49 44 50 62 51 45 52 48 53 61 54 79 55 46 56
REMARK SMILES IDX 47 57 60 59 80 60 49 61 34 62 35 63 43 64 36 65 42 66 37 67
REMARK SMILES IDX 38 68 39 69 40 70 41 71 64 72 65 73 73 74 66 75 72 76 67 77
REMARK SMILES IDX 68 78 69 79 70 80 71 81 50 82 51 83 59 84 52 85 58 86 53 87
REMARK SMILES IDX 54 88 55 89 56 90 57 91
REMARK H PARENT 18 6 11 16 22 28 78 47 48 58
REMARK Flexibility Score: inf
ROOT
ATOM      1  C   UNL A   1      41.913  20.460  26.477  1.00  0.00     0.042 C 
ENDROOT
BRANCH   1   2
ATOM      2  C   UNL A   1      43.402  20.747  26.279  1.00  0.00     0.118 C 
BRANCH   2   3
ATOM      3  N   UNL A   1      43.740  20.830  24.868  1.00  0.00    -0.352 N 
ATOM      4  C   UNL A   1      44.230  21.853  24.097  1.00  0.00     0.251 C 
ATOM      5  O   UNL A   1      44.493  21.606  22.919  1.00  0.00    -0.269 OA
ATOM      6  H   UNL A   1      43.586  19.993  24.371  1.00  0.00     0.163 HD
BRANCH   4   7
ATOM      7  C   UNL A   1      44.519  23.212  24.631  1.00  0.00     0.039 A 
ATOM      8  C   UNL A   1      45.256  25.698  25.743  1.00  0.00     0.041 A 
ATOM      9  C   UNL A   1      46.213  24.898  25.115  1.00  0.00     0.027 A 
ATOM     10  C   UNL A   1      43.924  25.292  25.732  1.00  0.00     0.027 A 
ATOM     11  C   UNL A   1      45.849  23.656  24.580  1.00  0.00     0.016 A 
ATOM     12  C   UNL A   1      43.554  24.075  25.149  1.00  0.00     0.016 A 
BRANCH   8  13
ATOM     13  N   UNL A   1      45.669  26.916  26.313  1.00  0.00    -0.326 N 
ATOM     14  O   UNL A   1      45.855  28.233  24.412  1.00  0.00    -0.274 OA
ATOM     15  C   UNL A   1      46.062  28.045  25.608  1.00  0.00     0.228 C 
ATOM     16  H   UNL A   1      45.681  26.973  27.296  1.00  0.00     0.169 HD
BRANCH  15  17
ATOM     17  C   UNL A   1      46.887  29.033  26.415  1.00  0.00     0.137 C 
BRANCH  17  18
ATOM     18  C   UNL A   1      46.136  30.239  26.933  1.00  0.00    -0.020 A 
ATOM     19  C   UNL A   1      44.730  30.240  26.866  1.00  0.00     0.006 A 
ATOM     20  C   UNL A   1      46.780  31.362  27.474  1.00  0.00     0.044 A 
ATOM     21  C   UNL A   1      43.991  31.335  27.314  1.00  0.00     0.000 A 
ATOM     22  C   UNL A   1      46.035  32.449  27.943  1.00  0.00     0.021 A 
ATOM     23  Cl  UNL A   1      48.498  31.459  27.609  1.00  0.00    -0.084 Cl
ATOM     24  C   UNL A   1      44.643  32.438  27.857  1.00  0.00     0.002 A 
ENDBRANCH  17  18
ENDBRANCH  15  17
ENDBRANCH   8  13
ENDBRANCH   4   7
ENDBRANCH   2   3
ENDBRANCH   1   2
BRANCH   1  25
ATOM     25  C   UNL A   1      41.124  21.674  26.964  1.00  0.00     0.118 C 
BRANCH  25  26
ATOM     26  N   UNL A   1      39.824  21.771  26.312  1.00  0.00    -0.352 N 
ATOM     27  C   UNL A   1      38.907  22.793  26.320  1.00  0.00     0.251 C 
ATOM     28  H   UNL A   1      39.563  20.982  25.784  1.00  0.00     0.163 HD
ATOM     29  O   UNL A   1      37.771  22.587  25.905  1.00  0.00    -0.269 OA
BRANCH  27  30
ATOM     30  C   UNL A   1      39.277  24.132  26.832  1.00  0.00     0.039 A 
ATOM     31  C   UNL A   1      38.903  24.483  28.132  1.00  0.00     0.014 A 
ATOM     32  C   UNL A   1      39.953  25.051  26.025  1.00  0.00     0.014 A 
ATOM     33  C   UNL A   1      39.268  25.730  28.647  1.00  0.00     0.010 A 
ATOM     34  C   UNL A   1      40.369  26.269  26.558  1.00  0.00     0.010 A 
ATOM     35  C   UNL A   1      40.036  26.617  27.876  1.00  0.00    -0.014 A 
BRANCH  35  36
ATOM     36  C   UNL A   1      40.546  27.891  28.442  1.00  0.00     0.031 A 
ATOM     37  C   UNL A   1      41.946  27.984  28.981  1.00  0.00     0.074 A 
ATOM     38  C   UNL A   1      39.705  28.937  28.564  1.00  0.00     0.049 A 
ATOM     39  N   UNL A   1      42.525  28.980  29.600  1.00  0.00    -0.248 NA
ATOM     40  C   UNL A   1      42.795  26.793  28.826  1.00  0.00     0.031 C 
ATOM     41  C   UNL A   1      38.309  28.952  28.122  1.00  0.00     0.029 A 
ATOM     42  N   UNL A   1      39.892  30.178  29.119  1.00  0.00    -0.354 N 
ATOM     43  C   UNL A   1      43.798  28.530  29.932  1.00  0.00     0.074 A 
ATOM     44  C   UNL A   1      43.892  27.160  29.474  1.00  0.00     0.031 C 
ATOM     45  C   UNL A   1      37.766  30.142  28.424  1.00  0.00     0.029 A 
ATOM     46  C   UNL A   1      38.759  30.957  29.118  1.00  0.00     0.049 A 
ATOM     47  H   UNL A   1      40.755  30.481  29.485  1.00  0.00     0.167 HD
ATOM     48  C   UNL A   1      44.797  29.200  30.555  1.00  0.00     0.031 A 
ATOM     49  C   UNL A   1      38.531  32.178  29.637  1.00  0.00     0.031 A 
ATOM     50  C   UNL A   1      44.694  30.562  31.011  1.00  0.00     0.049 A 
ATOM     51  C   UNL A   1      39.645  32.899  30.338  1.00  0.00     0.074 A 
ATOM     52  C   UNL A   1      45.675  31.359  31.573  1.00  0.00     0.029 A 
ATOM     53  N   UNL A   1      43.533  31.323  30.978  1.00  0.00    -0.354 N 
ATOM     54  N   UNL A   1      40.875  32.495  30.554  1.00  0.00    -0.248 NA
ATOM     55  C   UNL A   1      39.346  34.237  30.862  1.00  0.00     0.031 C 
ATOM     56  C   UNL A   1      45.092  32.578  31.939  1.00  0.00     0.029 A 
ATOM     57  C   UNL A   1      43.761  32.562  31.552  1.00  0.00     0.049 A 
ATOM     58  H   UNL A   1      42.674  31.024  30.600  1.00  0.00     0.167 HD
ATOM     59  C   UNL A   1      41.498  33.531  31.239  1.00  0.00     0.074 A 
ATOM     60  C   UNL A   1      40.516  34.588  31.380  1.00  0.00     0.031 C 
ATOM     61  C   UNL A   1      42.768  33.595  31.712  1.00  0.00     0.031 A 
BRANCH  48  62
ATOM     62  C   UNL A   1      46.079  28.450  30.810  1.00  0.00    -0.014 A 
ATOM     63  C   UNL A   1      47.200  28.606  29.974  1.00  0.00     0.010 A 
ATOM     64  C   UNL A   1      46.167  27.575  31.910  1.00  0.00     0.010 A 
ATOM     65  C   UNL A   1      48.359  27.857  30.193  1.00  0.00     0.020 A 
ATOM     66  C   UNL A   1      47.335  26.845  32.150  1.00  0.00     0.020 A 
ATOM     67  C   UNL A   1      48.414  26.971  31.274  1.00  0.00     0.054 A 
BRANCH  67  68
ATOM     68  S   UNL A   1      49.922  25.995  31.525  1.00  0.00     0.124 S 
ATOM     69  O   UNL A   1      50.951  27.032  31.542  1.00  0.00    -0.237 OA
ATOM     70  O   UNL A   1      49.673  25.338  32.805  1.00  0.00    -0.237 OA
ATOM     71  O   UNL A   1      49.955  25.105  30.367  1.00  0.00    -0.744 OA
ENDBRANCH  67  68
ENDBRANCH  48  62
BRANCH  49  72
ATOM     72  C   UNL A   1      37.173  32.773  29.516  1.00  0.00    -0.014 A 
ATOM     73  C   UNL A   1      36.318  32.834  30.627  1.00  0.00     0.010 A 
ATOM     74  C   UNL A   1      36.765  33.358  28.301  1.00  0.00     0.010 A 
ATOM     75  C   UNL A   1      35.082  33.482  30.533  1.00  0.00     0.020 A 
ATOM     76  C   UNL A   1      35.541  34.027  28.210  1.00  0.00     0.020 A 
ATOM     77  C   UNL A   1      34.707  34.084  29.328  1.00  0.00     0.054 A 
BRANCH  77  78
ATOM     78  S   UNL A   1      33.151  35.016  29.262  1.00  0.00     0.124 S 
ATOM     79  O   UNL A   1      32.667  34.896  30.633  1.00  0.00    -0.237 OA
ATOM     80  O   UNL A   1      33.598  36.349  28.862  1.00  0.00    -0.237 OA
ATOM     81  O   UNL A   1      32.368  34.304  28.254  1.00  0.00    -0.744 OA
ENDBRANCH  77  78
ENDBRANCH  49  72
BRANCH  61  82
ATOM     82  C   UNL A   1      43.168  34.848  32.444  1.00  0.00    -0.014 A 
ATOM     83  C   UNL A   1      43.874  35.871  31.786  1.00  0.00     0.010 A 
ATOM     84  C   UNL A   1      42.777  35.036  33.782  1.00  0.00     0.010 A 
ATOM     85  C   UNL A   1      44.196  37.053  32.458  1.00  0.00     0.020 A 
ATOM     86  C   UNL A   1      43.075  36.226  34.451  1.00  0.00     0.020 A 
ATOM     87  C   UNL A   1      43.792  37.224  33.787  1.00  0.00     0.054 A 
BRANCH  87  88
ATOM     88  S   UNL A   1      44.170  38.792  34.617  1.00  0.00     0.124 S 
ATOM     89  O   UNL A   1      43.036  39.624  34.225  1.00  0.00    -0.237 OA
ATOM     90  O   UNL A   1      44.210  38.406  36.026  1.00  0.00    -0.237 OA
ATOM     91  O   UNL A   1      45.458  39.184  34.049  1.00  0.00    -0.744 OA
ENDBRANCH  87  88
ENDBRANCH  61  82
ENDBRANCH  35  36
ENDBRANCH  27  30
ENDBRANCH  25  26
ENDBRANCH   1  25
TORSDOF 16
ENDMDL
