MODEL 1
REMARK VINA RESULT:     -12.3      0.000      0.000
REMARK SMILES Cc1ccc(C)c(/C=C2\SC(=S)N(CC(=O)NCCCNC(=O)c3ccc(-c4c5nc(c(-c6ccc(S(=O)(=O)[O-])cc6)c6ccc([nH]6)c(-c6ccc(S(=O)(=O)[O-])cc6)c6nc(c(-c7ccc(S(=O)(=O)[O-])cc7)c7ccc4[nH]7)C=C6)C=C5)cc3)C2=O)c1
REMARK SMILES IDX 19 1 18 2 17 3 15 4 16 5 14 7 13 8 8 9 9 10 10 11 84 12
REMARK SMILES IDX 11 13 85 14 12 15 7 16 1 17 2 18 3 19 86 20 4 21 5 22 6 23
REMARK SMILES IDX 20 24 21 25 22 26 23 28 24 29 25 30 83 31 26 32 82 33 27 34
REMARK SMILES IDX 28 35 29 36 76 37 30 38 81 39 75 40 77 41 31 42 80 43 74 44
REMARK SMILES IDX 73 45 32 47 62 48 43 49 61 50 44 51 47 52 60 53 78 54 45 55
REMARK SMILES IDX 46 56 59 58 79 59 48 60 33 61 34 62 42 63 35 64 41 65 36 66
REMARK SMILES IDX 37 67 38 68 39 69 40 70 63 71 64 72 72 73 65 74 71 75 66 76
REMARK SMILES IDX 67 77 68 78 69 79 70 80 49 81 50 82 58 83 51 84 57 85 52 86
REMARK SMILES IDX 53 87 54 88 55 89 56 90
REMARK H PARENT 17 6 21 27 77 46 47 57
REMARK Flexibility Score: inf
ROOT
ATOM      1  C   UNL A   1      35.676  23.706  25.021  1.00  0.00     0.042 C 
ENDROOT
BRANCH   1   2
ATOM      2  C   UNL A   1      34.473  22.759  25.017  1.00  0.00     0.117 C 
BRANCH   2   3
ATOM      3  N   UNL A   1      33.915  22.494  23.705  1.00  0.00    -0.354 N 
ATOM      4  C   UNL A   1      32.947  23.173  23.019  1.00  0.00     0.240 C 
ATOM      5  O   UNL A   1      32.983  23.105  21.788  1.00  0.00    -0.273 OA
ATOM      6  H   UNL A   1      34.289  21.710  23.240  1.00  0.00     0.163 HD
BRANCH   4   7
ATOM      7  C   UNL A   1      31.959  24.115  23.718  1.00  0.00     0.227 C 
BRANCH   7   8
ATOM      8  N   UNL A   1      32.544  25.412  24.057  1.00  0.00    -0.283 N 
ATOM      9  C   UNL A   1      33.355  27.646  26.785  1.00  0.00     0.029 C 
ATOM     10  C   UNL A   1      33.192  27.099  25.572  1.00  0.00     0.081 C 
ATOM     11  S   UNL A   1      33.680  27.717  24.045  1.00  0.00    -0.054 SA
ATOM     12  C   UNL A   1      32.541  25.770  25.402  1.00  0.00     0.266 C 
ATOM     13  C   UNL A   1      32.976  26.366  23.167  1.00  0.00     0.148 C 
ATOM     14  O   UNL A   1      32.085  25.126  26.313  1.00  0.00    -0.268 OA
ATOM     15  S   UNL A   1      32.887  26.362  21.501  1.00  0.00    -0.052 S 
BRANCH   9  16
ATOM     16  C   UNL A   1      34.039  28.917  27.073  1.00  0.00    -0.021 A 
ATOM     17  C   UNL A   1      37.605  30.034  27.862  1.00  0.00     0.044 C 
ATOM     18  C   UNL A   1      36.129  30.075  27.603  1.00  0.00    -0.051 A 
ATOM     19  C   UNL A   1      35.423  31.272  27.723  1.00  0.00     0.004 A 
ATOM     20  C   UNL A   1      35.434  28.912  27.253  1.00  0.00     0.011 A 
ATOM     21  C   UNL A   1      34.045  31.302  27.497  1.00  0.00     0.004 A 
ATOM     22  C   UNL A   1      33.336  30.132  27.172  1.00  0.00    -0.044 A 
ATOM     23  C   UNL A   1      31.850  30.260  26.958  1.00  0.00     0.045 C 
ENDBRANCH   9  16
ENDBRANCH   7   8
ENDBRANCH   4   7
ENDBRANCH   2   3
ENDBRANCH   1   2
BRANCH   1  24
ATOM     24  C   UNL A   1      36.571  23.615  26.253  1.00  0.00     0.118 C 
BRANCH  24  25
ATOM     25  N   UNL A   1      37.563  22.531  26.170  1.00  0.00    -0.352 N 
ATOM     26  C   UNL A   1      38.940  22.486  26.327  1.00  0.00     0.251 C 
ATOM     27  H   UNL A   1      37.166  21.655  25.958  1.00  0.00     0.163 HD
ATOM     28  O   UNL A   1      39.553  21.506  25.913  1.00  0.00    -0.269 OA
BRANCH  26  29
ATOM     29  C   UNL A   1      39.680  23.583  26.983  1.00  0.00     0.039 A 
ATOM     30  C   UNL A   1      40.863  23.418  27.714  1.00  0.00     0.014 A 
ATOM     31  C   UNL A   1      39.121  24.834  26.950  1.00  0.00     0.014 A 
ATOM     32  C   UNL A   1      41.363  24.509  28.444  1.00  0.00     0.010 A 
ATOM     33  C   UNL A   1      39.892  25.910  27.220  1.00  0.00     0.010 A 
ATOM     34  C   UNL A   1      40.810  25.766  28.225  1.00  0.00    -0.014 A 
BRANCH  34  35
ATOM     35  C   UNL A   1      41.113  26.991  28.939  1.00  0.00     0.031 A 
ATOM     36  C   UNL A   1      42.194  27.798  28.343  1.00  0.00     0.074 A 
ATOM     37  C   UNL A   1      40.230  27.562  29.792  1.00  0.00     0.049 A 
ATOM     38  N   UNL A   1      43.420  27.881  28.735  1.00  0.00    -0.248 NA
ATOM     39  C   UNL A   1      41.929  28.434  27.041  1.00  0.00     0.031 C 
ATOM     40  C   UNL A   1      38.867  27.130  30.133  1.00  0.00     0.029 A 
ATOM     41  N   UNL A   1      40.333  28.754  30.441  1.00  0.00    -0.354 N 
ATOM     42  C   UNL A   1      44.016  28.769  27.850  1.00  0.00     0.074 A 
ATOM     43  C   UNL A   1      43.159  28.813  26.695  1.00  0.00     0.031 C 
ATOM     44  C   UNL A   1      38.213  28.141  30.755  1.00  0.00     0.029 A 
ATOM     45  C   UNL A   1      39.146  29.233  30.981  1.00  0.00     0.049 A 
ATOM     46  H   UNL A   1      41.185  29.241  30.521  1.00  0.00     0.167 HD
ATOM     47  C   UNL A   1      44.982  29.645  28.244  1.00  0.00     0.031 A 
ATOM     48  C   UNL A   1      38.947  30.461  31.525  1.00  0.00     0.031 A 
ATOM     49  C   UNL A   1      45.403  29.386  29.602  1.00  0.00     0.049 A 
ATOM     50  C   UNL A   1      40.291  31.021  31.833  1.00  0.00     0.074 A 
ATOM     51  C   UNL A   1      45.925  28.297  30.268  1.00  0.00     0.029 A 
ATOM     52  N   UNL A   1      44.894  30.223  30.573  1.00  0.00    -0.354 N 
ATOM     53  N   UNL A   1      41.097  30.520  32.728  1.00  0.00    -0.248 NA
ATOM     54  C   UNL A   1      40.927  31.880  30.844  1.00  0.00     0.031 C 
ATOM     55  C   UNL A   1      45.304  28.316  31.552  1.00  0.00     0.029 A 
ATOM     56  C   UNL A   1      44.487  29.446  31.627  1.00  0.00     0.049 A 
ATOM     57  H   UNL A   1      44.834  31.204  30.519  1.00  0.00     0.167 HD
ATOM     58  C   UNL A   1      42.366  30.643  32.181  1.00  0.00     0.074 A 
ATOM     59  C   UNL A   1      42.211  31.592  31.082  1.00  0.00     0.031 C 
ATOM     60  C   UNL A   1      43.355  29.750  32.485  1.00  0.00     0.031 A 
BRANCH  47  61
ATOM     61  C   UNL A   1      45.250  30.973  27.574  1.00  0.00    -0.014 A 
ATOM     62  C   UNL A   1      46.565  31.265  27.165  1.00  0.00     0.010 A 
ATOM     63  C   UNL A   1      44.324  32.036  27.540  1.00  0.00     0.010 A 
ATOM     64  C   UNL A   1      46.947  32.567  26.817  1.00  0.00     0.020 A 
ATOM     65  C   UNL A   1      44.680  33.325  27.145  1.00  0.00     0.020 A 
ATOM     66  C   UNL A   1      46.001  33.591  26.826  1.00  0.00     0.054 A 
BRANCH  66  67
ATOM     67  S   UNL A   1      46.523  35.290  26.501  1.00  0.00     0.124 S 
ATOM     68  O   UNL A   1      46.119  35.964  27.732  1.00  0.00    -0.237 OA
ATOM     69  O   UNL A   1      47.961  35.141  26.299  1.00  0.00    -0.237 OA
ATOM     70  O   UNL A   1      45.766  35.658  25.307  1.00  0.00    -0.744 OA
ENDBRANCH  66  67
ENDBRANCH  47  61
BRANCH  48  71
ATOM     71  C   UNL A   1      37.711  31.284  31.567  1.00  0.00    -0.014 A 
ATOM     72  C   UNL A   1      36.825  31.202  32.658  1.00  0.00     0.010 A 
ATOM     73  C   UNL A   1      37.534  32.351  30.663  1.00  0.00     0.010 A 
ATOM     74  C   UNL A   1      35.847  32.188  32.876  1.00  0.00     0.020 A 
ATOM     75  C   UNL A   1      36.556  33.335  30.869  1.00  0.00     0.020 A 
ATOM     76  C   UNL A   1      35.734  33.262  31.991  1.00  0.00     0.054 A 
BRANCH  76  77
ATOM     77  S   UNL A   1      34.604  34.631  32.388  1.00  0.00     0.124 S 
ATOM     78  O   UNL A   1      34.316  35.190  31.070  1.00  0.00    -0.237 OA
ATOM     79  O   UNL A   1      33.490  33.946  33.039  1.00  0.00    -0.237 OA
ATOM     80  O   UNL A   1      35.394  35.490  33.267  1.00  0.00    -0.744 OA
ENDBRANCH  76  77
ENDBRANCH  48  71
BRANCH  60  81
ATOM     81  C   UNL A   1      43.145  28.818  33.659  1.00  0.00    -0.014 A 
ATOM     82  C   UNL A   1      43.470  29.155  34.988  1.00  0.00     0.010 A 
ATOM     83  C   UNL A   1      42.432  27.628  33.427  1.00  0.00     0.010 A 
ATOM     84  C   UNL A   1      43.098  28.320  36.052  1.00  0.00     0.020 A 
ATOM     85  C   UNL A   1      42.043  26.801  34.485  1.00  0.00     0.020 A 
ATOM     86  C   UNL A   1      42.380  27.149  35.793  1.00  0.00     0.054 A 
BRANCH  86  87
ATOM     87  S   UNL A   1      41.825  26.118  37.179  1.00  0.00     0.124 S 
ATOM     88  O   UNL A   1      41.749  24.790  36.578  1.00  0.00    -0.237 OA
ATOM     89  O   UNL A   1      42.886  26.301  38.168  1.00  0.00    -0.237 OA
ATOM     90  O   UNL A   1      40.537  26.701  37.553  1.00  0.00    -0.744 OA
ENDBRANCH  86  87
ENDBRANCH  60  81
ENDBRANCH  34  35
ENDBRANCH  26  29
ENDBRANCH  24  25
ENDBRANCH   1  24
TORSDOF 15
ENDMDL
MODEL 2
REMARK VINA RESULT:     -12.2      1.463      2.396
REMARK SMILES Cc1ccc(C)c(/C=C2\SC(=S)N(CC(=O)NCCCNC(=O)c3ccc(-c4c5nc(c(-c6ccc(S(=O)(=O)[O-])cc6)c6ccc([nH]6)c(-c6ccc(S(=O)(=O)[O-])cc6)c6nc(c(-c7ccc(S(=O)(=O)[O-])cc7)c7ccc4[nH]7)C=C6)C=C5)cc3)C2=O)c1
REMARK SMILES IDX 19 1 18 2 17 3 15 4 16 5 14 7 13 8 8 9 9 10 10 11 84 12
REMARK SMILES IDX 11 13 85 14 12 15 7 16 1 17 2 18 3 19 86 20 4 21 5 22 6 23
REMARK SMILES IDX 20 24 21 25 22 26 23 28 24 29 25 30 83 31 26 32 82 33 27 34
REMARK SMILES IDX 28 35 29 36 76 37 30 38 81 39 75 40 77 41 31 42 80 43 74 44
REMARK SMILES IDX 73 45 32 47 62 48 43 49 61 50 44 51 47 52 60 53 78 54 45 55
REMARK SMILES IDX 46 56 59 58 79 59 48 60 33 61 34 62 42 63 35 64 41 65 36 66
REMARK SMILES IDX 37 67 38 68 39 69 40 70 63 71 64 72 72 73 65 74 71 75 66 76
REMARK SMILES IDX 67 77 68 78 69 79 70 80 49 81 50 82 58 83 51 84 57 85 52 86
REMARK SMILES IDX 53 87 54 88 55 89 56 90
REMARK H PARENT 17 6 21 27 77 46 47 57
REMARK Flexibility Score: inf
ROOT
ATOM      1  C   UNL A   1      37.511  20.536  24.812  1.00  0.00     0.042 C 
ENDROOT
BRANCH   1   2
ATOM      2  C   UNL A   1      36.015  20.406  25.111  1.00  0.00     0.117 C 
BRANCH   2   3
ATOM      3  N   UNL A   1      35.572  21.107  26.301  1.00  0.00    -0.354 N 
ATOM      4  C   UNL A   1      34.320  21.541  26.639  1.00  0.00     0.240 C 
ATOM      5  O   UNL A   1      34.070  21.641  27.842  1.00  0.00    -0.273 OA
ATOM      6  H   UNL A   1      36.276  21.297  26.963  1.00  0.00     0.163 HD
BRANCH   4   7
ATOM      7  C   UNL A   1      33.215  21.736  25.594  1.00  0.00     0.227 C 
BRANCH   7   8
ATOM      8  N   UNL A   1      33.052  23.131  25.185  1.00  0.00    -0.283 N 
ATOM      9  C   UNL A   1      31.025  26.098  25.609  1.00  0.00     0.029 C 
ATOM     10  C   UNL A   1      31.956  25.219  25.211  1.00  0.00     0.081 C 
ATOM     11  S   UNL A   1      33.285  25.472  24.152  1.00  0.00    -0.054 SA
ATOM     12  C   UNL A   1      31.957  23.814  25.708  1.00  0.00     0.266 C 
ATOM     13  C   UNL A   1      33.794  23.791  24.236  1.00  0.00     0.148 C 
ATOM     14  O   UNL A   1      31.120  23.364  26.448  1.00  0.00    -0.268 OA
ATOM     15  S   UNL A   1      35.000  23.197  23.248  1.00  0.00    -0.052 S 
BRANCH   9  16
ATOM     16  C   UNL A   1      30.967  27.520  25.234  1.00  0.00    -0.021 A 
ATOM     17  C   UNL A   1      29.443  29.590  22.411  1.00  0.00     0.044 C 
ATOM     18  C   UNL A   1      30.187  29.222  23.658  1.00  0.00    -0.051 A 
ATOM     19  C   UNL A   1      30.876  30.194  24.383  1.00  0.00     0.004 A 
ATOM     20  C   UNL A   1      30.218  27.897  24.105  1.00  0.00     0.011 A 
ATOM     21  C   UNL A   1      31.583  29.844  25.535  1.00  0.00     0.004 A 
ATOM     22  C   UNL A   1      31.641  28.510  25.976  1.00  0.00    -0.044 A 
ATOM     23  C   UNL A   1      32.437  28.226  27.223  1.00  0.00     0.045 C 
ENDBRANCH   9  16
ENDBRANCH   7   8
ENDBRANCH   4   7
ENDBRANCH   2   3
ENDBRANCH   1   2
BRANCH   1  24
ATOM     24  C   UNL A   1      38.275  21.491  25.724  1.00  0.00     0.118 C 
BRANCH  24  25
ATOM     25  N   UNL A   1      39.723  21.225  25.756  1.00  0.00    -0.352 N 
ATOM     26  C   UNL A   1      40.826  22.004  26.075  1.00  0.00     0.251 C 
ATOM     27  H   UNL A   1      39.956  20.304  25.498  1.00  0.00     0.163 HD
ATOM     28  O   UNL A   1      41.941  21.619  25.734  1.00  0.00    -0.269 OA
BRANCH  26  29
ATOM     29  C   UNL A   1      40.689  23.274  26.815  1.00  0.00     0.039 A 
ATOM     30  C   UNL A   1      39.650  24.194  26.629  1.00  0.00     0.014 A 
ATOM     31  C   UNL A   1      41.696  23.616  27.679  1.00  0.00     0.014 A 
ATOM     32  C   UNL A   1      39.737  25.447  27.258  1.00  0.00     0.010 A 
ATOM     33  C   UNL A   1      41.470  24.564  28.616  1.00  0.00     0.010 A 
ATOM     34  C   UNL A   1      40.717  25.638  28.227  1.00  0.00    -0.014 A 
BRANCH  34  35
ATOM     35  C   UNL A   1      41.035  26.873  28.917  1.00  0.00     0.031 A 
ATOM     36  C   UNL A   1      42.102  27.672  28.287  1.00  0.00     0.074 A 
ATOM     37  C   UNL A   1      40.169  27.456  29.780  1.00  0.00     0.049 A 
ATOM     38  N   UNL A   1      43.335  27.761  28.652  1.00  0.00    -0.248 NA
ATOM     39  C   UNL A   1      41.810  28.289  26.982  1.00  0.00     0.031 C 
ATOM     40  C   UNL A   1      38.814  27.029  30.156  1.00  0.00     0.029 A 
ATOM     41  N   UNL A   1      40.284  28.657  30.409  1.00  0.00    -0.354 N 
ATOM     42  C   UNL A   1      43.912  28.637  27.742  1.00  0.00     0.074 A 
ATOM     43  C   UNL A   1      43.031  28.664  26.605  1.00  0.00     0.031 C 
ATOM     44  C   UNL A   1      38.172  28.048  30.777  1.00  0.00     0.029 A 
ATOM     45  C   UNL A   1      39.108  29.143  30.967  1.00  0.00     0.049 A 
ATOM     46  H   UNL A   1      41.138  29.146  30.464  1.00  0.00     0.167 HD
ATOM     47  C   UNL A   1      44.886  29.519  28.103  1.00  0.00     0.031 A 
ATOM     48  C   UNL A   1      38.920  30.379  31.497  1.00  0.00     0.031 A 
ATOM     49  C   UNL A   1      45.335  29.281  29.455  1.00  0.00     0.049 A 
ATOM     50  C   UNL A   1      40.269  30.944  31.769  1.00  0.00     0.074 A 
ATOM     51  C   UNL A   1      45.872  28.201  30.126  1.00  0.00     0.029 A 
ATOM     52  N   UNL A   1      44.846  30.131  30.424  1.00  0.00    -0.354 N 
ATOM     53  N   UNL A   1      41.094  30.457  32.655  1.00  0.00    -0.248 NA
ATOM     54  C   UNL A   1      40.884  31.789  30.754  1.00  0.00     0.031 C 
ATOM     55  C   UNL A   1      45.278  28.238  31.423  1.00  0.00     0.029 A 
ATOM     56  C   UNL A   1      44.461  29.369  31.498  1.00  0.00     0.049 A 
ATOM     57  H   UNL A   1      44.784  31.111  30.358  1.00  0.00     0.167 HD
ATOM     58  C   UNL A   1      42.352  30.573  32.079  1.00  0.00     0.074 A 
ATOM     59  C   UNL A   1      42.173  31.505  30.969  1.00  0.00     0.031 C 
ATOM     60  C   UNL A   1      43.348  29.685  32.375  1.00  0.00     0.031 A 
BRANCH  47  61
ATOM     61  C   UNL A   1      45.138  30.837  27.408  1.00  0.00    -0.014 A 
ATOM     62  C   UNL A   1      46.457  31.155  27.032  1.00  0.00     0.010 A 
ATOM     63  C   UNL A   1      44.185  31.873  27.319  1.00  0.00     0.010 A 
ATOM     64  C   UNL A   1      46.815  32.459  26.664  1.00  0.00     0.020 A 
ATOM     65  C   UNL A   1      44.518  33.162  26.903  1.00  0.00     0.020 A 
ATOM     66  C   UNL A   1      45.841  33.457  26.618  1.00  0.00     0.054 A 
BRANCH  66  67
ATOM     67  S   UNL A   1      46.326  35.161  26.267  1.00  0.00     0.124 S 
ATOM     68  O   UNL A   1      47.253  35.437  27.361  1.00  0.00    -0.237 OA
ATOM     69  O   UNL A   1      46.924  35.048  24.939  1.00  0.00    -0.237 OA
ATOM     70  O   UNL A   1      45.063  35.893  26.315  1.00  0.00    -0.744 OA
ENDBRANCH  66  67
ENDBRANCH  47  61
BRANCH  48  71
ATOM     71  C   UNL A   1      37.685  31.202  31.553  1.00  0.00    -0.014 A 
ATOM     72  C   UNL A   1      36.960  31.337  32.753  1.00  0.00     0.010 A 
ATOM     73  C   UNL A   1      37.361  32.076  30.495  1.00  0.00     0.010 A 
ATOM     74  C   UNL A   1      36.000  32.353  32.912  1.00  0.00     0.020 A 
ATOM     75  C   UNL A   1      36.400  33.086  30.643  1.00  0.00     0.020 A 
ATOM     76  C   UNL A   1      35.743  33.237  31.862  1.00  0.00     0.054 A 
BRANCH  76  77
ATOM     77  S   UNL A   1      34.650  34.663  32.143  1.00  0.00     0.124 S 
ATOM     78  O   UNL A   1      34.373  35.116  30.783  1.00  0.00    -0.237 OA
ATOM     79  O   UNL A   1      33.521  34.064  32.850  1.00  0.00    -0.237 OA
ATOM     80  O   UNL A   1      35.465  35.572  32.946  1.00  0.00    -0.744 OA
ENDBRANCH  76  77
ENDBRANCH  48  71
BRANCH  60  81
ATOM     81  C   UNL A   1      43.164  28.770  33.567  1.00  0.00    -0.014 A 
ATOM     82  C   UNL A   1      43.580  29.098  34.872  1.00  0.00     0.010 A 
ATOM     83  C   UNL A   1      42.383  27.614  33.385  1.00  0.00     0.010 A 
ATOM     84  C   UNL A   1      43.232  28.287  35.962  1.00  0.00     0.020 A 
ATOM     85  C   UNL A   1      42.018  26.811  34.471  1.00  0.00     0.020 A 
ATOM     86  C   UNL A   1      42.447  27.150  35.754  1.00  0.00     0.054 A 
BRANCH  86  87
ATOM     87  S   UNL A   1      41.925  26.153  37.178  1.00  0.00     0.124 S 
ATOM     88  O   UNL A   1      40.635  26.742  37.524  1.00  0.00    -0.237 OA
ATOM     89  O   UNL A   1      41.872  24.800  36.628  1.00  0.00    -0.237 OA
ATOM     90  O   UNL A   1      42.987  26.368  38.162  1.00  0.00    -0.744 OA
ENDBRANCH  86  87
ENDBRANCH  60  81
ENDBRANCH  34  35
ENDBRANCH  26  29
ENDBRANCH  24  25
ENDBRANCH   1  24
TORSDOF 15
ENDMDL
MODEL 3
REMARK VINA RESULT:     -11.7      2.666      9.199
REMARK SMILES Cc1ccc(C)c(/C=C2\SC(=S)N(CC(=O)NCCCNC(=O)c3ccc(-c4c5nc(c(-c6ccc(S(=O)(=O)[O-])cc6)c6ccc([nH]6)c(-c6ccc(S(=O)(=O)[O-])cc6)c6nc(c(-c7ccc(S(=O)(=O)[O-])cc7)c7ccc4[nH]7)C=C6)C=C5)cc3)C2=O)c1
REMARK SMILES IDX 19 1 18 2 17 3 15 4 16 5 14 7 13 8 8 9 9 10 10 11 84 12
REMARK SMILES IDX 11 13 85 14 12 15 7 16 1 17 2 18 3 19 86 20 4 21 5 22 6 23
REMARK SMILES IDX 20 24 21 25 22 26 23 28 24 29 25 30 83 31 26 32 82 33 27 34
REMARK SMILES IDX 28 35 29 36 76 37 30 38 81 39 75 40 77 41 31 42 80 43 74 44
REMARK SMILES IDX 73 45 32 47 62 48 43 49 61 50 44 51 47 52 60 53 78 54 45 55
REMARK SMILES IDX 46 56 59 58 79 59 48 60 33 61 34 62 42 63 35 64 41 65 36 66
REMARK SMILES IDX 37 67 38 68 39 69 40 70 63 71 64 72 72 73 65 74 71 75 66 76
REMARK SMILES IDX 67 77 68 78 69 79 70 80 49 81 50 82 58 83 51 84 57 85 52 86
REMARK SMILES IDX 53 87 54 88 55 89 56 90
REMARK H PARENT 17 6 21 27 77 46 47 57
REMARK Flexibility Score: inf
ROOT
ATOM      1  C   UNL A   1      33.634  28.422  25.061  1.00  0.00     0.042 C 
ENDROOT
BRANCH   1   2
ATOM      2  C   UNL A   1      32.216  28.961  24.853  1.00  0.00     0.117 C 
BRANCH   2   3
ATOM      3  N   UNL A   1      31.703  28.811  23.505  1.00  0.00    -0.354 N 
ATOM      4  C   UNL A   1      30.882  27.846  22.989  1.00  0.00     0.240 C 
ATOM      5  O   UNL A   1      30.186  28.164  22.023  1.00  0.00    -0.273 OA
ATOM      6  H   UNL A   1      31.987  29.506  22.867  1.00  0.00     0.163 HD
BRANCH   4   7
ATOM      7  C   UNL A   1      30.697  26.484  23.668  1.00  0.00     0.227 C 
BRANCH   7   8
ATOM      8  N   UNL A   1      31.911  25.668  23.659  1.00  0.00    -0.283 N 
ATOM      9  C   UNL A   1      34.259  23.874  25.746  1.00  0.00     0.029 C 
ATOM     10  C   UNL A   1      33.621  24.425  24.704  1.00  0.00     0.081 C 
ATOM     11  S   UNL A   1      33.987  24.291  23.031  1.00  0.00    -0.054 SA
ATOM     12  C   UNL A   1      32.404  25.264  24.896  1.00  0.00     0.266 C 
ATOM     13  C   UNL A   1      32.682  25.372  22.562  1.00  0.00     0.148 C 
ATOM     14  O   UNL A   1      31.943  25.537  25.975  1.00  0.00    -0.268 OA
ATOM     15  S   UNL A   1      32.517  25.905  20.989  1.00  0.00    -0.052 S 
BRANCH   9  16
ATOM     16  C   UNL A   1      35.425  22.979  25.667  1.00  0.00    -0.021 A 
ATOM     17  C   UNL A   1      39.189  23.265  26.245  1.00  0.00     0.044 C 
ATOM     18  C   UNL A   1      37.844  22.695  25.913  1.00  0.00    -0.051 A 
ATOM     19  C   UNL A   1      37.725  21.382  25.459  1.00  0.00     0.004 A 
ATOM     20  C   UNL A   1      36.688  23.474  26.038  1.00  0.00     0.011 A 
ATOM     21  C   UNL A   1      36.471  20.860  25.134  1.00  0.00     0.004 A 
ATOM     22  C   UNL A   1      35.309  21.645  25.232  1.00  0.00    -0.044 A 
ATOM     23  C   UNL A   1      34.002  21.000  24.849  1.00  0.00     0.045 C 
ENDBRANCH   9  16
ENDBRANCH   7   8
ENDBRANCH   4   7
ENDBRANCH   2   3
ENDBRANCH   1   2
BRANCH   1  24
ATOM     24  C   UNL A   1      34.308  28.849  26.361  1.00  0.00     0.118 C 
BRANCH  24  25
ATOM     25  N   UNL A   1      34.064  30.260  26.703  1.00  0.00    -0.352 N 
ATOM     26  C   UNL A   1      34.675  31.147  27.577  1.00  0.00     0.251 C 
ATOM     27  H   UNL A   1      33.311  30.657  26.208  1.00  0.00     0.163 HD
ATOM     28  O   UNL A   1      34.085  32.180  27.883  1.00  0.00    -0.269 OA
BRANCH  26  29
ATOM     29  C   UNL A   1      36.013  30.880  28.141  1.00  0.00     0.039 A 
ATOM     30  C   UNL A   1      36.787  31.821  28.830  1.00  0.00     0.014 A 
ATOM     31  C   UNL A   1      36.572  29.653  27.893  1.00  0.00     0.014 A 
ATOM     32  C   UNL A   1      38.116  31.498  29.150  1.00  0.00     0.010 A 
ATOM     33  C   UNL A   1      37.610  29.235  28.651  1.00  0.00     0.010 A 
ATOM     34  C   UNL A   1      38.537  30.182  28.991  1.00  0.00    -0.014 A 
BRANCH  34  35
ATOM     35  C   UNL A   1      39.882  29.667  29.169  1.00  0.00     0.031 A 
ATOM     36  C   UNL A   1      40.273  29.444  30.573  1.00  0.00     0.074 A 
ATOM     37  C   UNL A   1      40.549  29.041  28.170  1.00  0.00     0.049 A 
ATOM     38  N   UNL A   1      41.023  30.193  31.308  1.00  0.00    -0.248 NA
ATOM     39  C   UNL A   1      39.590  28.365  31.307  1.00  0.00     0.031 C 
ATOM     40  C   UNL A   1      40.093  28.735  26.807  1.00  0.00     0.029 A 
ATOM     41  N   UNL A   1      41.757  28.418  28.224  1.00  0.00    -0.354 N 
ATOM     42  C   UNL A   1      41.085  29.541  32.532  1.00  0.00     0.074 A 
ATOM     43  C   UNL A   1      39.967  28.635  32.556  1.00  0.00     0.031 C 
ATOM     44  C   UNL A   1      40.922  27.823  26.245  1.00  0.00     0.029 A 
ATOM     45  C   UNL A   1      42.037  27.587  27.146  1.00  0.00     0.049 A 
ATOM     46  H   UNL A   1      42.387  28.546  28.971  1.00  0.00     0.167 HD
ATOM     47  C   UNL A   1      42.211  29.547  33.299  1.00  0.00     0.031 A 
ATOM     48  C   UNL A   1      43.088  26.734  27.040  1.00  0.00     0.031 A 
ATOM     49  C   UNL A   1      43.207  30.444  32.762  1.00  0.00     0.049 A 
ATOM     50  C   UNL A   1      44.094  27.156  28.052  1.00  0.00     0.074 A 
ATOM     51  C   UNL A   1      43.242  31.790  32.459  1.00  0.00     0.029 A 
ATOM     52  N   UNL A   1      44.242  29.865  32.059  1.00  0.00    -0.354 N 
ATOM     53  N   UNL A   1      44.736  28.291  28.005  1.00  0.00    -0.248 NA
ATOM     54  C   UNL A   1      44.075  26.513  29.358  1.00  0.00     0.031 C 
ATOM     55  C   UNL A   1      43.996  31.878  31.251  1.00  0.00     0.029 A 
ATOM     56  C   UNL A   1      44.434  30.595  30.914  1.00  0.00     0.049 A 
ATOM     57  H   UNL A   1      44.753  29.069  32.331  1.00  0.00     0.167 HD
ATOM     58  C   UNL A   1      44.829  28.708  29.326  1.00  0.00     0.074 A 
ATOM     59  C   UNL A   1      44.514  27.522  30.117  1.00  0.00     0.031 C 
ATOM     60  C   UNL A   1      44.867  30.037  29.645  1.00  0.00     0.031 A 
BRANCH  47  61
ATOM     61  C   UNL A   1      42.577  28.454  34.277  1.00  0.00    -0.014 A 
ATOM     62  C   UNL A   1      42.752  28.798  35.631  1.00  0.00     0.010 A 
ATOM     63  C   UNL A   1      42.986  27.160  33.893  1.00  0.00     0.010 A 
ATOM     64  C   UNL A   1      43.373  27.922  36.530  1.00  0.00     0.020 A 
ATOM     65  C   UNL A   1      43.557  26.259  34.791  1.00  0.00     0.020 A 
ATOM     66  C   UNL A   1      43.786  26.662  36.096  1.00  0.00     0.054 A 
BRANCH  66  67
ATOM     67  S   UNL A   1      44.699  25.585  37.222  1.00  0.00     0.124 S 
ATOM     68  O   UNL A   1      46.081  25.865  36.844  1.00  0.00    -0.237 OA
ATOM     69  O   UNL A   1      44.284  26.080  38.532  1.00  0.00    -0.237 OA
ATOM     70  O   UNL A   1      44.215  24.248  36.885  1.00  0.00    -0.744 OA
ENDBRANCH  66  67
ENDBRANCH  47  61
BRANCH  48  71
ATOM     71  C   UNL A   1      43.183  25.442  26.313  1.00  0.00    -0.014 A 
ATOM     72  C   UNL A   1      44.089  25.277  25.248  1.00  0.00     0.010 A 
ATOM     73  C   UNL A   1      42.576  24.282  26.837  1.00  0.00     0.010 A 
ATOM     74  C   UNL A   1      44.429  23.997  24.774  1.00  0.00     0.020 A 
ATOM     75  C   UNL A   1      42.902  23.003  26.364  1.00  0.00     0.020 A 
ATOM     76  C   UNL A   1      43.849  22.866  25.352  1.00  0.00     0.054 A 
BRANCH  76  77
ATOM     77  S   UNL A   1      44.440  21.214  24.870  1.00  0.00     0.124 S 
ATOM     78  O   UNL A   1      45.696  21.104  25.606  1.00  0.00    -0.237 OA
ATOM     79  O   UNL A   1      43.361  20.344  25.330  1.00  0.00    -0.237 OA
ATOM     80  O   UNL A   1      44.578  21.305  23.418  1.00  0.00    -0.744 OA
ENDBRANCH  76  77
ENDBRANCH  48  71
BRANCH  60  81
ATOM     81  C   UNL A   1      45.123  31.035  28.536  1.00  0.00    -0.014 A 
ATOM     82  C   UNL A   1      44.129  31.477  27.642  1.00  0.00     0.010 A 
ATOM     83  C   UNL A   1      46.375  31.677  28.514  1.00  0.00     0.010 A 
ATOM     84  C   UNL A   1      44.383  32.526  26.746  1.00  0.00     0.020 A 
ATOM     85  C   UNL A   1      46.628  32.735  27.636  1.00  0.00     0.020 A 
ATOM     86  C   UNL A   1      45.632  33.153  26.753  1.00  0.00     0.054 A 
BRANCH  86  87
ATOM     87  S   UNL A   1      45.927  34.567  25.654  1.00  0.00     0.124 S 
ATOM     88  O   UNL A   1      45.463  35.695  26.456  1.00  0.00    -0.237 OA
ATOM     89  O   UNL A   1      47.370  34.508  25.427  1.00  0.00    -0.237 OA
ATOM     90  O   UNL A   1      45.113  34.269  24.477  1.00  0.00    -0.744 OA
ENDBRANCH  86  87
ENDBRANCH  60  81
ENDBRANCH  34  35
ENDBRANCH  26  29
ENDBRANCH  24  25
ENDBRANCH   1  24
TORSDOF 15
ENDMDL
