MODEL 1
REMARK VINA RESULT:     -11.5      0.000      0.000
REMARK SMILES COc1ncccc1C(=O)N[C@@](C)(C(=O)NCCCNC(=O)c1ccc(-c2c3nc(c(-c4ccc(S(=O)(=O)[O-])cc4)c4ccc([nH]4)c(-c4ccc(S(=O)(=O)[O-])cc4)c4nc(c(-c5ccc(S(=O)(=O)[O-])cc5)c5ccc2[nH]5)C=C4)C=C3)cc1)C(F)(F)F
REMARK SMILES IDX 18 1 17 2 16 3 14 4 15 5 12 7 13 8 11 9 9 10 10 11 8 13 3 14
REMARK SMILES IDX 4 15 5 16 7 17 6 18 2 19 1 20 83 21 84 22 85 23 86 24 19 25
REMARK SMILES IDX 20 26 21 27 22 29 23 30 24 31 82 32 25 33 81 34 26 35 27 36
REMARK SMILES IDX 28 37 75 38 29 39 80 40 74 41 76 42 30 43 79 44 73 45 72 46
REMARK SMILES IDX 31 48 61 49 42 50 60 51 43 52 46 53 59 54 77 55 44 56 45 57
REMARK SMILES IDX 58 59 78 60 47 61 32 62 33 63 41 64 34 65 40 66 35 67 36 68
REMARK SMILES IDX 37 69 38 70 39 71 62 72 63 73 71 74 64 75 70 76 65 77 66 78
REMARK SMILES IDX 67 79 68 80 69 81 48 82 49 83 57 84 50 85 56 86 51 87 52 88
REMARK SMILES IDX 53 89 54 90 55 91
REMARK H PARENT 16 6 11 12 20 28 76 47 46 58
REMARK Flexibility Score: inf
ROOT
ATOM      1  C   UNL A   1      37.508  23.271  25.611  1.00  0.00     0.042 C 
ENDROOT
BRANCH   1   2
ATOM      2  C   UNL A   1      36.197  23.909  25.177  1.00  0.00     0.117 C 
BRANCH   2   3
ATOM      3  N   UNL A   1      35.084  23.549  26.040  1.00  0.00    -0.354 N 
ATOM      4  C   UNL A   1      33.732  23.667  25.959  1.00  0.00     0.254 C 
ATOM      5  O   UNL A   1      33.132  23.230  26.947  1.00  0.00    -0.272 OA
ATOM      6  H   UNL A   1      35.377  23.120  26.876  1.00  0.00     0.163 HD
BRANCH   4   7
ATOM      7  C   UNL A   1      33.000  24.403  24.808  1.00  0.00     0.212 C 
ATOM      8  C   UNL A   1      33.783  25.621  24.285  1.00  0.00     0.056 C 
BRANCH   7   9
ATOM      9  N   UNL A   1      31.708  24.828  25.463  1.00  0.00    -0.330 N 
ATOM     10  C   UNL A   1      30.975  25.846  26.002  1.00  0.00     0.257 C 
ATOM     11  O   UNL A   1      29.918  25.423  26.483  1.00  0.00    -0.269 OA
ATOM     12  H   UNL A   1      31.153  24.018  25.532  1.00  0.00     0.165 HD
BRANCH  10  13
ATOM     13  C   UNL A   1      31.256  27.308  26.070  1.00  0.00     0.101 A 
ATOM     14  C   UNL A   1      31.193  28.099  24.911  1.00  0.00     0.226 A 
ATOM     15  N   UNL A   1      31.485  29.430  24.856  1.00  0.00    -0.221 NA
ATOM     16  C   UNL A   1      31.879  30.024  25.993  1.00  0.00     0.115 A 
ATOM     17  C   UNL A   1      31.694  27.978  27.205  1.00  0.00     0.021 A 
ATOM     18  C   UNL A   1      31.994  29.345  27.185  1.00  0.00     0.021 A 
BRANCH  14  19
ATOM     19  O   UNL A   1      30.936  27.571  23.674  1.00  0.00    -0.480 OA
ATOM     20  C   UNL A   1      29.621  27.917  23.263  1.00  0.00     0.280 C 
ENDBRANCH  14  19
ENDBRANCH  10  13
ENDBRANCH   7   9
BRANCH   7  21
ATOM     21  C   UNL A   1      33.007  23.377  23.661  1.00  0.00     0.420 C 
ATOM     22  F   UNL A   1      33.141  22.097  24.062  1.00  0.00    -0.168 F 
ATOM     23  F   UNL A   1      31.851  23.459  22.948  1.00  0.00    -0.168 F 
ATOM     24  F   UNL A   1      33.995  23.627  22.763  1.00  0.00    -0.168 F 
ENDBRANCH   7  21
ENDBRANCH   4   7
ENDBRANCH   2   3
ENDBRANCH   1   2
BRANCH   1  25
ATOM     25  C   UNL A   1      38.385  24.134  26.507  1.00  0.00     0.118 C 
BRANCH  25  26
ATOM     26  N   UNL A   1      39.804  24.029  26.198  1.00  0.00    -0.352 N 
ATOM     27  C   UNL A   1      40.849  24.839  26.588  1.00  0.00     0.251 C 
ATOM     28  H   UNL A   1      40.054  23.267  25.628  1.00  0.00     0.163 HD
ATOM     29  O   UNL A   1      41.955  24.685  26.090  1.00  0.00    -0.269 OA
BRANCH  27  30
ATOM     30  C   UNL A   1      40.613  25.909  27.582  1.00  0.00     0.039 A 
ATOM     31  C   UNL A   1      39.663  25.706  28.585  1.00  0.00     0.014 A 
ATOM     32  C   UNL A   1      41.348  27.095  27.539  1.00  0.00     0.014 A 
ATOM     33  C   UNL A   1      39.510  26.664  29.591  1.00  0.00     0.010 A 
ATOM     34  C   UNL A   1      41.270  27.994  28.596  1.00  0.00     0.010 A 
ATOM     35  C   UNL A   1      40.343  27.795  29.629  1.00  0.00    -0.014 A 
BRANCH  35  36
ATOM     36  C   UNL A   1      40.255  28.785  30.733  1.00  0.00     0.031 A 
ATOM     37  C   UNL A   1      41.149  28.653  31.938  1.00  0.00     0.074 A 
ATOM     38  C   UNL A   1      39.331  29.765  30.680  1.00  0.00     0.049 A 
ATOM     39  N   UNL A   1      41.192  29.390  33.017  1.00  0.00    -0.248 NA
ATOM     40  C   UNL A   1      42.098  27.526  31.946  1.00  0.00     0.031 C 
ATOM     41  C   UNL A   1      38.371  29.969  29.593  1.00  0.00     0.029 A 
ATOM     42  N   UNL A   1      39.045  30.776  31.565  1.00  0.00    -0.354 N 
ATOM     43  C   UNL A   1      42.155  28.808  33.835  1.00  0.00     0.074 A 
ATOM     44  C   UNL A   1      42.624  27.621  33.158  1.00  0.00     0.031 C 
ATOM     45  C   UNL A   1      37.632  31.059  29.855  1.00  0.00     0.029 A 
ATOM     46  C   UNL A   1      38.031  31.606  31.148  1.00  0.00     0.049 A 
ATOM     47  H   UNL A   1      39.521  30.895  32.418  1.00  0.00     0.167 HD
ATOM     48  C   UNL A   1      42.625  29.236  35.030  1.00  0.00     0.031 A 
ATOM     49  C   UNL A   1      37.481  32.684  31.738  1.00  0.00     0.031 A 
ATOM     50  C   UNL A   1      42.163  30.424  35.696  1.00  0.00     0.049 A 
ATOM     51  C   UNL A   1      38.015  33.138  33.070  1.00  0.00     0.074 A 
ATOM     52  C   UNL A   1      42.615  30.978  36.879  1.00  0.00     0.029 A 
ATOM     53  N   UNL A   1      41.139  31.240  35.236  1.00  0.00    -0.354 N 
ATOM     54  N   UNL A   1      38.979  32.617  33.791  1.00  0.00    -0.248 NA
ATOM     55  C   UNL A   1      37.397  34.333  33.660  1.00  0.00     0.031 C 
ATOM     56  C   UNL A   1      41.825  32.097  37.166  1.00  0.00     0.029 A 
ATOM     57  C   UNL A   1      40.928  32.278  36.126  1.00  0.00     0.049 A 
ATOM     58  H   UNL A   1      40.638  31.101  34.400  1.00  0.00     0.167 HD
ATOM     59  C   UNL A   1      39.102  33.437  34.908  1.00  0.00     0.074 A 
ATOM     60  C   UNL A   1      38.125  34.496  34.757  1.00  0.00     0.031 C 
ATOM     61  C   UNL A   1      39.949  33.325  35.962  1.00  0.00     0.031 A 
BRANCH  48  62
ATOM     62  C   UNL A   1      43.694  28.406  35.694  1.00  0.00    -0.014 A 
ATOM     63  C   UNL A   1      45.060  28.651  35.456  1.00  0.00     0.010 A 
ATOM     64  C   UNL A   1      43.331  27.383  36.590  1.00  0.00     0.010 A 
ATOM     65  C   UNL A   1      46.039  27.858  36.061  1.00  0.00     0.020 A 
ATOM     66  C   UNL A   1      44.309  26.609  37.223  1.00  0.00     0.020 A 
ATOM     67  C   UNL A   1      45.657  26.840  36.938  1.00  0.00     0.054 A 
BRANCH  67  68
ATOM     68  S   UNL A   1      46.951  25.838  37.720  1.00  0.00     0.124 S 
ATOM     69  O   UNL A   1      48.164  26.402  37.134  1.00  0.00    -0.237 OA
ATOM     70  O   UNL A   1      46.753  26.114  39.140  1.00  0.00    -0.237 OA
ATOM     71  O   UNL A   1      46.634  24.474  37.302  1.00  0.00    -0.744 OA
ENDBRANCH  67  68
ENDBRANCH  48  62
BRANCH  49  72
ATOM     72  C   UNL A   1      36.381  33.425  31.060  1.00  0.00    -0.014 A 
ATOM     73  C   UNL A   1      35.175  33.687  31.732  1.00  0.00     0.010 A 
ATOM     74  C   UNL A   1      36.543  33.895  29.743  1.00  0.00     0.010 A 
ATOM     75  C   UNL A   1      34.145  34.387  31.098  1.00  0.00     0.020 A 
ATOM     76  C   UNL A   1      35.528  34.623  29.116  1.00  0.00     0.020 A 
ATOM     77  C   UNL A   1      34.331  34.856  29.795  1.00  0.00     0.054 A 
BRANCH  77  78
ATOM     78  S   UNL A   1      33.002  35.816  29.014  1.00  0.00     0.124 S 
ATOM     79  O   UNL A   1      33.749  36.860  28.320  1.00  0.00    -0.237 OA
ATOM     80  O   UNL A   1      32.358  34.822  28.158  1.00  0.00    -0.237 OA
ATOM     81  O   UNL A   1      32.197  36.268  30.147  1.00  0.00    -0.744 OA
ENDBRANCH  77  78
ENDBRANCH  49  72
BRANCH  61  82
ATOM     82  C   UNL A   1      39.885  34.393  37.021  1.00  0.00    -0.014 A 
ATOM     83  C   UNL A   1      39.067  34.251  38.156  1.00  0.00     0.010 A 
ATOM     84  C   UNL A   1      40.703  35.532  36.903  1.00  0.00     0.010 A 
ATOM     85  C   UNL A   1      39.047  35.244  39.139  1.00  0.00     0.020 A 
ATOM     86  C   UNL A   1      40.709  36.511  37.899  1.00  0.00     0.020 A 
ATOM     87  C   UNL A   1      39.870  36.367  39.004  1.00  0.00     0.054 A 
BRANCH  87  88
ATOM     88  S   UNL A   1      39.858  37.619  40.317  1.00  0.00     0.124 S 
ATOM     89  O   UNL A   1      40.315  36.852  41.472  1.00  0.00    -0.237 OA
ATOM     90  O   UNL A   1      40.798  38.619  39.814  1.00  0.00    -0.237 OA
ATOM     91  O   UNL A   1      38.464  38.054  40.369  1.00  0.00    -0.744 OA
ENDBRANCH  87  88
ENDBRANCH  61  82
ENDBRANCH  35  36
ENDBRANCH  27  30
ENDBRANCH  25  26
ENDBRANCH   1  25
TORSDOF 17
ENDMDL
MODEL 2
REMARK VINA RESULT:     -11.4      4.673     10.413
REMARK SMILES COc1ncccc1C(=O)N[C@@](C)(C(=O)NCCCNC(=O)c1ccc(-c2c3nc(c(-c4ccc(S(=O)(=O)[O-])cc4)c4ccc([nH]4)c(-c4ccc(S(=O)(=O)[O-])cc4)c4nc(c(-c5ccc(S(=O)(=O)[O-])cc5)c5ccc2[nH]5)C=C4)C=C3)cc1)C(F)(F)F
REMARK SMILES IDX 18 1 17 2 16 3 14 4 15 5 12 7 13 8 11 9 9 10 10 11 8 13 3 14
REMARK SMILES IDX 4 15 5 16 7 17 6 18 2 19 1 20 83 21 84 22 85 23 86 24 19 25
REMARK SMILES IDX 20 26 21 27 22 29 23 30 24 31 82 32 25 33 81 34 26 35 27 36
REMARK SMILES IDX 28 37 75 38 29 39 80 40 74 41 76 42 30 43 79 44 73 45 72 46
REMARK SMILES IDX 31 48 61 49 42 50 60 51 43 52 46 53 59 54 77 55 44 56 45 57
REMARK SMILES IDX 58 59 78 60 47 61 32 62 33 63 41 64 34 65 40 66 35 67 36 68
REMARK SMILES IDX 37 69 38 70 39 71 62 72 63 73 71 74 64 75 70 76 65 77 66 78
REMARK SMILES IDX 67 79 68 80 69 81 48 82 49 83 57 84 50 85 56 86 51 87 52 88
REMARK SMILES IDX 53 89 54 90 55 91
REMARK H PARENT 16 6 11 12 20 28 76 47 46 58
REMARK Flexibility Score: inf
ROOT
ATOM      1  C   UNL A   1      34.038  28.551  25.778  1.00  0.00     0.042 C 
ENDROOT
BRANCH   1   2
ATOM      2  C   UNL A   1      32.949  28.814  24.749  1.00  0.00     0.117 C 
BRANCH   2   3
ATOM      3  N   UNL A   1      33.297  28.322  23.426  1.00  0.00    -0.354 N 
ATOM      4  C   UNL A   1      33.095  27.157  22.753  1.00  0.00     0.254 C 
ATOM      5  O   UNL A   1      33.579  27.146  21.617  1.00  0.00    -0.272 OA
ATOM      6  H   UNL A   1      33.794  28.984  22.894  1.00  0.00     0.163 HD
BRANCH   4   7
ATOM      7  C   UNL A   1      32.442  25.901  23.385  1.00  0.00     0.212 C 
ATOM      8  C   UNL A   1      32.950  25.618  24.810  1.00  0.00     0.056 C 
BRANCH   7   9
ATOM      9  N   UNL A   1      32.857  24.806  22.432  1.00  0.00    -0.330 N 
ATOM     10  C   UNL A   1      33.257  23.510  22.277  1.00  0.00     0.257 C 
ATOM     11  O   UNL A   1      33.540  23.272  21.098  1.00  0.00    -0.269 OA
ATOM     12  H   UNL A   1      32.824  25.197  21.529  1.00  0.00     0.165 HD
BRANCH  10  13
ATOM     13  C   UNL A   1      33.377  22.410  23.276  1.00  0.00     0.101 A 
ATOM     14  C   UNL A   1      34.597  22.173  23.931  1.00  0.00     0.226 A 
ATOM     15  N   UNL A   1      34.825  21.161  24.816  1.00  0.00    -0.221 NA
ATOM     16  C   UNL A   1      33.811  20.319  25.067  1.00  0.00     0.115 A 
ATOM     17  C   UNL A   1      32.378  21.487  23.560  1.00  0.00     0.021 A 
ATOM     18  C   UNL A   1      32.576  20.443  24.471  1.00  0.00     0.021 A 
BRANCH  14  19
ATOM     19  O   UNL A   1      35.733  22.884  23.649  1.00  0.00    -0.480 OA
ATOM     20  C   UNL A   1      36.110  23.661  24.777  1.00  0.00     0.280 C 
ENDBRANCH  14  19
ENDBRANCH  10  13
ENDBRANCH   7   9
BRANCH   7  21
ATOM     21  C   UNL A   1      30.964  26.301  23.539  1.00  0.00     0.420 C 
ATOM     22  F   UNL A   1      30.632  26.733  24.772  1.00  0.00    -0.168 F 
ATOM     23  F   UNL A   1      30.650  27.294  22.663  1.00  0.00    -0.168 F 
ATOM     24  F   UNL A   1      30.127  25.278  23.228  1.00  0.00    -0.168 F 
ENDBRANCH   7  21
ENDBRANCH   4   7
ENDBRANCH   2   3
ENDBRANCH   1   2
BRANCH   1  25
ATOM     25  C   UNL A   1      33.602  28.675  27.231  1.00  0.00     0.118 C 
BRANCH  25  26
ATOM     26  N   UNL A   1      33.549  30.052  27.702  1.00  0.00    -0.352 N 
ATOM     27  C   UNL A   1      34.505  30.789  28.366  1.00  0.00     0.251 C 
ATOM     28  H   UNL A   1      32.707  30.525  27.518  1.00  0.00     0.163 HD
ATOM     29  O   UNL A   1      34.215  31.883  28.828  1.00  0.00    -0.269 OA
BRANCH  27  30
ATOM     30  C   UNL A   1      35.865  30.234  28.541  1.00  0.00     0.039 A 
ATOM     31  C   UNL A   1      36.779  30.331  27.489  1.00  0.00     0.014 A 
ATOM     32  C   UNL A   1      36.245  29.647  29.749  1.00  0.00     0.014 A 
ATOM     33  C   UNL A   1      38.096  29.908  27.681  1.00  0.00     0.010 A 
ATOM     34  C   UNL A   1      37.578  29.327  29.972  1.00  0.00     0.010 A 
ATOM     35  C   UNL A   1      38.518  29.444  28.938  1.00  0.00    -0.014 A 
BRANCH  35  36
ATOM     36  C   UNL A   1      39.933  29.067  29.190  1.00  0.00     0.031 A 
ATOM     37  C   UNL A   1      40.885  30.067  29.790  1.00  0.00     0.074 A 
ATOM     38  C   UNL A   1      40.375  27.847  28.822  1.00  0.00     0.049 A 
ATOM     39  N   UNL A   1      42.161  29.939  30.047  1.00  0.00    -0.248 NA
ATOM     40  C   UNL A   1      40.340  31.396  30.118  1.00  0.00     0.031 C 
ATOM     41  C   UNL A   1      39.566  26.807  28.183  1.00  0.00     0.029 A 
ATOM     42  N   UNL A   1      41.619  27.275  28.932  1.00  0.00    -0.354 N 
ATOM     43  C   UNL A   1      42.572  31.171  30.546  1.00  0.00     0.074 A 
ATOM     44  C   UNL A   1      41.427  32.051  30.496  1.00  0.00     0.031 C 
ATOM     45  C   UNL A   1      40.321  25.713  27.995  1.00  0.00     0.029 A 
ATOM     46  C   UNL A   1      41.678  25.986  28.456  1.00  0.00     0.049 A 
ATOM     47  H   UNL A   1      42.395  27.743  29.315  1.00  0.00     0.167 HD
ATOM     48  C   UNL A   1      43.785  31.531  31.027  1.00  0.00     0.031 A 
ATOM     49  C   UNL A   1      42.708  25.120  28.395  1.00  0.00     0.031 A 
ATOM     50  C   UNL A   1      44.919  30.648  31.084  1.00  0.00     0.049 A 
ATOM     51  C   UNL A   1      44.049  25.543  28.929  1.00  0.00     0.074 A 
ATOM     52  C   UNL A   1      46.175  30.895  31.608  1.00  0.00     0.029 A 
ATOM     53  N   UNL A   1      44.935  29.349  30.599  1.00  0.00    -0.354 N 
ATOM     54  N   UNL A   1      44.397  26.688  29.468  1.00  0.00    -0.248 NA
ATOM     55  C   UNL A   1      45.133  24.554  28.860  1.00  0.00     0.031 C 
ATOM     56  C   UNL A   1      46.969  29.765  31.385  1.00  0.00     0.029 A 
ATOM     57  C   UNL A   1      46.187  28.790  30.786  1.00  0.00     0.049 A 
ATOM     58  H   UNL A   1      44.169  28.892  30.183  1.00  0.00     0.167 HD
ATOM     59  C   UNL A   1      45.733  26.546  29.827  1.00  0.00     0.074 A 
ATOM     60  C   UNL A   1      46.124  25.201  29.459  1.00  0.00     0.031 C 
ATOM     61  C   UNL A   1      46.561  27.448  30.412  1.00  0.00     0.031 A 
BRANCH  48  62
ATOM     62  C   UNL A   1      43.944  32.945  31.524  1.00  0.00    -0.014 A 
ATOM     63  C   UNL A   1      43.684  33.278  32.868  1.00  0.00     0.010 A 
ATOM     64  C   UNL A   1      44.386  33.951  30.646  1.00  0.00     0.010 A 
ATOM     65  C   UNL A   1      43.814  34.598  33.309  1.00  0.00     0.020 A 
ATOM     66  C   UNL A   1      44.549  35.267  31.091  1.00  0.00     0.020 A 
ATOM     67  C   UNL A   1      44.243  35.584  32.417  1.00  0.00     0.054 A 
BRANCH  67  68
ATOM     68  S   UNL A   1      44.416  37.285  33.022  1.00  0.00     0.124 S 
ATOM     69  O   UNL A   1      44.207  38.062  31.803  1.00  0.00    -0.237 OA
ATOM     70  O   UNL A   1      43.351  37.379  34.017  1.00  0.00    -0.237 OA
ATOM     71  O   UNL A   1      45.774  37.325  33.561  1.00  0.00    -0.744 OA
ENDBRANCH  67  68
ENDBRANCH  48  62
BRANCH  49  72
ATOM     72  C   UNL A   1      42.502  23.757  27.831  1.00  0.00    -0.014 A 
ATOM     73  C   UNL A   1      42.593  23.535  26.446  1.00  0.00     0.010 A 
ATOM     74  C   UNL A   1      42.237  22.666  28.679  1.00  0.00     0.010 A 
ATOM     75  C   UNL A   1      42.407  22.254  25.917  1.00  0.00     0.020 A 
ATOM     76  C   UNL A   1      42.080  21.377  28.158  1.00  0.00     0.020 A 
ATOM     77  C   UNL A   1      42.157  21.182  26.779  1.00  0.00     0.054 A 
BRANCH  77  78
ATOM     78  S   UNL A   1      41.978  19.519  26.074  1.00  0.00     0.124 S 
ATOM     79  O   UNL A   1      42.844  19.591  24.901  1.00  0.00    -0.237 OA
ATOM     80  O   UNL A   1      42.452  18.665  27.160  1.00  0.00    -0.237 OA
ATOM     81  O   UNL A   1      40.547  19.420  25.791  1.00  0.00    -0.744 OA
ENDBRANCH  77  78
ENDBRANCH  49  72
BRANCH  61  82
ATOM     82  C   UNL A   1      47.964  27.002  30.725  1.00  0.00    -0.014 A 
ATOM     83  C   UNL A   1      49.022  27.224  29.825  1.00  0.00     0.010 A 
ATOM     84  C   UNL A   1      48.237  26.402  31.968  1.00  0.00     0.010 A 
ATOM     85  C   UNL A   1      50.321  26.826  30.151  1.00  0.00     0.020 A 
ATOM     86  C   UNL A   1      49.539  26.031  32.310  1.00  0.00     0.020 A 
ATOM     87  C   UNL A   1      50.571  26.233  31.393  1.00  0.00     0.054 A 
BRANCH  87  88
ATOM     88  S   UNL A   1      52.273  25.767  31.810  1.00  0.00     0.124 S 
ATOM     89  O   UNL A   1      52.574  26.671  32.916  1.00  0.00    -0.237 OA
ATOM     90  O   UNL A   1      52.140  24.356  32.170  1.00  0.00    -0.237 OA
ATOM     91  O   UNL A   1      53.015  26.021  30.577  1.00  0.00    -0.744 OA
ENDBRANCH  87  88
ENDBRANCH  61  82
ENDBRANCH  35  36
ENDBRANCH  27  30
ENDBRANCH  25  26
ENDBRANCH   1  25
TORSDOF 17
ENDMDL
MODEL 3
REMARK VINA RESULT:     -11.4      2.181      8.405
REMARK SMILES COc1ncccc1C(=O)N[C@@](C)(C(=O)NCCCNC(=O)c1ccc(-c2c3nc(c(-c4ccc(S(=O)(=O)[O-])cc4)c4ccc([nH]4)c(-c4ccc(S(=O)(=O)[O-])cc4)c4nc(c(-c5ccc(S(=O)(=O)[O-])cc5)c5ccc2[nH]5)C=C4)C=C3)cc1)C(F)(F)F
REMARK SMILES IDX 18 1 17 2 16 3 14 4 15 5 12 7 13 8 11 9 9 10 10 11 8 13 3 14
REMARK SMILES IDX 4 15 5 16 7 17 6 18 2 19 1 20 83 21 84 22 85 23 86 24 19 25
REMARK SMILES IDX 20 26 21 27 22 29 23 30 24 31 82 32 25 33 81 34 26 35 27 36
REMARK SMILES IDX 28 37 75 38 29 39 80 40 74 41 76 42 30 43 79 44 73 45 72 46
REMARK SMILES IDX 31 48 61 49 42 50 60 51 43 52 46 53 59 54 77 55 44 56 45 57
REMARK SMILES IDX 58 59 78 60 47 61 32 62 33 63 41 64 34 65 40 66 35 67 36 68
REMARK SMILES IDX 37 69 38 70 39 71 62 72 63 73 71 74 64 75 70 76 65 77 66 78
REMARK SMILES IDX 67 79 68 80 69 81 48 82 49 83 57 84 50 85 56 86 51 87 52 88
REMARK SMILES IDX 53 89 54 90 55 91
REMARK H PARENT 16 6 11 12 20 28 76 47 46 58
REMARK Flexibility Score: inf
ROOT
ATOM      1  C   UNL A   1      31.816  31.935  26.568  1.00  0.00     0.042 C 
ENDROOT
BRANCH   1   2
ATOM      2  C   UNL A   1      32.144  30.500  26.184  1.00  0.00     0.117 C 
BRANCH   2   3
ATOM      3  N   UNL A   1      31.784  29.545  27.219  1.00  0.00    -0.354 N 
ATOM      4  C   UNL A   1      31.808  28.189  27.322  1.00  0.00     0.254 C 
ATOM      5  O   UNL A   1      31.391  27.763  28.404  1.00  0.00    -0.272 OA
ATOM      6  H   UNL A   1      31.445  29.981  28.034  1.00  0.00     0.163 HD
BRANCH   4   7
ATOM      7  C   UNL A   1      32.188  27.244  26.154  1.00  0.00     0.212 C 
ATOM      8  C   UNL A   1      31.612  27.705  24.803  1.00  0.00     0.056 C 
BRANCH   7   9
ATOM      9  N   UNL A   1      31.577  25.933  26.586  1.00  0.00    -0.330 N 
ATOM     10  C   UNL A   1      31.661  24.570  26.581  1.00  0.00     0.257 C 
ATOM     11  O   UNL A   1      30.666  24.063  27.110  1.00  0.00    -0.269 OA
ATOM     12  H   UNL A   1      30.763  26.159  27.091  1.00  0.00     0.165 HD
BRANCH  10  13
ATOM     13  C   UNL A   1      32.733  23.671  26.068  1.00  0.00     0.101 A 
ATOM     14  C   UNL A   1      33.104  23.706  24.713  1.00  0.00     0.226 A 
ATOM     15  N   UNL A   1      34.030  22.889  24.135  1.00  0.00    -0.221 NA
ATOM     16  C   UNL A   1      34.619  21.971  24.917  1.00  0.00     0.115 A 
ATOM     17  C   UNL A   1      33.362  22.681  26.814  1.00  0.00     0.021 A 
ATOM     18  C   UNL A   1      34.323  21.833  26.254  1.00  0.00     0.021 A 
BRANCH  14  19
ATOM     19  O   UNL A   1      32.473  24.506  23.799  1.00  0.00    -0.480 OA
ATOM     20  C   UNL A   1      33.409  24.981  22.843  1.00  0.00     0.280 C 
ENDBRANCH  14  19
ENDBRANCH  10  13
ENDBRANCH   7   9
BRANCH   7  21
ATOM     21  C   UNL A   1      33.714  27.409  26.038  1.00  0.00     0.420 C 
ATOM     22  F   UNL A   1      34.392  26.246  25.959  1.00  0.00    -0.168 F 
ATOM     23  F   UNL A   1      34.026  28.137  24.931  1.00  0.00    -0.168 F 
ATOM     24  F   UNL A   1      34.229  28.110  27.080  1.00  0.00    -0.168 F 
ENDBRANCH   7  21
ENDBRANCH   4   7
ENDBRANCH   2   3
ENDBRANCH   1   2
BRANCH   1  25
ATOM     25  C   UNL A   1      32.815  32.601  27.503  1.00  0.00     0.118 C 
BRANCH  25  26
ATOM     26  N   UNL A   1      32.520  34.004  27.757  1.00  0.00    -0.352 N 
ATOM     27  C   UNL A   1      33.061  34.859  28.693  1.00  0.00     0.251 C 
ATOM     28  H   UNL A   1      31.834  34.400  27.174  1.00  0.00     0.163 HD
ATOM     29  O   UNL A   1      32.566  35.963  28.864  1.00  0.00    -0.269 OA
BRANCH  27  30
ATOM     30  C   UNL A   1      34.217  34.419  29.503  1.00  0.00     0.039 A 
ATOM     31  C   UNL A   1      34.006  34.010  30.822  1.00  0.00     0.014 A 
ATOM     32  C   UNL A   1      35.501  34.383  28.955  1.00  0.00     0.014 A 
ATOM     33  C   UNL A   1      35.072  33.492  31.561  1.00  0.00     0.010 A 
ATOM     34  C   UNL A   1      36.533  33.770  29.652  1.00  0.00     0.010 A 
ATOM     35  C   UNL A   1      36.335  33.326  30.968  1.00  0.00    -0.014 A 
BRANCH  35  36
ATOM     36  C   UNL A   1      37.462  32.701  31.706  1.00  0.00     0.031 A 
ATOM     37  C   UNL A   1      38.161  31.495  31.136  1.00  0.00     0.074 A 
ATOM     38  C   UNL A   1      37.816  33.180  32.916  1.00  0.00     0.049 A 
ATOM     39  N   UNL A   1      39.135  30.788  31.648  1.00  0.00    -0.248 NA
ATOM     40  C   UNL A   1      37.683  30.999  29.834  1.00  0.00     0.031 C 
ATOM     41  C   UNL A   1      37.183  34.310  33.601  1.00  0.00     0.029 A 
ATOM     42  N   UNL A   1      38.797  32.775  33.787  1.00  0.00    -0.354 N 
ATOM     43  C   UNL A   1      39.372  29.758  30.744  1.00  0.00     0.074 A 
ATOM     44  C   UNL A   1      38.398  29.894  29.684  1.00  0.00     0.031 C 
ATOM     45  C   UNL A   1      37.816  34.532  34.764  1.00  0.00     0.029 A 
ATOM     46  C   UNL A   1      38.868  33.535  34.932  1.00  0.00     0.049 A 
ATOM     47  H   UNL A   1      39.393  32.013  33.610  1.00  0.00     0.167 HD
ATOM     48  C   UNL A   1      40.328  28.801  30.777  1.00  0.00     0.031 A 
ATOM     49  C   UNL A   1      39.687  33.441  35.997  1.00  0.00     0.031 A 
ATOM     50  C   UNL A   1      41.302  28.676  31.829  1.00  0.00     0.049 A 
ATOM     51  C   UNL A   1      40.739  32.366  36.016  1.00  0.00     0.074 A 
ATOM     52  C   UNL A   1      42.350  27.780  31.928  1.00  0.00     0.029 A 
ATOM     53  N   UNL A   1      41.343  29.471  32.965  1.00  0.00    -0.354 N 
ATOM     54  N   UNL A   1      40.995  31.448  35.114  1.00  0.00    -0.248 NA
ATOM     55  C   UNL A   1      41.620  32.320  37.191  1.00  0.00     0.031 C 
ATOM     56  C   UNL A   1      42.991  27.994  33.153  1.00  0.00     0.029 A 
ATOM     57  C   UNL A   1      42.383  29.068  33.784  1.00  0.00     0.049 A 
ATOM     58  H   UNL A   1      40.725  30.212  33.160  1.00  0.00     0.167 HD
ATOM     59  C   UNL A   1      42.086  30.735  35.599  1.00  0.00     0.074 A 
ATOM     60  C   UNL A   1      42.449  31.337  36.865  1.00  0.00     0.031 C 
ATOM     61  C   UNL A   1      42.731  29.678  35.044  1.00  0.00     0.031 A 
BRANCH  48  62
ATOM     62  C   UNL A   1      40.362  27.811  29.641  1.00  0.00    -0.014 A 
ATOM     63  C   UNL A   1      41.253  27.970  28.562  1.00  0.00     0.010 A 
ATOM     64  C   UNL A   1      39.510  26.691  29.662  1.00  0.00     0.010 A 
ATOM     65  C   UNL A   1      41.256  27.057  27.504  1.00  0.00     0.020 A 
ATOM     66  C   UNL A   1      39.534  25.757  28.621  1.00  0.00     0.020 A 
ATOM     67  C   UNL A   1      40.394  25.958  27.539  1.00  0.00     0.054 A 
BRANCH  67  68
ATOM     68  S   UNL A   1      40.432  24.781  26.160  1.00  0.00     0.124 S 
ATOM     69  O   UNL A   1      39.020  24.438  26.018  1.00  0.00    -0.237 OA
ATOM     70  O   UNL A   1      40.997  25.580  25.075  1.00  0.00    -0.237 OA
ATOM     71  O   UNL A   1      41.289  23.702  26.647  1.00  0.00    -0.744 OA
ENDBRANCH  67  68
ENDBRANCH  48  62
BRANCH  49  72
ATOM     72  C   UNL A   1      39.561  34.411  37.121  1.00  0.00    -0.014 A 
ATOM     73  C   UNL A   1      38.888  34.053  38.302  1.00  0.00     0.010 A 
ATOM     74  C   UNL A   1      40.134  35.693  37.025  1.00  0.00     0.010 A 
ATOM     75  C   UNL A   1      38.775  34.961  39.359  1.00  0.00     0.020 A 
ATOM     76  C   UNL A   1      40.051  36.594  38.091  1.00  0.00     0.020 A 
ATOM     77  C   UNL A   1      39.363  36.224  39.248  1.00  0.00     0.054 A 
BRANCH  77  78
ATOM     78  S   UNL A   1      39.255  37.364  40.657  1.00  0.00     0.124 S 
ATOM     79  O   UNL A   1      38.676  36.514  41.692  1.00  0.00    -0.237 OA
ATOM     80  O   UNL A   1      40.651  37.747  40.859  1.00  0.00    -0.237 OA
ATOM     81  O   UNL A   1      38.388  38.433  40.166  1.00  0.00    -0.744 OA
ENDBRANCH  77  78
ENDBRANCH  49  72
BRANCH  61  82
ATOM     82  C   UNL A   1      43.919  29.123  35.784  1.00  0.00    -0.014 A 
ATOM     83  C   UNL A   1      43.796  28.019  36.646  1.00  0.00     0.010 A 
ATOM     84  C   UNL A   1      45.191  29.683  35.565  1.00  0.00     0.010 A 
ATOM     85  C   UNL A   1      44.919  27.505  37.299  1.00  0.00     0.020 A 
ATOM     86  C   UNL A   1      46.321  29.152  36.191  1.00  0.00     0.020 A 
ATOM     87  C   UNL A   1      46.175  28.075  37.066  1.00  0.00     0.054 A 
BRANCH  87  88
ATOM     88  S   UNL A   1      47.623  27.360  37.891  1.00  0.00     0.124 S 
ATOM     89  O   UNL A   1      48.327  26.729  36.778  1.00  0.00    -0.237 OA
ATOM     90  O   UNL A   1      48.278  28.535  38.464  1.00  0.00    -0.237 OA
ATOM     91  O   UNL A   1      47.047  26.438  38.867  1.00  0.00    -0.744 OA
ENDBRANCH  87  88
ENDBRANCH  61  82
ENDBRANCH  35  36
ENDBRANCH  27  30
ENDBRANCH  25  26
ENDBRANCH   1  25
TORSDOF 17
ENDMDL
