MODEL 1
REMARK VINA RESULT:      -9.6      0.000      0.000
REMARK SMILES C[C@H]1[C@H](C(=O)NCCCNC(=O)c2ccc(-c3c4nc(c(-c5ccc(S(=O)(=O)[O-])cc5)c5ccc([nH]5)c(-c5ccc(S(=O)(=O)[O-])cc5)c5nc(c(-c6ccc(S(=O)(=O)[O-])cc6)c6ccc3[nH]6)C=C5)C=C4)cc2)CCN1C(=O)[C@](C)([NH3+])C1CC1
REMARK SMILES IDX 8 1 7 2 6 3 4 4 5 5 3 7 1 8 2 9 75 10 73 11 74 12 76 13
REMARK SMILES IDX 77 14 78 15 79 16 80 17 81 21 82 22 83 23 9 24 10 25 11 26
REMARK SMILES IDX 12 28 13 29 14 30 72 31 15 32 71 33 16 34 17 35 18 36 65 37
REMARK SMILES IDX 19 38 70 39 64 40 66 41 20 42 69 43 63 44 62 45 21 47 51 48
REMARK SMILES IDX 32 49 50 50 33 51 36 52 49 53 67 54 34 55 35 56 48 58 68 59
REMARK SMILES IDX 37 60 22 61 23 62 31 63 24 64 30 65 25 66 26 67 27 68 28 69
REMARK SMILES IDX 29 70 52 71 53 72 61 73 54 74 60 75 55 76 56 77 57 78 58 79
REMARK SMILES IDX 59 80 38 81 39 82 47 83 40 84 46 85 41 86 42 87 43 88 44 89
REMARK SMILES IDX 45 90
REMARK H PARENT 6 6 80 18 80 19 80 20 10 27 66 46 36 57
REMARK Flexibility Score: inf
ROOT
ATOM      1  C   UNL A   1      40.934  20.097  26.178  1.00  0.00     0.042 C 
ENDROOT
BRANCH   1   2
ATOM      2  C   UNL A   1      42.386  19.835  26.542  1.00  0.00     0.117 C 
BRANCH   2   3
ATOM      3  N   UNL A   1      43.294  20.165  25.458  1.00  0.00    -0.356 N 
ATOM      4  C   UNL A   1      43.937  21.315  25.131  1.00  0.00     0.225 C 
ATOM      5  O   UNL A   1      44.666  21.283  24.134  1.00  0.00    -0.275 OA
ATOM      6  H   UNL A   1      43.479  19.416  24.847  1.00  0.00     0.163 HD
BRANCH   4   7
ATOM      7  C   UNL A   1      43.785  22.614  25.905  1.00  0.00     0.102 C 
ATOM      8  C   UNL A   1      45.076  23.478  27.873  1.00  0.00     0.032 C 
ATOM      9  C   UNL A   1      45.133  23.200  26.368  1.00  0.00     0.094 C 
ATOM     10  N   UNL A   1      45.273  24.447  25.628  1.00  0.00    -0.334 N 
ATOM     11  C   UNL A   1      43.047  23.729  25.165  1.00  0.00     0.037 C 
ATOM     12  C   UNL A   1      43.956  24.946  25.257  1.00  0.00     0.121 C 
BRANCH  10  13
ATOM     13  C   UNL A   1      46.390  25.164  25.266  1.00  0.00     0.284 C 
ATOM     14  O   UNL A   1      46.948  24.854  24.194  1.00  0.00    -0.268 OA
BRANCH  13  15
ATOM     15  C   UNL A   1      47.004  26.389  26.056  1.00  0.00     0.174 C 
ATOM     16  C   UNL A   1      45.838  27.136  26.718  1.00  0.00     0.090 C 
BRANCH  15  17
ATOM     17  N   UNL A   1      47.522  27.316  24.997  1.00  0.00    -0.345 N 
ATOM     18  H   UNL A   1      48.392  26.945  24.617  1.00  0.00     0.345 HD
ATOM     19  H   UNL A   1      47.692  28.236  25.404  1.00  0.00     0.345 HD
ATOM     20  H   UNL A   1      46.831  27.398  24.250  1.00  0.00     0.345 HD
ENDBRANCH  15  17
BRANCH  15  21
ATOM     21  C   UNL A   1      48.235  26.231  26.938  1.00  0.00     0.060 C 
ATOM     22  C   UNL A   1      48.495  24.920  27.678  1.00  0.00     0.011 C 
ATOM     23  C   UNL A   1      49.481  25.409  26.670  1.00  0.00     0.011 C 
ENDBRANCH  15  21
ENDBRANCH  13  15
ENDBRANCH  10  13
ENDBRANCH   4   7
ENDBRANCH   2   3
ENDBRANCH   1   2
BRANCH   1  24
ATOM     24  C   UNL A   1      40.372  21.415  26.692  1.00  0.00     0.118 C 
BRANCH  24  25
ATOM     25  N   UNL A   1      39.242  21.887  25.910  1.00  0.00    -0.352 N 
ATOM     26  C   UNL A   1      38.586  23.094  25.922  1.00  0.00     0.251 C 
ATOM     27  H   UNL A   1      38.889  21.234  25.264  1.00  0.00     0.163 HD
ATOM     28  O   UNL A   1      37.531  23.200  25.303  1.00  0.00    -0.269 OA
BRANCH  26  29
ATOM     29  C   UNL A   1      39.123  24.249  26.676  1.00  0.00     0.039 A 
ATOM     30  C   UNL A   1      39.945  25.160  26.007  1.00  0.00     0.014 A 
ATOM     31  C   UNL A   1      38.865  24.419  28.040  1.00  0.00     0.014 A 
ATOM     32  C   UNL A   1      40.458  26.267  26.688  1.00  0.00     0.010 A 
ATOM     33  C   UNL A   1      39.312  25.564  28.697  1.00  0.00     0.010 A 
ATOM     34  C   UNL A   1      40.119  26.496  28.031  1.00  0.00    -0.014 A 
BRANCH  34  35
ATOM     35  C   UNL A   1      40.599  27.707  28.745  1.00  0.00     0.031 A 
ATOM     36  C   UNL A   1      41.979  27.742  29.348  1.00  0.00     0.074 A 
ATOM     37  C   UNL A   1      39.771  28.759  28.898  1.00  0.00     0.049 A 
ATOM     38  N   UNL A   1      42.553  28.698  30.036  1.00  0.00    -0.248 NA
ATOM     39  C   UNL A   1      42.812  26.543  29.176  1.00  0.00     0.031 C 
ATOM     40  C   UNL A   1      38.392  28.829  28.408  1.00  0.00     0.029 A 
ATOM     41  N   UNL A   1      39.963  29.969  29.517  1.00  0.00    -0.354 N 
ATOM     42  C   UNL A   1      43.806  28.209  30.389  1.00  0.00     0.074 A 
ATOM     43  C   UNL A   1      43.888  26.855  29.884  1.00  0.00     0.031 C 
ATOM     44  C   UNL A   1      37.874  30.028  28.720  1.00  0.00     0.029 A 
ATOM     45  C   UNL A   1      38.867  30.797  29.462  1.00  0.00     0.049 A 
ATOM     46  H   UNL A   1      40.807  30.220  29.956  1.00  0.00     0.167 HD
ATOM     47  C   UNL A   1      44.807  28.836  31.054  1.00  0.00     0.031 A 
ATOM     48  C   UNL A   1      38.678  32.035  29.957  1.00  0.00     0.031 A 
ATOM     49  C   UNL A   1      44.726  30.185  31.550  1.00  0.00     0.049 A 
ATOM     50  C   UNL A   1      39.804  32.714  30.684  1.00  0.00     0.074 A 
ATOM     51  C   UNL A   1      45.702  30.925  32.194  1.00  0.00     0.029 A 
ATOM     52  N   UNL A   1      43.605  30.996  31.458  1.00  0.00    -0.354 N 
ATOM     53  N   UNL A   1      41.005  32.257  30.954  1.00  0.00    -0.248 NA
ATOM     54  C   UNL A   1      39.557  34.082  31.159  1.00  0.00     0.031 C 
ATOM     55  C   UNL A   1      45.156  32.169  32.531  1.00  0.00     0.029 A 
ATOM     56  C   UNL A   1      43.859  32.224  32.048  1.00  0.00     0.049 A 
ATOM     57  H   UNL A   1      42.755  30.738  31.034  1.00  0.00     0.167 HD
ATOM     58  C   UNL A   1      41.662  33.289  31.615  1.00  0.00     0.074 A 
ATOM     59  C   UNL A   1      40.734  34.400  31.683  1.00  0.00     0.031 C 
ATOM     60  C   UNL A   1      42.920  33.315  32.119  1.00  0.00     0.031 A 
BRANCH  47  61
ATOM     61  C   UNL A   1      46.078  28.059  31.283  1.00  0.00    -0.014 A 
ATOM     62  C   UNL A   1      47.100  28.041  30.316  1.00  0.00     0.010 A 
ATOM     63  C   UNL A   1      46.267  27.362  32.490  1.00  0.00     0.010 A 
ATOM     64  C   UNL A   1      48.265  27.299  30.529  1.00  0.00     0.020 A 
ATOM     65  C   UNL A   1      47.444  26.642  32.719  1.00  0.00     0.020 A 
ATOM     66  C   UNL A   1      48.427  26.600  31.728  1.00  0.00     0.054 A 
BRANCH  66  67
ATOM     67  S   UNL A   1      49.954  25.654  31.983  1.00  0.00     0.124 S 
ATOM     68  O   UNL A   1      50.852  26.672  32.522  1.00  0.00    -0.237 OA
ATOM     69  O   UNL A   1      49.539  24.620  32.927  1.00  0.00    -0.237 OA
ATOM     70  O   UNL A   1      50.290  25.172  30.645  1.00  0.00    -0.744 OA
ENDBRANCH  66  67
ENDBRANCH  47  61
BRANCH  48  71
ATOM     71  C   UNL A   1      37.370  32.716  29.761  1.00  0.00    -0.014 A 
ATOM     72  C   UNL A   1      36.409  32.727  30.788  1.00  0.00     0.010 A 
ATOM     73  C   UNL A   1      37.089  33.383  28.554  1.00  0.00     0.010 A 
ATOM     74  C   UNL A   1      35.186  33.379  30.606  1.00  0.00     0.020 A 
ATOM     75  C   UNL A   1      35.878  34.057  28.379  1.00  0.00     0.020 A 
ATOM     76  C   UNL A   1      34.928  34.042  29.403  1.00  0.00     0.054 A 
BRANCH  76  77
ATOM     77  S   UNL A   1      33.357  34.930  29.212  1.00  0.00     0.124 S 
ATOM     78  O   UNL A   1      32.821  34.892  30.569  1.00  0.00    -0.237 OA
ATOM     79  O   UNL A   1      33.792  36.242  28.739  1.00  0.00    -0.237 OA
ATOM     80  O   UNL A   1      32.631  34.131  28.227  1.00  0.00    -0.744 OA
ENDBRANCH  76  77
ENDBRANCH  48  71
BRANCH  60  81
ATOM     81  C   UNL A   1      43.372  34.594  32.771  1.00  0.00    -0.014 A 
ATOM     82  C   UNL A   1      43.914  35.647  32.011  1.00  0.00     0.010 A 
ATOM     83  C   UNL A   1      43.224  34.757  34.161  1.00  0.00     0.010 A 
ATOM     84  C   UNL A   1      44.338  36.822  32.636  1.00  0.00     0.020 A 
ATOM     85  C   UNL A   1      43.622  35.942  34.785  1.00  0.00     0.020 A 
ATOM     86  C   UNL A   1      44.194  36.961  34.020  1.00  0.00     0.054 A 
BRANCH  86  87
ATOM     87  S   UNL A   1      44.729  38.506  34.805  1.00  0.00     0.124 S 
ATOM     88  O   UNL A   1      46.170  38.303  34.923  1.00  0.00    -0.237 OA
ATOM     89  O   UNL A   1      44.315  39.520  33.838  1.00  0.00    -0.237 OA
ATOM     90  O   UNL A   1      43.996  38.524  36.069  1.00  0.00    -0.744 OA
ENDBRANCH  86  87
ENDBRANCH  60  81
ENDBRANCH  34  35
ENDBRANCH  26  29
ENDBRANCH  24  25
ENDBRANCH   1  24
TORSDOF 17
ENDMDL
MODEL 2
REMARK VINA RESULT:      -9.4      4.396      7.320
REMARK SMILES C[C@H]1[C@H](C(=O)NCCCNC(=O)c2ccc(-c3c4nc(c(-c5ccc(S(=O)(=O)[O-])cc5)c5ccc([nH]5)c(-c5ccc(S(=O)(=O)[O-])cc5)c5nc(c(-c6ccc(S(=O)(=O)[O-])cc6)c6ccc3[nH]6)C=C5)C=C4)cc2)CCN1C(=O)[C@](C)([NH3+])C1CC1
REMARK SMILES IDX 8 1 7 2 6 3 4 4 5 5 3 7 1 8 2 9 75 10 73 11 74 12 76 13
REMARK SMILES IDX 77 14 78 15 79 16 80 17 81 21 82 22 83 23 9 24 10 25 11 26
REMARK SMILES IDX 12 28 13 29 14 30 72 31 15 32 71 33 16 34 17 35 18 36 65 37
REMARK SMILES IDX 19 38 70 39 64 40 66 41 20 42 69 43 63 44 62 45 21 47 51 48
REMARK SMILES IDX 32 49 50 50 33 51 36 52 49 53 67 54 34 55 35 56 48 58 68 59
REMARK SMILES IDX 37 60 22 61 23 62 31 63 24 64 30 65 25 66 26 67 27 68 28 69
REMARK SMILES IDX 29 70 52 71 53 72 61 73 54 74 60 75 55 76 56 77 57 78 58 79
REMARK SMILES IDX 59 80 38 81 39 82 47 83 40 84 46 85 41 86 42 87 43 88 44 89
REMARK SMILES IDX 45 90
REMARK H PARENT 6 6 80 18 80 19 80 20 10 27 66 46 36 57
REMARK Flexibility Score: inf
ROOT
ATOM      1  C   UNL A   1      37.620  23.049  26.149  1.00  0.00     0.042 C 
ENDROOT
BRANCH   1   2
ATOM      2  C   UNL A   1      37.660  22.319  24.816  1.00  0.00     0.117 C 
BRANCH   2   3
ATOM      3  N   UNL A   1      36.734  22.885  23.850  1.00  0.00    -0.356 N 
ATOM      4  C   UNL A   1      35.382  22.826  23.748  1.00  0.00     0.225 C 
ATOM      5  O   UNL A   1      34.867  23.429  22.801  1.00  0.00    -0.275 OA
ATOM      6  H   UNL A   1      37.167  23.409  23.138  1.00  0.00     0.163 HD
BRANCH   4   7
ATOM      7  C   UNL A   1      34.497  22.052  24.711  1.00  0.00     0.102 C 
ATOM      8  C   UNL A   1      34.407  22.106  27.216  1.00  0.00     0.032 C 
ATOM      9  C   UNL A   1      34.072  22.881  25.938  1.00  0.00     0.094 C 
ATOM     10  N   UNL A   1      32.630  23.037  25.803  1.00  0.00    -0.334 N 
ATOM     11  C   UNL A   1      33.220  21.476  24.100  1.00  0.00     0.037 C 
ATOM     12  C   UNL A   1      32.092  21.941  25.009  1.00  0.00     0.121 C 
BRANCH  10  13
ATOM     13  C   UNL A   1      31.774  23.998  26.290  1.00  0.00     0.284 C 
ATOM     14  O   UNL A   1      31.063  23.691  27.267  1.00  0.00    -0.268 OA
BRANCH  13  15
ATOM     15  C   UNL A   1      31.648  25.483  25.759  1.00  0.00     0.174 C 
ATOM     16  C   UNL A   1      32.976  26.191  26.061  1.00  0.00     0.090 C 
BRANCH  15  17
ATOM     17  N   UNL A   1      30.636  26.133  26.656  1.00  0.00    -0.345 N 
ATOM     18  H   UNL A   1      30.747  27.146  26.616  1.00  0.00     0.345 HD
ATOM     19  H   UNL A   1      30.776  25.813  27.614  1.00  0.00     0.345 HD
ATOM     20  H   UNL A   1      29.698  25.881  26.347  1.00  0.00     0.345 HD
ENDBRANCH  15  17
BRANCH  15  21
ATOM     21  C   UNL A   1      31.066  25.791  24.386  1.00  0.00     0.060 C 
ATOM     22  C   UNL A   1      31.737  25.255  23.123  1.00  0.00     0.011 C 
ATOM     23  C   UNL A   1      30.337  24.851  23.445  1.00  0.00     0.011 C 
ENDBRANCH  15  21
ENDBRANCH  13  15
ENDBRANCH  10  13
ENDBRANCH   4   7
ENDBRANCH   2   3
ENDBRANCH   1   2
BRANCH   1  24
ATOM     24  C   UNL A   1      38.504  24.286  26.230  1.00  0.00     0.118 C 
BRANCH  24  25
ATOM     25  N   UNL A   1      39.918  23.972  26.115  1.00  0.00    -0.352 N 
ATOM     26  C   UNL A   1      41.019  24.596  26.650  1.00  0.00     0.251 C 
ATOM     27  H   UNL A   1      40.120  23.183  25.563  1.00  0.00     0.163 HD
ATOM     28  O   UNL A   1      42.135  24.265  26.259  1.00  0.00    -0.269 OA
BRANCH  26  29
ATOM     29  C   UNL A   1      40.877  25.660  27.669  1.00  0.00     0.039 A 
ATOM     30  C   UNL A   1      39.792  25.601  28.549  1.00  0.00     0.014 A 
ATOM     31  C   UNL A   1      41.768  26.734  27.737  1.00  0.00     0.014 A 
ATOM     32  C   UNL A   1      39.636  26.584  29.530  1.00  0.00     0.010 A 
ATOM     33  C   UNL A   1      41.657  27.669  28.765  1.00  0.00     0.010 A 
ATOM     34  C   UNL A   1      40.586  27.609  29.667  1.00  0.00    -0.014 A 
BRANCH  34  35
ATOM     35  C   UNL A   1      40.471  28.619  30.751  1.00  0.00     0.031 A 
ATOM     36  C   UNL A   1      41.338  28.525  31.977  1.00  0.00     0.074 A 
ATOM     37  C   UNL A   1      39.544  29.593  30.654  1.00  0.00     0.049 A 
ATOM     38  N   UNL A   1      41.352  29.294  33.038  1.00  0.00    -0.248 NA
ATOM     39  C   UNL A   1      42.298  27.412  32.032  1.00  0.00     0.031 C 
ATOM     40  C   UNL A   1      38.606  29.762  29.541  1.00  0.00     0.029 A 
ATOM     41  N   UNL A   1      39.233  30.621  31.508  1.00  0.00    -0.354 N 
ATOM     42  C   UNL A   1      42.309  28.751  33.888  1.00  0.00     0.074 A 
ATOM     43  C   UNL A   1      42.817  27.558  33.243  1.00  0.00     0.031 C 
ATOM     44  C   UNL A   1      37.844  30.845  29.768  1.00  0.00     0.029 A 
ATOM     45  C   UNL A   1      38.214  31.425  31.055  1.00  0.00     0.049 A 
ATOM     46  H   UNL A   1      39.697  30.770  32.363  1.00  0.00     0.167 HD
ATOM     47  C   UNL A   1      42.741  29.211  35.086  1.00  0.00     0.031 A 
ATOM     48  C   UNL A   1      37.635  32.506  31.613  1.00  0.00     0.031 A 
ATOM     49  C   UNL A   1      42.240  30.400  35.724  1.00  0.00     0.049 A 
ATOM     50  C   UNL A   1      38.137  33.003  32.939  1.00  0.00     0.074 A 
ATOM     51  C   UNL A   1      42.647  30.976  36.915  1.00  0.00     0.029 A 
ATOM     52  N   UNL A   1      41.221  31.196  35.223  1.00  0.00    -0.354 N 
ATOM     53  N   UNL A   1      39.086  32.510  33.699  1.00  0.00    -0.248 NA
ATOM     54  C   UNL A   1      37.501  34.214  33.476  1.00  0.00     0.031 C 
ATOM     55  C   UNL A   1      41.844  32.096  37.156  1.00  0.00     0.029 A 
ATOM     56  C   UNL A   1      40.973  32.249  36.090  1.00  0.00     0.049 A 
ATOM     57  H   UNL A   1      40.744  31.038  34.377  1.00  0.00     0.167 HD
ATOM     58  C   UNL A   1      39.174  33.361  34.795  1.00  0.00     0.074 A 
ATOM     59  C   UNL A   1      38.197  34.411  34.588  1.00  0.00     0.031 C 
ATOM     60  C   UNL A   1      39.989  33.280  35.875  1.00  0.00     0.031 A 
BRANCH  47  61
ATOM     61  C   UNL A   1      43.815  28.418  35.786  1.00  0.00    -0.014 A 
ATOM     62  C   UNL A   1      45.177  28.707  35.584  1.00  0.00     0.010 A 
ATOM     63  C   UNL A   1      43.461  27.388  36.676  1.00  0.00     0.010 A 
ATOM     64  C   UNL A   1      46.165  27.950  36.220  1.00  0.00     0.020 A 
ATOM     65  C   UNL A   1      44.446  26.648  37.338  1.00  0.00     0.020 A 
ATOM     66  C   UNL A   1      45.792  26.922  37.089  1.00  0.00     0.054 A 
BRANCH  66  67
ATOM     67  S   UNL A   1      47.095  25.962  37.910  1.00  0.00     0.124 S 
ATOM     68  O   UNL A   1      46.802  24.605  37.455  1.00  0.00    -0.237 OA
ATOM     69  O   UNL A   1      48.318  26.553  37.372  1.00  0.00    -0.237 OA
ATOM     70  O   UNL A   1      46.862  26.206  39.331  1.00  0.00    -0.744 OA
ENDBRANCH  66  67
ENDBRANCH  47  61
BRANCH  48  71
ATOM     71  C   UNL A   1      36.526  33.198  30.903  1.00  0.00    -0.014 A 
ATOM     72  C   UNL A   1      35.212  33.140  31.402  1.00  0.00     0.010 A 
ATOM     73  C   UNL A   1      36.783  33.943  29.737  1.00  0.00     0.010 A 
ATOM     74  C   UNL A   1      34.174  33.803  30.740  1.00  0.00     0.020 A 
ATOM     75  C   UNL A   1      35.752  34.627  29.088  1.00  0.00     0.020 A 
ATOM     76  C   UNL A   1      34.451  34.544  29.587  1.00  0.00     0.054 A 
BRANCH  76  77
ATOM     77  S   UNL A   1      33.098  35.443  28.778  1.00  0.00     0.124 S 
ATOM     78  O   UNL A   1      32.369  35.984  29.921  1.00  0.00    -0.237 OA
ATOM     79  O   UNL A   1      33.812  36.420  27.962  1.00  0.00    -0.237 OA
ATOM     80  O   UNL A   1      32.400  34.404  28.024  1.00  0.00    -0.744 OA
ENDBRANCH  76  77
ENDBRANCH  48  71
BRANCH  60  81
ATOM     81  C   UNL A   1      39.873  34.370  36.906  1.00  0.00    -0.014 A 
ATOM     82  C   UNL A   1      40.617  35.560  36.796  1.00  0.00     0.010 A 
ATOM     83  C   UNL A   1      38.982  34.216  37.985  1.00  0.00     0.010 A 
ATOM     84  C   UNL A   1      40.503  36.555  37.769  1.00  0.00     0.020 A 
ATOM     85  C   UNL A   1      38.846  35.222  38.945  1.00  0.00     0.020 A 
ATOM     86  C   UNL A   1      39.622  36.379  38.840  1.00  0.00     0.054 A 
BRANCH  86  87
ATOM     87  S   UNL A   1      39.473  37.697  40.077  1.00  0.00     0.124 S 
ATOM     88  O   UNL A   1      40.735  38.413  39.909  1.00  0.00    -0.237 OA
ATOM     89  O   UNL A   1      38.280  38.416  39.641  1.00  0.00    -0.237 OA
ATOM     90  O   UNL A   1      39.331  36.973  41.339  1.00  0.00    -0.744 OA
ENDBRANCH  86  87
ENDBRANCH  60  81
ENDBRANCH  34  35
ENDBRANCH  26  29
ENDBRANCH  24  25
ENDBRANCH   1  24
TORSDOF 17
ENDMDL
MODEL 3
REMARK VINA RESULT:      -9.4      3.492     10.539
REMARK SMILES C[C@H]1[C@H](C(=O)NCCCNC(=O)c2ccc(-c3c4nc(c(-c5ccc(S(=O)(=O)[O-])cc5)c5ccc([nH]5)c(-c5ccc(S(=O)(=O)[O-])cc5)c5nc(c(-c6ccc(S(=O)(=O)[O-])cc6)c6ccc3[nH]6)C=C5)C=C4)cc2)CCN1C(=O)[C@](C)([NH3+])C1CC1
REMARK SMILES IDX 8 1 7 2 6 3 4 4 5 5 3 7 1 8 2 9 75 10 73 11 74 12 76 13
REMARK SMILES IDX 77 14 78 15 79 16 80 17 81 21 82 22 83 23 9 24 10 25 11 26
REMARK SMILES IDX 12 28 13 29 14 30 72 31 15 32 71 33 16 34 17 35 18 36 65 37
REMARK SMILES IDX 19 38 70 39 64 40 66 41 20 42 69 43 63 44 62 45 21 47 51 48
REMARK SMILES IDX 32 49 50 50 33 51 36 52 49 53 67 54 34 55 35 56 48 58 68 59
REMARK SMILES IDX 37 60 22 61 23 62 31 63 24 64 30 65 25 66 26 67 27 68 28 69
REMARK SMILES IDX 29 70 52 71 53 72 61 73 54 74 60 75 55 76 56 77 57 78 58 79
REMARK SMILES IDX 59 80 38 81 39 82 47 83 40 84 46 85 41 86 42 87 43 88 44 89
REMARK SMILES IDX 45 90
REMARK H PARENT 6 6 80 18 80 19 80 20 10 27 66 46 36 57
REMARK Flexibility Score: inf
ROOT
ATOM      1  C   UNL A   1      32.298  27.642  27.413  1.00  0.00     0.042 C 
ENDROOT
BRANCH   1   2
ATOM      2  C   UNL A   1      31.380  27.042  26.361  1.00  0.00     0.117 C 
BRANCH   2   3
ATOM      3  N   UNL A   1      30.976  25.686  26.691  1.00  0.00    -0.356 N 
ATOM      4  C   UNL A   1      31.208  24.497  26.080  1.00  0.00     0.225 C 
ATOM      5  O   UNL A   1      30.730  23.492  26.615  1.00  0.00    -0.275 OA
ATOM      6  H   UNL A   1      30.435  25.617  27.510  1.00  0.00     0.163 HD
BRANCH   4   7
ATOM      7  C   UNL A   1      31.991  24.353  24.785  1.00  0.00     0.102 C 
ATOM      8  C   UNL A   1      34.331  25.059  24.229  1.00  0.00     0.032 C 
ATOM      9  C   UNL A   1      33.484  24.053  25.014  1.00  0.00     0.094 C 
ATOM     10  N   UNL A   1      33.680  22.708  24.489  1.00  0.00    -0.334 N 
ATOM     11  C   UNL A   1      31.465  23.288  23.823  1.00  0.00     0.037 C 
ATOM     12  C   UNL A   1      32.670  22.426  23.478  1.00  0.00     0.121 C 
BRANCH  10  13
ATOM     13  C   UNL A   1      34.617  21.746  24.790  1.00  0.00     0.284 C 
ATOM     14  O   UNL A   1      34.202  20.592  25.016  1.00  0.00    -0.268 OA
BRANCH  13  15
ATOM     15  C   UNL A   1      36.185  21.956  24.820  1.00  0.00     0.174 C 
ATOM     16  C   UNL A   1      36.599  22.507  23.449  1.00  0.00     0.090 C 
BRANCH  15  17
ATOM     17  N   UNL A   1      36.761  20.572  24.885  1.00  0.00    -0.345 N 
ATOM     18  H   UNL A   1      36.981  20.341  25.854  1.00  0.00     0.345 HD
ATOM     19  H   UNL A   1      37.612  20.532  24.324  1.00  0.00     0.345 HD
ATOM     20  H   UNL A   1      36.082  19.904  24.521  1.00  0.00     0.345 HD
ENDBRANCH  15  17
BRANCH  15  21
ATOM     21  C   UNL A   1      36.876  22.619  26.004  1.00  0.00     0.060 C 
ATOM     22  C   UNL A   1      38.400  22.703  26.063  1.00  0.00     0.011 C 
ATOM     23  C   UNL A   1      37.590  23.957  26.044  1.00  0.00     0.011 C 
ENDBRANCH  15  21
ENDBRANCH  13  15
ENDBRANCH  10  13
ENDBRANCH   4   7
ENDBRANCH   2   3
ENDBRANCH   1   2
BRANCH   1  24
ATOM     24  C   UNL A   1      33.481  28.426  26.860  1.00  0.00     0.118 C 
BRANCH  24  25
ATOM     25  N   UNL A   1      33.399  29.847  27.156  1.00  0.00    -0.352 N 
ATOM     26  C   UNL A   1      34.277  30.676  27.811  1.00  0.00     0.251 C 
ATOM     27  H   UNL A   1      32.581  30.287  26.832  1.00  0.00     0.163 HD
ATOM     28  O   UNL A   1      33.909  31.808  28.112  1.00  0.00    -0.269 OA
BRANCH  26  29
ATOM     29  C   UNL A   1      35.640  30.220  28.168  1.00  0.00     0.039 A 
ATOM     30  C   UNL A   1      36.606  30.152  27.161  1.00  0.00     0.014 A 
ATOM     31  C   UNL A   1      35.962  29.817  29.467  1.00  0.00     0.014 A 
ATOM     32  C   UNL A   1      37.905  29.736  27.468  1.00  0.00     0.010 A 
ATOM     33  C   UNL A   1      37.276  29.480  29.788  1.00  0.00     0.010 A 
ATOM     34  C   UNL A   1      38.259  29.428  28.790  1.00  0.00    -0.014 A 
BRANCH  34  35
ATOM     35  C   UNL A   1      39.654  29.055  29.142  1.00  0.00     0.031 A 
ATOM     36  C   UNL A   1      40.565  30.050  29.810  1.00  0.00     0.074 A 
ATOM     37  C   UNL A   1      40.117  27.834  28.811  1.00  0.00     0.049 A 
ATOM     38  N   UNL A   1      41.820  29.913  30.158  1.00  0.00    -0.248 NA
ATOM     39  C   UNL A   1      40.002  31.377  30.105  1.00  0.00     0.031 C 
ATOM     40  C   UNL A   1      39.351  26.798  28.114  1.00  0.00     0.029 A 
ATOM     41  N   UNL A   1      41.348  27.259  29.008  1.00  0.00    -0.354 N 
ATOM     42  C   UNL A   1      42.200  31.137  30.699  1.00  0.00     0.074 A 
ATOM     43  C   UNL A   1      41.057  32.019  30.586  1.00  0.00     0.031 C 
ATOM     44  C   UNL A   1      40.119  25.706  27.967  1.00  0.00     0.029 A 
ATOM     45  C   UNL A   1      41.440  25.975  28.525  1.00  0.00     0.049 A 
ATOM     46  H   UNL A   1      42.092  27.721  29.455  1.00  0.00     0.167 HD
ATOM     47  C   UNL A   1      43.382  31.491  31.257  1.00  0.00     0.031 A 
ATOM     48  C   UNL A   1      42.473  25.110  28.525  1.00  0.00     0.031 A 
ATOM     49  C   UNL A   1      44.515  30.610  31.375  1.00  0.00     0.049 A 
ATOM     50  C   UNL A   1      43.772  25.521  29.158  1.00  0.00     0.074 A 
ATOM     51  C   UNL A   1      45.741  30.859  31.968  1.00  0.00     0.029 A 
ATOM     52  N   UNL A   1      44.562  29.312  30.890  1.00  0.00    -0.354 N 
ATOM     53  N   UNL A   1      44.091  26.663  29.720  1.00  0.00    -0.248 NA
ATOM     54  C   UNL A   1      44.848  24.520  29.173  1.00  0.00     0.031 C 
ATOM     55  C   UNL A   1      46.544  29.725  31.802  1.00  0.00     0.029 A 
ATOM     56  C   UNL A   1      45.801  28.752  31.155  1.00  0.00     0.049 A 
ATOM     57  H   UNL A   1      43.823  28.855  30.427  1.00  0.00     0.167 HD
ATOM     58  C   UNL A   1      45.397  26.511  30.171  1.00  0.00     0.074 A 
ATOM     59  C   UNL A   1      45.801  25.160  29.836  1.00  0.00     0.031 C 
ATOM     60  C   UNL A   1      46.191  27.409  30.804  1.00  0.00     0.031 A 
BRANCH  47  61
ATOM     61  C   UNL A   1      43.506  32.897  31.784  1.00  0.00    -0.014 A 
ATOM     62  C   UNL A   1      43.959  33.943  30.959  1.00  0.00     0.010 A 
ATOM     63  C   UNL A   1      43.140  33.185  33.111  1.00  0.00     0.010 A 
ATOM     64  C   UNL A   1      44.092  35.239  31.465  1.00  0.00     0.020 A 
ATOM     65  C   UNL A   1      43.243  34.487  33.613  1.00  0.00     0.020 A 
ATOM     66  C   UNL A   1      43.737  35.501  32.790  1.00  0.00     0.054 A 
BRANCH  66  67
ATOM     67  S   UNL A   1      43.910  37.194  33.417  1.00  0.00     0.124 S 
ATOM     68  O   UNL A   1      43.868  37.977  32.185  1.00  0.00    -0.237 OA
ATOM     69  O   UNL A   1      42.747  37.335  34.290  1.00  0.00    -0.237 OA
ATOM     70  O   UNL A   1      45.200  37.181  34.103  1.00  0.00    -0.744 OA
ENDBRANCH  66  67
ENDBRANCH  47  61
BRANCH  48  71
ATOM     71  C   UNL A   1      42.306  23.762  27.919  1.00  0.00    -0.014 A 
ATOM     72  C   UNL A   1      42.899  23.457  26.681  1.00  0.00     0.010 A 
ATOM     73  C   UNL A   1      41.575  22.765  28.591  1.00  0.00     0.010 A 
ATOM     74  C   UNL A   1      42.752  22.185  26.120  1.00  0.00     0.020 A 
ATOM     75  C   UNL A   1      41.448  21.485  28.045  1.00  0.00     0.020 A 
ATOM     76  C   UNL A   1      42.028  21.206  26.807  1.00  0.00     0.054 A 
BRANCH  76  77
ATOM     77  S   UNL A   1      41.900  19.545  26.086  1.00  0.00     0.124 S 
ATOM     78  O   UNL A   1      42.396  18.706  27.172  1.00  0.00    -0.237 OA
ATOM     79  O   UNL A   1      40.472  19.434  25.801  1.00  0.00    -0.237 OA
ATOM     80  O   UNL A   1      42.759  19.618  24.906  1.00  0.00    -0.744 OA
ENDBRANCH  76  77
ENDBRANCH  48  71
BRANCH  60  81
ATOM     81  C   UNL A   1      47.570  26.950  31.196  1.00  0.00    -0.014 A 
ATOM     82  C   UNL A   1      48.687  27.223  30.384  1.00  0.00     0.010 A 
ATOM     83  C   UNL A   1      47.757  26.264  32.411  1.00  0.00     0.010 A 
ATOM     84  C   UNL A   1      49.957  26.780  30.760  1.00  0.00     0.020 A 
ATOM     85  C   UNL A   1      49.030  25.844  32.802  1.00  0.00     0.020 A 
ATOM     86  C   UNL A   1      50.121  26.089  31.964  1.00  0.00     0.054 A 
BRANCH  86  87
ATOM     87  S   UNL A   1      51.784  25.546  32.442  1.00  0.00     0.124 S 
ATOM     88  O   UNL A   1      52.498  25.598  31.169  1.00  0.00    -0.237 OA
ATOM     89  O   UNL A   1      52.181  26.549  33.427  1.00  0.00    -0.237 OA
ATOM     90  O   UNL A   1      51.569  24.204  32.981  1.00  0.00    -0.744 OA
ENDBRANCH  86  87
ENDBRANCH  60  81
ENDBRANCH  34  35
ENDBRANCH  26  29
ENDBRANCH  24  25
ENDBRANCH   1  24
TORSDOF 17
ENDMDL
