MODEL 1
REMARK VINA RESULT:     -11.6      0.000      0.000
REMARK SMILES CCCOC(=O)c1c(NC(=O)[C@@H]2CC=CC[C@H]2C(=O)NCCCNC(=O)c2ccc(-c3c4nc(c(-c5ccc(S(=O)(=O)[O-])cc5)c5ccc([nH]5)c(-c5ccc(S(=O)(=O)[O-])cc5)c5nc(c(-c6ccc(S(=O)(=O)[O-])cc6)c6ccc3[nH]6)C=C5)C=C4)cc2)sc2c1CCCC2
REMARK SMILES IDX 18 1 19 2 20 3 17 5 12 6 13 7 14 8 16 9 15 10 10 11 9 12
REMARK SMILES IDX 11 14 8 15 7 16 89 17 87 18 88 19 90 20 93 21 91 22 92 23
REMARK SMILES IDX 5 24 6 25 4 26 3 27 2 28 1 29 21 30 22 31 23 32 24 33 25 34
REMARK SMILES IDX 26 36 27 37 28 38 86 39 29 40 85 41 30 42 31 43 32 44 79 45
REMARK SMILES IDX 33 46 84 47 78 48 80 49 34 50 83 51 77 52 76 53 35 55 65 56
REMARK SMILES IDX 46 57 64 58 47 59 50 60 63 61 81 62 48 63 49 64 62 66 82 67
REMARK SMILES IDX 51 68 36 69 37 70 45 71 38 72 44 73 39 74 40 75 41 76 42 77
REMARK SMILES IDX 43 78 66 79 67 80 75 81 68 82 74 83 69 84 70 85 71 86 72 87
REMARK SMILES IDX 73 88 52 89 53 90 61 91 54 92 60 93 55 94 56 95 57 96 58 97
REMARK SMILES IDX 59 98
REMARK H PARENT 20 4 9 13 24 35 80 54 50 65
REMARK Flexibility Score: inf
ROOT
ATOM      1  C   UNL A   1      31.740  26.721  23.870  1.00  0.00     0.224 C 
ATOM      2  O   UNL A   1      31.465  26.935  22.686  1.00  0.00    -0.275 OA
ATOM      3  N   UNL A   1      31.534  27.736  24.750  1.00  0.00    -0.356 N 
ATOM      4  H   UNL A   1      31.234  28.576  24.333  1.00  0.00     0.163 HD
ENDROOT
BRANCH   1   5
ATOM      5  C   UNL A   1      32.269  25.353  24.302  1.00  0.00     0.095 C 
ATOM      6  C   UNL A   1      31.105  24.364  24.507  1.00  0.00     0.095 C 
ATOM      7  C   UNL A   1      30.991  23.173  23.560  1.00  0.00     0.041 C 
ATOM      8  C   UNL A   1      32.065  23.048  22.533  1.00  0.00    -0.030 C 
ATOM      9  C   UNL A   1      33.432  24.946  23.383  1.00  0.00     0.041 C 
ATOM     10  C   UNL A   1      33.171  23.795  22.475  1.00  0.00    -0.030 C 
BRANCH   6  11
ATOM     11  C   UNL A   1      30.915  23.881  25.942  1.00  0.00     0.229 C 
ATOM     12  N   UNL A   1      31.345  22.653  26.385  1.00  0.00    -0.317 N 
ATOM     13  H   UNL A   1      30.718  22.076  26.879  1.00  0.00     0.170 HD
ATOM     14  O   UNL A   1      30.284  24.578  26.745  1.00  0.00    -0.274 OA
BRANCH  12  15
ATOM     15  C   UNL A   1      32.628  22.209  26.158  1.00  0.00     0.110 A 
ATOM     16  C   UNL A   1      33.225  21.097  25.584  1.00  0.00     0.098 A 
ATOM     17  C   UNL A   1      34.675  21.361  25.497  1.00  0.00    -0.017 A 
ATOM     18  S   UNL A   1      33.746  23.307  26.854  1.00  0.00    -0.122 S 
ATOM     19  C   UNL A   1      35.047  22.553  26.088  1.00  0.00     0.011 A 
ATOM     20  C   UNL A   1      35.705  20.510  24.797  1.00  0.00     0.038 C 
ATOM     21  C   UNL A   1      36.430  23.130  26.133  1.00  0.00     0.047 C 
ATOM     22  C   UNL A   1      37.138  20.877  25.207  1.00  0.00     0.005 C 
ATOM     23  C   UNL A   1      37.366  22.391  25.168  1.00  0.00     0.006 C 
BRANCH  16  24
ATOM     24  C   UNL A   1      32.630  19.850  25.047  1.00  0.00     0.341 C 
ATOM     25  O   UNL A   1      32.226  19.806  23.887  1.00  0.00    -0.246 OA
BRANCH  24  26
ATOM     26  O   UNL A   1      32.571  18.735  25.867  1.00  0.00    -0.462 OA
BRANCH  26  27
ATOM     27  C   UNL A   1      32.737  17.519  25.093  1.00  0.00     0.233 C 
BRANCH  27  28
ATOM     28  C   UNL A   1      34.163  17.213  24.616  1.00  0.00     0.038 C 
ATOM     29  C   UNL A   1      34.292  16.464  23.294  1.00  0.00     0.007 C 
ENDBRANCH  27  28
ENDBRANCH  26  27
ENDBRANCH  24  26
ENDBRANCH  16  24
ENDBRANCH  12  15
ENDBRANCH   6  11
ENDBRANCH   1   5
BRANCH   3  30
ATOM     30  C   UNL A   1      31.677  27.805  26.189  1.00  0.00     0.117 C 
BRANCH  30  31
ATOM     31  C   UNL A   1      33.010  27.286  26.688  1.00  0.00     0.042 C 
BRANCH  31  32
ATOM     32  C   UNL A   1      34.129  28.274  26.449  1.00  0.00     0.118 C 
BRANCH  32  33
ATOM     33  N   UNL A   1      33.753  29.628  26.838  1.00  0.00    -0.352 N 
ATOM     34  C   UNL A   1      34.389  30.493  27.692  1.00  0.00     0.251 C 
ATOM     35  H   UNL A   1      32.925  29.970  26.429  1.00  0.00     0.163 HD
ATOM     36  O   UNL A   1      33.825  31.494  28.091  1.00  0.00    -0.269 OA
BRANCH  34  37
ATOM     37  C   UNL A   1      35.763  30.164  28.111  1.00  0.00     0.039 A 
ATOM     38  C   UNL A   1      35.977  29.628  29.379  1.00  0.00     0.014 A 
ATOM     39  C   UNL A   1      36.823  30.358  27.222  1.00  0.00     0.014 A 
ATOM     40  C   UNL A   1      37.266  29.247  29.739  1.00  0.00     0.010 A 
ATOM     41  C   UNL A   1      38.075  29.863  27.533  1.00  0.00     0.010 A 
ATOM     42  C   UNL A   1      38.315  29.339  28.809  1.00  0.00    -0.014 A 
BRANCH  42  43
ATOM     43  C   UNL A   1      39.694  28.948  29.169  1.00  0.00     0.031 A 
ATOM     44  C   UNL A   1      40.569  29.926  29.907  1.00  0.00     0.074 A 
ATOM     45  C   UNL A   1      40.161  27.745  28.790  1.00  0.00     0.049 A 
ATOM     46  N   UNL A   1      41.808  29.788  30.296  1.00  0.00    -0.248 NA
ATOM     47  C   UNL A   1      39.989  31.247  30.216  1.00  0.00     0.031 C 
ATOM     48  C   UNL A   1      39.415  26.750  28.013  1.00  0.00     0.029 A 
ATOM     49  N   UNL A   1      41.375  27.151  29.012  1.00  0.00    -0.354 N 
ATOM     50  C   UNL A   1      42.157  31.004  30.873  1.00  0.00     0.074 A 
ATOM     51  C   UNL A   1      41.030  31.892  30.719  1.00  0.00     0.031 C 
ATOM     52  C   UNL A   1      40.172  25.650  27.868  1.00  0.00     0.029 A 
ATOM     53  C   UNL A   1      41.464  25.876  28.506  1.00  0.00     0.049 A 
ATOM     54  H   UNL A   1      42.113  27.595  29.490  1.00  0.00     0.167 HD
ATOM     55  C   UNL A   1      43.304  31.340  31.507  1.00  0.00     0.031 A 
ATOM     56  C   UNL A   1      42.474  24.989  28.564  1.00  0.00     0.031 A 
ATOM     57  C   UNL A   1      44.406  30.435  31.680  1.00  0.00     0.049 A 
ATOM     58  C   UNL A   1      43.729  25.375  29.298  1.00  0.00     0.074 A 
ATOM     59  C   UNL A   1      45.593  30.642  32.359  1.00  0.00     0.029 A 
ATOM     60  N   UNL A   1      44.451  29.145  31.173  1.00  0.00    -0.354 N 
ATOM     61  N   UNL A   1      44.015  26.505  29.902  1.00  0.00    -0.248 NA
ATOM     62  C   UNL A   1      44.788  24.362  29.372  1.00  0.00     0.031 C 
ATOM     63  C   UNL A   1      46.375  29.491  32.223  1.00  0.00     0.029 A 
ATOM     64  C   UNL A   1      45.652  28.548  31.509  1.00  0.00     0.049 A 
ATOM     65  H   UNL A   1      43.734  28.717  30.651  1.00  0.00     0.167 HD
ATOM     66  C   UNL A   1      45.280  26.328  30.452  1.00  0.00     0.074 A 
ATOM     67  C   UNL A   1      45.691  24.978  30.123  1.00  0.00     0.031 C 
ATOM     68  C   UNL A   1      46.034  27.202  31.165  1.00  0.00     0.031 A 
BRANCH  55  69
ATOM     69  C   UNL A   1      43.408  32.735  32.063  1.00  0.00    -0.014 A 
ATOM     70  C   UNL A   1      42.829  33.069  33.301  1.00  0.00     0.010 A 
ATOM     71  C   UNL A   1      44.110  33.723  31.349  1.00  0.00     0.010 A 
ATOM     72  C   UNL A   1      42.912  34.373  33.795  1.00  0.00     0.020 A 
ATOM     73  C   UNL A   1      44.223  35.021  31.855  1.00  0.00     0.020 A 
ATOM     74  C   UNL A   1      43.608  35.342  33.067  1.00  0.00     0.054 A 
BRANCH  74  75
ATOM     75  S   UNL A   1      43.725  37.019  33.746  1.00  0.00     0.124 S 
ATOM     76  O   UNL A   1      42.589  37.052  34.664  1.00  0.00    -0.237 OA
ATOM     77  O   UNL A   1      45.042  37.018  34.378  1.00  0.00    -0.237 OA
ATOM     78  O   UNL A   1      43.602  37.879  32.571  1.00  0.00    -0.744 OA
ENDBRANCH  74  75
ENDBRANCH  55  69
BRANCH  56  79
ATOM     79  C   UNL A   1      42.321  23.645  27.945  1.00  0.00    -0.014 A 
ATOM     80  C   UNL A   1      42.740  23.417  26.622  1.00  0.00     0.010 A 
ATOM     81  C   UNL A   1      41.777  22.578  28.681  1.00  0.00     0.010 A 
ATOM     82  C   UNL A   1      42.595  22.155  26.040  1.00  0.00     0.020 A 
ATOM     83  C   UNL A   1      41.656  21.308  28.112  1.00  0.00     0.020 A 
ATOM     84  C   UNL A   1      42.053  21.107  26.789  1.00  0.00     0.054 A 
BRANCH  84  85
ATOM     85  S   UNL A   1      41.916  19.466  26.028  1.00  0.00     0.124 S 
ATOM     86  O   UNL A   1      42.787  19.597  24.864  1.00  0.00    -0.237 OA
ATOM     87  O   UNL A   1      42.402  18.585  27.088  1.00  0.00    -0.237 OA
ATOM     88  O   UNL A   1      40.490  19.344  25.735  1.00  0.00    -0.744 OA
ENDBRANCH  84  85
ENDBRANCH  56  79
BRANCH  68  89
ATOM     89  C   UNL A   1      47.366  26.710  31.661  1.00  0.00    -0.014 A 
ATOM     90  C   UNL A   1      47.482  26.043  32.893  1.00  0.00     0.010 A 
ATOM     91  C   UNL A   1      48.507  26.878  30.857  1.00  0.00     0.010 A 
ATOM     92  C   UNL A   1      48.728  25.588  33.330  1.00  0.00     0.020 A 
ATOM     93  C   UNL A   1      49.748  26.398  31.277  1.00  0.00     0.020 A 
ATOM     94  C   UNL A   1      49.853  25.771  32.520  1.00  0.00     0.054 A 
BRANCH  94  95
ATOM     95  S   UNL A   1      51.454  25.143  33.096  1.00  0.00     0.124 S 
ATOM     96  O   UNL A   1      51.766  24.137  32.083  1.00  0.00    -0.237 OA
ATOM     97  O   UNL A   1      52.293  26.338  33.075  1.00  0.00    -0.237 OA
ATOM     98  O   UNL A   1      51.160  24.617  34.427  1.00  0.00    -0.744 OA
ENDBRANCH  94  95
ENDBRANCH  68  89
ENDBRANCH  42  43
ENDBRANCH  34  37
ENDBRANCH  32  33
ENDBRANCH  31  32
ENDBRANCH  30  31
ENDBRANCH   3  30
TORSDOF 19
ENDMDL
MODEL 2
REMARK VINA RESULT:     -11.5      2.138      2.789
REMARK SMILES CCCOC(=O)c1c(NC(=O)[C@@H]2CC=CC[C@H]2C(=O)NCCCNC(=O)c2ccc(-c3c4nc(c(-c5ccc(S(=O)(=O)[O-])cc5)c5ccc([nH]5)c(-c5ccc(S(=O)(=O)[O-])cc5)c5nc(c(-c6ccc(S(=O)(=O)[O-])cc6)c6ccc3[nH]6)C=C5)C=C4)cc2)sc2c1CCCC2
REMARK SMILES IDX 18 1 19 2 20 3 17 5 12 6 13 7 14 8 16 9 15 10 10 11 9 12
REMARK SMILES IDX 11 14 8 15 7 16 89 17 87 18 88 19 90 20 93 21 91 22 92 23
REMARK SMILES IDX 5 24 6 25 4 26 3 27 2 28 1 29 21 30 22 31 23 32 24 33 25 34
REMARK SMILES IDX 26 36 27 37 28 38 86 39 29 40 85 41 30 42 31 43 32 44 79 45
REMARK SMILES IDX 33 46 84 47 78 48 80 49 34 50 83 51 77 52 76 53 35 55 65 56
REMARK SMILES IDX 46 57 64 58 47 59 50 60 63 61 81 62 48 63 49 64 62 66 82 67
REMARK SMILES IDX 51 68 36 69 37 70 45 71 38 72 44 73 39 74 40 75 41 76 42 77
REMARK SMILES IDX 43 78 66 79 67 80 75 81 68 82 74 83 69 84 70 85 71 86 72 87
REMARK SMILES IDX 73 88 52 89 53 90 61 91 54 92 60 93 55 94 56 95 57 96 58 97
REMARK SMILES IDX 59 98
REMARK H PARENT 20 4 9 13 24 35 80 54 50 65
REMARK Flexibility Score: inf
ROOT
ATOM      1  C   UNL A   1      31.726  26.700  24.156  1.00  0.00     0.224 C 
ATOM      2  O   UNL A   1      31.288  26.915  23.022  1.00  0.00    -0.275 OA
ATOM      3  N   UNL A   1      31.657  27.717  25.054  1.00  0.00    -0.356 N 
ATOM      4  H   UNL A   1      31.308  28.559  24.683  1.00  0.00     0.163 HD
ENDROOT
BRANCH   1   5
ATOM      5  C   UNL A   1      32.299  25.326  24.510  1.00  0.00     0.095 C 
ATOM      6  C   UNL A   1      31.169  24.286  24.639  1.00  0.00     0.095 C 
ATOM      7  C   UNL A   1      31.109  23.153  23.619  1.00  0.00     0.041 C 
ATOM      8  C   UNL A   1      32.198  23.129  22.601  1.00  0.00    -0.030 C 
ATOM      9  C   UNL A   1      33.486  25.019  23.583  1.00  0.00     0.041 C 
ATOM     10  C   UNL A   1      33.277  23.917  22.603  1.00  0.00    -0.030 C 
BRANCH   6  11
ATOM     11  C   UNL A   1      30.980  23.709  26.039  1.00  0.00     0.229 C 
ATOM     12  N   UNL A   1      31.428  22.463  26.405  1.00  0.00    -0.317 N 
ATOM     13  H   UNL A   1      30.809  21.845  26.856  1.00  0.00     0.170 HD
ATOM     14  O   UNL A   1      30.335  24.344  26.881  1.00  0.00    -0.274 OA
BRANCH  12  15
ATOM     15  C   UNL A   1      32.719  22.054  26.157  1.00  0.00     0.110 A 
ATOM     16  C   UNL A   1      33.336  20.989  25.521  1.00  0.00     0.098 A 
ATOM     17  C   UNL A   1      34.782  21.281  25.455  1.00  0.00    -0.017 A 
ATOM     18  S   UNL A   1      33.816  23.128  26.921  1.00  0.00    -0.122 S 
ATOM     19  C   UNL A   1      35.132  22.442  26.116  1.00  0.00     0.011 A 
ATOM     20  C   UNL A   1      35.829  20.491  24.710  1.00  0.00     0.038 C 
ATOM     21  C   UNL A   1      36.504  23.039  26.200  1.00  0.00     0.047 C 
ATOM     22  C   UNL A   1      37.253  20.857  25.147  1.00  0.00     0.005 C 
ATOM     23  C   UNL A   1      37.456  22.374  25.197  1.00  0.00     0.006 C 
BRANCH  16  24
ATOM     24  C   UNL A   1      32.764  19.766  24.909  1.00  0.00     0.341 C 
ATOM     25  O   UNL A   1      32.466  19.750  23.716  1.00  0.00    -0.246 OA
BRANCH  24  26
ATOM     26  O   UNL A   1      32.606  18.638  25.699  1.00  0.00    -0.462 OA
BRANCH  26  27
ATOM     27  C   UNL A   1      32.289  17.481  24.884  1.00  0.00     0.233 C 
BRANCH  27  28
ATOM     28  C   UNL A   1      33.447  16.511  24.611  1.00  0.00     0.038 C 
ATOM     29  C   UNL A   1      34.225  16.728  23.318  1.00  0.00     0.007 C 
ENDBRANCH  27  28
ENDBRANCH  26  27
ENDBRANCH  24  26
ENDBRANCH  16  24
ENDBRANCH  12  15
ENDBRANCH   6  11
ENDBRANCH   1   5
BRANCH   3  30
ATOM     30  C   UNL A   1      32.003  27.785  26.459  1.00  0.00     0.117 C 
BRANCH  30  31
ATOM     31  C   UNL A   1      33.494  27.708  26.716  1.00  0.00     0.042 C 
BRANCH  31  32
ATOM     32  C   UNL A   1      34.248  28.816  26.018  1.00  0.00     0.118 C 
BRANCH  32  33
ATOM     33  N   UNL A   1      33.841  30.134  26.490  1.00  0.00    -0.352 N 
ATOM     34  C   UNL A   1      34.333  30.870  27.539  1.00  0.00     0.251 C 
ATOM     35  H   UNL A   1      33.109  30.556  25.985  1.00  0.00     0.163 HD
ATOM     36  O   UNL A   1      33.731  31.844  27.946  1.00  0.00    -0.269 OA
BRANCH  34  37
ATOM     37  C   UNL A   1      35.600  30.435  28.152  1.00  0.00     0.039 A 
ATOM     38  C   UNL A   1      36.804  30.908  27.633  1.00  0.00     0.014 A 
ATOM     39  C   UNL A   1      35.578  29.589  29.263  1.00  0.00     0.014 A 
ATOM     40  C   UNL A   1      37.993  30.557  28.264  1.00  0.00     0.010 A 
ATOM     41  C   UNL A   1      36.746  29.347  29.961  1.00  0.00     0.010 A 
ATOM     42  C   UNL A   1      37.968  29.796  29.445  1.00  0.00    -0.014 A 
BRANCH  42  43
ATOM     43  C   UNL A   1      39.217  29.403  30.131  1.00  0.00     0.031 A 
ATOM     44  C   UNL A   1      39.620  30.116  31.394  1.00  0.00     0.074 A 
ATOM     45  C   UNL A   1      39.997  28.451  29.588  1.00  0.00     0.049 A 
ATOM     46  N   UNL A   1      40.682  29.937  32.133  1.00  0.00    -0.248 NA
ATOM     47  C   UNL A   1      38.734  31.194  31.870  1.00  0.00     0.031 C 
ATOM     48  C   UNL A   1      39.729  27.746  28.331  1.00  0.00     0.029 A 
ATOM     49  N   UNL A   1      41.173  27.906  30.031  1.00  0.00    -0.354 N 
ATOM     50  C   UNL A   1      40.599  30.891  33.142  1.00  0.00     0.074 A 
ATOM     51  C   UNL A   1      39.427  31.692  32.881  1.00  0.00     0.031 C 
ATOM     52  C   UNL A   1      40.688  26.827  28.130  1.00  0.00     0.029 A 
ATOM     53  C   UNL A   1      41.653  26.905  29.222  1.00  0.00     0.049 A 
ATOM     54  H   UNL A   1      41.630  28.203  30.851  1.00  0.00     0.167 HD
ATOM     55  C   UNL A   1      41.410  31.061  34.212  1.00  0.00     0.031 A 
ATOM     56  C   UNL A   1      42.746  26.130  29.355  1.00  0.00     0.031 A 
ATOM     57  C   UNL A   1      42.556  30.237  34.475  1.00  0.00     0.049 A 
ATOM     58  C   UNL A   1      43.617  26.320  30.567  1.00  0.00     0.074 A 
ATOM     59  C   UNL A   1      43.414  30.274  35.559  1.00  0.00     0.029 A 
ATOM     60  N   UNL A   1      42.998  29.218  33.644  1.00  0.00    -0.354 N 
ATOM     61  N   UNL A   1      43.484  27.178  31.551  1.00  0.00    -0.248 NA
ATOM     62  C   UNL A   1      44.774  25.426  30.694  1.00  0.00     0.031 C 
ATOM     63  C   UNL A   1      44.404  29.306  35.359  1.00  0.00     0.029 A 
ATOM     64  C   UNL A   1      44.128  28.629  34.181  1.00  0.00     0.049 A 
ATOM     65  H   UNL A   1      42.571  28.952  32.797  1.00  0.00     0.167 HD
ATOM     66  C   UNL A   1      44.527  26.910  32.430  1.00  0.00     0.074 A 
ATOM     67  C   UNL A   1      45.268  25.798  31.867  1.00  0.00     0.031 C 
ATOM     68  C   UNL A   1      44.845  27.524  33.596  1.00  0.00     0.031 A 
BRANCH  55  69
ATOM     69  C   UNL A   1      41.071  32.171  35.171  1.00  0.00    -0.014 A 
ATOM     70  C   UNL A   1      41.638  33.452  35.030  1.00  0.00     0.010 A 
ATOM     71  C   UNL A   1      40.159  31.940  36.216  1.00  0.00     0.010 A 
ATOM     72  C   UNL A   1      41.333  34.467  35.940  1.00  0.00     0.020 A 
ATOM     73  C   UNL A   1      39.827  32.962  37.110  1.00  0.00     0.020 A 
ATOM     74  C   UNL A   1      40.430  34.213  36.977  1.00  0.00     0.054 A 
BRANCH  74  75
ATOM     75  S   UNL A   1      40.030  35.558  38.126  1.00  0.00     0.124 S 
ATOM     76  O   UNL A   1      39.785  36.672  37.213  1.00  0.00    -0.237 OA
ATOM     77  O   UNL A   1      38.852  35.047  38.822  1.00  0.00    -0.237 OA
ATOM     78  O   UNL A   1      41.232  35.680  38.949  1.00  0.00    -0.744 OA
ENDBRANCH  74  75
ENDBRANCH  55  69
BRANCH  56  79
ATOM     79  C   UNL A   1      43.049  25.087  28.339  1.00  0.00    -0.014 A 
ATOM     80  C   UNL A   1      42.482  23.805  28.442  1.00  0.00     0.010 A 
ATOM     81  C   UNL A   1      43.889  25.376  27.250  1.00  0.00     0.010 A 
ATOM     82  C   UNL A   1      42.768  22.824  27.489  1.00  0.00     0.020 A 
ATOM     83  C   UNL A   1      44.156  24.407  26.278  1.00  0.00     0.020 A 
ATOM     84  C   UNL A   1      43.604  23.132  26.411  1.00  0.00     0.054 A 
BRANCH  84  85
ATOM     85  S   UNL A   1      43.926  21.858  25.160  1.00  0.00     0.124 S 
ATOM     86  O   UNL A   1      42.851  20.904  25.414  1.00  0.00    -0.237 OA
ATOM     87  O   UNL A   1      43.825  22.609  23.912  1.00  0.00    -0.237 OA
ATOM     88  O   UNL A   1      45.270  21.389  25.489  1.00  0.00    -0.744 OA
ENDBRANCH  84  85
ENDBRANCH  56  79
BRANCH  68  89
ATOM     89  C   UNL A   1      46.028  26.986  34.353  1.00  0.00    -0.014 A 
ATOM     90  C   UNL A   1      45.902  25.874  35.204  1.00  0.00     0.010 A 
ATOM     91  C   UNL A   1      47.291  27.576  34.170  1.00  0.00     0.010 A 
ATOM     92  C   UNL A   1      47.015  25.386  35.891  1.00  0.00     0.020 A 
ATOM     93  C   UNL A   1      48.411  27.071  34.833  1.00  0.00     0.020 A 
ATOM     94  C   UNL A   1      48.263  25.990  35.703  1.00  0.00     0.054 A 
BRANCH  94  95
ATOM     95  S   UNL A   1      49.699  25.318  36.583  1.00  0.00     0.124 S 
ATOM     96  O   UNL A   1      49.282  23.941  36.834  1.00  0.00    -0.237 OA
ATOM     97  O   UNL A   1      50.776  25.481  35.609  1.00  0.00    -0.237 OA
ATOM     98  O   UNL A   1      49.805  26.164  37.769  1.00  0.00    -0.744 OA
ENDBRANCH  94  95
ENDBRANCH  68  89
ENDBRANCH  42  43
ENDBRANCH  34  37
ENDBRANCH  32  33
ENDBRANCH  31  32
ENDBRANCH  30  31
ENDBRANCH   3  30
TORSDOF 19
ENDMDL
MODEL 3
REMARK VINA RESULT:     -11.2      2.804      9.518
REMARK SMILES CCCOC(=O)c1c(NC(=O)[C@@H]2CC=CC[C@H]2C(=O)NCCCNC(=O)c2ccc(-c3c4nc(c(-c5ccc(S(=O)(=O)[O-])cc5)c5ccc([nH]5)c(-c5ccc(S(=O)(=O)[O-])cc5)c5nc(c(-c6ccc(S(=O)(=O)[O-])cc6)c6ccc3[nH]6)C=C5)C=C4)cc2)sc2c1CCCC2
REMARK SMILES IDX 18 1 19 2 20 3 17 5 12 6 13 7 14 8 16 9 15 10 10 11 9 12
REMARK SMILES IDX 11 14 8 15 7 16 89 17 87 18 88 19 90 20 93 21 91 22 92 23
REMARK SMILES IDX 5 24 6 25 4 26 3 27 2 28 1 29 21 30 22 31 23 32 24 33 25 34
REMARK SMILES IDX 26 36 27 37 28 38 86 39 29 40 85 41 30 42 31 43 32 44 79 45
REMARK SMILES IDX 33 46 84 47 78 48 80 49 34 50 83 51 77 52 76 53 35 55 65 56
REMARK SMILES IDX 46 57 64 58 47 59 50 60 63 61 81 62 48 63 49 64 62 66 82 67
REMARK SMILES IDX 51 68 36 69 37 70 45 71 38 72 44 73 39 74 40 75 41 76 42 77
REMARK SMILES IDX 43 78 66 79 67 80 75 81 68 82 74 83 69 84 70 85 71 86 72 87
REMARK SMILES IDX 73 88 52 89 53 90 61 91 54 92 60 93 55 94 56 95 57 96 58 97
REMARK SMILES IDX 59 98
REMARK H PARENT 20 4 9 13 24 35 80 54 50 65
REMARK Flexibility Score: inf
ROOT
ATOM      1  C   UNL A   1      32.520  23.117  23.961  1.00  0.00     0.224 C 
ATOM      2  O   UNL A   1      31.505  22.433  23.805  1.00  0.00    -0.275 OA
ATOM      3  N   UNL A   1      33.711  22.465  24.000  1.00  0.00    -0.356 N 
ATOM      4  H   UNL A   1      33.636  21.485  23.956  1.00  0.00     0.163 HD
ENDROOT
BRANCH   1   5
ATOM      5  C   UNL A   1      32.410  24.638  24.083  1.00  0.00     0.095 C 
ATOM      6  C   UNL A   1      31.485  25.203  22.987  1.00  0.00     0.095 C 
ATOM      7  C   UNL A   1      30.163  25.837  23.411  1.00  0.00     0.041 C 
ATOM      8  C   UNL A   1      29.906  25.895  24.879  1.00  0.00    -0.030 C 
ATOM      9  C   UNL A   1      32.134  25.010  25.549  1.00  0.00     0.041 C 
ATOM     10  C   UNL A   1      30.786  25.577  25.832  1.00  0.00    -0.030 C 
BRANCH   6  11
ATOM     11  C   UNL A   1      32.171  26.110  21.970  1.00  0.00     0.229 C 
ATOM     12  N   UNL A   1      32.041  27.478  21.974  1.00  0.00    -0.317 N 
ATOM     13  H   UNL A   1      31.802  27.939  21.138  1.00  0.00     0.170 HD
ATOM     14  O   UNL A   1      32.821  25.611  21.043  1.00  0.00    -0.274 OA
BRANCH  12  15
ATOM     15  C   UNL A   1      32.237  28.221  23.117  1.00  0.00     0.110 A 
ATOM     16  C   UNL A   1      31.500  29.114  23.879  1.00  0.00     0.098 A 
ATOM     17  C   UNL A   1      32.267  29.393  25.110  1.00  0.00    -0.017 A 
ATOM     18  S   UNL A   1      33.851  28.022  23.660  1.00  0.00    -0.122 S 
ATOM     19  C   UNL A   1      33.513  28.797  25.120  1.00  0.00     0.011 A 
ATOM     20  C   UNL A   1      31.793  30.177  26.308  1.00  0.00     0.038 C 
ATOM     21  C   UNL A   1      34.514  28.848  26.235  1.00  0.00     0.047 C 
ATOM     22  C   UNL A   1      32.949  30.575  27.236  1.00  0.00     0.005 C 
ATOM     23  C   UNL A   1      33.879  29.392  27.521  1.00  0.00     0.006 C 
BRANCH  16  24
ATOM     24  C   UNL A   1      30.156  29.696  23.654  1.00  0.00     0.341 C 
ATOM     25  O   UNL A   1      29.883  30.813  24.091  1.00  0.00    -0.246 OA
BRANCH  24  26
ATOM     26  O   UNL A   1      29.232  28.972  22.917  1.00  0.00    -0.462 OA
BRANCH  26  27
ATOM     27  C   UNL A   1      28.046  29.767  22.659  1.00  0.00     0.233 C 
BRANCH  27  28
ATOM     28  C   UNL A   1      27.988  30.467  21.295  1.00  0.00     0.038 C 
ATOM     29  C   UNL A   1      28.339  31.951  21.277  1.00  0.00     0.007 C 
ENDBRANCH  27  28
ENDBRANCH  26  27
ENDBRANCH  24  26
ENDBRANCH  16  24
ENDBRANCH  12  15
ENDBRANCH   6  11
ENDBRANCH   1   5
BRANCH   3  30
ATOM     30  C   UNL A   1      35.072  22.952  24.096  1.00  0.00     0.117 C 
BRANCH  30  31
ATOM     31  C   UNL A   1      35.504  23.257  25.515  1.00  0.00     0.042 C 
BRANCH  31  32
ATOM     32  C   UNL A   1      36.857  23.930  25.565  1.00  0.00     0.118 C 
BRANCH  32  33
ATOM     33  N   UNL A   1      37.943  22.964  25.673  1.00  0.00    -0.352 N 
ATOM     34  C   UNL A   1      39.221  23.144  26.138  1.00  0.00     0.251 C 
ATOM     35  H   UNL A   1      37.729  22.052  25.369  1.00  0.00     0.163 HD
ATOM     36  O   UNL A   1      40.074  22.299  25.944  1.00  0.00    -0.269 OA
BRANCH  34  37
ATOM     37  C   UNL A   1      39.522  24.390  26.865  1.00  0.00     0.039 A 
ATOM     38  C   UNL A   1      39.090  24.529  28.182  1.00  0.00     0.014 A 
ATOM     39  C   UNL A   1      40.265  25.394  26.240  1.00  0.00     0.014 A 
ATOM     40  C   UNL A   1      39.443  25.675  28.888  1.00  0.00     0.010 A 
ATOM     41  C   UNL A   1      40.721  26.468  26.981  1.00  0.00     0.010 A 
ATOM     42  C   UNL A   1      40.282  26.637  28.300  1.00  0.00    -0.014 A 
BRANCH  42  43
ATOM     43  C   UNL A   1      40.666  27.865  29.026  1.00  0.00     0.031 A 
ATOM     44  C   UNL A   1      42.029  27.952  29.659  1.00  0.00     0.074 A 
ATOM     45  C   UNL A   1      39.775  28.865  29.151  1.00  0.00     0.049 A 
ATOM     46  N   UNL A   1      42.551  28.927  30.353  1.00  0.00    -0.248 NA
ATOM     47  C   UNL A   1      42.908  26.775  29.526  1.00  0.00     0.031 C 
ATOM     48  C   UNL A   1      38.404  28.853  28.631  1.00  0.00     0.029 A 
ATOM     49  N   UNL A   1      39.892  30.091  29.750  1.00  0.00    -0.354 N 
ATOM     50  C   UNL A   1      43.803  28.473  30.754  1.00  0.00     0.074 A 
ATOM     51  C   UNL A   1      43.934  27.112  30.291  1.00  0.00     0.031 C 
ATOM     52  C   UNL A   1      37.825  30.037  28.892  1.00  0.00     0.029 A 
ATOM     53  C   UNL A   1      38.769  30.873  29.626  1.00  0.00     0.049 A 
ATOM     54  H   UNL A   1      40.704  30.385  30.223  1.00  0.00     0.167 HD
ATOM     55  C   UNL A   1      44.772  29.143  31.419  1.00  0.00     0.031 A 
ATOM     56  C   UNL A   1      38.534  32.128  30.051  1.00  0.00     0.031 A 
ATOM     57  C   UNL A   1      44.638  30.507  31.846  1.00  0.00     0.049 A 
ATOM     58  C   UNL A   1      39.636  32.863  30.764  1.00  0.00     0.074 A 
ATOM     59  C   UNL A   1      45.575  31.310  32.471  1.00  0.00     0.029 A 
ATOM     60  N   UNL A   1      43.494  31.274  31.684  1.00  0.00    -0.354 N 
ATOM     61  N   UNL A   1      40.842  32.444  31.071  1.00  0.00    -0.248 NA
ATOM     62  C   UNL A   1      39.352  34.244  31.172  1.00  0.00     0.031 C 
ATOM     63  C   UNL A   1      44.979  32.549  32.728  1.00  0.00     0.029 A 
ATOM     64  C   UNL A   1      43.692  32.536  32.212  1.00  0.00     0.049 A 
ATOM     65  H   UNL A   1      42.662  30.965  31.256  1.00  0.00     0.167 HD
ATOM     66  C   UNL A   1      41.471  33.520  31.686  1.00  0.00     0.074 A 
ATOM     67  C   UNL A   1      40.516  34.612  31.689  1.00  0.00     0.031 C 
ATOM     68  C   UNL A   1      42.722  33.602  32.201  1.00  0.00     0.031 A 
BRANCH  55  69
ATOM     69  C   UNL A   1      46.053  28.408  31.707  1.00  0.00    -0.014 A 
ATOM     70  C   UNL A   1      47.125  28.429  30.795  1.00  0.00     0.010 A 
ATOM     71  C   UNL A   1      46.198  27.700  32.914  1.00  0.00     0.010 A 
ATOM     72  C   UNL A   1      48.300  27.724  31.064  1.00  0.00     0.020 A 
ATOM     73  C   UNL A   1      47.385  27.018  33.201  1.00  0.00     0.020 A 
ATOM     74  C   UNL A   1      48.421  27.020  32.265  1.00  0.00     0.054 A 
BRANCH  74  75
ATOM     75  S   UNL A   1      49.969  26.137  32.600  1.00  0.00     0.124 S 
ATOM     76  O   UNL A   1      50.189  26.440  34.012  1.00  0.00    -0.237 OA
ATOM     77  O   UNL A   1      49.619  24.751  32.303  1.00  0.00    -0.237 OA
ATOM     78  O   UNL A   1      50.923  26.747  31.676  1.00  0.00    -0.744 OA
ENDBRANCH  74  75
ENDBRANCH  55  69
BRANCH  56  79
ATOM     79  C   UNL A   1      37.223  32.775  29.777  1.00  0.00    -0.014 A 
ATOM     80  C   UNL A   1      36.168  32.668  30.701  1.00  0.00     0.010 A 
ATOM     81  C   UNL A   1      37.028  33.520  28.602  1.00  0.00     0.010 A 
ATOM     82  C   UNL A   1      34.936  33.274  30.443  1.00  0.00     0.020 A 
ATOM     83  C   UNL A   1      35.805  34.151  28.353  1.00  0.00     0.020 A 
ATOM     84  C   UNL A   1      34.762  34.013  29.270  1.00  0.00     0.054 A 
BRANCH  84  85
ATOM     85  S   UNL A   1      33.168  34.829  28.976  1.00  0.00     0.124 S 
ATOM     86  O   UNL A   1      32.573  34.821  30.309  1.00  0.00    -0.237 OA
ATOM     87  O   UNL A   1      33.573  36.139  28.471  1.00  0.00    -0.237 OA
ATOM     88  O   UNL A   1      32.518  33.965  27.994  1.00  0.00    -0.744 OA
ENDBRANCH  84  85
ENDBRANCH  56  79
BRANCH  68  89
ATOM     89  C   UNL A   1      43.138  34.925  32.783  1.00  0.00    -0.014 A 
ATOM     90  C   UNL A   1      43.715  35.924  31.979  1.00  0.00     0.010 A 
ATOM     91  C   UNL A   1      42.904  35.184  34.145  1.00  0.00     0.010 A 
ATOM     92  C   UNL A   1      44.086  37.148  32.539  1.00  0.00     0.020 A 
ATOM     93  C   UNL A   1      43.247  36.418  34.701  1.00  0.00     0.020 A 
ATOM     94  C   UNL A   1      43.852  37.386  33.897  1.00  0.00     0.054 A 
BRANCH  94  95
ATOM     95  S   UNL A   1      44.315  38.995  34.593  1.00  0.00     0.124 S 
ATOM     96  O   UNL A   1      43.427  39.903  33.872  1.00  0.00    -0.237 OA
ATOM     97  O   UNL A   1      44.022  38.825  36.014  1.00  0.00    -0.237 OA
ATOM     98  O   UNL A   1      45.733  39.118  34.266  1.00  0.00    -0.744 OA
ENDBRANCH  94  95
ENDBRANCH  68  89
ENDBRANCH  42  43
ENDBRANCH  34  37
ENDBRANCH  32  33
ENDBRANCH  31  32
ENDBRANCH  30  31
ENDBRANCH   3  30
TORSDOF 19
ENDMDL
