MODEL 1
REMARK VINA RESULT:     -12.7      0.000      0.000
REMARK SMILES Cc1ccc(C)c(-n2nc(C)c(/C=C(/C#N)C(=O)NCCCNC(=O)c3ccc(-c4c5nc(c(-c6ccc(S(=O)(=O)[O-])cc6)c6ccc([nH]6)c(-c6ccc(S(=O)(=O)[O-])cc6)c6nc(c(-c7ccc(S(=O)(=O)[O-])cc7)c7ccc4[nH]7)C=C6)C=C5)cc3)c2Cl)c1
REMARK SMILES IDX 21 1 20 2 19 3 17 4 18 5 14 7 13 8 12 9 8 10 9 11 86 12
REMARK SMILES IDX 10 13 87 14 11 15 7 16 1 17 2 18 3 19 88 20 4 21 5 22 6 23
REMARK SMILES IDX 15 24 16 25 22 26 23 27 24 28 25 30 26 31 27 32 85 33 28 34
REMARK SMILES IDX 84 35 29 36 30 37 31 38 78 39 32 40 83 41 77 42 79 43 33 44
REMARK SMILES IDX 82 45 76 46 75 47 34 49 64 50 45 51 63 52 46 53 49 54 62 55
REMARK SMILES IDX 80 56 47 57 48 58 61 60 81 61 50 62 35 63 36 64 44 65 37 66
REMARK SMILES IDX 43 67 38 68 39 69 40 70 41 71 42 72 65 73 66 74 74 75 67 76
REMARK SMILES IDX 73 77 68 78 69 79 70 80 71 81 72 82 51 83 52 84 60 85 53 86
REMARK SMILES IDX 59 87 54 88 55 89 56 90 57 91 58 92
REMARK H PARENT 19 6 23 29 79 48 49 59
REMARK Flexibility Score: inf
ROOT
ATOM      1  C   UNL A   1      32.054  30.611  26.781  1.00  0.00     0.042 C 
ENDROOT
BRANCH   1   2
ATOM      2  C   UNL A   1      31.698  29.491  25.779  1.00  0.00     0.118 C 
BRANCH   2   3
ATOM      3  N   UNL A   1      32.524  29.556  24.564  1.00  0.00    -0.351 N 
ATOM      4  C   UNL A   1      32.448  28.945  23.336  1.00  0.00     0.261 C 
ATOM      5  O   UNL A   1      33.463  28.943  22.646  1.00  0.00    -0.268 OA
ATOM      6  H   UNL A   1      33.292  30.166  24.648  1.00  0.00     0.163 HD
BRANCH   4   7
ATOM      7  C   UNL A   1      31.199  28.252  22.871  1.00  0.00     0.117 C 
ATOM      8  C   UNL A   1      30.815  27.009  23.198  1.00  0.00     0.038 C 
BRANCH   8   9
ATOM      9  C   UNL A   1      31.449  26.012  24.024  1.00  0.00     0.036 A 
ATOM     10  N   UNL A   1      32.932  24.433  24.596  1.00  0.00    -0.221 N 
ATOM     11  N   UNL A   1      32.052  24.468  25.616  1.00  0.00    -0.171 NA
ATOM     12  C   UNL A   1      32.629  25.394  23.656  1.00  0.00     0.140 A 
ATOM     13  C   UNL A   1      31.161  25.415  25.293  1.00  0.00     0.069 A 
ATOM     14  Cl  UNL A   1      33.575  25.562  22.235  1.00  0.00    -0.061 Cl
ATOM     15  C   UNL A   1      30.095  25.654  26.302  1.00  0.00     0.069 C 
BRANCH  10  16
ATOM     16  C   UNL A   1      34.084  23.620  24.702  1.00  0.00     0.069 A 
ATOM     17  C   UNL A   1      37.611  23.998  26.099  1.00  0.00     0.044 C 
ATOM     18  C   UNL A   1      36.393  23.416  25.449  1.00  0.00    -0.049 A 
ATOM     19  C   UNL A   1      36.398  22.092  25.002  1.00  0.00     0.004 A 
ATOM     20  C   UNL A   1      35.233  24.180  25.288  1.00  0.00     0.032 A 
ATOM     21  C   UNL A   1      35.252  21.532  24.431  1.00  0.00     0.006 A 
ATOM     22  C   UNL A   1      34.072  22.279  24.281  1.00  0.00    -0.025 A 
ATOM     23  C   UNL A   1      32.905  21.595  23.619  1.00  0.00     0.047 C 
ENDBRANCH  10  16
ENDBRANCH   8   9
BRANCH   7  24
ATOM     24  C   UNL A   1      30.354  29.236  22.077  1.00  0.00     0.105 C 
ATOM     25  N   UNL A   1      29.654  30.052  21.419  1.00  0.00    -0.192 NA
ENDBRANCH   7  24
ENDBRANCH   4   7
ENDBRANCH   2   3
ENDBRANCH   1   2
BRANCH   1  26
ATOM     26  C   UNL A   1      33.531  30.730  27.126  1.00  0.00     0.118 C 
BRANCH  26  27
ATOM     27  N   UNL A   1      33.773  31.651  28.248  1.00  0.00    -0.352 N 
ATOM     28  C   UNL A   1      34.805  31.775  29.157  1.00  0.00     0.251 C 
ATOM     29  H   UNL A   1      33.055  32.313  28.377  1.00  0.00     0.163 HD
ATOM     30  O   UNL A   1      34.651  32.489  30.157  1.00  0.00    -0.269 OA
BRANCH  28  31
ATOM     31  C   UNL A   1      36.089  31.088  28.945  1.00  0.00     0.039 A 
ATOM     32  C   UNL A   1      36.239  29.765  28.525  1.00  0.00     0.014 A 
ATOM     33  C   UNL A   1      37.215  31.730  29.402  1.00  0.00     0.014 A 
ATOM     34  C   UNL A   1      37.504  29.173  28.661  1.00  0.00     0.010 A 
ATOM     35  C   UNL A   1      38.430  31.350  28.956  1.00  0.00     0.010 A 
ATOM     36  C   UNL A   1      38.584  29.989  29.010  1.00  0.00    -0.014 A 
BRANCH  36  37
ATOM     37  C   UNL A   1      39.958  29.575  29.168  1.00  0.00     0.031 A 
ATOM     38  C   UNL A   1      40.284  29.220  30.561  1.00  0.00     0.074 A 
ATOM     39  C   UNL A   1      40.718  29.168  28.130  1.00  0.00     0.049 A 
ATOM     40  N   UNL A   1      40.811  30.000  31.445  1.00  0.00    -0.248 NA
ATOM     41  C   UNL A   1      39.716  27.976  31.120  1.00  0.00     0.031 C 
ATOM     42  C   UNL A   1      40.366  29.011  26.714  1.00  0.00     0.029 A 
ATOM     43  N   UNL A   1      41.984  28.683  28.174  1.00  0.00    -0.354 N 
ATOM     44  C   UNL A   1      40.889  29.225  32.589  1.00  0.00     0.074 A 
ATOM     45  C   UNL A   1      39.914  28.181  32.423  1.00  0.00     0.031 C 
ATOM     46  C   UNL A   1      41.319  28.272  26.096  1.00  0.00     0.029 A 
ATOM     47  C   UNL A   1      42.398  28.006  27.035  1.00  0.00     0.049 A 
ATOM     48  H   UNL A   1      42.567  28.804  28.956  1.00  0.00     0.167 HD
ATOM     49  C   UNL A   1      41.981  29.267  33.402  1.00  0.00     0.031 A 
ATOM     50  C   UNL A   1      43.512  27.231  26.929  1.00  0.00     0.031 A 
ATOM     51  C   UNL A   1      42.881  30.331  33.018  1.00  0.00     0.049 A 
ATOM     52  C   UNL A   1      44.402  27.608  28.068  1.00  0.00     0.074 A 
ATOM     53  C   UNL A   1      42.735  31.691  32.817  1.00  0.00     0.029 A 
ATOM     54  N   UNL A   1      44.017  29.968  32.326  1.00  0.00    -0.354 N 
ATOM     55  N   UNL A   1      44.949  28.789  28.192  1.00  0.00    -0.248 NA
ATOM     56  C   UNL A   1      44.270  26.857  29.309  1.00  0.00     0.031 C 
ATOM     57  C   UNL A   1      43.477  31.966  31.630  1.00  0.00     0.029 A 
ATOM     58  C   UNL A   1      44.118  30.791  31.231  1.00  0.00     0.049 A 
ATOM     59  H   UNL A   1      44.642  29.247  32.571  1.00  0.00     0.167 HD
ATOM     60  C   UNL A   1      44.824  29.104  29.540  1.00  0.00     0.074 A 
ATOM     61  C   UNL A   1      44.475  27.840  30.192  1.00  0.00     0.031 C 
ATOM     62  C   UNL A   1      44.714  30.400  29.967  1.00  0.00     0.031 A 
BRANCH  49  63
ATOM     63  C   UNL A   1      42.438  28.104  34.246  1.00  0.00    -0.014 A 
ATOM     64  C   UNL A   1      42.585  28.299  35.632  1.00  0.00     0.010 A 
ATOM     65  C   UNL A   1      42.949  26.902  33.713  1.00  0.00     0.010 A 
ATOM     66  C   UNL A   1      43.259  27.366  36.427  1.00  0.00     0.020 A 
ATOM     67  C   UNL A   1      43.577  25.941  34.502  1.00  0.00     0.020 A 
ATOM     68  C   UNL A   1      43.758  26.196  35.852  1.00  0.00     0.054 A 
BRANCH  68  69
ATOM     69  S   UNL A   1      44.702  25.039  36.867  1.00  0.00     0.124 S 
ATOM     70  O   UNL A   1      44.070  25.203  38.172  1.00  0.00    -0.237 OA
ATOM     71  O   UNL A   1      44.454  23.767  36.196  1.00  0.00    -0.237 OA
ATOM     72  O   UNL A   1      46.073  25.534  36.766  1.00  0.00    -0.744 OA
ENDBRANCH  68  69
ENDBRANCH  49  63
BRANCH  50  73
ATOM     73  C   UNL A   1      43.691  25.975  26.146  1.00  0.00    -0.014 A 
ATOM     74  C   UNL A   1      44.917  25.675  25.517  1.00  0.00     0.010 A 
ATOM     75  C   UNL A   1      42.746  24.932  26.240  1.00  0.00     0.010 A 
ATOM     76  C   UNL A   1      45.212  24.369  25.074  1.00  0.00     0.020 A 
ATOM     77  C   UNL A   1      43.028  23.632  25.795  1.00  0.00     0.020 A 
ATOM     78  C   UNL A   1      44.272  23.349  25.239  1.00  0.00     0.054 A 
BRANCH  78  79
ATOM     79  S   UNL A   1      44.731  21.629  24.855  1.00  0.00     0.124 S 
ATOM     80  O   UNL A   1      43.811  20.860  25.686  1.00  0.00    -0.237 OA
ATOM     81  O   UNL A   1      44.497  21.550  23.415  1.00  0.00    -0.237 OA
ATOM     82  O   UNL A   1      46.136  21.549  25.254  1.00  0.00    -0.744 OA
ENDBRANCH  78  79
ENDBRANCH  50  73
BRANCH  62  83
ATOM     83  C   UNL A   1      45.014  31.525  28.998  1.00  0.00    -0.014 A 
ATOM     84  C   UNL A   1      46.250  32.198  28.915  1.00  0.00     0.010 A 
ATOM     85  C   UNL A   1      44.043  31.801  28.017  1.00  0.00     0.010 A 
ATOM     86  C   UNL A   1      46.490  33.139  27.899  1.00  0.00     0.020 A 
ATOM     87  C   UNL A   1      44.282  32.719  26.992  1.00  0.00     0.020 A 
ATOM     88  C   UNL A   1      45.502  33.394  26.944  1.00  0.00     0.054 A 
BRANCH  88  89
ATOM     89  S   UNL A   1      45.821  34.590  25.615  1.00  0.00     0.124 S 
ATOM     90  O   UNL A   1      44.920  34.139  24.559  1.00  0.00    -0.237 OA
ATOM     91  O   UNL A   1      45.474  35.866  26.236  1.00  0.00    -0.237 OA
ATOM     92  O   UNL A   1      47.245  34.418  25.326  1.00  0.00    -0.744 OA
ENDBRANCH  88  89
ENDBRANCH  62  83
ENDBRANCH  36  37
ENDBRANCH  28  31
ENDBRANCH  26  27
ENDBRANCH   1  26
TORSDOF 16
ENDMDL
MODEL 2
REMARK VINA RESULT:     -11.9      1.313      2.069
REMARK SMILES Cc1ccc(C)c(-n2nc(C)c(/C=C(/C#N)C(=O)NCCCNC(=O)c3ccc(-c4c5nc(c(-c6ccc(S(=O)(=O)[O-])cc6)c6ccc([nH]6)c(-c6ccc(S(=O)(=O)[O-])cc6)c6nc(c(-c7ccc(S(=O)(=O)[O-])cc7)c7ccc4[nH]7)C=C6)C=C5)cc3)c2Cl)c1
REMARK SMILES IDX 21 1 20 2 19 3 17 4 18 5 14 7 13 8 12 9 8 10 9 11 86 12
REMARK SMILES IDX 10 13 87 14 11 15 7 16 1 17 2 18 3 19 88 20 4 21 5 22 6 23
REMARK SMILES IDX 15 24 16 25 22 26 23 27 24 28 25 30 26 31 27 32 85 33 28 34
REMARK SMILES IDX 84 35 29 36 30 37 31 38 78 39 32 40 83 41 77 42 79 43 33 44
REMARK SMILES IDX 82 45 76 46 75 47 34 49 64 50 45 51 63 52 46 53 49 54 62 55
REMARK SMILES IDX 80 56 47 57 48 58 61 60 81 61 50 62 35 63 36 64 44 65 37 66
REMARK SMILES IDX 43 67 38 68 39 69 40 70 41 71 42 72 65 73 66 74 74 75 67 76
REMARK SMILES IDX 73 77 68 78 69 79 70 80 71 81 72 82 51 83 52 84 60 85 53 86
REMARK SMILES IDX 59 87 54 88 55 89 56 90 57 91 58 92
REMARK H PARENT 19 6 23 29 79 48 49 59
REMARK Flexibility Score: inf
ROOT
ATOM      1  C   UNL A   1      31.771  28.879  26.911  1.00  0.00     0.042 C 
ENDROOT
BRANCH   1   2
ATOM      2  C   UNL A   1      31.991  27.915  25.725  1.00  0.00     0.118 C 
BRANCH   2   3
ATOM      3  N   UNL A   1      32.414  28.624  24.508  1.00  0.00    -0.351 N 
ATOM      4  C   UNL A   1      32.018  28.565  23.194  1.00  0.00     0.261 C 
ATOM      5  O   UNL A   1      32.782  29.037  22.356  1.00  0.00    -0.268 OA
ATOM      6  H   UNL A   1      33.130  29.280  24.669  1.00  0.00     0.163 HD
BRANCH   4   7
ATOM      7  C   UNL A   1      30.737  27.900  22.780  1.00  0.00     0.117 C 
ATOM      8  C   UNL A   1      30.590  26.615  22.427  1.00  0.00     0.038 C 
BRANCH   8   9
ATOM      9  C   UNL A   1      31.557  25.550  22.319  1.00  0.00     0.036 A 
ATOM     10  N   UNL A   1      32.816  23.820  22.983  1.00  0.00    -0.221 N 
ATOM     11  N   UNL A   1      33.210  24.071  21.719  1.00  0.00    -0.171 NA
ATOM     12  C   UNL A   1      31.781  24.653  23.346  1.00  0.00     0.140 A 
ATOM     13  C   UNL A   1      32.460  25.101  21.303  1.00  0.00     0.069 A 
ATOM     14  Cl  UNL A   1      31.093  24.566  24.914  1.00  0.00    -0.061 Cl
ATOM     15  C   UNL A   1      32.704  25.540  19.903  1.00  0.00     0.069 C 
BRANCH  10  16
ATOM     16  C   UNL A   1      33.331  22.689  23.657  1.00  0.00     0.069 A 
ATOM     17  C   UNL A   1      32.461  18.985  23.899  1.00  0.00     0.044 C 
ATOM     18  C   UNL A   1      33.147  20.302  24.101  1.00  0.00    -0.049 A 
ATOM     19  C   UNL A   1      34.287  20.385  24.905  1.00  0.00     0.004 A 
ATOM     20  C   UNL A   1      32.667  21.461  23.486  1.00  0.00     0.032 A 
ATOM     21  C   UNL A   1      34.954  21.603  25.066  1.00  0.00     0.006 A 
ATOM     22  C   UNL A   1      34.497  22.773  24.437  1.00  0.00    -0.025 A 
ATOM     23  C   UNL A   1      35.265  24.041  24.705  1.00  0.00     0.047 C 
ENDBRANCH  10  16
ENDBRANCH   8   9
BRANCH   7  24
ATOM     24  C   UNL A   1      29.589  28.881  22.963  1.00  0.00     0.105 C 
ATOM     25  N   UNL A   1      28.638  29.695  23.115  1.00  0.00    -0.192 NA
ENDBRANCH   7  24
ENDBRANCH   4   7
ENDBRANCH   2   3
ENDBRANCH   1   2
BRANCH   1  26
ATOM     26  C   UNL A   1      33.032  29.298  27.651  1.00  0.00     0.118 C 
BRANCH  26  27
ATOM     27  N   UNL A   1      33.169  30.761  27.745  1.00  0.00    -0.352 N 
ATOM     28  C   UNL A   1      34.241  31.591  28.007  1.00  0.00     0.251 C 
ATOM     29  H   UNL A   1      32.326  31.246  27.589  1.00  0.00     0.163 HD
ATOM     30  O   UNL A   1      34.036  32.785  28.264  1.00  0.00    -0.269 OA
BRANCH  28  31
ATOM     31  C   UNL A   1      35.620  31.082  27.968  1.00  0.00     0.039 A 
ATOM     32  C   UNL A   1      36.055  29.977  27.233  1.00  0.00     0.014 A 
ATOM     33  C   UNL A   1      36.496  31.602  28.892  1.00  0.00     0.014 A 
ATOM     34  C   UNL A   1      37.318  29.444  27.535  1.00  0.00     0.010 A 
ATOM     35  C   UNL A   1      37.825  31.455  28.711  1.00  0.00     0.010 A 
ATOM     36  C   UNL A   1      38.151  30.161  28.399  1.00  0.00    -0.014 A 
BRANCH  36  37
ATOM     37  C   UNL A   1      39.487  29.795  28.803  1.00  0.00     0.031 A 
ATOM     38  C   UNL A   1      39.601  29.594  30.260  1.00  0.00     0.074 A 
ATOM     39  C   UNL A   1      40.398  29.299  27.941  1.00  0.00     0.049 A 
ATOM     40  N   UNL A   1      39.984  30.472  31.124  1.00  0.00    -0.248 NA
ATOM     41  C   UNL A   1      38.962  28.402  30.855  1.00  0.00     0.031 C 
ATOM     42  C   UNL A   1      40.265  28.989  26.512  1.00  0.00     0.029 A 
ATOM     43  N   UNL A   1      41.646  28.849  28.224  1.00  0.00    -0.354 N 
ATOM     44  C   UNL A   1      39.892  29.823  32.343  1.00  0.00     0.074 A 
ATOM     45  C   UNL A   1      38.959  28.746  32.145  1.00  0.00     0.031 C 
ATOM     46  C   UNL A   1      41.306  28.210  26.126  1.00  0.00     0.029 A 
ATOM     47  C   UNL A   1      42.232  28.066  27.239  1.00  0.00     0.049 A 
ATOM     48  H   UNL A   1      42.103  29.062  29.069  1.00  0.00     0.167 HD
ATOM     49  C   UNL A   1      40.848  29.972  33.302  1.00  0.00     0.031 A 
ATOM     50  C   UNL A   1      43.353  27.309  27.383  1.00  0.00     0.031 A 
ATOM     51  C   UNL A   1      41.790  31.010  32.947  1.00  0.00     0.049 A 
ATOM     52  C   UNL A   1      44.058  27.821  28.596  1.00  0.00     0.074 A 
ATOM     53  C   UNL A   1      41.669  32.338  32.583  1.00  0.00     0.029 A 
ATOM     54  N   UNL A   1      43.020  30.600  32.475  1.00  0.00    -0.354 N 
ATOM     55  N   UNL A   1      44.574  29.019  28.676  1.00  0.00    -0.248 NA
ATOM     56  C   UNL A   1      43.744  27.200  29.876  1.00  0.00     0.031 C 
ATOM     57  C   UNL A   1      42.581  32.504  31.498  1.00  0.00     0.029 A 
ATOM     58  C   UNL A   1      43.281  31.307  31.327  1.00  0.00     0.049 A 
ATOM     59  H   UNL A   1      43.605  29.923  32.886  1.00  0.00     0.167 HD
ATOM     60  C   UNL A   1      44.244  29.470  29.949  1.00  0.00     0.074 A 
ATOM     61  C   UNL A   1      43.808  28.274  30.671  1.00  0.00     0.031 C 
ATOM     62  C   UNL A   1      44.063  30.800  30.215  1.00  0.00     0.031 A 
BRANCH  49  63
ATOM     63  C   UNL A   1      41.179  28.913  34.323  1.00  0.00    -0.014 A 
ATOM     64  C   UNL A   1      41.442  29.317  35.645  1.00  0.00     0.010 A 
ATOM     65  C   UNL A   1      41.468  27.571  33.995  1.00  0.00     0.010 A 
ATOM     66  C   UNL A   1      42.019  28.438  36.569  1.00  0.00     0.020 A 
ATOM     67  C   UNL A   1      41.994  26.672  34.921  1.00  0.00     0.020 A 
ATOM     68  C   UNL A   1      42.298  27.123  36.195  1.00  0.00     0.054 A 
BRANCH  68  69
ATOM     69  S   UNL A   1      43.121  26.021  37.366  1.00  0.00     0.124 S 
ATOM     70  O   UNL A   1      43.931  25.193  36.478  1.00  0.00    -0.237 OA
ATOM     71  O   UNL A   1      43.857  26.961  38.206  1.00  0.00    -0.237 OA
ATOM     72  O   UNL A   1      42.013  25.336  38.028  1.00  0.00    -0.744 OA
ENDBRANCH  68  69
ENDBRANCH  49  63
BRANCH  50  73
ATOM     73  C   UNL A   1      43.655  25.982  26.773  1.00  0.00    -0.014 A 
ATOM     74  C   UNL A   1      43.383  25.725  25.414  1.00  0.00     0.010 A 
ATOM     75  C   UNL A   1      44.467  25.050  27.452  1.00  0.00     0.010 A 
ATOM     76  C   UNL A   1      43.961  24.625  24.746  1.00  0.00     0.020 A 
ATOM     77  C   UNL A   1      45.040  23.949  26.798  1.00  0.00     0.020 A 
ATOM     78  C   UNL A   1      44.808  23.758  25.439  1.00  0.00     0.054 A 
BRANCH  78  79
ATOM     79  S   UNL A   1      45.712  22.464  24.531  1.00  0.00     0.124 S 
ATOM     80  O   UNL A   1      44.664  21.846  23.726  1.00  0.00    -0.237 OA
ATOM     81  O   UNL A   1      46.707  23.233  23.788  1.00  0.00    -0.237 OA
ATOM     82  O   UNL A   1      46.257  21.615  25.590  1.00  0.00    -0.744 OA
ENDBRANCH  78  79
ENDBRANCH  50  73
BRANCH  62  83
ATOM     83  C   UNL A   1      44.500  31.825  29.188  1.00  0.00    -0.014 A 
ATOM     84  C   UNL A   1      45.649  32.634  29.307  1.00  0.00     0.010 A 
ATOM     85  C   UNL A   1      43.795  31.852  27.971  1.00  0.00     0.010 A 
ATOM     86  C   UNL A   1      46.057  33.464  28.249  1.00  0.00     0.020 A 
ATOM     87  C   UNL A   1      44.207  32.658  26.907  1.00  0.00     0.020 A 
ATOM     88  C   UNL A   1      45.331  33.471  27.055  1.00  0.00     0.054 A 
BRANCH  88  89
ATOM     89  S   UNL A   1      45.873  34.523  25.678  1.00  0.00     0.124 S 
ATOM     90  O   UNL A   1      47.270  34.133  25.512  1.00  0.00    -0.237 OA
ATOM     91  O   UNL A   1      44.977  34.126  24.594  1.00  0.00    -0.237 OA
ATOM     92  O   UNL A   1      45.667  35.883  26.175  1.00  0.00    -0.744 OA
ENDBRANCH  88  89
ENDBRANCH  62  83
ENDBRANCH  36  37
ENDBRANCH  28  31
ENDBRANCH  26  27
ENDBRANCH   1  26
TORSDOF 16
ENDMDL
MODEL 3
REMARK VINA RESULT:     -11.6      1.825      2.789
REMARK SMILES Cc1ccc(C)c(-n2nc(C)c(/C=C(/C#N)C(=O)NCCCNC(=O)c3ccc(-c4c5nc(c(-c6ccc(S(=O)(=O)[O-])cc6)c6ccc([nH]6)c(-c6ccc(S(=O)(=O)[O-])cc6)c6nc(c(-c7ccc(S(=O)(=O)[O-])cc7)c7ccc4[nH]7)C=C6)C=C5)cc3)c2Cl)c1
REMARK SMILES IDX 21 1 20 2 19 3 17 4 18 5 14 7 13 8 12 9 8 10 9 11 86 12
REMARK SMILES IDX 10 13 87 14 11 15 7 16 1 17 2 18 3 19 88 20 4 21 5 22 6 23
REMARK SMILES IDX 15 24 16 25 22 26 23 27 24 28 25 30 26 31 27 32 85 33 28 34
REMARK SMILES IDX 84 35 29 36 30 37 31 38 78 39 32 40 83 41 77 42 79 43 33 44
REMARK SMILES IDX 82 45 76 46 75 47 34 49 64 50 45 51 63 52 46 53 49 54 62 55
REMARK SMILES IDX 80 56 47 57 48 58 61 60 81 61 50 62 35 63 36 64 44 65 37 66
REMARK SMILES IDX 43 67 38 68 39 69 40 70 41 71 42 72 65 73 66 74 74 75 67 76
REMARK SMILES IDX 73 77 68 78 69 79 70 80 71 81 72 82 51 83 52 84 60 85 53 86
REMARK SMILES IDX 59 87 54 88 55 89 56 90 57 91 58 92
REMARK H PARENT 19 6 23 29 79 48 49 59
REMARK Flexibility Score: inf
ROOT
ATOM      1  C   UNL A   1      32.516  28.035  26.720  1.00  0.00     0.042 C 
ENDROOT
BRANCH   1   2
ATOM      2  C   UNL A   1      32.557  26.513  26.463  1.00  0.00     0.118 C 
BRANCH   2   3
ATOM      3  N   UNL A   1      31.654  26.114  25.372  1.00  0.00    -0.351 N 
ATOM      4  C   UNL A   1      31.145  24.906  24.960  1.00  0.00     0.261 C 
ATOM      5  O   UNL A   1      30.688  24.849  23.822  1.00  0.00    -0.268 OA
ATOM      6  H   UNL A   1      31.350  26.872  24.822  1.00  0.00     0.163 HD
BRANCH   4   7
ATOM      7  C   UNL A   1      31.196  23.685  25.833  1.00  0.00     0.117 C 
ATOM      8  C   UNL A   1      32.262  22.896  26.029  1.00  0.00     0.038 C 
BRANCH   8   9
ATOM      9  C   UNL A   1      33.595  22.957  25.482  1.00  0.00     0.036 A 
ATOM     10  N   UNL A   1      35.834  23.039  25.484  1.00  0.00    -0.221 N 
ATOM     11  N   UNL A   1      35.483  23.161  24.189  1.00  0.00    -0.171 NA
ATOM     12  C   UNL A   1      34.721  22.852  26.275  1.00  0.00     0.140 A 
ATOM     13  C   UNL A   1      34.144  23.106  24.168  1.00  0.00     0.069 A 
ATOM     14  Cl  UNL A   1      34.871  22.685  27.975  1.00  0.00    -0.061 Cl
ATOM     15  C   UNL A   1      33.525  23.193  22.819  1.00  0.00     0.069 C 
BRANCH  10  16
ATOM     16  C   UNL A   1      37.201  22.922  25.823  1.00  0.00     0.069 A 
ATOM     17  C   UNL A   1      39.812  25.093  27.555  1.00  0.00     0.044 C 
ATOM     18  C   UNL A   1      39.158  23.945  26.849  1.00  0.00    -0.049 A 
ATOM     19  C   UNL A   1      39.883  22.781  26.577  1.00  0.00     0.004 A 
ATOM     20  C   UNL A   1      37.817  24.013  26.461  1.00  0.00     0.032 A 
ATOM     21  C   UNL A   1      39.268  21.692  25.953  1.00  0.00     0.006 A 
ATOM     22  C   UNL A   1      37.915  21.736  25.576  1.00  0.00    -0.025 A 
ATOM     23  C   UNL A   1      37.357  20.525  24.877  1.00  0.00     0.047 C 
ENDBRANCH  10  16
ENDBRANCH   8   9
BRANCH   7  24
ATOM     24  C   UNL A   1      29.879  23.559  26.583  1.00  0.00     0.105 C 
ATOM     25  N   UNL A   1      28.787  23.455  27.205  1.00  0.00    -0.192 NA
ENDBRANCH   7  24
ENDBRANCH   4   7
ENDBRANCH   2   3
ENDBRANCH   1   2
BRANCH   1  26
ATOM     26  C   UNL A   1      33.633  28.576  27.599  1.00  0.00     0.118 C 
BRANCH  26  27
ATOM     27  N   UNL A   1      33.653  30.047  27.643  1.00  0.00    -0.352 N 
ATOM     28  C   UNL A   1      34.656  30.968  27.866  1.00  0.00     0.251 C 
ATOM     29  H   UNL A   1      32.772  30.457  27.481  1.00  0.00     0.163 HD
ATOM     30  O   UNL A   1      34.358  32.150  28.085  1.00  0.00    -0.269 OA
BRANCH  28  31
ATOM     31  C   UNL A   1      36.072  30.571  27.828  1.00  0.00     0.039 A 
ATOM     32  C   UNL A   1      36.607  29.554  27.033  1.00  0.00     0.014 A 
ATOM     33  C   UNL A   1      36.886  31.094  28.805  1.00  0.00     0.014 A 
ATOM     34  C   UNL A   1      37.901  29.101  27.332  1.00  0.00     0.010 A 
ATOM     35  C   UNL A   1      38.225  31.062  28.648  1.00  0.00     0.010 A 
ATOM     36  C   UNL A   1      38.658  29.821  28.261  1.00  0.00    -0.014 A 
BRANCH  36  37
ATOM     37  C   UNL A   1      40.011  29.532  28.674  1.00  0.00     0.031 A 
ATOM     38  C   UNL A   1      40.161  29.511  30.141  1.00  0.00     0.074 A 
ATOM     39  C   UNL A   1      40.913  28.953  27.855  1.00  0.00     0.049 A 
ATOM     40  N   UNL A   1      40.542  30.494  30.884  1.00  0.00    -0.248 NA
ATOM     41  C   UNL A   1      39.561  28.387  30.891  1.00  0.00     0.031 C 
ATOM     42  C   UNL A   1      40.756  28.470  26.478  1.00  0.00     0.029 A 
ATOM     43  N   UNL A   1      42.177  28.565  28.161  1.00  0.00    -0.354 N 
ATOM     44  C   UNL A   1      40.492  29.995  32.174  1.00  0.00     0.074 A 
ATOM     45  C   UNL A   1      39.578  28.883  32.129  1.00  0.00     0.031 C 
ATOM     46  C   UNL A   1      41.805  27.671  26.164  1.00  0.00     0.029 A 
ATOM     47  C   UNL A   1      42.758  27.681  27.262  1.00  0.00     0.049 A 
ATOM     48  H   UNL A   1      42.647  28.887  28.962  1.00  0.00     0.167 HD
ATOM     49  C   UNL A   1      41.465  30.277  33.085  1.00  0.00     0.031 A 
ATOM     50  C   UNL A   1      43.899  26.968  27.470  1.00  0.00     0.031 A 
ATOM     51  C   UNL A   1      42.375  31.282  32.584  1.00  0.00     0.049 A 
ATOM     52  C   UNL A   1      44.618  27.636  28.595  1.00  0.00     0.074 A 
ATOM     53  C   UNL A   1      42.217  32.554  32.066  1.00  0.00     0.029 A 
ATOM     54  N   UNL A   1      43.604  30.843  32.136  1.00  0.00    -0.354 N 
ATOM     55  N   UNL A   1      45.109  28.845  28.517  1.00  0.00    -0.248 NA
ATOM     56  C   UNL A   1      44.346  27.168  29.948  1.00  0.00     0.031 C 
ATOM     57  C   UNL A   1      43.101  32.606  30.948  1.00  0.00     0.029 A 
ATOM     58  C   UNL A   1      43.824  31.411  30.905  1.00  0.00     0.049 A 
ATOM     59  H   UNL A   1      44.212  30.232  32.611  1.00  0.00     0.167 HD
ATOM     60  C   UNL A   1      44.797  29.440  29.735  1.00  0.00     0.074 A 
ATOM     61  C   UNL A   1      44.403  28.331  30.606  1.00  0.00     0.031 C 
ATOM     62  C   UNL A   1      44.593  30.789  29.843  1.00  0.00     0.031 A 
BRANCH  49  63
ATOM     63  C   UNL A   1      41.841  29.356  34.217  1.00  0.00    -0.014 A 
ATOM     64  C   UNL A   1      42.578  28.194  33.918  1.00  0.00     0.010 A 
ATOM     65  C   UNL A   1      41.310  29.457  35.521  1.00  0.00     0.010 A 
ATOM     66  C   UNL A   1      42.722  27.167  34.858  1.00  0.00     0.020 A 
ATOM     67  C   UNL A   1      41.491  28.465  36.481  1.00  0.00     0.020 A 
ATOM     68  C   UNL A   1      42.168  27.308  36.131  1.00  0.00     0.054 A 
BRANCH  68  69
ATOM     69  S   UNL A   1      42.285  25.943  37.307  1.00  0.00     0.124 S 
ATOM     70  O   UNL A   1      40.905  25.828  37.769  1.00  0.00    -0.237 OA
ATOM     71  O   UNL A   1      42.766  24.852  36.464  1.00  0.00    -0.237 OA
ATOM     72  O   UNL A   1      43.242  26.426  38.299  1.00  0.00    -0.744 OA
ENDBRANCH  68  69
ENDBRANCH  49  63
BRANCH  50  73
ATOM     73  C   UNL A   1      44.217  25.583  27.017  1.00  0.00    -0.014 A 
ATOM     74  C   UNL A   1      43.397  24.492  27.372  1.00  0.00     0.010 A 
ATOM     75  C   UNL A   1      45.172  25.363  26.003  1.00  0.00     0.010 A 
ATOM     76  C   UNL A   1      43.479  23.261  26.690  1.00  0.00     0.020 A 
ATOM     77  C   UNL A   1      45.267  24.139  25.325  1.00  0.00     0.020 A 
ATOM     78  C   UNL A   1      44.399  23.101  25.651  1.00  0.00     0.054 A 
BRANCH  78  79
ATOM     79  S   UNL A   1      44.364  21.588  24.640  1.00  0.00     0.124 S 
ATOM     80  O   UNL A   1      43.164  20.911  25.119  1.00  0.00    -0.237 OA
ATOM     81  O   UNL A   1      44.290  22.114  23.280  1.00  0.00    -0.237 OA
ATOM     82  O   UNL A   1      45.622  20.920  24.973  1.00  0.00    -0.744 OA
ENDBRANCH  78  79
ENDBRANCH  50  73
BRANCH  62  83
ATOM     83  C   UNL A   1      44.984  31.690  28.690  1.00  0.00    -0.014 A 
ATOM     84  C   UNL A   1      44.189  31.915  27.547  1.00  0.00     0.010 A 
ATOM     85  C   UNL A   1      46.145  32.469  28.853  1.00  0.00     0.010 A 
ATOM     86  C   UNL A   1      44.565  32.868  26.586  1.00  0.00     0.020 A 
ATOM     87  C   UNL A   1      46.513  33.434  27.912  1.00  0.00     0.020 A 
ATOM     88  C   UNL A   1      45.728  33.621  26.775  1.00  0.00     0.054 A 
BRANCH  88  89
ATOM     89  S   UNL A   1      46.199  34.873  25.547  1.00  0.00     0.124 S 
ATOM     90  O   UNL A   1      45.296  34.584  24.437  1.00  0.00    -0.237 OA
ATOM     91  O   UNL A   1      45.949  36.128  26.251  1.00  0.00    -0.237 OA
ATOM     92  O   UNL A   1      47.610  34.590  25.284  1.00  0.00    -0.744 OA
ENDBRANCH  88  89
ENDBRANCH  62  83
ENDBRANCH  36  37
ENDBRANCH  28  31
ENDBRANCH  26  27
ENDBRANCH   1  26
TORSDOF 16
ENDMDL
