MODEL 1
REMARK VINA RESULT:      -9.9      0.000      0.000
REMARK SMILES CCCO[C@@H]1CCC[C@]([NH3+])(C(=O)NCCCNC(=O)c2ccc(-c3c4nc(c(-c5ccc(S(=O)(=O)[O-])cc5)c5ccc([nH]5)c(-c5ccc(S(=O)(=O)[O-])cc5)c5nc(c(-c6ccc(S(=O)(=O)[O-])cc6)c6ccc3[nH]6)C=C5)C=C4)cc2)C1
REMARK SMILES IDX 15 1 14 2 13 3 11 4 12 5 9 7 5 8 6 9 80 10 7 11 8 12 4 13
REMARK SMILES IDX 3 14 2 15 1 16 10 17 16 21 17 22 18 23 19 25 20 26 21 27
REMARK SMILES IDX 79 28 22 29 78 30 23 31 24 32 25 33 72 34 26 35 77 36 71 37
REMARK SMILES IDX 73 38 27 39 76 40 70 41 69 42 28 44 58 45 39 46 57 47 40 48
REMARK SMILES IDX 43 49 56 50 74 51 41 52 42 53 55 55 75 56 44 57 29 58 30 59
REMARK SMILES IDX 38 60 31 61 37 62 32 63 33 64 34 65 35 66 36 67 59 68 60 69
REMARK SMILES IDX 68 70 61 71 67 72 62 73 63 74 64 75 65 76 66 77 45 78 46 79
REMARK SMILES IDX 54 80 47 81 53 82 48 83 49 84 50 85 51 86 52 87
REMARK H PARENT 13 6 10 18 10 19 10 20 17 24 73 43 43 54
REMARK Flexibility Score: inf
ROOT
ATOM      1  C   UNL A   1      32.024  28.151  27.309  1.00  0.00     0.042 C 
ENDROOT
BRANCH   1   2
ATOM      2  C   UNL A   1      31.734  27.163  26.199  1.00  0.00     0.118 C 
BRANCH   2   3
ATOM      3  N   UNL A   1      30.752  26.143  26.553  1.00  0.00    -0.351 N 
ATOM      4  C   UNL A   1      30.808  24.776  26.384  1.00  0.00     0.281 C 
ATOM      5  O   UNL A   1      29.936  24.091  26.922  1.00  0.00    -0.268 OA
ATOM      6  H   UNL A   1      29.929  26.480  26.975  1.00  0.00     0.163 HD
BRANCH   4   7
ATOM      7  C   UNL A   1      31.926  24.162  25.487  1.00  0.00     0.176 C 
ATOM      8  C   UNL A   1      34.346  23.406  25.292  1.00  0.00     0.125 C 
ATOM      9  C   UNL A   1      34.588  24.412  24.161  1.00  0.00     0.032 C 
ATOM     10  C   UNL A   1      33.267  23.962  26.250  1.00  0.00     0.111 C 
ATOM     11  C   UNL A   1      33.315  24.645  23.378  1.00  0.00     0.010 C 
ATOM     12  C   UNL A   1      32.206  25.117  24.299  1.00  0.00     0.079 C 
BRANCH   8  13
ATOM     13  O   UNL A   1      35.542  23.085  25.998  1.00  0.00    -0.378 OA
BRANCH  13  14
ATOM     14  C   UNL A   1      36.738  23.046  25.211  1.00  0.00     0.160 C 
BRANCH  14  15
ATOM     15  C   UNL A   1      38.004  23.676  25.817  1.00  0.00     0.025 C 
ATOM     16  C   UNL A   1      39.019  22.726  26.449  1.00  0.00     0.006 C 
ENDBRANCH  14  15
ENDBRANCH  13  14
ENDBRANCH   8  13
BRANCH   7  17
ATOM     17  N   UNL A   1      31.476  22.799  25.081  1.00  0.00    -0.345 N 
ATOM     18  H   UNL A   1      30.517  22.847  24.734  1.00  0.00     0.345 HD
ATOM     19  H   UNL A   1      31.515  22.175  25.887  1.00  0.00     0.345 HD
ATOM     20  H   UNL A   1      32.086  22.445  24.345  1.00  0.00     0.345 HD
ENDBRANCH   7  17
ENDBRANCH   4   7
ENDBRANCH   2   3
ENDBRANCH   1   2
BRANCH   1  21
ATOM     21  C   UNL A   1      33.458  28.653  27.290  1.00  0.00     0.118 C 
BRANCH  21  22
ATOM     22  N   UNL A   1      33.568  30.063  27.656  1.00  0.00    -0.352 N 
ATOM     23  C   UNL A   1      34.590  30.764  28.257  1.00  0.00     0.251 C 
ATOM     24  H   UNL A   1      32.776  30.606  27.436  1.00  0.00     0.163 HD
ATOM     25  O   UNL A   1      34.392  31.901  28.662  1.00  0.00    -0.269 OA
BRANCH  23  26
ATOM     26  C   UNL A   1      35.913  30.128  28.436  1.00  0.00     0.039 A 
ATOM     27  C   UNL A   1      36.828  30.137  27.380  1.00  0.00     0.014 A 
ATOM     28  C   UNL A   1      36.259  29.545  29.654  1.00  0.00     0.014 A 
ATOM     29  C   UNL A   1      38.126  29.663  27.589  1.00  0.00     0.010 A 
ATOM     30  C   UNL A   1      37.577  29.186  29.896  1.00  0.00     0.010 A 
ATOM     31  C   UNL A   1      38.528  29.247  28.869  1.00  0.00    -0.014 A 
BRANCH  31  32
ATOM     32  C   UNL A   1      39.938  28.894  29.174  1.00  0.00     0.031 A 
ATOM     33  C   UNL A   1      40.869  29.933  29.742  1.00  0.00     0.074 A 
ATOM     34  C   UNL A   1      40.406  27.675  28.835  1.00  0.00     0.049 A 
ATOM     35  N   UNL A   1      42.158  29.854  29.956  1.00  0.00    -0.248 NA
ATOM     36  C   UNL A   1      40.288  31.244  30.076  1.00  0.00     0.031 C 
ATOM     37  C   UNL A   1      39.619  26.604  28.216  1.00  0.00     0.029 A 
ATOM     38  N   UNL A   1      41.663  27.135  28.947  1.00  0.00    -0.354 N 
ATOM     39  C   UNL A   1      42.541  31.107  30.419  1.00  0.00     0.074 A 
ATOM     40  C   UNL A   1      41.362  31.943  30.408  1.00  0.00     0.031 C 
ATOM     41  C   UNL A   1      40.403  25.530  28.031  1.00  0.00     0.029 A 
ATOM     42  C   UNL A   1      41.756  25.848  28.470  1.00  0.00     0.049 A 
ATOM     43  H   UNL A   1      42.426  27.623  29.333  1.00  0.00     0.167 HD
ATOM     44  C   UNL A   1      43.761  31.519  30.837  1.00  0.00     0.031 A 
ATOM     45  C   UNL A   1      42.815  25.021  28.382  1.00  0.00     0.031 A 
ATOM     46  C   UNL A   1      44.923  30.673  30.879  1.00  0.00     0.049 A 
ATOM     47  C   UNL A   1      44.155  25.496  28.869  1.00  0.00     0.074 A 
ATOM     48  C   UNL A   1      46.184  30.969  31.366  1.00  0.00     0.029 A 
ATOM     49  N   UNL A   1      44.967  29.366  30.419  1.00  0.00    -0.354 N 
ATOM     50  N   UNL A   1      44.478  26.660  29.380  1.00  0.00    -0.248 NA
ATOM     51  C   UNL A   1      45.272  24.546  28.773  1.00  0.00     0.031 C 
ATOM     52  C   UNL A   1      47.004  29.858  31.154  1.00  0.00     0.029 A 
ATOM     53  C   UNL A   1      46.240  28.851  30.585  1.00  0.00     0.049 A 
ATOM     54  H   UNL A   1      44.205  28.877  30.032  1.00  0.00     0.167 HD
ATOM     55  C   UNL A   1      45.831  26.576  29.683  1.00  0.00     0.074 A 
ATOM     56  C   UNL A   1      46.261  25.242  29.319  1.00  0.00     0.031 C 
ATOM     57  C   UNL A   1      46.648  27.521  30.212  1.00  0.00     0.031 A 
BRANCH  44  58
ATOM     58  C   UNL A   1      43.901  32.948  31.291  1.00  0.00    -0.014 A 
ATOM     59  C   UNL A   1      44.352  33.948  30.411  1.00  0.00     0.010 A 
ATOM     60  C   UNL A   1      43.527  33.306  32.599  1.00  0.00     0.010 A 
ATOM     61  C   UNL A   1      44.460  35.273  30.841  1.00  0.00     0.020 A 
ATOM     62  C   UNL A   1      43.606  34.634  33.025  1.00  0.00     0.020 A 
ATOM     63  C   UNL A   1      44.086  35.608  32.146  1.00  0.00     0.054 A 
BRANCH  63  64
ATOM     64  S   UNL A   1      44.200  37.343  32.664  1.00  0.00     0.124 S 
ATOM     65  O   UNL A   1      43.700  38.042  31.482  1.00  0.00    -0.237 OA
ATOM     66  O   UNL A   1      43.327  37.385  33.834  1.00  0.00    -0.237 OA
ATOM     67  O   UNL A   1      45.621  37.529  32.943  1.00  0.00    -0.744 OA
ENDBRANCH  63  64
ENDBRANCH  44  58
BRANCH  45  68
ATOM     68  C   UNL A   1      42.650  23.655  27.812  1.00  0.00    -0.014 A 
ATOM     69  C   UNL A   1      42.270  22.580  28.634  1.00  0.00     0.010 A 
ATOM     70  C   UNL A   1      42.863  23.424  26.440  1.00  0.00     0.010 A 
ATOM     71  C   UNL A   1      42.128  21.295  28.100  1.00  0.00     0.020 A 
ATOM     72  C   UNL A   1      42.696  22.147  25.898  1.00  0.00     0.020 A 
ATOM     73  C   UNL A   1      42.343  21.087  26.735  1.00  0.00     0.054 A 
BRANCH  73  74
ATOM     74  S   UNL A   1      42.110  19.420  26.055  1.00  0.00     0.124 S 
ATOM     75  O   UNL A   1      42.579  18.578  27.151  1.00  0.00    -0.237 OA
ATOM     76  O   UNL A   1      40.673  19.382  25.797  1.00  0.00    -0.237 OA
ATOM     77  O   UNL A   1      42.950  19.421  24.859  1.00  0.00    -0.744 OA
ENDBRANCH  73  74
ENDBRANCH  45  68
BRANCH  57  78
ATOM     78  C   UNL A   1      48.084  27.140  30.444  1.00  0.00    -0.014 A 
ATOM     79  C   UNL A   1      49.073  27.428  29.487  1.00  0.00     0.010 A 
ATOM     80  C   UNL A   1      48.457  26.540  31.661  1.00  0.00     0.010 A 
ATOM     81  C   UNL A   1      50.408  27.100  29.733  1.00  0.00     0.020 A 
ATOM     82  C   UNL A   1      49.794  26.236  31.921  1.00  0.00     0.020 A 
ATOM     83  C   UNL A   1      50.760  26.506  30.949  1.00  0.00     0.054 A 
BRANCH  83  84
ATOM     84  S   UNL A   1      52.508  26.136  31.264  1.00  0.00     0.124 S 
ATOM     85  O   UNL A   1      52.428  24.833  31.920  1.00  0.00    -0.237 OA
ATOM     86  O   UNL A   1      53.083  26.132  29.922  1.00  0.00    -0.237 OA
ATOM     87  O   UNL A   1      52.946  27.238  32.120  1.00  0.00    -0.744 OA
ENDBRANCH  83  84
ENDBRANCH  57  78
ENDBRANCH  31  32
ENDBRANCH  23  26
ENDBRANCH  21  22
ENDBRANCH   1  21
TORSDOF 17
ENDMDL
MODEL 2
REMARK VINA RESULT:      -9.7      5.622     11.690
REMARK SMILES CCCO[C@@H]1CCC[C@]([NH3+])(C(=O)NCCCNC(=O)c2ccc(-c3c4nc(c(-c5ccc(S(=O)(=O)[O-])cc5)c5ccc([nH]5)c(-c5ccc(S(=O)(=O)[O-])cc5)c5nc(c(-c6ccc(S(=O)(=O)[O-])cc6)c6ccc3[nH]6)C=C5)C=C4)cc2)C1
REMARK SMILES IDX 15 1 14 2 13 3 11 4 12 5 9 7 5 8 6 9 80 10 7 11 8 12 4 13
REMARK SMILES IDX 3 14 2 15 1 16 10 17 16 21 17 22 18 23 19 25 20 26 21 27
REMARK SMILES IDX 79 28 22 29 78 30 23 31 24 32 25 33 72 34 26 35 77 36 71 37
REMARK SMILES IDX 73 38 27 39 76 40 70 41 69 42 28 44 58 45 39 46 57 47 40 48
REMARK SMILES IDX 43 49 56 50 74 51 41 52 42 53 55 55 75 56 44 57 29 58 30 59
REMARK SMILES IDX 38 60 31 61 37 62 32 63 33 64 34 65 35 66 36 67 59 68 60 69
REMARK SMILES IDX 68 70 61 71 67 72 62 73 63 74 64 75 65 76 66 77 45 78 46 79
REMARK SMILES IDX 54 80 47 81 53 82 48 83 49 84 50 85 51 86 52 87
REMARK H PARENT 13 6 10 18 10 19 10 20 17 24 73 43 43 54
REMARK Flexibility Score: inf
ROOT
ATOM      1  C   UNL A   1      43.169  23.477  27.248  1.00  0.00     0.042 C 
ENDROOT
BRANCH   1   2
ATOM      2  C   UNL A   1      44.456  22.755  26.905  1.00  0.00     0.118 C 
BRANCH   2   3
ATOM      3  N   UNL A   1      45.055  23.178  25.642  1.00  0.00    -0.351 N 
ATOM      4  C   UNL A   1      45.209  22.476  24.467  1.00  0.00     0.281 C 
ATOM      5  O   UNL A   1      45.585  23.093  23.469  1.00  0.00    -0.268 OA
ATOM      6  H   UNL A   1      45.400  24.100  25.628  1.00  0.00     0.163 HD
BRANCH   4   7
ATOM      7  C   UNL A   1      44.957  20.937  24.457  1.00  0.00     0.176 C 
ATOM      8  C   UNL A   1      43.508  18.995  25.232  1.00  0.00     0.125 C 
ATOM      9  C   UNL A   1      44.707  18.361  25.945  1.00  0.00     0.032 C 
ATOM     10  C   UNL A   1      43.668  20.534  25.230  1.00  0.00     0.111 C 
ATOM     11  C   UNL A   1      45.994  18.716  25.233  1.00  0.00     0.010 C 
ATOM     12  C   UNL A   1      46.150  20.222  25.140  1.00  0.00     0.079 C 
BRANCH   8  13
ATOM     13  O   UNL A   1      42.265  18.611  25.814  1.00  0.00    -0.378 OA
BRANCH  13  14
ATOM     14  C   UNL A   1      41.346  19.677  26.078  1.00  0.00     0.160 C 
BRANCH  14  15
ATOM     15  C   UNL A   1      41.237  20.172  27.531  1.00  0.00     0.025 C 
ATOM     16  C   UNL A   1      40.546  21.516  27.758  1.00  0.00     0.006 C 
ENDBRANCH  14  15
ENDBRANCH  13  14
ENDBRANCH   8  13
BRANCH   7  17
ATOM     17  N   UNL A   1      44.732  20.529  23.041  1.00  0.00    -0.345 N 
ATOM     18  H   UNL A   1      44.704  21.359  22.448  1.00  0.00     0.345 HD
ATOM     19  H   UNL A   1      43.845  20.029  22.968  1.00  0.00     0.345 HD
ATOM     20  H   UNL A   1      45.491  19.920  22.737  1.00  0.00     0.345 HD
ENDBRANCH   7  17
ENDBRANCH   4   7
ENDBRANCH   2   3
ENDBRANCH   1   2
BRANCH   1  21
ATOM     21  C   UNL A   1      42.803  24.542  26.230  1.00  0.00     0.118 C 
BRANCH  21  22
ATOM     22  N   UNL A   1      41.385  24.523  25.876  1.00  0.00    -0.352 N 
ATOM     23  C   UNL A   1      40.282  25.013  26.538  1.00  0.00     0.251 C 
ATOM     24  H   UNL A   1      41.184  24.085  25.018  1.00  0.00     0.163 HD
ATOM     25  O   UNL A   1      39.160  24.705  26.161  1.00  0.00    -0.269 OA
BRANCH  23  26
ATOM     26  C   UNL A   1      40.459  25.884  27.720  1.00  0.00     0.039 A 
ATOM     27  C   UNL A   1      41.467  26.852  27.715  1.00  0.00     0.014 A 
ATOM     28  C   UNL A   1      39.614  25.763  28.821  1.00  0.00     0.014 A 
ATOM     29  C   UNL A   1      41.548  27.767  28.768  1.00  0.00     0.010 A 
ATOM     30  C   UNL A   1      39.619  26.742  29.805  1.00  0.00     0.010 A 
ATOM     31  C   UNL A   1      40.582  27.760  29.787  1.00  0.00    -0.014 A 
BRANCH  31  32
ATOM     32  C   UNL A   1      40.532  28.815  30.831  1.00  0.00     0.031 A 
ATOM     33  C   UNL A   1      41.418  28.717  32.044  1.00  0.00     0.074 A 
ATOM     34  C   UNL A   1      39.611  29.797  30.739  1.00  0.00     0.049 A 
ATOM     35  N   UNL A   1      41.432  29.467  33.116  1.00  0.00    -0.248 NA
ATOM     36  C   UNL A   1      42.390  27.611  32.077  1.00  0.00     0.031 C 
ATOM     37  C   UNL A   1      38.649  29.961  29.645  1.00  0.00     0.029 A 
ATOM     38  N   UNL A   1      39.321  30.835  31.589  1.00  0.00    -0.354 N 
ATOM     39  C   UNL A   1      42.386  28.907  33.957  1.00  0.00     0.074 A 
ATOM     40  C   UNL A   1      42.895  27.727  33.295  1.00  0.00     0.031 C 
ATOM     41  C   UNL A   1      37.898  31.049  29.877  1.00  0.00     0.029 A 
ATOM     42  C   UNL A   1      38.288  31.632  31.156  1.00  0.00     0.049 A 
ATOM     43  H   UNL A   1      39.807  30.993  32.431  1.00  0.00     0.167 HD
ATOM     44  C   UNL A   1      42.815  29.348  35.163  1.00  0.00     0.031 A 
ATOM     45  C   UNL A   1      37.708  32.704  31.728  1.00  0.00     0.031 A 
ATOM     46  C   UNL A   1      42.330  30.541  35.801  1.00  0.00     0.049 A 
ATOM     47  C   UNL A   1      38.215  33.183  33.060  1.00  0.00     0.074 A 
ATOM     48  C   UNL A   1      42.761  31.120  36.982  1.00  0.00     0.029 A 
ATOM     49  N   UNL A   1      41.307  31.339  35.312  1.00  0.00    -0.354 N 
ATOM     50  N   UNL A   1      39.176  32.686  33.801  1.00  0.00    -0.248 NA
ATOM     51  C   UNL A   1      37.565  34.372  33.629  1.00  0.00     0.031 C 
ATOM     52  C   UNL A   1      41.965  32.241  37.232  1.00  0.00     0.029 A 
ATOM     53  C   UNL A   1      41.074  32.390  36.181  1.00  0.00     0.049 A 
ATOM     54  H   UNL A   1      40.819  31.181  34.472  1.00  0.00     0.167 HD
ATOM     55  C   UNL A   1      39.258  33.510  34.916  1.00  0.00     0.074 A 
ATOM     56  C   UNL A   1      38.265  34.551  34.742  1.00  0.00     0.031 C 
ATOM     57  C   UNL A   1      40.078  33.414  35.991  1.00  0.00     0.031 A 
BRANCH  44  58
ATOM     58  C   UNL A   1      43.870  28.538  35.870  1.00  0.00    -0.014 A 
ATOM     59  C   UNL A   1      45.237  28.820  35.698  1.00  0.00     0.010 A 
ATOM     60  C   UNL A   1      43.489  27.515  36.758  1.00  0.00     0.010 A 
ATOM     61  C   UNL A   1      46.204  28.072  36.374  1.00  0.00     0.020 A 
ATOM     62  C   UNL A   1      44.452  26.783  37.457  1.00  0.00     0.020 A 
ATOM     63  C   UNL A   1      45.806  27.057  37.249  1.00  0.00     0.054 A 
BRANCH  63  64
ATOM     64  S   UNL A   1      47.083  26.129  38.142  1.00  0.00     0.124 S 
ATOM     65  O   UNL A   1      46.865  26.567  39.519  1.00  0.00    -0.237 OA
ATOM     66  O   UNL A   1      46.725  24.742  37.861  1.00  0.00    -0.237 OA
ATOM     67  O   UNL A   1      48.331  26.584  37.535  1.00  0.00    -0.744 OA
ENDBRANCH  63  64
ENDBRANCH  44  58
BRANCH  45  68
ATOM     68  C   UNL A   1      36.583  33.400  31.043  1.00  0.00    -0.014 A 
ATOM     69  C   UNL A   1      36.762  33.959  29.766  1.00  0.00     0.010 A 
ATOM     70  C   UNL A   1      35.324  33.500  31.662  1.00  0.00     0.010 A 
ATOM     71  C   UNL A   1      35.710  34.624  29.129  1.00  0.00     0.020 A 
ATOM     72  C   UNL A   1      34.262  34.140  31.017  1.00  0.00     0.020 A 
ATOM     73  C   UNL A   1      34.466  34.710  29.760  1.00  0.00     0.054 A 
BRANCH  73  74
ATOM     74  S   UNL A   1      33.101  35.539  28.897  1.00  0.00     0.124 S 
ATOM     75  O   UNL A   1      33.809  36.531  28.095  1.00  0.00    -0.237 OA
ATOM     76  O   UNL A   1      32.487  34.443  28.151  1.00  0.00    -0.237 OA
ATOM     77  O   UNL A   1      32.287  36.075  29.985  1.00  0.00    -0.744 OA
ENDBRANCH  73  74
ENDBRANCH  45  68
BRANCH  57  78
ATOM     78  C   UNL A   1      39.948  34.468  37.055  1.00  0.00    -0.014 A 
ATOM     79  C   UNL A   1      40.668  35.673  36.972  1.00  0.00     0.010 A 
ATOM     80  C   UNL A   1      39.050  34.274  38.121  1.00  0.00     0.010 A 
ATOM     81  C   UNL A   1      40.509  36.657  37.950  1.00  0.00     0.020 A 
ATOM     82  C   UNL A   1      38.869  35.267  39.085  1.00  0.00     0.020 A 
ATOM     83  C   UNL A   1      39.611  36.448  39.001  1.00  0.00     0.054 A 
BRANCH  83  84
ATOM     84  S   UNL A   1      39.387  37.763  40.230  1.00  0.00     0.124 S 
ATOM     85  O   UNL A   1      40.675  38.449  40.178  1.00  0.00    -0.237 OA
ATOM     86  O   UNL A   1      38.252  38.511  39.697  1.00  0.00    -0.237 OA
ATOM     87  O   UNL A   1      39.118  37.035  41.469  1.00  0.00    -0.744 OA
ENDBRANCH  83  84
ENDBRANCH  57  78
ENDBRANCH  31  32
ENDBRANCH  23  26
ENDBRANCH  21  22
ENDBRANCH   1  21
TORSDOF 17
ENDMDL
MODEL 3
REMARK VINA RESULT:      -9.7      3.139      4.559
REMARK SMILES CCCO[C@@H]1CCC[C@]([NH3+])(C(=O)NCCCNC(=O)c2ccc(-c3c4nc(c(-c5ccc(S(=O)(=O)[O-])cc5)c5ccc([nH]5)c(-c5ccc(S(=O)(=O)[O-])cc5)c5nc(c(-c6ccc(S(=O)(=O)[O-])cc6)c6ccc3[nH]6)C=C5)C=C4)cc2)C1
REMARK SMILES IDX 15 1 14 2 13 3 11 4 12 5 9 7 5 8 6 9 80 10 7 11 8 12 4 13
REMARK SMILES IDX 3 14 2 15 1 16 10 17 16 21 17 22 18 23 19 25 20 26 21 27
REMARK SMILES IDX 79 28 22 29 78 30 23 31 24 32 25 33 72 34 26 35 77 36 71 37
REMARK SMILES IDX 73 38 27 39 76 40 70 41 69 42 28 44 58 45 39 46 57 47 40 48
REMARK SMILES IDX 43 49 56 50 74 51 41 52 42 53 55 55 75 56 44 57 29 58 30 59
REMARK SMILES IDX 38 60 31 61 37 62 32 63 33 64 34 65 35 66 36 67 59 68 60 69
REMARK SMILES IDX 68 70 61 71 67 72 62 73 63 74 64 75 65 76 66 77 45 78 46 79
REMARK SMILES IDX 54 80 47 81 53 82 48 83 49 84 50 85 51 86 52 87
REMARK H PARENT 13 6 10 18 10 19 10 20 17 24 73 43 43 54
REMARK Flexibility Score: inf
ROOT
ATOM      1  C   UNL A   1      33.534  28.928  27.267  1.00  0.00     0.042 C 
ENDROOT
BRANCH   1   2
ATOM      2  C   UNL A   1      32.949  29.237  25.904  1.00  0.00     0.118 C 
BRANCH   2   3
ATOM      3  N   UNL A   1      33.912  29.151  24.811  1.00  0.00    -0.351 N 
ATOM      4  C   UNL A   1      33.789  28.540  23.581  1.00  0.00     0.281 C 
ATOM      5  O   UNL A   1      34.668  28.747  22.743  1.00  0.00    -0.268 OA
ATOM      6  H   UNL A   1      34.775  29.595  24.974  1.00  0.00     0.163 HD
BRANCH   4   7
ATOM      7  C   UNL A   1      32.587  27.581  23.321  1.00  0.00     0.176 C 
ATOM      8  C   UNL A   1      30.064  27.281  23.225  1.00  0.00     0.125 C 
ATOM      9  C   UNL A   1      30.132  26.205  24.313  1.00  0.00     0.032 C 
ATOM     10  C   UNL A   1      31.211  28.297  23.436  1.00  0.00     0.111 C 
ATOM     11  C   UNL A   1      31.452  25.468  24.249  1.00  0.00     0.010 C 
ATOM     12  C   UNL A   1      32.608  26.443  24.373  1.00  0.00     0.079 C 
BRANCH   8  13
ATOM     13  O   UNL A   1      28.799  27.937  23.189  1.00  0.00    -0.378 OA
BRANCH  13  14
ATOM     14  C   UNL A   1      28.836  29.343  22.920  1.00  0.00     0.160 C 
BRANCH  14  15
ATOM     15  C   UNL A   1      27.501  30.106  22.968  1.00  0.00     0.025 C 
ATOM     16  C   UNL A   1      27.496  31.456  23.683  1.00  0.00     0.006 C 
ENDBRANCH  14  15
ENDBRANCH  13  14
ENDBRANCH   8  13
BRANCH   7  17
ATOM     17  N   UNL A   1      32.689  27.109  21.910  1.00  0.00    -0.345 N 
ATOM     18  H   UNL A   1      31.832  27.346  21.409  1.00  0.00     0.345 HD
ATOM     19  H   UNL A   1      32.820  26.097  21.900  1.00  0.00     0.345 HD
ATOM     20  H   UNL A   1      33.484  27.560  21.457  1.00  0.00     0.345 HD
ENDBRANCH   7  17
ENDBRANCH   4   7
ENDBRANCH   2   3
ENDBRANCH   1   2
BRANCH   1  21
ATOM     21  C   UNL A   1      34.964  29.418  27.417  1.00  0.00     0.118 C 
BRANCH  21  22
ATOM     22  N   UNL A   1      35.155  30.254  28.599  1.00  0.00    -0.352 N 
ATOM     23  C   UNL A   1      36.221  30.371  29.462  1.00  0.00     0.251 C 
ATOM     24  H   UNL A   1      34.389  30.834  28.817  1.00  0.00     0.163 HD
ATOM     25  O   UNL A   1      36.090  30.983  30.513  1.00  0.00    -0.269 OA
BRANCH  23  26
ATOM     26  C   UNL A   1      37.512  29.730  29.129  1.00  0.00     0.039 A 
ATOM     27  C   UNL A   1      38.002  29.813  27.823  1.00  0.00     0.014 A 
ATOM     28  C   UNL A   1      38.249  29.070  30.110  1.00  0.00     0.014 A 
ATOM     29  C   UNL A   1      39.282  29.331  27.536  1.00  0.00     0.010 A 
ATOM     30  C   UNL A   1      39.562  28.702  29.854  1.00  0.00     0.010 A 
ATOM     31  C   UNL A   1      40.097  28.834  28.566  1.00  0.00    -0.014 A 
BRANCH  31  32
ATOM     32  C   UNL A   1      41.518  28.468  28.337  1.00  0.00     0.031 A 
ATOM     33  C   UNL A   1      42.579  29.537  28.324  1.00  0.00     0.074 A 
ATOM     34  C   UNL A   1      41.835  27.193  28.031  1.00  0.00     0.049 A 
ATOM     35  N   UNL A   1      43.847  29.434  28.020  1.00  0.00    -0.248 NA
ATOM     36  C   UNL A   1      42.154  30.908  28.656  1.00  0.00     0.031 C 
ATOM     37  C   UNL A   1      40.886  26.078  27.946  1.00  0.00     0.029 A 
ATOM     38  N   UNL A   1      43.042  26.620  27.718  1.00  0.00    -0.354 N 
ATOM     39  C   UNL A   1      44.360  30.723  28.095  1.00  0.00     0.074 A 
ATOM     40  C   UNL A   1      43.259  31.600  28.424  1.00  0.00     0.031 C 
ATOM     41  C   UNL A   1      41.551  24.955  27.632  1.00  0.00     0.029 A 
ATOM     42  C   UNL A   1      42.962  25.275  27.445  1.00  0.00     0.049 A 
ATOM     43  H   UNL A   1      43.886  27.126  27.690  1.00  0.00     0.167 HD
ATOM     44  C   UNL A   1      45.638  31.138  27.927  1.00  0.00     0.031 A 
ATOM     45  C   UNL A   1      43.912  24.397  27.073  1.00  0.00     0.031 A 
ATOM     46  C   UNL A   1      46.736  30.257  27.634  1.00  0.00     0.049 A 
ATOM     47  C   UNL A   1      45.327  24.880  26.910  1.00  0.00     0.074 A 
ATOM     48  C   UNL A   1      48.080  30.567  27.531  1.00  0.00     0.029 A 
ATOM     49  N   UNL A   1      46.617  28.896  27.400  1.00  0.00    -0.354 N 
ATOM     50  N   UNL A   1      45.805  26.091  27.067  1.00  0.00    -0.248 NA
ATOM     51  C   UNL A   1      46.331  23.878  26.526  1.00  0.00     0.031 C 
ATOM     52  C   UNL A   1      48.769  29.401  27.184  1.00  0.00     0.029 A 
ATOM     53  C   UNL A   1      47.860  28.356  27.124  1.00  0.00     0.049 A 
ATOM     54  H   UNL A   1      45.773  28.390  27.426  1.00  0.00     0.167 HD
ATOM     55  C   UNL A   1      47.169  25.993  26.818  1.00  0.00     0.074 A 
ATOM     56  C   UNL A   1      47.442  24.602  26.522  1.00  0.00     0.031 C 
ATOM     57  C   UNL A   1      48.111  26.968  26.829  1.00  0.00     0.031 A 
BRANCH  44  58
ATOM     58  C   UNL A   1      45.920  32.611  28.064  1.00  0.00    -0.014 A 
ATOM     59  C   UNL A   1      46.373  33.153  29.280  1.00  0.00     0.010 A 
ATOM     60  C   UNL A   1      45.780  33.457  26.949  1.00  0.00     0.010 A 
ATOM     61  C   UNL A   1      46.648  34.518  29.388  1.00  0.00     0.020 A 
ATOM     62  C   UNL A   1      46.080  34.818  27.045  1.00  0.00     0.020 A 
ATOM     63  C   UNL A   1      46.499  35.343  28.269  1.00  0.00     0.054 A 
BRANCH  63  64
ATOM     64  S   UNL A   1      46.901  37.105  28.428  1.00  0.00     0.124 S 
ATOM     65  O   UNL A   1      45.579  37.722  28.361  1.00  0.00    -0.237 OA
ATOM     66  O   UNL A   1      47.557  37.167  29.732  1.00  0.00    -0.237 OA
ATOM     67  O   UNL A   1      47.770  37.367  27.284  1.00  0.00    -0.744 OA
ENDBRANCH  63  64
ENDBRANCH  44  58
BRANCH  45  68
ATOM     68  C   UNL A   1      43.559  22.971  26.830  1.00  0.00    -0.014 A 
ATOM     69  C   UNL A   1      43.890  22.351  25.613  1.00  0.00     0.010 A 
ATOM     70  C   UNL A   1      42.898  22.222  27.821  1.00  0.00     0.010 A 
ATOM     71  C   UNL A   1      43.546  21.016  25.381  1.00  0.00     0.020 A 
ATOM     72  C   UNL A   1      42.576  20.880  27.603  1.00  0.00     0.020 A 
ATOM     73  C   UNL A   1      42.891  20.288  26.378  1.00  0.00     0.054 A 
BRANCH  73  74
ATOM     74  S   UNL A   1      42.494  18.544  26.073  1.00  0.00     0.124 S 
ATOM     75  O   UNL A   1      41.071  18.608  25.756  1.00  0.00    -0.237 OA
ATOM     76  O   UNL A   1      43.377  18.209  24.959  1.00  0.00    -0.237 OA
ATOM     77  O   UNL A   1      42.826  17.893  27.339  1.00  0.00    -0.744 OA
ENDBRANCH  73  74
ENDBRANCH  45  68
BRANCH  57  78
ATOM     78  C   UNL A   1      49.527  26.563  26.528  1.00  0.00    -0.014 A 
ATOM     79  C   UNL A   1      50.345  26.000  27.523  1.00  0.00     0.010 A 
ATOM     80  C   UNL A   1      50.025  26.693  25.218  1.00  0.00     0.010 A 
ATOM     81  C   UNL A   1      51.648  25.596  27.218  1.00  0.00     0.020 A 
ATOM     82  C   UNL A   1      51.316  26.265  24.905  1.00  0.00     0.020 A 
ATOM     83  C   UNL A   1      52.124  25.731  25.911  1.00  0.00     0.054 A 
BRANCH  83  84
ATOM     84  S   UNL A   1      53.801  25.153  25.531  1.00  0.00     0.124 S 
ATOM     85  O   UNL A   1      53.615  23.705  25.467  1.00  0.00    -0.237 OA
ATOM     86  O   UNL A   1      54.085  25.807  24.257  1.00  0.00    -0.237 OA
ATOM     87  O   UNL A   1      54.596  25.630  26.661  1.00  0.00    -0.744 OA
ENDBRANCH  83  84
ENDBRANCH  57  78
ENDBRANCH  31  32
ENDBRANCH  23  26
ENDBRANCH  21  22
ENDBRANCH   1  21
TORSDOF 17
ENDMDL
