MODEL 1
REMARK VINA RESULT:     -12.6      0.000      0.000
REMARK SMILES O=C(NCCCNC(=O)[C@@H]1[C@@H](C(=O)N2CCN(c3cccc(Cl)c3)CC2)[C@H]2CC[C@@H]1O2)c1ccc(-c2c3nc(c(-c4ccc(S(=O)(=O)[O-])cc4)c4ccc([nH]4)c(-c4ccc(S(=O)(=O)[O-])cc4)c4nc(c(-c5ccc(S(=O)(=O)[O-])cc5)c5ccc2[nH]5)C=C4)C=C3)cc1
REMARK SMILES IDX 4 1 3 2 1 3 2 4 32 6 33 7 91 8 34 9 90 10 35 11 36 12 37 13
REMARK SMILES IDX 84 14 38 15 89 16 83 17 85 18 39 19 88 20 82 21 81 22 40 24
REMARK SMILES IDX 70 25 51 26 69 27 52 28 55 29 68 30 86 31 53 32 54 33 67 35
REMARK SMILES IDX 87 36 56 37 41 38 42 39 50 40 43 41 49 42 44 43 45 44 46 45
REMARK SMILES IDX 47 46 48 47 71 48 72 49 80 50 73 51 79 52 74 53 75 54 76 55
REMARK SMILES IDX 77 56 78 57 57 58 58 59 66 60 59 61 65 62 60 63 61 64 62 65
REMARK SMILES IDX 63 66 64 67 5 68 6 69 7 70 8 71 9 73 10 74 11 75 30 76 27 77
REMARK SMILES IDX 29 78 31 79 28 80 12 81 13 82 14 83 15 84 26 85 16 86 25 87
REMARK SMILES IDX 17 88 18 89 19 90 24 91 20 92 22 93 21 94 23 95
REMARK H PARENT 3 5 85 23 55 34 7 72
REMARK Flexibility Score: inf
ROOT
ATOM      1  C   UNL A   1      32.727  32.768  27.417  1.00  0.00     0.118 C 
ENDROOT
BRANCH   1   2
ATOM      2  N   UNL A   1      32.514  34.165  27.771  1.00  0.00    -0.352 N 
ATOM      3  O   UNL A   1      32.683  36.062  28.963  1.00  0.00    -0.269 OA
ATOM      4  C   UNL A   1      33.129  34.942  28.723  1.00  0.00     0.251 C 
ATOM      5  H   UNL A   1      31.820  34.624  27.247  1.00  0.00     0.163 HD
BRANCH   4   6
ATOM      6  C   UNL A   1      34.300  34.434  29.475  1.00  0.00     0.039 A 
ATOM      7  C   UNL A   1      35.598  34.616  28.997  1.00  0.00     0.014 A 
ATOM      8  C   UNL A   1      34.093  33.780  30.694  1.00  0.00     0.014 A 
ATOM      9  C   UNL A   1      36.666  34.005  29.646  1.00  0.00     0.010 A 
ATOM     10  C   UNL A   1      35.179  33.244  31.393  1.00  0.00     0.010 A 
ATOM     11  C   UNL A   1      36.472  33.312  30.852  1.00  0.00    -0.014 A 
BRANCH  11  12
ATOM     12  C   UNL A   1      37.642  32.699  31.536  1.00  0.00     0.031 A 
ATOM     13  C   UNL A   1      38.113  33.200  32.877  1.00  0.00     0.074 A 
ATOM     14  C   UNL A   1      38.258  31.647  30.959  1.00  0.00     0.049 A 
ATOM     15  N   UNL A   1      39.061  32.725  33.644  1.00  0.00    -0.248 NA
ATOM     16  C   UNL A   1      37.439  34.387  33.426  1.00  0.00     0.031 C 
ATOM     17  C   UNL A   1      37.904  31.075  29.657  1.00  0.00     0.029 A 
ATOM     18  N   UNL A   1      39.284  30.852  31.403  1.00  0.00    -0.354 N 
ATOM     19  C   UNL A   1      39.117  33.565  34.751  1.00  0.00     0.074 A 
ATOM     20  C   UNL A   1      38.121  34.594  34.545  1.00  0.00     0.031 C 
ATOM     21  C   UNL A   1      38.655  29.985  29.438  1.00  0.00     0.029 A 
ATOM     22  C   UNL A   1      39.579  29.813  30.554  1.00  0.00     0.049 A 
ATOM     23  H   UNL A   1      39.763  31.011  32.248  1.00  0.00     0.167 HD
ATOM     24  C   UNL A   1      39.921  33.487  35.839  1.00  0.00     0.031 A 
ATOM     25  C   UNL A   1      40.491  28.828  30.655  1.00  0.00     0.031 A 
ATOM     26  C   UNL A   1      40.906  32.458  36.048  1.00  0.00     0.049 A 
ATOM     27  C   UNL A   1      41.374  28.768  31.867  1.00  0.00     0.074 A 
ATOM     28  C   UNL A   1      41.736  32.269  37.140  1.00  0.00     0.029 A 
ATOM     29  N   UNL A   1      41.203  31.448  35.144  1.00  0.00    -0.354 N 
ATOM     30  N   UNL A   1      41.377  29.548  32.922  1.00  0.00    -0.248 NA
ATOM     31  C   UNL A   1      42.374  27.693  31.904  1.00  0.00     0.031 C 
ATOM     32  C   UNL A   1      42.567  31.174  36.877  1.00  0.00     0.029 A 
ATOM     33  C   UNL A   1      42.218  30.648  35.643  1.00  0.00     0.049 A 
ATOM     34  H   UNL A   1      40.756  31.319  34.276  1.00  0.00     0.167 HD
ATOM     35  C   UNL A   1      42.367  29.045  33.758  1.00  0.00     0.074 A 
ATOM     36  C   UNL A   1      42.927  27.886  33.093  1.00  0.00     0.031 C 
ATOM     37  C   UNL A   1      42.773  29.503  34.968  1.00  0.00     0.031 A 
BRANCH  24  38
ATOM     38  C   UNL A   1      39.788  34.566  36.883  1.00  0.00    -0.014 A 
ATOM     39  C   UNL A   1      40.534  35.755  36.807  1.00  0.00     0.010 A 
ATOM     40  C   UNL A   1      38.872  34.401  37.939  1.00  0.00     0.010 A 
ATOM     41  C   UNL A   1      40.401  36.739  37.791  1.00  0.00     0.020 A 
ATOM     42  C   UNL A   1      38.717  35.393  38.912  1.00  0.00     0.020 A 
ATOM     43  C   UNL A   1      39.498  36.548  38.842  1.00  0.00     0.054 A 
BRANCH  43  44
ATOM     44  S   UNL A   1      39.341  37.842  40.104  1.00  0.00     0.124 S 
ATOM     45  O   UNL A   1      40.618  38.541  39.976  1.00  0.00    -0.237 OA
ATOM     46  O   UNL A   1      38.169  38.590  39.655  1.00  0.00    -0.237 OA
ATOM     47  O   UNL A   1      39.161  37.095  41.346  1.00  0.00    -0.744 OA
ENDBRANCH  43  44
ENDBRANCH  24  38
BRANCH  25  48
ATOM     48  C   UNL A   1      40.601  27.810  29.576  1.00  0.00    -0.014 A 
ATOM     49  C   UNL A   1      41.620  27.901  28.611  1.00  0.00     0.010 A 
ATOM     50  C   UNL A   1      39.704  26.727  29.526  1.00  0.00     0.010 A 
ATOM     51  C   UNL A   1      41.733  26.932  27.611  1.00  0.00     0.020 A 
ATOM     52  C   UNL A   1      39.832  25.743  28.544  1.00  0.00     0.020 A 
ATOM     53  C   UNL A   1      40.840  25.858  27.585  1.00  0.00     0.054 A 
BRANCH  53  54
ATOM     54  S   UNL A   1      41.043  24.578  26.315  1.00  0.00     0.124 S 
ATOM     55  O   UNL A   1      41.945  23.639  26.974  1.00  0.00    -0.237 OA
ATOM     56  O   UNL A   1      39.673  24.109  26.117  1.00  0.00    -0.237 OA
ATOM     57  O   UNL A   1      41.612  25.308  25.185  1.00  0.00    -0.744 OA
ENDBRANCH  53  54
ENDBRANCH  25  48
BRANCH  37  58
ATOM     58  C   UNL A   1      43.859  28.727  35.664  1.00  0.00    -0.014 A 
ATOM     59  C   UNL A   1      45.213  29.077  35.518  1.00  0.00     0.010 A 
ATOM     60  C   UNL A   1      43.514  27.648  36.496  1.00  0.00     0.010 A 
ATOM     61  C   UNL A   1      46.207  28.333  36.160  1.00  0.00     0.020 A 
ATOM     62  C   UNL A   1      44.502  26.919  37.162  1.00  0.00     0.020 A 
ATOM     63  C   UNL A   1      45.844  27.256  36.975  1.00  0.00     0.054 A 
BRANCH  63  64
ATOM     64  S   UNL A   1      47.148  26.318  37.819  1.00  0.00     0.124 S 
ATOM     65  O   UNL A   1      46.452  25.837  39.010  1.00  0.00    -0.237 OA
ATOM     66  O   UNL A   1      47.497  25.294  36.837  1.00  0.00    -0.237 OA
ATOM     67  O   UNL A   1      48.186  27.316  38.065  1.00  0.00    -0.744 OA
ENDBRANCH  63  64
ENDBRANCH  37  58
ENDBRANCH  11  12
ENDBRANCH   4   6
ENDBRANCH   1   2
BRANCH   1  68
ATOM     68  C   UNL A   1      31.536  32.146  26.690  1.00  0.00     0.042 C 
BRANCH  68  69
ATOM     69  C   UNL A   1      31.796  30.741  26.161  1.00  0.00     0.117 C 
BRANCH  69  70
ATOM     70  N   UNL A   1      31.699  29.753  27.219  1.00  0.00    -0.356 N 
ATOM     71  C   UNL A   1      31.633  28.394  27.131  1.00  0.00     0.226 C 
ATOM     72  H   UNL A   1      31.676  30.115  28.133  1.00  0.00     0.163 HD
ATOM     73  O   UNL A   1      31.282  27.778  28.137  1.00  0.00    -0.275 OA
BRANCH  71  74
ATOM     74  C   UNL A   1      31.977  27.717  25.811  1.00  0.00     0.122 C 
ATOM     75  C   UNL A   1      32.001  26.184  25.924  1.00  0.00     0.122 C 
ATOM     76  C   UNL A   1      33.451  28.021  25.494  1.00  0.00     0.132 C 
ATOM     77  C   UNL A   1      33.469  25.854  25.588  1.00  0.00     0.132 C 
ATOM     78  C   UNL A   1      33.785  27.640  24.053  1.00  0.00     0.035 C 
ATOM     79  O   UNL A   1      34.135  26.974  26.232  1.00  0.00    -0.373 OA
ATOM     80  C   UNL A   1      33.924  26.124  24.154  1.00  0.00     0.035 C 
BRANCH  75  81
ATOM     81  C   UNL A   1      31.011  25.448  25.038  1.00  0.00     0.229 C 
ATOM     82  O   UNL A   1      30.123  26.023  24.415  1.00  0.00    -0.274 OA
ATOM     83  N   UNL A   1      31.247  24.104  24.856  1.00  0.00    -0.339 N 
ATOM     84  C   UNL A   1      30.981  23.504  23.548  1.00  0.00     0.141 C 
ATOM     85  C   UNL A   1      31.519  23.142  25.932  1.00  0.00     0.141 C 
ATOM     86  C   UNL A   1      32.157  22.600  23.135  1.00  0.00     0.138 C 
ATOM     87  C   UNL A   1      32.606  22.118  25.557  1.00  0.00     0.138 C 
ATOM     88  N   UNL A   1      32.405  21.614  24.191  1.00  0.00    -0.368 N 
BRANCH  88  89
ATOM     89  C   UNL A   1      32.433  20.273  23.892  1.00  0.00     0.038 A 
ATOM     90  C   UNL A   1      32.212  19.821  22.586  1.00  0.00     0.026 A 
ATOM     91  C   UNL A   1      32.726  19.322  24.878  1.00  0.00     0.046 A 
ATOM     92  C   UNL A   1      32.304  18.464  22.263  1.00  0.00     0.004 A 
ATOM     93  C   UNL A   1      32.795  17.964  24.562  1.00  0.00     0.043 A 
ATOM     94  C   UNL A   1      32.594  17.531  23.256  1.00  0.00     0.020 A 
ATOM     95  Cl  UNL A   1      33.138  16.818  25.800  1.00  0.00    -0.084 Cl
ENDBRANCH  88  89
ENDBRANCH  75  81
ENDBRANCH  71  74
ENDBRANCH  69  70
ENDBRANCH  68  69
ENDBRANCH   1  68
TORSDOF 15
ENDMDL
MODEL 2
REMARK VINA RESULT:     -12.5      6.258      8.349
REMARK SMILES O=C(NCCCNC(=O)[C@@H]1[C@@H](C(=O)N2CCN(c3cccc(Cl)c3)CC2)[C@H]2CC[C@@H]1O2)c1ccc(-c2c3nc(c(-c4ccc(S(=O)(=O)[O-])cc4)c4ccc([nH]4)c(-c4ccc(S(=O)(=O)[O-])cc4)c4nc(c(-c5ccc(S(=O)(=O)[O-])cc5)c5ccc2[nH]5)C=C4)C=C3)cc1
REMARK SMILES IDX 4 1 3 2 1 3 2 4 32 6 33 7 91 8 34 9 90 10 35 11 36 12 37 13
REMARK SMILES IDX 84 14 38 15 89 16 83 17 85 18 39 19 88 20 82 21 81 22 40 24
REMARK SMILES IDX 70 25 51 26 69 27 52 28 55 29 68 30 86 31 53 32 54 33 67 35
REMARK SMILES IDX 87 36 56 37 41 38 42 39 50 40 43 41 49 42 44 43 45 44 46 45
REMARK SMILES IDX 47 46 48 47 71 48 72 49 80 50 73 51 79 52 74 53 75 54 76 55
REMARK SMILES IDX 77 56 78 57 57 58 58 59 66 60 59 61 65 62 60 63 61 64 62 65
REMARK SMILES IDX 63 66 64 67 5 68 6 69 7 70 8 71 9 73 10 74 11 75 30 76 27 77
REMARK SMILES IDX 29 78 31 79 28 80 12 81 13 82 14 83 15 84 26 85 16 86 25 87
REMARK SMILES IDX 17 88 18 89 19 90 24 91 20 92 22 93 21 94 23 95
REMARK H PARENT 3 5 85 23 55 34 7 72
REMARK Flexibility Score: inf
ROOT
ATOM      1  C   UNL A   1      35.414  29.678  27.455  1.00  0.00     0.118 C 
ENDROOT
BRANCH   1   2
ATOM      2  N   UNL A   1      35.371  29.828  28.903  1.00  0.00    -0.352 N 
ATOM      3  O   UNL A   1      36.074  29.704  31.034  1.00  0.00    -0.269 OA
ATOM      4  C   UNL A   1      36.366  29.685  29.840  1.00  0.00     0.251 C 
ATOM      5  H   UNL A   1      34.490  30.070  29.269  1.00  0.00     0.163 HD
BRANCH   4   6
ATOM      6  C   UNL A   1      37.773  29.482  29.425  1.00  0.00     0.039 A 
ATOM      7  C   UNL A   1      38.169  29.676  28.101  1.00  0.00     0.014 A 
ATOM      8  C   UNL A   1      38.719  29.109  30.386  1.00  0.00     0.014 A 
ATOM      9  C   UNL A   1      39.461  29.339  27.708  1.00  0.00     0.010 A 
ATOM     10  C   UNL A   1      40.041  28.858  30.005  1.00  0.00     0.010 A 
ATOM     11  C   UNL A   1      40.414  28.927  28.655  1.00  0.00    -0.014 A 
BRANCH  11  12
ATOM     12  C   UNL A   1      41.795  28.606  28.204  1.00  0.00     0.031 A 
ATOM     13  C   UNL A   1      42.880  29.652  28.209  1.00  0.00     0.074 A 
ATOM     14  C   UNL A   1      42.083  27.344  27.829  1.00  0.00     0.049 A 
ATOM     15  N   UNL A   1      44.151  29.517  27.928  1.00  0.00    -0.248 NA
ATOM     16  C   UNL A   1      42.490  31.024  28.571  1.00  0.00     0.031 C 
ATOM     17  C   UNL A   1      41.117  26.242  27.770  1.00  0.00     0.029 A 
ATOM     18  N   UNL A   1      43.270  26.764  27.461  1.00  0.00    -0.354 N 
ATOM     19  C   UNL A   1      44.708  30.786  28.052  1.00  0.00     0.074 A 
ATOM     20  C   UNL A   1      43.631  31.682  28.413  1.00  0.00     0.031 C 
ATOM     21  C   UNL A   1      41.762  25.110  27.451  1.00  0.00     0.029 A 
ATOM     22  C   UNL A   1      43.172  25.413  27.229  1.00  0.00     0.049 A 
ATOM     23  H   UNL A   1      44.111  27.267  27.370  1.00  0.00     0.167 HD
ATOM     24  C   UNL A   1      45.998  31.169  27.884  1.00  0.00     0.031 A 
ATOM     25  C   UNL A   1      44.108  24.511  26.877  1.00  0.00     0.031 A 
ATOM     26  C   UNL A   1      47.071  30.276  27.533  1.00  0.00     0.049 A 
ATOM     27  C   UNL A   1      45.527  24.964  26.690  1.00  0.00     0.074 A 
ATOM     28  C   UNL A   1      48.417  30.563  27.386  1.00  0.00     0.029 A 
ATOM     29  N   UNL A   1      46.921  28.923  27.266  1.00  0.00    -0.354 N 
ATOM     30  N   UNL A   1      46.038  26.160  26.858  1.00  0.00    -0.248 NA
ATOM     31  C   UNL A   1      46.496  23.943  26.270  1.00  0.00     0.031 C 
ATOM     32  C   UNL A   1      49.074  29.395  26.983  1.00  0.00     0.029 A 
ATOM     33  C   UNL A   1      48.146  28.367  26.932  1.00  0.00     0.049 A 
ATOM     34  H   UNL A   1      46.071  28.429  27.309  1.00  0.00     0.167 HD
ATOM     35  C   UNL A   1      47.394  26.032  26.581  1.00  0.00     0.074 A 
ATOM     36  C   UNL A   1      47.624  24.639  26.254  1.00  0.00     0.031 C 
ATOM     37  C   UNL A   1      48.361  26.982  26.599  1.00  0.00     0.031 A 
BRANCH  24  38
ATOM     38  C   UNL A   1      46.317  32.633  28.050  1.00  0.00    -0.014 A 
ATOM     39  C   UNL A   1      46.750  33.153  29.283  1.00  0.00     0.010 A 
ATOM     40  C   UNL A   1      46.216  33.495  26.942  1.00  0.00     0.010 A 
ATOM     41  C   UNL A   1      47.032  34.516  29.416  1.00  0.00     0.020 A 
ATOM     42  C   UNL A   1      46.521  34.854  27.065  1.00  0.00     0.020 A 
ATOM     43  C   UNL A   1      46.908  35.360  28.307  1.00  0.00     0.054 A 
BRANCH  43  44
ATOM     44  S   UNL A   1      47.285  37.124  28.505  1.00  0.00     0.124 S 
ATOM     45  O   UNL A   1      48.598  37.079  29.145  1.00  0.00    -0.237 OA
ATOM     46  O   UNL A   1      47.274  37.612  27.129  1.00  0.00    -0.237 OA
ATOM     47  O   UNL A   1      46.198  37.617  29.347  1.00  0.00    -0.744 OA
ENDBRANCH  43  44
ENDBRANCH  24  38
BRANCH  25  48
ATOM     48  C   UNL A   1      43.727  23.086  26.692  1.00  0.00    -0.014 A 
ATOM     49  C   UNL A   1      43.034  22.396  27.702  1.00  0.00     0.010 A 
ATOM     50  C   UNL A   1      44.030  22.420  25.490  1.00  0.00     0.010 A 
ATOM     51  C   UNL A   1      42.659  21.063  27.517  1.00  0.00     0.020 A 
ATOM     52  C   UNL A   1      43.633  21.096  25.292  1.00  0.00     0.020 A 
ATOM     53  C   UNL A   1      42.959  20.422  26.312  1.00  0.00     0.054 A 
BRANCH  53  54
ATOM     54  S   UNL A   1      42.408  18.710  26.068  1.00  0.00     0.124 S 
ATOM     55  O   UNL A   1      42.621  18.132  27.390  1.00  0.00    -0.237 OA
ATOM     56  O   UNL A   1      41.013  18.882  25.667  1.00  0.00    -0.237 OA
ATOM     57  O   UNL A   1      43.293  18.215  25.015  1.00  0.00    -0.744 OA
ENDBRANCH  53  54
ENDBRANCH  25  48
BRANCH  37  58
ATOM     58  C   UNL A   1      49.764  26.538  26.283  1.00  0.00    -0.014 A 
ATOM     59  C   UNL A   1      50.574  25.932  27.259  1.00  0.00     0.010 A 
ATOM     60  C   UNL A   1      50.267  26.711  24.982  1.00  0.00     0.010 A 
ATOM     61  C   UNL A   1      51.880  25.541  26.948  1.00  0.00     0.020 A 
ATOM     62  C   UNL A   1      51.562  26.298  24.660  1.00  0.00     0.020 A 
ATOM     63  C   UNL A   1      52.367  25.732  25.651  1.00  0.00     0.054 A 
BRANCH  63  64
ATOM     64  S   UNL A   1      54.056  25.196  25.262  1.00  0.00     0.124 S 
ATOM     65  O   UNL A   1      53.873  23.767  25.022  1.00  0.00    -0.237 OA
ATOM     66  O   UNL A   1      54.384  25.995  24.083  1.00  0.00    -0.237 OA
ATOM     67  O   UNL A   1      54.811  25.535  26.465  1.00  0.00    -0.744 OA
ENDBRANCH  63  64
ENDBRANCH  37  58
ENDBRANCH  11  12
ENDBRANCH   4   6
ENDBRANCH   1   2
BRANCH   1  68
ATOM     68  C   UNL A   1      34.251  28.857  26.903  1.00  0.00     0.042 C 
BRANCH  68  69
ATOM     69  C   UNL A   1      33.083  29.695  26.397  1.00  0.00     0.117 C 
BRANCH  69  70
ATOM     70  N   UNL A   1      33.102  29.806  24.950  1.00  0.00    -0.356 N 
ATOM     71  C   UNL A   1      32.628  28.940  24.010  1.00  0.00     0.226 C 
ATOM     72  H   UNL A   1      33.517  30.624  24.596  1.00  0.00     0.163 HD
ATOM     73  O   UNL A   1      32.995  29.111  22.848  1.00  0.00    -0.275 OA
BRANCH  71  74
ATOM     74  C   UNL A   1      31.697  27.814  24.438  1.00  0.00     0.122 C 
ATOM     75  C   UNL A   1      32.311  26.423  24.210  1.00  0.00     0.122 C 
ATOM     76  C   UNL A   1      30.510  27.786  23.461  1.00  0.00     0.132 C 
ATOM     77  C   UNL A   1      31.338  25.800  23.190  1.00  0.00     0.132 C 
ATOM     78  C   UNL A   1      29.389  26.895  23.996  1.00  0.00     0.035 C 
ATOM     79  O   UNL A   1      31.034  26.969  22.382  1.00  0.00    -0.373 OA
ATOM     80  C   UNL A   1      29.923  25.500  23.683  1.00  0.00     0.035 C 
BRANCH  75  81
ATOM     81  C   UNL A   1      32.487  25.574  25.457  1.00  0.00     0.229 C 
ATOM     82  O   UNL A   1      32.034  25.899  26.551  1.00  0.00    -0.274 OA
ATOM     83  N   UNL A   1      33.066  24.339  25.269  1.00  0.00    -0.339 N 
ATOM     84  C   UNL A   1      32.588  23.201  26.056  1.00  0.00     0.141 C 
ATOM     85  C   UNL A   1      34.301  24.093  24.514  1.00  0.00     0.141 C 
ATOM     86  C   UNL A   1      32.390  21.977  25.143  1.00  0.00     0.138 C 
ATOM     87  C   UNL A   1      34.235  22.814  23.660  1.00  0.00     0.138 C 
ATOM     88  N   UNL A   1      33.635  21.706  24.418  1.00  0.00    -0.368 N 
BRANCH  88  89
ATOM     89  C   UNL A   1      34.207  20.457  24.469  1.00  0.00     0.038 A 
ATOM     90  C   UNL A   1      35.552  20.294  24.822  1.00  0.00     0.026 A 
ATOM     91  C   UNL A   1      33.449  19.308  24.211  1.00  0.00     0.046 A 
ATOM     92  C   UNL A   1      36.122  19.023  24.939  1.00  0.00     0.004 A 
ATOM     93  C   UNL A   1      34.022  18.039  24.305  1.00  0.00     0.043 A 
ATOM     94  C   UNL A   1      35.355  17.891  24.677  1.00  0.00     0.020 A 
ATOM     95  Cl  UNL A   1      33.070  16.646  23.963  1.00  0.00    -0.084 Cl
ENDBRANCH  88  89
ENDBRANCH  75  81
ENDBRANCH  71  74
ENDBRANCH  69  70
ENDBRANCH  68  69
ENDBRANCH   1  68
TORSDOF 15
ENDMDL
MODEL 3
REMARK VINA RESULT:     -12.5      0.463      7.961
REMARK SMILES O=C(NCCCNC(=O)[C@@H]1[C@@H](C(=O)N2CCN(c3cccc(Cl)c3)CC2)[C@H]2CC[C@@H]1O2)c1ccc(-c2c3nc(c(-c4ccc(S(=O)(=O)[O-])cc4)c4ccc([nH]4)c(-c4ccc(S(=O)(=O)[O-])cc4)c4nc(c(-c5ccc(S(=O)(=O)[O-])cc5)c5ccc2[nH]5)C=C4)C=C3)cc1
REMARK SMILES IDX 4 1 3 2 1 3 2 4 32 6 33 7 91 8 34 9 90 10 35 11 36 12 37 13
REMARK SMILES IDX 84 14 38 15 89 16 83 17 85 18 39 19 88 20 82 21 81 22 40 24
REMARK SMILES IDX 70 25 51 26 69 27 52 28 55 29 68 30 86 31 53 32 54 33 67 35
REMARK SMILES IDX 87 36 56 37 41 38 42 39 50 40 43 41 49 42 44 43 45 44 46 45
REMARK SMILES IDX 47 46 48 47 71 48 72 49 80 50 73 51 79 52 74 53 75 54 76 55
REMARK SMILES IDX 77 56 78 57 57 58 58 59 66 60 59 61 65 62 60 63 61 64 62 65
REMARK SMILES IDX 63 66 64 67 5 68 6 69 7 70 8 71 9 73 10 74 11 75 30 76 27 77
REMARK SMILES IDX 29 78 31 79 28 80 12 81 13 82 14 83 15 84 26 85 16 86 25 87
REMARK SMILES IDX 17 88 18 89 19 90 24 91 20 92 22 93 21 94 23 95
REMARK H PARENT 3 5 85 23 55 34 7 72
REMARK Flexibility Score: inf
ROOT
ATOM      1  C   UNL A   1      32.768  32.834  27.401  1.00  0.00     0.118 C 
ENDROOT
BRANCH   1   2
ATOM      2  N   UNL A   1      32.559  34.222  27.789  1.00  0.00    -0.352 N 
ATOM      3  O   UNL A   1      32.687  36.075  29.053  1.00  0.00    -0.269 OA
ATOM      4  C   UNL A   1      33.127  34.956  28.802  1.00  0.00     0.251 C 
ATOM      5  H   UNL A   1      31.906  34.712  27.239  1.00  0.00     0.163 HD
BRANCH   4   6
ATOM      6  C   UNL A   1      34.240  34.400  29.607  1.00  0.00     0.039 A 
ATOM      7  C   UNL A   1      35.565  34.526  29.188  1.00  0.00     0.014 A 
ATOM      8  C   UNL A   1      33.951  33.757  30.815  1.00  0.00     0.014 A 
ATOM      9  C   UNL A   1      36.576  33.872  29.885  1.00  0.00     0.010 A 
ATOM     10  C   UNL A   1      34.980  33.177  31.562  1.00  0.00     0.010 A 
ATOM     11  C   UNL A   1      36.298  33.190  31.081  1.00  0.00    -0.014 A 
BRANCH  11  12
ATOM     12  C   UNL A   1      37.410  32.530  31.817  1.00  0.00     0.031 A 
ATOM     13  C   UNL A   1      38.151  31.360  31.223  1.00  0.00     0.074 A 
ATOM     14  C   UNL A   1      37.784  33.022  33.015  1.00  0.00     0.049 A 
ATOM     15  N   UNL A   1      39.194  30.724  31.694  1.00  0.00    -0.248 NA
ATOM     16  C   UNL A   1      37.658  30.831  29.941  1.00  0.00     0.031 C 
ATOM     17  C   UNL A   1      37.138  34.144  33.703  1.00  0.00     0.029 A 
ATOM     18  N   UNL A   1      38.812  32.668  33.850  1.00  0.00    -0.354 N 
ATOM     19  C   UNL A   1      39.467  29.708  30.784  1.00  0.00     0.074 A 
ATOM     20  C   UNL A   1      38.466  29.798  29.744  1.00  0.00     0.031 C 
ATOM     21  C   UNL A   1      37.824  34.427  34.820  1.00  0.00     0.029 A 
ATOM     22  C   UNL A   1      38.921  33.475  34.958  1.00  0.00     0.049 A 
ATOM     23  H   UNL A   1      39.414  31.910  33.674  1.00  0.00     0.167 HD
ATOM     24  C   UNL A   1      40.462  28.787  30.811  1.00  0.00     0.031 A 
ATOM     25  C   UNL A   1      39.802  33.455  35.976  1.00  0.00     0.031 A 
ATOM     26  C   UNL A   1      41.463  28.703  31.842  1.00  0.00     0.049 A 
ATOM     27  C   UNL A   1      40.888  32.420  35.985  1.00  0.00     0.074 A 
ATOM     28  C   UNL A   1      42.537  27.833  31.930  1.00  0.00     0.029 A 
ATOM     29  N   UNL A   1      41.512  29.512  32.968  1.00  0.00    -0.354 N 
ATOM     30  N   UNL A   1      41.154  31.498  35.090  1.00  0.00    -0.248 NA
ATOM     31  C   UNL A   1      41.796  32.426  37.139  1.00  0.00     0.031 C 
ATOM     32  C   UNL A   1      43.207  28.084  33.133  1.00  0.00     0.029 A 
ATOM     33  C   UNL A   1      42.583  29.146  33.768  1.00  0.00     0.049 A 
ATOM     34  H   UNL A   1      40.880  30.240  33.168  1.00  0.00     0.167 HD
ATOM     35  C   UNL A   1      42.273  30.825  35.566  1.00  0.00     0.074 A 
ATOM     36  C   UNL A   1      42.643  31.458  36.816  1.00  0.00     0.031 C 
ATOM     37  C   UNL A   1      42.935  29.778  35.014  1.00  0.00     0.031 A 
BRANCH  24  38
ATOM     38  C   UNL A   1      40.499  27.769  29.699  1.00  0.00    -0.014 A 
ATOM     39  C   UNL A   1      41.511  27.786  28.724  1.00  0.00     0.010 A 
ATOM     40  C   UNL A   1      39.522  26.756  29.654  1.00  0.00     0.010 A 
ATOM     41  C   UNL A   1      41.520  26.837  27.697  1.00  0.00     0.020 A 
ATOM     42  C   UNL A   1      39.543  25.790  28.643  1.00  0.00     0.020 A 
ATOM     43  C   UNL A   1      40.531  25.849  27.659  1.00  0.00     0.054 A 
BRANCH  43  44
ATOM     44  S   UNL A   1      40.568  24.627  26.318  1.00  0.00     0.124 S 
ATOM     45  O   UNL A   1      41.054  25.429  25.197  1.00  0.00    -0.237 OA
ATOM     46  O   UNL A   1      41.502  23.624  26.823  1.00  0.00    -0.237 OA
ATOM     47  O   UNL A   1      39.180  24.185  26.213  1.00  0.00    -0.744 OA
ENDBRANCH  43  44
ENDBRANCH  24  38
BRANCH  25  48
ATOM     48  C   UNL A   1      39.694  34.463  37.064  1.00  0.00    -0.014 A 
ATOM     49  C   UNL A   1      40.336  35.708  36.949  1.00  0.00     0.010 A 
ATOM     50  C   UNL A   1      38.921  34.193  38.209  1.00  0.00     0.010 A 
ATOM     51  C   UNL A   1      40.216  36.661  37.964  1.00  0.00     0.020 A 
ATOM     52  C   UNL A   1      38.777  35.154  39.212  1.00  0.00     0.020 A 
ATOM     53  C   UNL A   1      39.435  36.379  39.088  1.00  0.00     0.054 A 
BRANCH  53  54
ATOM     54  S   UNL A   1      39.241  37.653  40.365  1.00  0.00     0.124 S 
ATOM     55  O   UNL A   1      38.112  38.423  39.854  1.00  0.00    -0.237 OA
ATOM     56  O   UNL A   1      38.979  36.861  41.564  1.00  0.00    -0.237 OA
ATOM     57  O   UNL A   1      40.529  38.344  40.354  1.00  0.00    -0.744 OA
ENDBRANCH  53  54
ENDBRANCH  25  48
BRANCH  37  58
ATOM     58  C   UNL A   1      44.147  29.270  35.748  1.00  0.00    -0.014 A 
ATOM     59  C   UNL A   1      44.049  28.219  36.677  1.00  0.00     0.010 A 
ATOM     60  C   UNL A   1      45.405  29.840  35.484  1.00  0.00     0.010 A 
ATOM     61  C   UNL A   1      45.185  27.774  37.360  1.00  0.00     0.020 A 
ATOM     62  C   UNL A   1      46.546  29.380  36.145  1.00  0.00     0.020 A 
ATOM     63  C   UNL A   1      46.425  28.361  37.092  1.00  0.00     0.054 A 
BRANCH  63  64
ATOM     64  S   UNL A   1      47.891  27.752  37.971  1.00  0.00     0.124 S 
ATOM     65  O   UNL A   1      48.046  28.748  39.028  1.00  0.00    -0.237 OA
ATOM     66  O   UNL A   1      47.473  26.424  38.415  1.00  0.00    -0.237 OA
ATOM     67  O   UNL A   1      48.934  27.760  36.949  1.00  0.00    -0.744 OA
ENDBRANCH  63  64
ENDBRANCH  37  58
ENDBRANCH  11  12
ENDBRANCH   4   6
ENDBRANCH   1   2
BRANCH   1  68
ATOM     68  C   UNL A   1      31.530  32.192  26.778  1.00  0.00     0.042 C 
BRANCH  68  69
ATOM     69  C   UNL A   1      31.768  30.793  26.224  1.00  0.00     0.117 C 
BRANCH  69  70
ATOM     70  N   UNL A   1      31.693  29.791  27.271  1.00  0.00    -0.356 N 
ATOM     71  C   UNL A   1      31.631  28.433  27.168  1.00  0.00     0.226 C 
ATOM     72  H   UNL A   1      31.686  30.143  28.190  1.00  0.00     0.163 HD
ATOM     73  O   UNL A   1      31.300  27.804  28.173  1.00  0.00    -0.275 OA
BRANCH  71  74
ATOM     74  C   UNL A   1      31.953  27.774  25.833  1.00  0.00     0.122 C 
ATOM     75  C   UNL A   1      31.994  26.240  25.929  1.00  0.00     0.122 C 
ATOM     76  C   UNL A   1      33.416  28.097  25.488  1.00  0.00     0.132 C 
ATOM     77  C   UNL A   1      33.458  25.929  25.558  1.00  0.00     0.132 C 
ATOM     78  C   UNL A   1      33.722  27.734  24.036  1.00  0.00     0.035 C 
ATOM     79  O   UNL A   1      34.126  27.049  26.200  1.00  0.00    -0.373 OA
ATOM     80  C   UNL A   1      33.879  26.219  24.118  1.00  0.00     0.035 C 
BRANCH  75  81
ATOM     81  C   UNL A   1      30.993  25.503  25.058  1.00  0.00     0.229 C 
ATOM     82  O   UNL A   1      30.098  26.078  24.444  1.00  0.00    -0.274 OA
ATOM     83  N   UNL A   1      31.224  24.158  24.877  1.00  0.00    -0.339 N 
ATOM     84  C   UNL A   1      30.942  23.556  23.573  1.00  0.00     0.141 C 
ATOM     85  C   UNL A   1      31.509  23.199  25.952  1.00  0.00     0.141 C 
ATOM     86  C   UNL A   1      32.112  22.649  23.149  1.00  0.00     0.138 C 
ATOM     87  C   UNL A   1      32.589  22.173  25.567  1.00  0.00     0.138 C 
ATOM     88  N   UNL A   1      32.371  21.665  24.205  1.00  0.00    -0.368 N 
BRANCH  88  89
ATOM     89  C   UNL A   1      32.393  20.323  23.909  1.00  0.00     0.038 A 
ATOM     90  C   UNL A   1      32.224  19.872  22.594  1.00  0.00     0.026 A 
ATOM     91  C   UNL A   1      32.630  19.370  24.907  1.00  0.00     0.046 A 
ATOM     92  C   UNL A   1      32.310  18.513  22.278  1.00  0.00     0.004 A 
ATOM     93  C   UNL A   1      32.694  18.011  24.597  1.00  0.00     0.043 A 
ATOM     94  C   UNL A   1      32.544  17.578  23.283  1.00  0.00     0.020 A 
ATOM     95  Cl  UNL A   1      32.967  16.863  25.850  1.00  0.00    -0.084 Cl
ENDBRANCH  88  89
ENDBRANCH  75  81
ENDBRANCH  71  74
ENDBRANCH  69  70
ENDBRANCH  68  69
ENDBRANCH   1  68
TORSDOF 15
ENDMDL
