MODEL 1
REMARK VINA RESULT:     -11.5      0.000      0.000
REMARK SMILES C#Cc1cc(Cl)c2c(c1)C=C(C(=O)NCCCNC(=O)c1ccc(-c3c4nc(c(-c5ccc(S(=O)(=O)[O-])cc5)c5ccc([nH]5)c(-c5ccc(S(=O)(=O)[O-])cc5)c5nc(c(-c6ccc(S(=O)(=O)[O-])cc6)c6ccc3[nH]6)C=C5)C=C4)cc1)[C@@H](C(F)(F)F)O2
REMARK SMILES IDX 17 1 16 2 15 3 14 4 12 5 13 6 11 8 3 9 4 10 9 11 5 12 8 13
REMARK SMILES IDX 6 14 7 15 10 16 86 17 81 18 2 19 1 20 82 21 83 22 84 23
REMARK SMILES IDX 85 24 18 25 19 26 20 28 21 29 22 30 80 31 23 32 79 33 24 34
REMARK SMILES IDX 25 35 26 36 73 37 27 38 78 39 72 40 74 41 28 42 77 43 71 44
REMARK SMILES IDX 70 45 29 47 59 48 40 49 58 50 41 51 44 52 57 53 75 54 42 55
REMARK SMILES IDX 43 56 56 58 76 59 45 60 30 61 31 62 39 63 32 64 38 65 33 66
REMARK SMILES IDX 34 67 35 68 36 69 37 70 60 71 61 72 69 73 62 74 68 75 63 76
REMARK SMILES IDX 64 77 65 78 66 79 67 80 46 81 47 82 55 83 48 84 54 85 49 86
REMARK SMILES IDX 50 87 51 88 52 89 53 90
REMARK H PARENT 14 7 18 27 74 46 44 57
REMARK Flexibility Score: inf
ROOT
ATOM      1  C   UNL A   1      33.599  28.347  26.891  1.00  0.00     0.118 C 
ENDROOT
BRANCH   1   2
ATOM      2  C   UNL A   1      33.835  28.071  25.416  1.00  0.00     0.042 C 
BRANCH   2   3
ATOM      3  C   UNL A   1      32.531  27.844  24.673  1.00  0.00     0.118 C 
BRANCH   3   4
ATOM      4  N   UNL A   1      31.516  27.236  25.522  1.00  0.00    -0.352 N 
ATOM      5  C   UNL A   1      31.231  25.999  25.993  1.00  0.00     0.251 C 
ATOM      6  O   UNL A   1      30.254  25.925  26.744  1.00  0.00    -0.270 OA
ATOM      7  H   UNL A   1      30.863  27.902  25.838  1.00  0.00     0.163 HD
BRANCH   5   8
ATOM      8  C   UNL A   1      32.007  24.768  25.666  1.00  0.00     0.067 C 
ATOM      9  C   UNL A   1      36.250  22.444  25.632  1.00  0.00     0.027 A 
ATOM     10  C   UNL A   1      35.617  21.278  25.199  1.00  0.00     0.041 A 
ATOM     11  C   UNL A   1      35.503  23.599  25.888  1.00  0.00     0.029 A 
ATOM     12  C   UNL A   1      34.237  21.266  25.025  1.00  0.00     0.084 A 
ATOM     13  C   UNL A   1      34.115  23.591  25.710  1.00  0.00     0.020 A 
ATOM     14  Cl  UNL A   1      33.485  19.807  24.487  1.00  0.00    -0.080 Cl
ATOM     15  C   UNL A   1      33.487  22.419  25.275  1.00  0.00     0.146 A 
ATOM     16  C   UNL A   1      33.307  24.768  26.013  1.00  0.00     0.025 C 
ATOM     17  O   UNL A   1      32.133  22.339  25.129  1.00  0.00    -0.474 OA
ATOM     18  C   UNL A   1      31.414  23.582  24.964  1.00  0.00     0.314 C 
BRANCH   9  19
ATOM     19  C   UNL A   1      37.666  22.439  25.827  1.00  0.00    -0.070 C 
ATOM     20  C   UNL A   1      38.855  22.397  25.995  1.00  0.00     0.010 C 
ENDBRANCH   9  19
BRANCH  18  21
ATOM     21  C   UNL A   1      31.189  23.846  23.461  1.00  0.00     0.429 C 
ATOM     22  F   UNL A   1      31.347  22.705  22.747  1.00  0.00    -0.167 F 
ATOM     23  F   UNL A   1      29.943  24.300  23.188  1.00  0.00    -0.167 F 
ATOM     24  F   UNL A   1      32.050  24.761  22.963  1.00  0.00    -0.167 F 
ENDBRANCH  18  21
ENDBRANCH   5   8
ENDBRANCH   3   4
ENDBRANCH   2   3
ENDBRANCH   1   2
BRANCH   1  25
ATOM     25  N   UNL A   1      33.545  29.781  27.172  1.00  0.00    -0.352 N 
ATOM     26  C   UNL A   1      34.421  30.581  27.861  1.00  0.00     0.251 C 
ATOM     27  H   UNL A   1      32.756  30.245  26.810  1.00  0.00     0.163 HD
ATOM     28  O   UNL A   1      34.068  31.695  28.234  1.00  0.00    -0.269 OA
BRANCH  26  29
ATOM     29  C   UNL A   1      35.779  30.086  28.151  1.00  0.00     0.039 A 
ATOM     30  C   UNL A   1      36.756  30.130  27.156  1.00  0.00     0.014 A 
ATOM     31  C   UNL A   1      36.079  29.582  29.418  1.00  0.00     0.014 A 
ATOM     32  C   UNL A   1      38.055  29.726  27.459  1.00  0.00     0.010 A 
ATOM     33  C   UNL A   1      37.393  29.298  29.751  1.00  0.00     0.010 A 
ATOM     34  C   UNL A   1      38.390  29.344  28.769  1.00  0.00    -0.014 A 
BRANCH  34  35
ATOM     35  C   UNL A   1      39.769  28.947  29.128  1.00  0.00     0.031 A 
ATOM     36  C   UNL A   1      40.656  29.918  29.857  1.00  0.00     0.074 A 
ATOM     37  C   UNL A   1      40.230  27.735  28.762  1.00  0.00     0.049 A 
ATOM     38  N   UNL A   1      41.899  29.772  30.233  1.00  0.00    -0.248 NA
ATOM     39  C   UNL A   1      40.081  31.236  30.188  1.00  0.00     0.031 C 
ATOM     40  C   UNL A   1      39.467  26.726  28.023  1.00  0.00     0.029 A 
ATOM     41  N   UNL A   1      41.449  27.143  28.968  1.00  0.00    -0.354 N 
ATOM     42  C   UNL A   1      42.252  30.972  30.838  1.00  0.00     0.074 A 
ATOM     43  C   UNL A   1      41.122  31.863  30.714  1.00  0.00     0.031 C 
ATOM     44  C   UNL A   1      40.218  25.621  27.885  1.00  0.00     0.029 A 
ATOM     45  C   UNL A   1      41.530  25.862  28.476  1.00  0.00     0.049 A 
ATOM     46  H   UNL A   1      42.197  27.593  29.426  1.00  0.00     0.167 HD
ATOM     47  C   UNL A   1      43.403  31.293  31.472  1.00  0.00     0.031 A 
ATOM     48  C   UNL A   1      42.549  24.980  28.499  1.00  0.00     0.031 A 
ATOM     49  C   UNL A   1      44.519  30.396  31.598  1.00  0.00     0.049 A 
ATOM     50  C   UNL A   1      43.837  25.378  29.167  1.00  0.00     0.074 A 
ATOM     51  C   UNL A   1      45.720  30.608  32.251  1.00  0.00     0.029 A 
ATOM     52  N   UNL A   1      44.573  29.119  31.060  1.00  0.00    -0.354 N 
ATOM     53  N   UNL A   1      44.132  26.498  29.785  1.00  0.00    -0.248 NA
ATOM     54  C   UNL A   1      44.927  24.394  29.146  1.00  0.00     0.031 C 
ATOM     55  C   UNL A   1      46.526  29.486  32.049  1.00  0.00     0.029 A 
ATOM     56  C   UNL A   1      45.800  28.543  31.336  1.00  0.00     0.049 A 
ATOM     57  H   UNL A   1      43.847  28.686  30.556  1.00  0.00     0.167 HD
ATOM     58  C   UNL A   1      45.433  26.342  30.249  1.00  0.00     0.074 A 
ATOM     59  C   UNL A   1      45.860  25.014  29.857  1.00  0.00     0.031 C 
ATOM     60  C   UNL A   1      46.207  27.221  30.935  1.00  0.00     0.031 A 
BRANCH  47  61
ATOM     61  C   UNL A   1      43.509  32.664  32.084  1.00  0.00    -0.014 A 
ATOM     62  C   UNL A   1      43.928  33.768  31.320  1.00  0.00     0.010 A 
ATOM     63  C   UNL A   1      43.129  32.864  33.424  1.00  0.00     0.010 A 
ATOM     64  C   UNL A   1      43.992  35.041  31.891  1.00  0.00     0.020 A 
ATOM     65  C   UNL A   1      43.160  34.141  33.991  1.00  0.00     0.020 A 
ATOM     66  C   UNL A   1      43.603  35.221  33.222  1.00  0.00     0.054 A 
BRANCH  66  67
ATOM     67  S   UNL A   1      43.657  36.893  33.918  1.00  0.00     0.124 S 
ATOM     68  O   UNL A   1      43.955  37.703  32.740  1.00  0.00    -0.237 OA
ATOM     69  O   UNL A   1      42.313  37.051  34.467  1.00  0.00    -0.237 OA
ATOM     70  O   UNL A   1      44.729  36.823  34.909  1.00  0.00    -0.744 OA
ENDBRANCH  66  67
ENDBRANCH  47  61
BRANCH  48  71
ATOM     71  C   UNL A   1      42.376  23.630  27.892  1.00  0.00    -0.014 A 
ATOM     72  C   UNL A   1      42.838  23.368  26.590  1.00  0.00     0.010 A 
ATOM     73  C   UNL A   1      41.773  22.589  28.624  1.00  0.00     0.010 A 
ATOM     74  C   UNL A   1      42.691  22.097  26.028  1.00  0.00     0.020 A 
ATOM     75  C   UNL A   1      41.654  21.309  28.078  1.00  0.00     0.020 A 
ATOM     76  C   UNL A   1      42.107  21.073  26.779  1.00  0.00     0.054 A 
BRANCH  76  77
ATOM     77  S   UNL A   1      41.978  19.419  26.044  1.00  0.00     0.124 S 
ATOM     78  O   UNL A   1      40.543  19.301  25.808  1.00  0.00    -0.237 OA
ATOM     79  O   UNL A   1      42.808  19.545  24.848  1.00  0.00    -0.237 OA
ATOM     80  O   UNL A   1      42.516  18.541  27.080  1.00  0.00    -0.744 OA
ENDBRANCH  76  77
ENDBRANCH  48  71
BRANCH  60  81
ATOM     81  C   UNL A   1      47.593  26.777  31.324  1.00  0.00    -0.014 A 
ATOM     82  C   UNL A   1      47.819  26.068  32.517  1.00  0.00     0.010 A 
ATOM     83  C   UNL A   1      48.665  26.991  30.438  1.00  0.00     0.010 A 
ATOM     84  C   UNL A   1      49.098  25.601  32.826  1.00  0.00     0.020 A 
ATOM     85  C   UNL A   1      49.938  26.495  30.728  1.00  0.00     0.020 A 
ATOM     86  C   UNL A   1      50.148  25.811  31.927  1.00  0.00     0.054 A 
BRANCH  86  87
ATOM     87  S   UNL A   1      51.783  25.141  32.332  1.00  0.00     0.124 S 
ATOM     88  O   UNL A   1      52.013  25.686  33.667  1.00  0.00    -0.237 OA
ATOM     89  O   UNL A   1      51.558  23.699  32.271  1.00  0.00    -0.237 OA
ATOM     90  O   UNL A   1      52.649  25.678  31.284  1.00  0.00    -0.744 OA
ENDBRANCH  86  87
ENDBRANCH  60  81
ENDBRANCH  34  35
ENDBRANCH  26  29
ENDBRANCH   1  25
TORSDOF 15
ENDMDL
MODEL 2
REMARK VINA RESULT:     -11.3      4.449      6.496
REMARK SMILES C#Cc1cc(Cl)c2c(c1)C=C(C(=O)NCCCNC(=O)c1ccc(-c3c4nc(c(-c5ccc(S(=O)(=O)[O-])cc5)c5ccc([nH]5)c(-c5ccc(S(=O)(=O)[O-])cc5)c5nc(c(-c6ccc(S(=O)(=O)[O-])cc6)c6ccc3[nH]6)C=C5)C=C4)cc1)[C@@H](C(F)(F)F)O2
REMARK SMILES IDX 17 1 16 2 15 3 14 4 12 5 13 6 11 8 3 9 4 10 9 11 5 12 8 13
REMARK SMILES IDX 6 14 7 15 10 16 86 17 81 18 2 19 1 20 82 21 83 22 84 23
REMARK SMILES IDX 85 24 18 25 19 26 20 28 21 29 22 30 80 31 23 32 79 33 24 34
REMARK SMILES IDX 25 35 26 36 73 37 27 38 78 39 72 40 74 41 28 42 77 43 71 44
REMARK SMILES IDX 70 45 29 47 59 48 40 49 58 50 41 51 44 52 57 53 75 54 42 55
REMARK SMILES IDX 43 56 56 58 76 59 45 60 30 61 31 62 39 63 32 64 38 65 33 66
REMARK SMILES IDX 34 67 35 68 36 69 37 70 60 71 61 72 69 73 62 74 68 75 63 76
REMARK SMILES IDX 64 77 65 78 66 79 67 80 46 81 47 82 55 83 48 84 54 85 49 86
REMARK SMILES IDX 50 87 51 88 52 89 53 90
REMARK H PARENT 14 7 18 27 74 46 44 57
REMARK Flexibility Score: inf
ROOT
ATOM      1  C   UNL A   1      34.178  32.309  28.636  1.00  0.00     0.118 C 
ENDROOT
BRANCH   1   2
ATOM      2  C   UNL A   1      34.979  33.331  27.847  1.00  0.00     0.042 C 
BRANCH   2   3
ATOM      3  C   UNL A   1      35.300  34.557  28.683  1.00  0.00     0.118 C 
BRANCH   3   4
ATOM      4  N   UNL A   1      34.335  34.756  29.756  1.00  0.00    -0.352 N 
ATOM      5  C   UNL A   1      34.280  34.536  31.091  1.00  0.00     0.251 C 
ATOM      6  O   UNL A   1      33.240  34.899  31.649  1.00  0.00    -0.270 OA
ATOM      7  H   UNL A   1      33.500  35.157  29.420  1.00  0.00     0.163 HD
BRANCH   5   8
ATOM      8  C   UNL A   1      35.368  33.907  31.892  1.00  0.00     0.067 C 
ATOM      9  C   UNL A   1      38.059  30.005  32.865  1.00  0.00     0.027 A 
ATOM     10  C   UNL A   1      38.844  30.755  33.742  1.00  0.00     0.041 A 
ATOM     11  C   UNL A   1      37.014  30.611  32.158  1.00  0.00     0.029 A 
ATOM     12  C   UNL A   1      38.585  32.111  33.911  1.00  0.00     0.084 A 
ATOM     13  C   UNL A   1      36.750  31.975  32.330  1.00  0.00     0.020 A 
ATOM     14  Cl  UNL A   1      39.575  33.011  35.005  1.00  0.00    -0.080 Cl
ATOM     15  C   UNL A   1      37.539  32.720  33.211  1.00  0.00     0.146 A 
ATOM     16  C   UNL A   1      35.695  32.641  31.572  1.00  0.00     0.025 C 
ATOM     17  O   UNL A   1      37.357  34.062  33.382  1.00  0.00    -0.474 OA
ATOM     18  C   UNL A   1      36.066  34.603  33.023  1.00  0.00     0.314 C 
BRANCH   9  19
ATOM     19  C   UNL A   1      38.346  28.617  32.684  1.00  0.00    -0.070 C 
ATOM     20  C   UNL A   1      38.561  27.442  32.556  1.00  0.00     0.010 C 
ENDBRANCH   9  19
BRANCH  18  21
ATOM     21  C   UNL A   1      35.184  34.697  34.284  1.00  0.00     0.429 C 
ATOM     22  F   UNL A   1      34.249  33.717  34.288  1.00  0.00    -0.167 F 
ATOM     23  F   UNL A   1      35.891  34.557  35.431  1.00  0.00    -0.167 F 
ATOM     24  F   UNL A   1      34.536  35.880  34.374  1.00  0.00    -0.167 F 
ENDBRANCH  18  21
ENDBRANCH   5   8
ENDBRANCH   3   4
ENDBRANCH   2   3
ENDBRANCH   1   2
BRANCH   1  25
ATOM     25  N   UNL A   1      33.729  31.203  27.790  1.00  0.00    -0.352 N 
ATOM     26  C   UNL A   1      34.441  30.171  27.234  1.00  0.00     0.251 C 
ATOM     27  H   UNL A   1      32.766  31.200  27.589  1.00  0.00     0.163 HD
ATOM     28  O   UNL A   1      33.947  29.505  26.329  1.00  0.00    -0.269 OA
BRANCH  26  29
ATOM     29  C   UNL A   1      35.797  29.875  27.730  1.00  0.00     0.039 A 
ATOM     30  C   UNL A   1      35.961  29.315  28.998  1.00  0.00     0.014 A 
ATOM     31  C   UNL A   1      36.906  30.152  26.928  1.00  0.00     0.014 A 
ATOM     32  C   UNL A   1      37.241  28.973  29.430  1.00  0.00     0.010 A 
ATOM     33  C   UNL A   1      38.158  29.701  27.309  1.00  0.00     0.010 A 
ATOM     34  C   UNL A   1      38.343  29.129  28.573  1.00  0.00    -0.014 A 
BRANCH  34  35
ATOM     35  C   UNL A   1      39.708  28.740  28.992  1.00  0.00     0.031 A 
ATOM     36  C   UNL A   1      40.552  29.713  29.769  1.00  0.00     0.074 A 
ATOM     37  C   UNL A   1      40.195  27.535  28.639  1.00  0.00     0.049 A 
ATOM     38  N   UNL A   1      41.777  29.574  30.200  1.00  0.00    -0.248 NA
ATOM     39  C   UNL A   1      39.951  31.023  30.083  1.00  0.00     0.031 C 
ATOM     40  C   UNL A   1      39.475  26.525  27.858  1.00  0.00     0.029 A 
ATOM     41  N   UNL A   1      41.408  26.951  28.897  1.00  0.00    -0.354 N 
ATOM     42  C   UNL A   1      42.092  30.772  30.830  1.00  0.00     0.074 A 
ATOM     43  C   UNL A   1      40.961  31.655  30.661  1.00  0.00     0.031 C 
ATOM     44  C   UNL A   1      40.241  25.428  27.747  1.00  0.00     0.029 A 
ATOM     45  C   UNL A   1      41.523  25.674  28.400  1.00  0.00     0.049 A 
ATOM     46  H   UNL A   1      42.130  27.403  29.392  1.00  0.00     0.167 HD
ATOM     47  C   UNL A   1      43.210  31.097  31.519  1.00  0.00     0.031 A 
ATOM     48  C   UNL A   1      42.546  24.800  28.463  1.00  0.00     0.031 A 
ATOM     49  C   UNL A   1      44.326  30.208  31.690  1.00  0.00     0.049 A 
ATOM     50  C   UNL A   1      43.799  25.204  29.193  1.00  0.00     0.074 A 
ATOM     51  C   UNL A   1      45.493  30.425  32.399  1.00  0.00     0.029 A 
ATOM     52  N   UNL A   1      44.415  28.936  31.145  1.00  0.00    -0.354 N 
ATOM     53  N   UNL A   1      44.055  26.321  29.833  1.00  0.00    -0.248 NA
ATOM     54  C   UNL A   1      44.897  24.228  29.215  1.00  0.00     0.031 C 
ATOM     55  C   UNL A   1      46.318  29.311  32.226  1.00  0.00     0.029 A 
ATOM     56  C   UNL A   1      45.634  28.368  31.474  1.00  0.00     0.049 A 
ATOM     57  H   UNL A   1      43.717  28.501  30.605  1.00  0.00     0.167 HD
ATOM     58  C   UNL A   1      45.335  26.172  30.354  1.00  0.00     0.074 A 
ATOM     59  C   UNL A   1      45.790  24.850  29.973  1.00  0.00     0.031 C 
ATOM     60  C   UNL A   1      46.069  27.051  31.082  1.00  0.00     0.031 A 
BRANCH  47  61
ATOM     61  C   UNL A   1      43.276  32.464  32.146  1.00  0.00    -0.014 A 
ATOM     62  C   UNL A   1      43.760  33.569  31.423  1.00  0.00     0.010 A 
ATOM     63  C   UNL A   1      42.794  32.659  33.454  1.00  0.00     0.010 A 
ATOM     64  C   UNL A   1      43.787  34.839  32.005  1.00  0.00     0.020 A 
ATOM     65  C   UNL A   1      42.788  33.933  34.028  1.00  0.00     0.020 A 
ATOM     66  C   UNL A   1      43.296  35.014  33.302  1.00  0.00     0.054 A 
BRANCH  66  67
ATOM     67  S   UNL A   1      43.306  36.682  34.011  1.00  0.00     0.124 S 
ATOM     68  O   UNL A   1      44.483  36.636  34.875  1.00  0.00    -0.237 OA
ATOM     69  O   UNL A   1      43.428  37.528  32.827  1.00  0.00    -0.237 OA
ATOM     70  O   UNL A   1      42.027  36.771  34.710  1.00  0.00    -0.744 OA
ENDBRANCH  66  67
ENDBRANCH  47  61
BRANCH  48  71
ATOM     71  C   UNL A   1      42.413  23.454  27.840  1.00  0.00    -0.014 A 
ATOM     72  C   UNL A   1      42.919  23.212  26.550  1.00  0.00     0.010 A 
ATOM     73  C   UNL A   1      41.803  22.398  28.543  1.00  0.00     0.010 A 
ATOM     74  C   UNL A   1      42.809  21.944  25.973  1.00  0.00     0.020 A 
ATOM     75  C   UNL A   1      41.720  21.121  27.981  1.00  0.00     0.020 A 
ATOM     76  C   UNL A   1      42.217  20.904  26.695  1.00  0.00     0.054 A 
BRANCH  76  77
ATOM     77  S   UNL A   1      42.136  19.256  25.942  1.00  0.00     0.124 S 
ATOM     78  O   UNL A   1      42.982  19.417  24.763  1.00  0.00    -0.237 OA
ATOM     79  O   UNL A   1      42.678  18.404  26.998  1.00  0.00    -0.237 OA
ATOM     80  O   UNL A   1      40.713  19.072  25.670  1.00  0.00    -0.744 OA
ENDBRANCH  76  77
ENDBRANCH  48  71
BRANCH  60  81
ATOM     81  C   UNL A   1      47.439  26.616  31.532  1.00  0.00    -0.014 A 
ATOM     82  C   UNL A   1      47.612  25.870  32.711  1.00  0.00     0.010 A 
ATOM     83  C   UNL A   1      48.554  26.876  30.713  1.00  0.00     0.010 A 
ATOM     84  C   UNL A   1      48.880  25.412  33.074  1.00  0.00     0.020 A 
ATOM     85  C   UNL A   1      49.818  26.389  31.056  1.00  0.00     0.020 A 
ATOM     86  C   UNL A   1      49.974  25.669  32.240  1.00  0.00     0.054 A 
BRANCH  86  87
ATOM     87  S   UNL A   1      51.596  25.010  32.712  1.00  0.00     0.124 S 
ATOM     88  O   UNL A   1      52.507  25.923  32.025  1.00  0.00    -0.237 OA
ATOM     89  O   UNL A   1      51.572  25.124  34.168  1.00  0.00    -0.237 OA
ATOM     90  O   UNL A   1      51.580  23.643  32.197  1.00  0.00    -0.744 OA
ENDBRANCH  86  87
ENDBRANCH  60  81
ENDBRANCH  34  35
ENDBRANCH  26  29
ENDBRANCH   1  25
TORSDOF 15
ENDMDL
MODEL 3
REMARK VINA RESULT:     -11.2      4.347     10.253
REMARK SMILES C#Cc1cc(Cl)c2c(c1)C=C(C(=O)NCCCNC(=O)c1ccc(-c3c4nc(c(-c5ccc(S(=O)(=O)[O-])cc5)c5ccc([nH]5)c(-c5ccc(S(=O)(=O)[O-])cc5)c5nc(c(-c6ccc(S(=O)(=O)[O-])cc6)c6ccc3[nH]6)C=C5)C=C4)cc1)[C@@H](C(F)(F)F)O2
REMARK SMILES IDX 17 1 16 2 15 3 14 4 12 5 13 6 11 8 3 9 4 10 9 11 5 12 8 13
REMARK SMILES IDX 6 14 7 15 10 16 86 17 81 18 2 19 1 20 82 21 83 22 84 23
REMARK SMILES IDX 85 24 18 25 19 26 20 28 21 29 22 30 80 31 23 32 79 33 24 34
REMARK SMILES IDX 25 35 26 36 73 37 27 38 78 39 72 40 74 41 28 42 77 43 71 44
REMARK SMILES IDX 70 45 29 47 59 48 40 49 58 50 41 51 44 52 57 53 75 54 42 55
REMARK SMILES IDX 43 56 56 58 76 59 45 60 30 61 31 62 39 63 32 64 38 65 33 66
REMARK SMILES IDX 34 67 35 68 36 69 37 70 60 71 61 72 69 73 62 74 68 75 63 76
REMARK SMILES IDX 64 77 65 78 66 79 67 80 46 81 47 82 55 83 48 84 54 85 49 86
REMARK SMILES IDX 50 87 51 88 52 89 53 90
REMARK H PARENT 14 7 18 27 74 46 44 57
REMARK Flexibility Score: inf
ROOT
ATOM      1  C   UNL A   1      38.192  24.187  26.434  1.00  0.00     0.118 C 
ENDROOT
BRANCH   1   2
ATOM      2  C   UNL A   1      37.351  23.573  25.328  1.00  0.00     0.042 C 
BRANCH   2   3
ATOM      3  C   UNL A   1      35.932  24.115  25.338  1.00  0.00     0.118 C 
BRANCH   3   4
ATOM      4  N   UNL A   1      35.206  23.769  24.123  1.00  0.00    -0.352 N 
ATOM      5  C   UNL A   1      34.194  24.294  23.392  1.00  0.00     0.251 C 
ATOM      6  O   UNL A   1      33.896  23.671  22.368  1.00  0.00    -0.270 OA
ATOM      7  H   UNL A   1      35.539  22.931  23.729  1.00  0.00     0.163 HD
BRANCH   5   8
ATOM      8  C   UNL A   1      33.450  25.538  23.743  1.00  0.00     0.067 C 
ATOM      9  C   UNL A   1      33.262  29.673  26.247  1.00  0.00     0.027 A 
ATOM     10  C   UNL A   1      32.085  30.029  25.586  1.00  0.00     0.041 A 
ATOM     11  C   UNL A   1      33.916  28.477  25.930  1.00  0.00     0.029 A 
ATOM     12  C   UNL A   1      31.563  29.190  24.607  1.00  0.00     0.084 A 
ATOM     13  C   UNL A   1      33.390  27.630  24.948  1.00  0.00     0.020 A 
ATOM     14  Cl  UNL A   1      30.105  29.660  23.809  1.00  0.00    -0.080 Cl
ATOM     15  C   UNL A   1      32.210  27.992  24.290  1.00  0.00     0.146 A 
ATOM     16  C   UNL A   1      34.076  26.400  24.566  1.00  0.00     0.025 C 
ATOM     17  O   UNL A   1      31.679  27.229  23.292  1.00  0.00    -0.474 OA
ATOM     18  C   UNL A   1      32.066  25.837  23.250  1.00  0.00     0.314 C 
BRANCH   9  19
ATOM     19  C   UNL A   1      33.799  30.552  27.238  1.00  0.00    -0.070 C 
ATOM     20  C   UNL A   1      34.283  31.287  28.055  1.00  0.00     0.010 C 
ENDBRANCH   9  19
BRANCH  18  21
ATOM     21  C   UNL A   1      30.995  24.989  23.965  1.00  0.00     0.429 C 
ATOM     22  F   UNL A   1      30.432  24.105  23.106  1.00  0.00    -0.167 F 
ATOM     23  F   UNL A   1      31.500  24.259  24.989  1.00  0.00    -0.167 F 
ATOM     24  F   UNL A   1      30.000  25.743  24.484  1.00  0.00    -0.167 F 
ENDBRANCH  18  21
ENDBRANCH   5   8
ENDBRANCH   3   4
ENDBRANCH   2   3
ENDBRANCH   1   2
BRANCH   1  25
ATOM     25  N   UNL A   1      39.623  24.048  26.165  1.00  0.00    -0.352 N 
ATOM     26  C   UNL A   1      40.672  24.856  26.525  1.00  0.00     0.251 C 
ATOM     27  H   UNL A   1      39.872  23.251  25.646  1.00  0.00     0.163 HD
ATOM     28  O   UNL A   1      41.760  24.729  25.971  1.00  0.00    -0.269 OA
BRANCH  26  29
ATOM     29  C   UNL A   1      40.477  25.874  27.573  1.00  0.00     0.039 A 
ATOM     30  C   UNL A   1      39.547  25.649  28.588  1.00  0.00     0.014 A 
ATOM     31  C   UNL A   1      41.226  27.052  27.545  1.00  0.00     0.014 A 
ATOM     32  C   UNL A   1      39.420  26.584  29.614  1.00  0.00     0.010 A 
ATOM     33  C   UNL A   1      41.185  27.917  28.625  1.00  0.00     0.010 A 
ATOM     34  C   UNL A   1      40.265  27.705  29.659  1.00  0.00    -0.014 A 
BRANCH  34  35
ATOM     35  C   UNL A   1      40.177  28.694  30.756  1.00  0.00     0.031 A 
ATOM     36  C   UNL A   1      41.096  28.573  31.941  1.00  0.00     0.074 A 
ATOM     37  C   UNL A   1      39.249  29.669  30.702  1.00  0.00     0.049 A 
ATOM     38  N   UNL A   1      41.155  29.317  33.013  1.00  0.00    -0.248 NA
ATOM     39  C   UNL A   1      42.059  27.456  31.934  1.00  0.00     0.031 C 
ATOM     40  C   UNL A   1      38.284  29.861  29.615  1.00  0.00     0.029 A 
ATOM     41  N   UNL A   1      38.968  30.685  31.577  1.00  0.00    -0.354 N 
ATOM     42  C   UNL A   1      42.153  28.760  33.803  1.00  0.00     0.074 A 
ATOM     43  C   UNL A   1      42.622  27.573  33.126  1.00  0.00     0.031 C 
ATOM     44  C   UNL A   1      37.556  30.961  29.865  1.00  0.00     0.029 A 
ATOM     45  C   UNL A   1      37.962  31.519  31.150  1.00  0.00     0.049 A 
ATOM     46  H   UNL A   1      39.443  30.808  32.432  1.00  0.00     0.167 HD
ATOM     47  C   UNL A   1      42.660  29.215  34.971  1.00  0.00     0.031 A 
ATOM     48  C   UNL A   1      37.427  32.611  31.730  1.00  0.00     0.031 A 
ATOM     49  C   UNL A   1      42.193  30.403  35.632  1.00  0.00     0.049 A 
ATOM     50  C   UNL A   1      37.974  33.069  33.055  1.00  0.00     0.074 A 
ATOM     51  C   UNL A   1      42.661  30.973  36.802  1.00  0.00     0.029 A 
ATOM     52  N   UNL A   1      41.153  31.202  35.183  1.00  0.00    -0.354 N 
ATOM     53  N   UNL A   1      38.959  32.562  33.759  1.00  0.00    -0.248 NA
ATOM     54  C   UNL A   1      37.343  34.250  33.661  1.00  0.00     0.031 C 
ATOM     55  C   UNL A   1      41.858  32.077  37.097  1.00  0.00     0.029 A 
ATOM     56  C   UNL A   1      40.940  32.241  36.071  1.00  0.00     0.049 A 
ATOM     57  H   UNL A   1      40.641  31.052  34.356  1.00  0.00     0.167 HD
ATOM     58  C   UNL A   1      39.082  33.376  34.879  1.00  0.00     0.074 A 
ATOM     59  C   UNL A   1      38.085  34.420  34.747  1.00  0.00     0.031 C 
ATOM     60  C   UNL A   1      39.941  33.269  35.923  1.00  0.00     0.031 A 
BRANCH  47  61
ATOM     61  C   UNL A   1      43.781  28.433  35.603  1.00  0.00    -0.014 A 
ATOM     62  C   UNL A   1      43.514  27.365  36.478  1.00  0.00     0.010 A 
ATOM     63  C   UNL A   1      45.116  28.731  35.272  1.00  0.00     0.010 A 
ATOM     64  C   UNL A   1      44.562  26.627  37.034  1.00  0.00     0.020 A 
ATOM     65  C   UNL A   1      46.166  27.974  35.800  1.00  0.00     0.020 A 
ATOM     66  C   UNL A   1      45.881  26.932  36.687  1.00  0.00     0.054 A 
BRANCH  66  67
ATOM     67  S   UNL A   1      47.214  25.927  37.392  1.00  0.00     0.124 S 
ATOM     68  O   UNL A   1      48.362  26.338  36.587  1.00  0.00    -0.237 OA
ATOM     69  O   UNL A   1      47.235  26.362  38.785  1.00  0.00    -0.237 OA
ATOM     70  O   UNL A   1      46.766  24.553  37.176  1.00  0.00    -0.744 OA
ENDBRANCH  66  67
ENDBRANCH  47  61
BRANCH  48  71
ATOM     71  C   UNL A   1      36.332  33.354  31.046  1.00  0.00    -0.014 A 
ATOM     72  C   UNL A   1      35.107  33.581  31.698  1.00  0.00     0.010 A 
ATOM     73  C   UNL A   1      36.518  33.865  29.747  1.00  0.00     0.010 A 
ATOM     74  C   UNL A   1      34.087  34.293  31.062  1.00  0.00     0.020 A 
ATOM     75  C   UNL A   1      35.512  34.606  29.121  1.00  0.00     0.020 A 
ATOM     76  C   UNL A   1      34.299  34.808  29.780  1.00  0.00     0.054 A 
BRANCH  76  77
ATOM     77  S   UNL A   1      32.976  35.775  29.000  1.00  0.00     0.124 S 
ATOM     78  O   UNL A   1      32.166  36.168  30.149  1.00  0.00    -0.237 OA
ATOM     79  O   UNL A   1      33.720  36.852  28.351  1.00  0.00    -0.237 OA
ATOM     80  O   UNL A   1      32.347  34.823  28.088  1.00  0.00    -0.744 OA
ENDBRANCH  76  77
ENDBRANCH  48  71
BRANCH  60  81
ATOM     81  C   UNL A   1      39.859  34.312  37.007  1.00  0.00    -0.014 A 
ATOM     82  C   UNL A   1      40.470  35.568  36.852  1.00  0.00     0.010 A 
ATOM     83  C   UNL A   1      39.080  34.064  38.153  1.00  0.00     0.010 A 
ATOM     84  C   UNL A   1      40.323  36.549  37.835  1.00  0.00     0.020 A 
ATOM     85  C   UNL A   1      38.902  35.054  39.121  1.00  0.00     0.020 A 
ATOM     86  C   UNL A   1      39.533  36.288  38.960  1.00  0.00     0.054 A 
BRANCH  86  87
ATOM     87  S   UNL A   1      39.315  37.603  40.189  1.00  0.00     0.124 S 
ATOM     88  O   UNL A   1      38.907  36.850  41.372  1.00  0.00    -0.237 OA
ATOM     89  O   UNL A   1      40.646  38.201  40.253  1.00  0.00    -0.237 OA
ATOM     90  O   UNL A   1      38.281  38.455  39.607  1.00  0.00    -0.744 OA
ENDBRANCH  86  87
ENDBRANCH  60  81
ENDBRANCH  34  35
ENDBRANCH  26  29
ENDBRANCH   1  25
TORSDOF 15
ENDMDL
