MODEL 1
REMARK VINA RESULT:     -12.9      0.000      0.000
REMARK SMILES Cc1c(C#N)c2ccccc2n1CC(=O)N1CC[C@H](O)C[C@@H]1C(=O)NCCCNC(=O)c1ccc(-c2c3nc(c(-c4ccc(S(=O)(=O)[O-])cc4)c4ccc([nH]4)c(-c4ccc(S(=O)(=O)[O-])cc4)c4nc(c(-c5ccc(S(=O)(=O)[O-])cc5)c5ccc2[nH]5)C=C4)C=C3)cc1
REMARK SMILES IDX 26 1 25 2 23 3 24 4 22 6 16 7 17 8 18 9 21 10 19 11 14 12
REMARK SMILES IDX 15 13 13 14 12 15 1 16 2 17 3 18 6 19 11 20 7 21 10 22 8 23
REMARK SMILES IDX 9 24 4 25 5 26 20 27 27 29 28 30 29 31 30 32 31 34 32 35
REMARK SMILES IDX 33 36 91 37 34 38 90 39 35 40 36 41 37 42 84 43 38 44 89 45
REMARK SMILES IDX 83 46 85 47 39 48 88 49 82 50 81 51 40 53 70 54 51 55 69 56
REMARK SMILES IDX 52 57 55 58 68 59 86 60 53 61 54 62 67 64 87 65 56 66 41 67
REMARK SMILES IDX 42 68 50 69 43 70 49 71 44 72 45 73 46 74 47 75 48 76 71 77
REMARK SMILES IDX 72 78 80 79 73 80 79 81 74 82 75 83 76 84 77 85 78 86 57 87
REMARK SMILES IDX 58 88 66 89 59 90 65 91 60 92 61 93 62 94 63 95 64 96
REMARK H PARENT 25 5 20 28 29 33 85 52 55 63
REMARK Flexibility Score: inf
ROOT
ATOM      1  C   UNL A   1      35.559  21.222  26.123  1.00  0.00     0.117 C 
ENDROOT
BRANCH   1   2
ATOM      2  N   UNL A   1      34.202  20.760  25.862  1.00  0.00    -0.354 N 
ATOM      3  C   UNL A   1      33.137  21.246  25.165  1.00  0.00     0.242 C 
ATOM      4  O   UNL A   1      32.242  20.404  24.981  1.00  0.00    -0.273 OA
ATOM      5  H   UNL A   1      34.010  19.894  26.288  1.00  0.00     0.163 HD
BRANCH   3   6
ATOM      6  C   UNL A   1      32.847  22.730  24.752  1.00  0.00     0.177 C 
ATOM      7  N   UNL A   1      33.408  23.835  25.534  1.00  0.00    -0.329 N 
ATOM      8  C   UNL A   1      32.676  24.278  26.710  1.00  0.00     0.123 C 
ATOM      9  C   UNL A   1      31.148  24.105  26.689  1.00  0.00     0.053 C 
ATOM     10  C   UNL A   1      31.398  23.019  24.381  1.00  0.00     0.067 C 
ATOM     11  C   UNL A   1      30.526  23.232  25.600  1.00  0.00     0.118 C 
BRANCH   7  12
ATOM     12  C   UNL A   1      34.377  24.638  24.930  1.00  0.00     0.243 C 
ATOM     13  O   UNL A   1      35.515  24.723  25.410  1.00  0.00    -0.273 OA
BRANCH  12  14
ATOM     14  C   UNL A   1      34.010  25.604  23.812  1.00  0.00     0.222 C 
BRANCH  14  15
ATOM     15  N   UNL A   1      32.951  26.572  24.048  1.00  0.00    -0.334 N 
ATOM     16  C   UNL A   1      31.495  25.871  22.085  1.00  0.00     0.066 C 
ATOM     17  C   UNL A   1      31.818  26.726  23.270  1.00  0.00     0.034 A 
ATOM     18  C   UNL A   1      31.053  27.717  23.864  1.00  0.00     0.080 A 
ATOM     19  C   UNL A   1      31.749  28.197  25.008  1.00  0.00     0.018 A 
ATOM     20  C   UNL A   1      32.954  27.493  25.084  1.00  0.00     0.050 A 
ATOM     21  C   UNL A   1      31.461  29.166  25.993  1.00  0.00     0.012 A 
ATOM     22  C   UNL A   1      33.894  27.750  26.100  1.00  0.00     0.027 A 
ATOM     23  C   UNL A   1      32.386  29.418  27.010  1.00  0.00     0.001 A 
ATOM     24  C   UNL A   1      33.589  28.724  27.056  1.00  0.00     0.002 A 
BRANCH  18  25
ATOM     25  C   UNL A   1      29.778  28.160  23.402  1.00  0.00     0.102 C 
ATOM     26  N   UNL A   1      28.751  28.561  23.026  1.00  0.00    -0.192 NA
ENDBRANCH  18  25
ENDBRANCH  14  15
ENDBRANCH  12  14
ENDBRANCH   7  12
BRANCH  11  27
ATOM     27  O   UNL A   1      30.100  21.985  26.129  1.00  0.00    -0.393 OA
ATOM     28  H   UNL A   1      29.264  22.105  26.606  1.00  0.00     0.210 HD
ENDBRANCH  11  27
ENDBRANCH   3   6
ENDBRANCH   1   2
BRANCH   1  29
ATOM     29  C   UNL A   1      36.449  21.446  24.895  1.00  0.00     0.042 C 
BRANCH  29  30
ATOM     30  C   UNL A   1      37.743  22.200  25.134  1.00  0.00     0.118 C 
BRANCH  30  31
ATOM     31  N   UNL A   1      38.755  21.402  25.779  1.00  0.00    -0.352 N 
ATOM     32  C   UNL A   1      39.747  21.655  26.683  1.00  0.00     0.251 C 
ATOM     33  H   UNL A   1      38.724  20.457  25.505  1.00  0.00     0.163 HD
ATOM     34  O   UNL A   1      40.316  20.645  27.110  1.00  0.00    -0.269 OA
BRANCH  32  35
ATOM     35  C   UNL A   1      40.242  22.995  27.127  1.00  0.00     0.039 A 
ATOM     36  C   UNL A   1      41.471  23.304  27.709  1.00  0.00     0.014 A 
ATOM     37  C   UNL A   1      39.297  24.034  27.000  1.00  0.00     0.014 A 
ATOM     38  C   UNL A   1      41.666  24.565  28.300  1.00  0.00     0.010 A 
ATOM     39  C   UNL A   1      39.501  25.294  27.551  1.00  0.00     0.010 A 
ATOM     40  C   UNL A   1      40.647  25.539  28.289  1.00  0.00    -0.014 A 
BRANCH  40  41
ATOM     41  C   UNL A   1      40.885  26.893  28.819  1.00  0.00     0.031 A 
ATOM     42  C   UNL A   1      42.060  27.518  28.156  1.00  0.00     0.074 A 
ATOM     43  C   UNL A   1      40.096  27.574  29.695  1.00  0.00     0.049 A 
ATOM     44  N   UNL A   1      43.230  27.680  28.677  1.00  0.00    -0.248 NA
ATOM     45  C   UNL A   1      42.023  27.762  26.701  1.00  0.00     0.031 C 
ATOM     46  C   UNL A   1      38.816  27.156  30.278  1.00  0.00     0.029 A 
ATOM     47  N   UNL A   1      40.246  28.831  30.236  1.00  0.00    -0.354 N 
ATOM     48  C   UNL A   1      43.990  28.312  27.702  1.00  0.00     0.074 A 
ATOM     49  C   UNL A   1      43.282  28.137  26.462  1.00  0.00     0.031 C 
ATOM     50  C   UNL A   1      38.209  28.209  30.889  1.00  0.00     0.029 A 
ATOM     51  C   UNL A   1      39.109  29.350  30.877  1.00  0.00     0.049 A 
ATOM     52  H   UNL A   1      41.092  29.331  30.178  1.00  0.00     0.167 HD
ATOM     53  C   UNL A   1      44.966  29.189  28.061  1.00  0.00     0.031 A 
ATOM     54  C   UNL A   1      38.932  30.579  31.458  1.00  0.00     0.031 A 
ATOM     55  C   UNL A   1      45.306  29.029  29.454  1.00  0.00     0.049 A 
ATOM     56  C   UNL A   1      40.285  31.088  31.752  1.00  0.00     0.074 A 
ATOM     57  C   UNL A   1      45.869  28.040  30.231  1.00  0.00     0.029 A 
ATOM     58  N   UNL A   1      44.587  29.838  30.293  1.00  0.00    -0.354 N 
ATOM     59  N   UNL A   1      41.066  30.562  32.649  1.00  0.00    -0.248 NA
ATOM     60  C   UNL A   1      40.930  31.898  30.736  1.00  0.00     0.031 C 
ATOM     61  C   UNL A   1      45.187  28.107  31.483  1.00  0.00     0.029 A 
ATOM     62  C   UNL A   1      44.316  29.199  31.470  1.00  0.00     0.049 A 
ATOM     63  H   UNL A   1      44.303  30.757  30.077  1.00  0.00     0.167 HD
ATOM     64  C   UNL A   1      42.313  30.567  32.051  1.00  0.00     0.074 A 
ATOM     65  C   UNL A   1      42.189  31.506  30.931  1.00  0.00     0.031 C 
ATOM     66  C   UNL A   1      43.221  29.589  32.341  1.00  0.00     0.031 A 
BRANCH  53  67
ATOM     67  C   UNL A   1      45.220  30.482  27.313  1.00  0.00    -0.014 A 
ATOM     68  C   UNL A   1      44.204  31.407  26.990  1.00  0.00     0.010 A 
ATOM     69  C   UNL A   1      46.548  30.918  27.128  1.00  0.00     0.010 A 
ATOM     70  C   UNL A   1      44.481  32.659  26.435  1.00  0.00     0.020 A 
ATOM     71  C   UNL A   1      46.840  32.189  26.607  1.00  0.00     0.020 A 
ATOM     72  C   UNL A   1      45.801  33.037  26.231  1.00  0.00     0.054 A 
BRANCH  72  73
ATOM     73  S   UNL A   1      46.119  34.639  25.455  1.00  0.00     0.124 S 
ATOM     74  O   UNL A   1      47.565  34.585  25.249  1.00  0.00    -0.237 OA
ATOM     75  O   UNL A   1      45.308  34.571  24.244  1.00  0.00    -0.237 OA
ATOM     76  O   UNL A   1      45.670  35.602  26.457  1.00  0.00    -0.744 OA
ENDBRANCH  72  73
ENDBRANCH  53  67
BRANCH  54  77
ATOM     77  C   UNL A   1      37.810  31.566  31.274  1.00  0.00    -0.014 A 
ATOM     78  C   UNL A   1      36.479  31.138  31.400  1.00  0.00     0.010 A 
ATOM     79  C   UNL A   1      38.028  32.805  30.613  1.00  0.00     0.010 A 
ATOM     80  C   UNL A   1      35.424  31.839  30.792  1.00  0.00     0.020 A 
ATOM     81  C   UNL A   1      36.971  33.518  30.003  1.00  0.00     0.020 A 
ATOM     82  C   UNL A   1      35.680  32.998  30.056  1.00  0.00     0.054 A 
BRANCH  82  83
ATOM     83  S   UNL A   1      34.314  33.721  29.090  1.00  0.00     0.124 S 
ATOM     84  O   UNL A   1      33.459  34.268  30.140  1.00  0.00    -0.237 OA
ATOM     85  O   UNL A   1      35.000  34.711  28.264  1.00  0.00    -0.237 OA
ATOM     86  O   UNL A   1      33.759  32.584  28.360  1.00  0.00    -0.744 OA
ENDBRANCH  82  83
ENDBRANCH  54  77
BRANCH  66  87
ATOM     87  C   UNL A   1      43.015  28.755  33.594  1.00  0.00    -0.014 A 
ATOM     88  C   UNL A   1      42.249  27.586  33.441  1.00  0.00     0.010 A 
ATOM     89  C   UNL A   1      43.426  29.113  34.896  1.00  0.00     0.010 A 
ATOM     90  C   UNL A   1      41.872  26.813  34.537  1.00  0.00     0.020 A 
ATOM     91  C   UNL A   1      43.076  28.319  36.006  1.00  0.00     0.020 A 
ATOM     92  C   UNL A   1      42.285  27.183  35.816  1.00  0.00     0.054 A 
BRANCH  92  93
ATOM     93  S   UNL A   1      41.766  26.133  37.201  1.00  0.00     0.124 S 
ATOM     94  O   UNL A   1      42.860  26.317  38.154  1.00  0.00    -0.237 OA
ATOM     95  O   UNL A   1      40.493  26.733  37.596  1.00  0.00    -0.237 OA
ATOM     96  O   UNL A   1      41.666  24.800  36.617  1.00  0.00    -0.744 OA
ENDBRANCH  92  93
ENDBRANCH  66  87
ENDBRANCH  40  41
ENDBRANCH  32  35
ENDBRANCH  30  31
ENDBRANCH  29  30
ENDBRANCH   1  29
TORSDOF 18
ENDMDL
MODEL 2
REMARK VINA RESULT:     -12.9      1.693      2.301
REMARK SMILES Cc1c(C#N)c2ccccc2n1CC(=O)N1CC[C@H](O)C[C@@H]1C(=O)NCCCNC(=O)c1ccc(-c2c3nc(c(-c4ccc(S(=O)(=O)[O-])cc4)c4ccc([nH]4)c(-c4ccc(S(=O)(=O)[O-])cc4)c4nc(c(-c5ccc(S(=O)(=O)[O-])cc5)c5ccc2[nH]5)C=C4)C=C3)cc1
REMARK SMILES IDX 26 1 25 2 23 3 24 4 22 6 16 7 17 8 18 9 21 10 19 11 14 12
REMARK SMILES IDX 15 13 13 14 12 15 1 16 2 17 3 18 6 19 11 20 7 21 10 22 8 23
REMARK SMILES IDX 9 24 4 25 5 26 20 27 27 29 28 30 29 31 30 32 31 34 32 35
REMARK SMILES IDX 33 36 91 37 34 38 90 39 35 40 36 41 37 42 84 43 38 44 89 45
REMARK SMILES IDX 83 46 85 47 39 48 88 49 82 50 81 51 40 53 70 54 51 55 69 56
REMARK SMILES IDX 52 57 55 58 68 59 86 60 53 61 54 62 67 64 87 65 56 66 41 67
REMARK SMILES IDX 42 68 50 69 43 70 49 71 44 72 45 73 46 74 47 75 48 76 71 77
REMARK SMILES IDX 72 78 80 79 73 80 79 81 74 82 75 83 76 84 77 85 78 86 57 87
REMARK SMILES IDX 58 88 66 89 59 90 65 91 60 92 61 93 62 94 63 95 64 96
REMARK H PARENT 25 5 20 28 29 33 85 52 55 63
REMARK Flexibility Score: inf
ROOT
ATOM      1  C   UNL A   1      37.981  22.007  25.717  1.00  0.00     0.117 C 
ENDROOT
BRANCH   1   2
ATOM      2  N   UNL A   1      36.794  22.478  26.418  1.00  0.00    -0.354 N 
ATOM      3  C   UNL A   1      35.452  22.384  26.210  1.00  0.00     0.242 C 
ATOM      4  O   UNL A   1      34.774  22.708  27.200  1.00  0.00    -0.273 OA
ATOM      5  H   UNL A   1      37.014  22.982  27.235  1.00  0.00     0.163 HD
BRANCH   3   6
ATOM      6  C   UNL A   1      34.699  22.104  24.864  1.00  0.00     0.177 C 
ATOM      7  N   UNL A   1      33.657  23.023  24.397  1.00  0.00    -0.329 N 
ATOM      8  C   UNL A   1      32.308  22.836  24.905  1.00  0.00     0.123 C 
ATOM      9  C   UNL A   1      31.895  21.405  25.287  1.00  0.00     0.053 C 
ATOM     10  C   UNL A   1      34.265  20.657  24.661  1.00  0.00     0.067 C 
ATOM     11  C   UNL A   1      32.982  20.336  25.396  1.00  0.00     0.118 C 
BRANCH   7  12
ATOM     12  C   UNL A   1      33.909  23.764  23.242  1.00  0.00     0.243 C 
ATOM     13  O   UNL A   1      33.974  23.209  22.137  1.00  0.00    -0.273 OA
BRANCH  12  14
ATOM     14  C   UNL A   1      34.337  25.223  23.323  1.00  0.00     0.222 C 
BRANCH  14  15
ATOM     15  N   UNL A   1      33.312  26.241  23.493  1.00  0.00    -0.334 N 
ATOM     16  C   UNL A   1      32.269  25.967  21.191  1.00  0.00     0.066 C 
ATOM     17  C   UNL A   1      32.382  26.608  22.538  1.00  0.00     0.034 A 
ATOM     18  C   UNL A   1      31.569  27.570  23.117  1.00  0.00     0.080 A 
ATOM     19  C   UNL A   1      32.032  27.814  24.439  1.00  0.00     0.018 A 
ATOM     20  C   UNL A   1      33.149  26.999  24.643  1.00  0.00     0.050 A 
ATOM     21  C   UNL A   1      31.600  28.653  25.488  1.00  0.00     0.012 A 
ATOM     22  C   UNL A   1      33.864  27.019  25.855  1.00  0.00     0.027 A 
ATOM     23  C   UNL A   1      32.301  28.669  26.697  1.00  0.00     0.001 A 
ATOM     24  C   UNL A   1      33.422  27.868  26.873  1.00  0.00     0.002 A 
BRANCH  18  25
ATOM     25  C   UNL A   1      30.451  28.191  22.484  1.00  0.00     0.102 C 
ATOM     26  N   UNL A   1      29.558  28.694  21.931  1.00  0.00    -0.192 NA
ENDBRANCH  18  25
ENDBRANCH  14  15
ENDBRANCH  12  14
ENDBRANCH   7  12
BRANCH  11  27
ATOM     27  O   UNL A   1      33.253  20.023  26.755  1.00  0.00    -0.393 OA
ATOM     28  H   UNL A   1      32.427  20.045  27.263  1.00  0.00     0.210 HD
ENDBRANCH  11  27
ENDBRANCH   3   6
ENDBRANCH   1   2
BRANCH   1  29
ATOM     29  C   UNL A   1      39.308  22.670  26.105  1.00  0.00     0.042 C 
BRANCH  29  30
ATOM     30  C   UNL A   1      40.501  21.745  26.252  1.00  0.00     0.118 C 
BRANCH  30  31
ATOM     31  N   UNL A   1      41.599  22.092  25.387  1.00  0.00    -0.352 N 
ATOM     32  C   UNL A   1      42.500  23.117  25.342  1.00  0.00     0.251 C 
ATOM     33  H   UNL A   1      41.732  21.440  24.662  1.00  0.00     0.163 HD
ATOM     34  O   UNL A   1      43.403  22.966  24.512  1.00  0.00    -0.269 OA
BRANCH  32  35
ATOM     35  C   UNL A   1      42.452  24.395  26.119  1.00  0.00     0.039 A 
ATOM     36  C   UNL A   1      43.254  24.774  27.196  1.00  0.00     0.014 A 
ATOM     37  C   UNL A   1      41.407  25.264  25.743  1.00  0.00     0.014 A 
ATOM     38  C   UNL A   1      42.900  25.893  27.970  1.00  0.00     0.010 A 
ATOM     39  C   UNL A   1      41.077  26.392  26.485  1.00  0.00     0.010 A 
ATOM     40  C   UNL A   1      41.761  26.663  27.658  1.00  0.00    -0.014 A 
BRANCH  40  41
ATOM     41  C   UNL A   1      41.447  27.892  28.407  1.00  0.00     0.031 A 
ATOM     42  C   UNL A   1      42.479  28.934  28.163  1.00  0.00     0.074 A 
ATOM     43  C   UNL A   1      40.319  28.139  29.128  1.00  0.00     0.049 A 
ATOM     44  N   UNL A   1      43.403  29.297  28.989  1.00  0.00    -0.248 NA
ATOM     45  C   UNL A   1      42.674  29.451  26.795  1.00  0.00     0.031 C 
ATOM     46  C   UNL A   1      39.141  27.280  29.295  1.00  0.00     0.029 A 
ATOM     47  N   UNL A   1      39.951  29.251  29.851  1.00  0.00    -0.354 N 
ATOM     48  C   UNL A   1      44.114  30.296  28.340  1.00  0.00     0.074 A 
ATOM     49  C   UNL A   1      43.773  30.194  26.945  1.00  0.00     0.031 C 
ATOM     50  C   UNL A   1      38.122  27.980  29.860  1.00  0.00     0.029 A 
ATOM     51  C   UNL A   1      38.601  29.300  30.235  1.00  0.00     0.049 A 
ATOM     52  H   UNL A   1      40.591  29.963  30.083  1.00  0.00     0.167 HD
ATOM     53  C   UNL A   1      44.669  31.312  29.054  1.00  0.00     0.031 A 
ATOM     54  C   UNL A   1      37.931  30.288  30.908  1.00  0.00     0.031 A 
ATOM     55  C   UNL A   1      44.741  30.969  30.454  1.00  0.00     0.049 A 
ATOM     56  C   UNL A   1      38.963  31.074  31.610  1.00  0.00     0.074 A 
ATOM     57  C   UNL A   1      45.409  30.033  31.212  1.00  0.00     0.029 A 
ATOM     58  N   UNL A   1      43.645  31.364  31.175  1.00  0.00    -0.354 N 
ATOM     59  N   UNL A   1      39.663  30.607  32.602  1.00  0.00    -0.248 NA
ATOM     60  C   UNL A   1      39.520  32.218  30.916  1.00  0.00     0.031 C 
ATOM     61  C   UNL A   1      44.492  29.654  32.240  1.00  0.00     0.029 A 
ATOM     62  C   UNL A   1      43.347  30.448  32.145  1.00  0.00     0.049 A 
ATOM     63  H   UNL A   1      43.141  32.195  31.017  1.00  0.00     0.167 HD
ATOM     64  C   UNL A   1      40.942  31.073  32.358  1.00  0.00     0.074 A 
ATOM     65  C   UNL A   1      40.768  32.152  31.379  1.00  0.00     0.031 C 
ATOM     66  C   UNL A   1      42.028  30.339  32.742  1.00  0.00     0.031 A 
BRANCH  53  67
ATOM     67  C   UNL A   1      44.657  32.751  28.577  1.00  0.00    -0.014 A 
ATOM     68  C   UNL A   1      43.475  33.461  28.275  1.00  0.00     0.010 A 
ATOM     69  C   UNL A   1      45.842  33.509  28.656  1.00  0.00     0.010 A 
ATOM     70  C   UNL A   1      43.477  34.827  27.984  1.00  0.00     0.020 A 
ATOM     71  C   UNL A   1      45.851  34.890  28.401  1.00  0.00     0.020 A 
ATOM     72  C   UNL A   1      44.672  35.532  28.032  1.00  0.00     0.054 A 
BRANCH  72  73
ATOM     73  S   UNL A   1      44.647  37.285  27.589  1.00  0.00     0.124 S 
ATOM     74  O   UNL A   1      45.771  37.371  26.660  1.00  0.00    -0.237 OA
ATOM     75  O   UNL A   1      43.324  37.442  26.992  1.00  0.00    -0.237 OA
ATOM     76  O   UNL A   1      44.842  37.966  28.866  1.00  0.00    -0.744 OA
ENDBRANCH  72  73
ENDBRANCH  53  67
BRANCH  54  77
ATOM     77  C   UNL A   1      36.622  30.951  30.569  1.00  0.00    -0.014 A 
ATOM     78  C   UNL A   1      36.283  31.174  29.224  1.00  0.00     0.010 A 
ATOM     79  C   UNL A   1      35.902  31.692  31.545  1.00  0.00     0.010 A 
ATOM     80  C   UNL A   1      35.365  32.173  28.857  1.00  0.00     0.020 A 
ATOM     81  C   UNL A   1      34.974  32.694  31.183  1.00  0.00     0.020 A 
ATOM     82  C   UNL A   1      34.753  32.960  29.834  1.00  0.00     0.054 A 
BRANCH  82  83
ATOM     83  S   UNL A   1      33.767  34.393  29.288  1.00  0.00     0.124 S 
ATOM     84  O   UNL A   1      33.179  34.851  30.544  1.00  0.00    -0.237 OA
ATOM     85  O   UNL A   1      34.781  35.275  28.715  1.00  0.00    -0.237 OA
ATOM     86  O   UNL A   1      32.825  33.826  28.326  1.00  0.00    -0.744 OA
ENDBRANCH  82  83
ENDBRANCH  54  77
BRANCH  66  87
ATOM     87  C   UNL A   1      41.835  29.243  33.776  1.00  0.00    -0.014 A 
ATOM     88  C   UNL A   1      42.147  29.582  35.104  1.00  0.00     0.010 A 
ATOM     89  C   UNL A   1      41.485  27.904  33.498  1.00  0.00     0.010 A 
ATOM     90  C   UNL A   1      42.145  28.628  36.120  1.00  0.00     0.020 A 
ATOM     91  C   UNL A   1      41.450  26.940  34.525  1.00  0.00     0.020 A 
ATOM     92  C   UNL A   1      41.799  27.310  35.827  1.00  0.00     0.054 A 
BRANCH  92  93
ATOM     93  S   UNL A   1      41.811  26.116  37.192  1.00  0.00     0.124 S 
ATOM     94  O   UNL A   1      40.441  26.208  37.694  1.00  0.00    -0.237 OA
ATOM     95  O   UNL A   1      42.141  24.862  36.516  1.00  0.00    -0.237 OA
ATOM     96  O   UNL A   1      42.841  26.621  38.093  1.00  0.00    -0.744 OA
ENDBRANCH  92  93
ENDBRANCH  66  87
ENDBRANCH  40  41
ENDBRANCH  32  35
ENDBRANCH  30  31
ENDBRANCH  29  30
ENDBRANCH   1  29
TORSDOF 18
ENDMDL
MODEL 3
REMARK VINA RESULT:     -12.8      2.787      9.289
REMARK SMILES Cc1c(C#N)c2ccccc2n1CC(=O)N1CC[C@H](O)C[C@@H]1C(=O)NCCCNC(=O)c1ccc(-c2c3nc(c(-c4ccc(S(=O)(=O)[O-])cc4)c4ccc([nH]4)c(-c4ccc(S(=O)(=O)[O-])cc4)c4nc(c(-c5ccc(S(=O)(=O)[O-])cc5)c5ccc2[nH]5)C=C4)C=C3)cc1
REMARK SMILES IDX 26 1 25 2 23 3 24 4 22 6 16 7 17 8 18 9 21 10 19 11 14 12
REMARK SMILES IDX 15 13 13 14 12 15 1 16 2 17 3 18 6 19 11 20 7 21 10 22 8 23
REMARK SMILES IDX 9 24 4 25 5 26 20 27 27 29 28 30 29 31 30 32 31 34 32 35
REMARK SMILES IDX 33 36 91 37 34 38 90 39 35 40 36 41 37 42 84 43 38 44 89 45
REMARK SMILES IDX 83 46 85 47 39 48 88 49 82 50 81 51 40 53 70 54 51 55 69 56
REMARK SMILES IDX 52 57 55 58 68 59 86 60 53 61 54 62 67 64 87 65 56 66 41 67
REMARK SMILES IDX 42 68 50 69 43 70 49 71 44 72 45 73 46 74 47 75 48 76 71 77
REMARK SMILES IDX 72 78 80 79 73 80 79 81 74 82 75 83 76 84 77 85 78 86 57 87
REMARK SMILES IDX 58 88 66 89 59 90 65 91 60 92 61 93 62 94 63 95 64 96
REMARK H PARENT 25 5 20 28 29 33 85 52 55 63
REMARK Flexibility Score: inf
ROOT
ATOM      1  C   UNL A   1      33.957  29.462  27.107  1.00  0.00     0.117 C 
ENDROOT
BRANCH   1   2
ATOM      2  N   UNL A   1      34.181  28.992  25.746  1.00  0.00    -0.354 N 
ATOM      3  C   UNL A   1      33.378  28.600  24.719  1.00  0.00     0.242 C 
ATOM      4  O   UNL A   1      33.972  28.521  23.630  1.00  0.00    -0.273 OA
ATOM      5  H   UNL A   1      35.137  28.949  25.516  1.00  0.00     0.163 HD
BRANCH   3   6
ATOM      6  C   UNL A   1      31.901  28.080  24.789  1.00  0.00     0.177 C 
ATOM      7  N   UNL A   1      31.599  26.677  24.490  1.00  0.00    -0.329 N 
ATOM      8  C   UNL A   1      31.404  26.305  23.099  1.00  0.00     0.123 C 
ATOM      9  C   UNL A   1      30.846  27.384  22.156  1.00  0.00     0.053 C 
ATOM     10  C   UNL A   1      30.868  28.998  24.147  1.00  0.00     0.067 C 
ATOM     11  C   UNL A   1      30.810  28.832  22.644  1.00  0.00     0.118 C 
BRANCH   7  12
ATOM     12  C   UNL A   1      31.149  25.869  25.535  1.00  0.00     0.243 C 
ATOM     13  O   UNL A   1      29.962  25.893  25.886  1.00  0.00    -0.273 OA
BRANCH  12  14
ATOM     14  C   UNL A   1      32.130  25.113  26.421  1.00  0.00     0.222 C 
BRANCH  14  15
ATOM     15  N   UNL A   1      32.638  23.830  25.960  1.00  0.00    -0.334 N 
ATOM     16  C   UNL A   1      30.484  22.532  26.328  1.00  0.00     0.066 C 
ATOM     17  C   UNL A   1      31.921  22.648  25.929  1.00  0.00     0.034 A 
ATOM     18  C   UNL A   1      32.755  21.686  25.382  1.00  0.00     0.080 A 
ATOM     19  C   UNL A   1      34.013  22.287  25.102  1.00  0.00     0.018 A 
ATOM     20  C   UNL A   1      33.932  23.622  25.507  1.00  0.00     0.050 A 
ATOM     21  C   UNL A   1      35.217  21.818  24.535  1.00  0.00     0.012 A 
ATOM     22  C   UNL A   1      35.030  24.495  25.389  1.00  0.00     0.027 A 
ATOM     23  C   UNL A   1      36.307  22.683  24.406  1.00  0.00     0.001 A 
ATOM     24  C   UNL A   1      36.215  24.001  24.836  1.00  0.00     0.002 A 
BRANCH  18  25
ATOM     25  C   UNL A   1      32.392  20.329  25.134  1.00  0.00     0.102 C 
ATOM     26  N   UNL A   1      32.126  19.218  24.903  1.00  0.00    -0.192 NA
ENDBRANCH  18  25
ENDBRANCH  14  15
ENDBRANCH  12  14
ENDBRANCH   7  12
BRANCH  11  27
ATOM     27  O   UNL A   1      31.826  29.604  22.020  1.00  0.00    -0.393 OA
ATOM     28  H   UNL A   1      32.138  30.286  22.636  1.00  0.00     0.210 HD
ENDBRANCH  11  27
ENDBRANCH   3   6
ENDBRANCH   1   2
BRANCH   1  29
ATOM     29  C   UNL A   1      33.220  30.798  27.253  1.00  0.00     0.042 C 
BRANCH  29  30
ATOM     30  C   UNL A   1      34.065  31.986  27.673  1.00  0.00     0.118 C 
BRANCH  30  31
ATOM     31  N   UNL A   1      34.240  32.082  29.100  1.00  0.00    -0.352 N 
ATOM     32  C   UNL A   1      35.244  31.760  29.968  1.00  0.00     0.251 C 
ATOM     33  H   UNL A   1      33.457  32.468  29.553  1.00  0.00     0.163 HD
ATOM     34  O   UNL A   1      35.060  32.149  31.126  1.00  0.00    -0.269 OA
BRANCH  32  35
ATOM     35  C   UNL A   1      36.462  30.941  29.675  1.00  0.00     0.039 A 
ATOM     36  C   UNL A   1      36.547  29.557  29.523  1.00  0.00     0.014 A 
ATOM     37  C   UNL A   1      37.662  31.680  29.633  1.00  0.00     0.014 A 
ATOM     38  C   UNL A   1      37.807  28.933  29.511  1.00  0.00     0.010 A 
ATOM     39  C   UNL A   1      38.909  31.069  29.583  1.00  0.00     0.010 A 
ATOM     40  C   UNL A   1      38.994  29.687  29.618  1.00  0.00    -0.014 A 
BRANCH  40  41
ATOM     41  C   UNL A   1      40.315  29.045  29.505  1.00  0.00     0.031 A 
ATOM     42  C   UNL A   1      40.895  28.796  30.852  1.00  0.00     0.074 A 
ATOM     43  C   UNL A   1      40.908  28.600  28.364  1.00  0.00     0.049 A 
ATOM     44  N   UNL A   1      41.853  29.464  31.402  1.00  0.00    -0.248 NA
ATOM     45  C   UNL A   1      40.194  27.893  31.784  1.00  0.00     0.031 C 
ATOM     46  C   UNL A   1      40.370  28.606  26.998  1.00  0.00     0.029 A 
ATOM     47  N   UNL A   1      42.129  27.994  28.174  1.00  0.00    -0.354 N 
ATOM     48  C   UNL A   1      42.062  28.870  32.639  1.00  0.00     0.074 A 
ATOM     49  C   UNL A   1      40.893  28.074  32.907  1.00  0.00     0.031 C 
ATOM     50  C   UNL A   1      41.142  27.840  26.183  1.00  0.00     0.029 A 
ATOM     51  C   UNL A   1      42.315  27.396  26.916  1.00  0.00     0.049 A 
ATOM     52  H   UNL A   1      42.824  27.981  28.871  1.00  0.00     0.167 HD
ATOM     53  C   UNL A   1      43.311  28.837  33.177  1.00  0.00     0.031 A 
ATOM     54  C   UNL A   1      43.389  26.681  26.451  1.00  0.00     0.031 A 
ATOM     55  C   UNL A   1      44.174  29.787  32.517  1.00  0.00     0.049 A 
ATOM     56  C   UNL A   1      44.531  27.064  27.303  1.00  0.00     0.074 A 
ATOM     57  C   UNL A   1      44.231  31.158  32.395  1.00  0.00     0.029 A 
ATOM     58  N   UNL A   1      44.864  29.260  31.457  1.00  0.00    -0.354 N 
ATOM     59  N   UNL A   1      45.068  28.248  27.285  1.00  0.00    -0.248 NA
ATOM     60  C   UNL A   1      44.782  26.264  28.486  1.00  0.00     0.031 C 
ATOM     61  C   UNL A   1      44.684  31.402  31.063  1.00  0.00     0.029 A 
ATOM     62  C   UNL A   1      44.996  30.183  30.457  1.00  0.00     0.049 A 
ATOM     63  H   UNL A   1      45.217  28.341  31.420  1.00  0.00     0.167 HD
ATOM     64  C   UNL A   1      45.308  28.526  28.619  1.00  0.00     0.074 A 
ATOM     65  C   UNL A   1      45.223  27.227  29.294  1.00  0.00     0.031 C 
ATOM     66  C   UNL A   1      45.250  29.812  29.076  1.00  0.00     0.031 A 
BRANCH  53  67
ATOM     67  C   UNL A   1      43.856  27.628  33.909  1.00  0.00    -0.014 A 
ATOM     68  C   UNL A   1      43.794  27.474  35.311  1.00  0.00     0.010 A 
ATOM     69  C   UNL A   1      44.231  26.488  33.169  1.00  0.00     0.010 A 
ATOM     70  C   UNL A   1      44.164  26.289  35.951  1.00  0.00     0.020 A 
ATOM     71  C   UNL A   1      44.569  25.280  33.799  1.00  0.00     0.020 A 
ATOM     72  C   UNL A   1      44.566  25.200  35.189  1.00  0.00     0.054 A 
BRANCH  72  73
ATOM     73  S   UNL A   1      45.097  23.703  36.054  1.00  0.00     0.124 S 
ATOM     74  O   UNL A   1      46.488  23.589  35.621  1.00  0.00    -0.237 OA
ATOM     75  O   UNL A   1      44.901  24.060  37.455  1.00  0.00    -0.237 OA
ATOM     76  O   UNL A   1      44.200  22.672  35.538  1.00  0.00    -0.744 OA
ENDBRANCH  72  73
ENDBRANCH  53  67
BRANCH  54  77
ATOM     77  C   UNL A   1      43.414  25.341  25.764  1.00  0.00    -0.014 A 
ATOM     78  C   UNL A   1      42.624  24.291  26.259  1.00  0.00     0.010 A 
ATOM     79  C   UNL A   1      44.473  24.991  24.884  1.00  0.00     0.010 A 
ATOM     80  C   UNL A   1      42.943  22.949  25.996  1.00  0.00     0.020 A 
ATOM     81  C   UNL A   1      44.797  23.643  24.611  1.00  0.00     0.020 A 
ATOM     82  C   UNL A   1      44.056  22.630  25.214  1.00  0.00     0.054 A 
BRANCH  82  83
ATOM     83  S   UNL A   1      44.561  20.881  25.113  1.00  0.00     0.124 S 
ATOM     84  O   UNL A   1      45.882  20.911  25.734  1.00  0.00    -0.237 OA
ATOM     85  O   UNL A   1      43.522  20.206  25.887  1.00  0.00    -0.237 OA
ATOM     86  O   UNL A   1      44.550  20.594  23.681  1.00  0.00    -0.744 OA
ENDBRANCH  82  83
ENDBRANCH  54  77
BRANCH  66  87
ATOM     87  C   UNL A   1      45.327  30.946  28.068  1.00  0.00    -0.014 A 
ATOM     88  C   UNL A   1      46.598  31.514  27.871  1.00  0.00     0.010 A 
ATOM     89  C   UNL A   1      44.227  31.540  27.414  1.00  0.00     0.010 A 
ATOM     90  C   UNL A   1      46.775  32.647  27.081  1.00  0.00     0.020 A 
ATOM     91  C   UNL A   1      44.402  32.667  26.587  1.00  0.00     0.020 A 
ATOM     92  C   UNL A   1      45.677  33.221  26.442  1.00  0.00     0.054 A 
BRANCH  92  93
ATOM     93  S   UNL A   1      45.973  34.693  25.424  1.00  0.00     0.124 S 
ATOM     94  O   UNL A   1      45.526  35.772  26.304  1.00  0.00    -0.237 OA
ATOM     95  O   UNL A   1      47.416  34.637  25.195  1.00  0.00    -0.237 OA
ATOM     96  O   UNL A   1      45.151  34.473  24.239  1.00  0.00    -0.744 OA
ENDBRANCH  92  93
ENDBRANCH  66  87
ENDBRANCH  40  41
ENDBRANCH  32  35
ENDBRANCH  30  31
ENDBRANCH  29  30
ENDBRANCH   1  29
TORSDOF 18
ENDMDL
