MODEL 1
REMARK VINA RESULT:     -11.5      0.000      0.000
REMARK SMILES C[C@H]1SC[C@H](C(=O)NCCCNC(=O)c2ccc(-c3c4nc(c(-c5ccc(S(=O)(=O)[O-])cc5)c5ccc([nH]5)c(-c5ccc(S(=O)(=O)[O-])cc5)c5nc(c(-c6ccc(S(=O)(=O)[O-])cc6)c6ccc3[nH]6)C=C5)C=C4)cc2)N1C(=O)[C@@H]1CSc2ccccc21
REMARK SMILES IDX 10 1 9 2 8 3 6 4 7 5 5 7 1 8 2 9 3 10 75 11 4 12 76 13 77 14
REMARK SMILES IDX 78 15 79 16 86 17 80 18 81 19 85 20 82 21 84 22 83 23 11 24
REMARK SMILES IDX 12 25 13 26 14 28 15 29 16 30 74 31 17 32 73 33 18 34 19 35
REMARK SMILES IDX 20 36 67 37 21 38 72 39 66 40 68 41 22 42 71 43 65 44 64 45
REMARK SMILES IDX 23 47 53 48 34 49 52 50 35 51 38 52 51 53 69 54 36 55 37 56
REMARK SMILES IDX 50 58 70 59 39 60 24 61 25 62 33 63 26 64 32 65 27 66 28 67
REMARK SMILES IDX 29 68 30 69 31 70 54 71 55 72 63 73 56 74 62 75 57 76 58 77
REMARK SMILES IDX 59 78 60 79 61 80 40 81 41 82 49 83 42 84 48 85 43 86 44 87
REMARK SMILES IDX 45 88 46 89 47 90
REMARK H PARENT 8 6 12 27 68 46 38 57
REMARK Flexibility Score: inf
ROOT
ATOM      1  C   UNL A   1      32.194  28.208  27.623  1.00  0.00     0.042 C 
ENDROOT
BRANCH   1   2
ATOM      2  C   UNL A   1      31.229  27.762  26.540  1.00  0.00     0.117 C 
BRANCH   2   3
ATOM      3  N   UNL A   1      30.615  26.482  26.820  1.00  0.00    -0.354 N 
ATOM      4  C   UNL A   1      30.398  25.415  25.998  1.00  0.00     0.243 C 
ATOM      5  O   UNL A   1      29.703  24.495  26.447  1.00  0.00    -0.273 OA
ATOM      6  H   UNL A   1      30.306  26.362  27.747  1.00  0.00     0.163 HD
BRANCH   4   7
ATOM      7  C   UNL A   1      30.784  25.435  24.507  1.00  0.00     0.185 C 
ATOM      8  C   UNL A   1      32.188  25.072  21.705  1.00  0.00     0.043 C 
ATOM      9  C   UNL A   1      32.383  26.115  22.809  1.00  0.00     0.141 C 
ATOM     10  S   UNL A   1      31.075  27.349  22.620  1.00  0.00    -0.135 SA
ATOM     11  N   UNL A   1      32.210  25.547  24.138  1.00  0.00    -0.318 N 
ATOM     12  C   UNL A   1      30.017  26.617  23.889  1.00  0.00     0.107 C 
BRANCH  11  13
ATOM     13  C   UNL A   1      33.142  24.745  24.778  1.00  0.00     0.232 C 
ATOM     14  O   UNL A   1      33.984  25.258  25.525  1.00  0.00    -0.274 OA
BRANCH  13  15
ATOM     15  C   UNL A   1      33.241  23.231  24.518  1.00  0.00     0.120 C 
ATOM     16  C   UNL A   1      32.512  22.350  25.545  1.00  0.00     0.093 C 
ATOM     17  C   UNL A   1      34.633  22.697  24.328  1.00  0.00    -0.021 A 
ATOM     18  S   UNL A   1      33.709  21.219  26.321  1.00  0.00    -0.125 SA
ATOM     19  C   UNL A   1      35.011  21.702  25.231  1.00  0.00     0.011 A 
ATOM     20  C   UNL A   1      35.522  23.127  23.347  1.00  0.00     0.006 A 
ATOM     21  C   UNL A   1      36.300  21.194  25.237  1.00  0.00     0.015 A 
ATOM     22  C   UNL A   1      36.817  22.607  23.335  1.00  0.00     0.000 A 
ATOM     23  C   UNL A   1      37.210  21.661  24.288  1.00  0.00     0.001 A 
ENDBRANCH  13  15
ENDBRANCH  11  13
ENDBRANCH   4   7
ENDBRANCH   2   3
ENDBRANCH   1   2
BRANCH   1  24
ATOM     24  C   UNL A   1      33.481  28.820  27.097  1.00  0.00     0.118 C 
BRANCH  24  25
ATOM     25  N   UNL A   1      33.589  30.247  27.370  1.00  0.00    -0.352 N 
ATOM     26  C   UNL A   1      34.621  30.948  27.956  1.00  0.00     0.251 C 
ATOM     27  H   UNL A   1      32.813  30.789  27.097  1.00  0.00     0.163 HD
ATOM     28  O   UNL A   1      34.480  32.127  28.243  1.00  0.00    -0.269 OA
BRANCH  26  29
ATOM     29  C   UNL A   1      35.888  30.246  28.262  1.00  0.00     0.039 A 
ATOM     30  C   UNL A   1      36.916  30.248  27.316  1.00  0.00     0.014 A 
ATOM     31  C   UNL A   1      36.074  29.636  29.504  1.00  0.00     0.014 A 
ATOM     32  C   UNL A   1      38.166  29.725  27.655  1.00  0.00     0.010 A 
ATOM     33  C   UNL A   1      37.342  29.201  29.871  1.00  0.00     0.010 A 
ATOM     34  C   UNL A   1      38.403  29.245  28.953  1.00  0.00    -0.014 A 
BRANCH  34  35
ATOM     35  C   UNL A   1      39.747  28.796  29.399  1.00  0.00     0.031 A 
ATOM     36  C   UNL A   1      40.661  29.761  30.102  1.00  0.00     0.074 A 
ATOM     37  C   UNL A   1      40.194  27.571  29.054  1.00  0.00     0.049 A 
ATOM     38  N   UNL A   1      41.924  29.625  30.413  1.00  0.00    -0.248 NA
ATOM     39  C   UNL A   1      40.088  31.067  30.466  1.00  0.00     0.031 C 
ATOM     40  C   UNL A   1      39.428  26.560  28.323  1.00  0.00     0.029 A 
ATOM     41  N   UNL A   1      41.419  26.980  29.249  1.00  0.00    -0.354 N 
ATOM     42  C   UNL A   1      42.310  30.842  30.962  1.00  0.00     0.074 A 
ATOM     43  C   UNL A   1      41.155  31.714  30.910  1.00  0.00     0.031 C 
ATOM     44  C   UNL A   1      40.196  25.475  28.137  1.00  0.00     0.029 A 
ATOM     45  C   UNL A   1      41.521  25.728  28.694  1.00  0.00     0.049 A 
ATOM     46  H   UNL A   1      42.154  27.415  29.740  1.00  0.00     0.167 HD
ATOM     47  C   UNL A   1      43.511  31.201  31.472  1.00  0.00     0.031 A 
ATOM     48  C   UNL A   1      42.567  24.881  28.619  1.00  0.00     0.031 A 
ATOM     49  C   UNL A   1      44.647  30.323  31.549  1.00  0.00     0.049 A 
ATOM     50  C   UNL A   1      43.881  25.280  29.229  1.00  0.00     0.074 A 
ATOM     51  C   UNL A   1      45.882  30.563  32.124  1.00  0.00     0.029 A 
ATOM     52  N   UNL A   1      44.686  29.036  31.034  1.00  0.00    -0.354 N 
ATOM     53  N   UNL A   1      44.208  26.410  29.809  1.00  0.00    -0.248 NA
ATOM     54  C   UNL A   1      44.964  24.288  29.187  1.00  0.00     0.031 C 
ATOM     55  C   UNL A   1      46.683  29.433  31.920  1.00  0.00     0.029 A 
ATOM     56  C   UNL A   1      45.931  28.473  31.262  1.00  0.00     0.049 A 
ATOM     57  H   UNL A   1      43.940  28.587  30.575  1.00  0.00     0.167 HD
ATOM     58  C   UNL A   1      45.526  26.257  30.223  1.00  0.00     0.074 A 
ATOM     59  C   UNL A   1      45.934  24.923  29.833  1.00  0.00     0.031 C 
ATOM     60  C   UNL A   1      46.322  27.142  30.871  1.00  0.00     0.031 A 
BRANCH  47  61
ATOM     61  C   UNL A   1      43.656  32.616  31.966  1.00  0.00    -0.014 A 
ATOM     62  C   UNL A   1      43.431  32.947  33.314  1.00  0.00     0.010 A 
ATOM     63  C   UNL A   1      44.020  33.633  31.064  1.00  0.00     0.010 A 
ATOM     64  C   UNL A   1      43.502  34.276  33.738  1.00  0.00     0.020 A 
ATOM     65  C   UNL A   1      44.122  34.960  31.490  1.00  0.00     0.020 A 
ATOM     66  C   UNL A   1      43.836  35.276  32.819  1.00  0.00     0.054 A 
BRANCH  66  67
ATOM     67  S   UNL A   1      43.908  36.997  33.389  1.00  0.00     0.124 S 
ATOM     68  O   UNL A   1      43.962  37.728  32.124  1.00  0.00    -0.237 OA
ATOM     69  O   UNL A   1      42.665  37.140  34.143  1.00  0.00    -0.237 OA
ATOM     70  O   UNL A   1      45.129  37.045  34.189  1.00  0.00    -0.744 OA
ENDBRANCH  66  67
ENDBRANCH  47  61
BRANCH  48  71
ATOM     71  C   UNL A   1      42.395  23.566  27.946  1.00  0.00    -0.014 A 
ATOM     72  C   UNL A   1      42.867  23.370  26.637  1.00  0.00     0.010 A 
ATOM     73  C   UNL A   1      41.819  22.483  28.637  1.00  0.00     0.010 A 
ATOM     74  C   UNL A   1      42.769  22.115  26.031  1.00  0.00     0.020 A 
ATOM     75  C   UNL A   1      41.740  21.221  28.041  1.00  0.00     0.020 A 
ATOM     76  C   UNL A   1      42.214  21.046  26.740  1.00  0.00     0.054 A 
BRANCH  76  77
ATOM     77  S   UNL A   1      42.187  19.404  25.968  1.00  0.00     0.124 S 
ATOM     78  O   UNL A   1      42.752  18.563  27.019  1.00  0.00    -0.237 OA
ATOM     79  O   UNL A   1      40.765  19.205  25.696  1.00  0.00    -0.237 OA
ATOM     80  O   UNL A   1      43.022  19.570  24.780  1.00  0.00    -0.744 OA
ENDBRANCH  76  77
ENDBRANCH  48  71
BRANCH  60  81
ATOM     81  C   UNL A   1      47.710  26.692  31.237  1.00  0.00    -0.014 A 
ATOM     82  C   UNL A   1      47.962  26.010  32.439  1.00  0.00     0.010 A 
ATOM     83  C   UNL A   1      48.761  26.886  30.322  1.00  0.00     0.010 A 
ATOM     84  C   UNL A   1      49.248  25.545  32.729  1.00  0.00     0.020 A 
ATOM     85  C   UNL A   1      50.042  26.403  30.598  1.00  0.00     0.020 A 
ATOM     86  C   UNL A   1      50.280  25.742  31.805  1.00  0.00     0.054 A 
BRANCH  86  87
ATOM     87  S   UNL A   1      51.925  25.073  32.173  1.00  0.00     0.124 S 
ATOM     88  O   UNL A   1      52.715  25.576  31.052  1.00  0.00    -0.237 OA
ATOM     89  O   UNL A   1      52.230  25.665  33.473  1.00  0.00    -0.237 OA
ATOM     90  O   UNL A   1      51.715  23.627  32.188  1.00  0.00    -0.744 OA
ENDBRANCH  86  87
ENDBRANCH  60  81
ENDBRANCH  34  35
ENDBRANCH  26  29
ENDBRANCH  24  25
ENDBRANCH   1  24
TORSDOF 15
ENDMDL
MODEL 2
REMARK VINA RESULT:     -11.5      4.251     10.306
REMARK SMILES C[C@H]1SC[C@H](C(=O)NCCCNC(=O)c2ccc(-c3c4nc(c(-c5ccc(S(=O)(=O)[O-])cc5)c5ccc([nH]5)c(-c5ccc(S(=O)(=O)[O-])cc5)c5nc(c(-c6ccc(S(=O)(=O)[O-])cc6)c6ccc3[nH]6)C=C5)C=C4)cc2)N1C(=O)[C@@H]1CSc2ccccc21
REMARK SMILES IDX 10 1 9 2 8 3 6 4 7 5 5 7 1 8 2 9 3 10 75 11 4 12 76 13 77 14
REMARK SMILES IDX 78 15 79 16 86 17 80 18 81 19 85 20 82 21 84 22 83 23 11 24
REMARK SMILES IDX 12 25 13 26 14 28 15 29 16 30 74 31 17 32 73 33 18 34 19 35
REMARK SMILES IDX 20 36 67 37 21 38 72 39 66 40 68 41 22 42 71 43 65 44 64 45
REMARK SMILES IDX 23 47 53 48 34 49 52 50 35 51 38 52 51 53 69 54 36 55 37 56
REMARK SMILES IDX 50 58 70 59 39 60 24 61 25 62 33 63 26 64 32 65 27 66 28 67
REMARK SMILES IDX 29 68 30 69 31 70 54 71 55 72 63 73 56 74 62 75 57 76 58 77
REMARK SMILES IDX 59 78 60 79 61 80 40 81 41 82 49 83 42 84 48 85 43 86 44 87
REMARK SMILES IDX 45 88 46 89 47 90
REMARK H PARENT 8 6 12 27 68 46 38 57
REMARK Flexibility Score: inf
ROOT
ATOM      1  C   UNL A   1      37.670  23.695  25.414  1.00  0.00     0.042 C 
ENDROOT
BRANCH   1   2
ATOM      2  C   UNL A   1      37.105  22.289  25.326  1.00  0.00     0.117 C 
BRANCH   2   3
ATOM      3  N   UNL A   1      36.188  21.979  26.401  1.00  0.00    -0.354 N 
ATOM      4  C   UNL A   1      34.900  21.534  26.354  1.00  0.00     0.243 C 
ATOM      5  O   UNL A   1      34.280  21.500  27.424  1.00  0.00    -0.273 OA
ATOM      6  H   UNL A   1      36.549  22.110  27.308  1.00  0.00     0.163 HD
BRANCH   4   7
ATOM      7  C   UNL A   1      34.159  21.304  25.024  1.00  0.00     0.185 C 
ATOM      8  C   UNL A   1      32.380  21.553  22.429  1.00  0.00     0.043 C 
ATOM      9  C   UNL A   1      32.033  21.132  23.860  1.00  0.00     0.141 C 
ATOM     10  S   UNL A   1      32.512  19.398  24.042  1.00  0.00    -0.135 SA
ATOM     11  N   UNL A   1      32.803  21.867  24.851  1.00  0.00    -0.318 N 
ATOM     12  C   UNL A   1      34.089  19.779  24.839  1.00  0.00     0.107 C 
BRANCH  11  13
ATOM     13  C   UNL A   1      32.565  23.183  25.216  1.00  0.00     0.232 C 
ATOM     14  O   UNL A   1      31.566  23.461  25.891  1.00  0.00    -0.274 OA
BRANCH  13  15
ATOM     15  C   UNL A   1      33.446  24.346  24.726  1.00  0.00     0.120 C 
ATOM     16  C   UNL A   1      34.195  25.102  25.836  1.00  0.00     0.093 C 
ATOM     17  C   UNL A   1      32.762  25.348  23.839  1.00  0.00    -0.021 A 
ATOM     18  S   UNL A   1      33.709  26.856  25.799  1.00  0.00    -0.125 SA
ATOM     19  C   UNL A   1      32.778  26.661  24.312  1.00  0.00     0.011 A 
ATOM     20  C   UNL A   1      32.140  25.046  22.631  1.00  0.00     0.006 A 
ATOM     21  C   UNL A   1      32.096  27.668  23.649  1.00  0.00     0.015 A 
ATOM     22  C   UNL A   1      31.467  26.058  21.947  1.00  0.00     0.000 A 
ATOM     23  C   UNL A   1      31.427  27.358  22.463  1.00  0.00     0.001 A 
ENDBRANCH  13  15
ENDBRANCH  11  13
ENDBRANCH   4   7
ENDBRANCH   2   3
ENDBRANCH   1   2
BRANCH   1  24
ATOM     24  C   UNL A   1      38.613  23.914  26.585  1.00  0.00     0.118 C 
BRANCH  24  25
ATOM     25  N   UNL A   1      40.019  23.866  26.204  1.00  0.00    -0.352 N 
ATOM     26  C   UNL A   1      41.029  24.762  26.481  1.00  0.00     0.251 C 
ATOM     27  H   UNL A   1      40.285  23.081  25.672  1.00  0.00     0.163 HD
ATOM     28  O   UNL A   1      42.124  24.638  25.953  1.00  0.00    -0.269 OA
BRANCH  26  29
ATOM     29  C   UNL A   1      40.761  25.892  27.398  1.00  0.00     0.039 A 
ATOM     30  C   UNL A   1      39.861  25.717  28.453  1.00  0.00     0.014 A 
ATOM     31  C   UNL A   1      41.440  27.102  27.244  1.00  0.00     0.014 A 
ATOM     32  C   UNL A   1      39.719  26.723  29.411  1.00  0.00     0.010 A 
ATOM     33  C   UNL A   1      41.367  28.061  28.247  1.00  0.00     0.010 A 
ATOM     34  C   UNL A   1      40.510  27.881  29.344  1.00  0.00    -0.014 A 
BRANCH  34  35
ATOM     35  C   UNL A   1      40.487  28.920  30.406  1.00  0.00     0.031 A 
ATOM     36  C   UNL A   1      41.388  28.785  31.602  1.00  0.00     0.074 A 
ATOM     37  C   UNL A   1      39.566  29.904  30.362  1.00  0.00     0.049 A 
ATOM     38  N   UNL A   1      41.398  29.478  32.711  1.00  0.00    -0.248 NA
ATOM     39  C   UNL A   1      42.383  27.701  31.560  1.00  0.00     0.031 C 
ATOM     40  C   UNL A   1      38.595  30.114  29.285  1.00  0.00     0.029 A 
ATOM     41  N   UNL A   1      39.277  30.898  31.265  1.00  0.00    -0.354 N 
ATOM     42  C   UNL A   1      42.362  28.884  33.517  1.00  0.00     0.074 A 
ATOM     43  C   UNL A   1      42.890  27.754  32.782  1.00  0.00     0.031 C 
ATOM     44  C   UNL A   1      37.825  31.171  29.587  1.00  0.00     0.029 A 
ATOM     45  C   UNL A   1      38.214  31.686  30.896  1.00  0.00     0.049 A 
ATOM     46  H   UNL A   1      39.785  31.032  32.098  1.00  0.00     0.167 HD
ATOM     47  C   UNL A   1      42.777  29.249  34.753  1.00  0.00     0.031 A 
ATOM     48  C   UNL A   1      37.603  32.698  31.543  1.00  0.00     0.031 A 
ATOM     49  C   UNL A   1      42.272  30.390  35.467  1.00  0.00     0.049 A 
ATOM     50  C   UNL A   1      38.107  33.117  32.895  1.00  0.00     0.074 A 
ATOM     51  C   UNL A   1      42.686  30.893  36.687  1.00  0.00     0.029 A 
ATOM     52  N   UNL A   1      41.239  31.203  35.026  1.00  0.00    -0.354 N 
ATOM     53  N   UNL A   1      39.068  32.588  33.614  1.00  0.00    -0.248 NA
ATOM     54  C   UNL A   1      37.454  34.276  33.520  1.00  0.00     0.031 C 
ATOM     55  C   UNL A   1      41.875  31.989  37.003  1.00  0.00     0.029 A 
ATOM     56  C   UNL A   1      40.989  32.197  35.958  1.00  0.00     0.049 A 
ATOM     57  H   UNL A   1      40.754  31.092  34.176  1.00  0.00     0.167 HD
ATOM     58  C   UNL A   1      39.152  33.363  34.764  1.00  0.00     0.074 A 
ATOM     59  C   UNL A   1      38.149  34.401  34.643  1.00  0.00     0.031 C 
ATOM     60  C   UNL A   1      39.989  33.226  35.822  1.00  0.00     0.031 A 
BRANCH  47  61
ATOM     61  C   UNL A   1      43.819  28.385  35.413  1.00  0.00    -0.014 A 
ATOM     62  C   UNL A   1      45.192  28.620  35.222  1.00  0.00     0.010 A 
ATOM     63  C   UNL A   1      43.416  27.317  36.236  1.00  0.00     0.010 A 
ATOM     64  C   UNL A   1      46.142  27.765  35.788  1.00  0.00     0.020 A 
ATOM     65  C   UNL A   1      44.363  26.477  36.828  1.00  0.00     0.020 A 
ATOM     66  C   UNL A   1      45.719  26.691  36.578  1.00  0.00     0.054 A 
BRANCH  66  67
ATOM     67  S   UNL A   1      46.969  25.586  37.289  1.00  0.00     0.124 S 
ATOM     68  O   UNL A   1      47.692  25.146  36.096  1.00  0.00    -0.237 OA
ATOM     69  O   UNL A   1      47.714  26.472  38.181  1.00  0.00    -0.237 OA
ATOM     70  O   UNL A   1      46.180  24.555  37.956  1.00  0.00    -0.744 OA
ENDBRANCH  66  67
ENDBRANCH  47  61
BRANCH  48  71
ATOM     71  C   UNL A   1      36.453  33.387  30.899  1.00  0.00    -0.014 A 
ATOM     72  C   UNL A   1      35.250  33.571  31.603  1.00  0.00     0.010 A 
ATOM     73  C   UNL A   1      36.578  33.922  29.603  1.00  0.00     0.010 A 
ATOM     74  C   UNL A   1      34.194  34.281  31.025  1.00  0.00     0.020 A 
ATOM     75  C   UNL A   1      35.531  34.651  29.032  1.00  0.00     0.020 A 
ATOM     76  C   UNL A   1      34.344  34.824  29.746  1.00  0.00     0.054 A 
BRANCH  76  77
ATOM     77  S   UNL A   1      32.996  35.823  29.056  1.00  0.00     0.124 S 
ATOM     78  O   UNL A   1      32.222  36.156  30.248  1.00  0.00    -0.237 OA
ATOM     79  O   UNL A   1      33.712  36.936  28.436  1.00  0.00    -0.237 OA
ATOM     80  O   UNL A   1      32.343  34.914  28.116  1.00  0.00    -0.744 OA
ENDBRANCH  76  77
ENDBRANCH  48  71
BRANCH  60  81
ATOM     81  C   UNL A   1      39.887  34.243  36.926  1.00  0.00    -0.014 A 
ATOM     82  C   UNL A   1      40.531  35.489  36.831  1.00  0.00     0.010 A 
ATOM     83  C   UNL A   1      39.068  33.975  38.038  1.00  0.00     0.010 A 
ATOM     84  C   UNL A   1      40.370  36.443  37.840  1.00  0.00     0.020 A 
ATOM     85  C   UNL A   1      38.887  34.934  39.036  1.00  0.00     0.020 A 
ATOM     86  C   UNL A   1      39.547  36.160  38.935  1.00  0.00     0.054 A 
BRANCH  86  87
ATOM     87  S   UNL A   1      39.302  37.438  40.200  1.00  0.00     0.124 S 
ATOM     88  O   UNL A   1      38.667  36.682  41.276  1.00  0.00    -0.237 OA
ATOM     89  O   UNL A   1      40.664  37.891  40.468  1.00  0.00    -0.237 OA
ATOM     90  O   UNL A   1      38.445  38.419  39.538  1.00  0.00    -0.744 OA
ENDBRANCH  86  87
ENDBRANCH  60  81
ENDBRANCH  34  35
ENDBRANCH  26  29
ENDBRANCH  24  25
ENDBRANCH   1  24
TORSDOF 15
ENDMDL
MODEL 3
REMARK VINA RESULT:     -11.2      2.363      3.101
REMARK SMILES C[C@H]1SC[C@H](C(=O)NCCCNC(=O)c2ccc(-c3c4nc(c(-c5ccc(S(=O)(=O)[O-])cc5)c5ccc([nH]5)c(-c5ccc(S(=O)(=O)[O-])cc5)c5nc(c(-c6ccc(S(=O)(=O)[O-])cc6)c6ccc3[nH]6)C=C5)C=C4)cc2)N1C(=O)[C@@H]1CSc2ccccc21
REMARK SMILES IDX 10 1 9 2 8 3 6 4 7 5 5 7 1 8 2 9 3 10 75 11 4 12 76 13 77 14
REMARK SMILES IDX 78 15 79 16 86 17 80 18 81 19 85 20 82 21 84 22 83 23 11 24
REMARK SMILES IDX 12 25 13 26 14 28 15 29 16 30 74 31 17 32 73 33 18 34 19 35
REMARK SMILES IDX 20 36 67 37 21 38 72 39 66 40 68 41 22 42 71 43 65 44 64 45
REMARK SMILES IDX 23 47 53 48 34 49 52 50 35 51 38 52 51 53 69 54 36 55 37 56
REMARK SMILES IDX 50 58 70 59 39 60 24 61 25 62 33 63 26 64 32 65 27 66 28 67
REMARK SMILES IDX 29 68 30 69 31 70 54 71 55 72 63 73 56 74 62 75 57 76 58 77
REMARK SMILES IDX 59 78 60 79 61 80 40 81 41 82 49 83 42 84 48 85 43 86 44 87
REMARK SMILES IDX 45 88 46 89 47 90
REMARK H PARENT 8 6 12 27 68 46 38 57
REMARK Flexibility Score: inf
ROOT
ATOM      1  C   UNL A   1      33.295  27.722  26.321  1.00  0.00     0.042 C 
ENDROOT
BRANCH   1   2
ATOM      2  C   UNL A   1      33.679  26.363  25.764  1.00  0.00     0.117 C 
BRANCH   2   3
ATOM      3  N   UNL A   1      33.842  26.365  24.326  1.00  0.00    -0.354 N 
ATOM      4  C   UNL A   1      33.679  25.356  23.424  1.00  0.00     0.243 C 
ATOM      5  O   UNL A   1      34.040  25.580  22.262  1.00  0.00    -0.273 OA
ATOM      6  H   UNL A   1      34.113  27.229  23.939  1.00  0.00     0.163 HD
BRANCH   4   7
ATOM      7  C   UNL A   1      33.290  23.928  23.851  1.00  0.00     0.185 C 
ATOM      8  C   UNL A   1      33.255  20.937  24.858  1.00  0.00     0.043 C 
ATOM      9  C   UNL A   1      33.514  21.538  23.473  1.00  0.00     0.141 C 
ATOM     10  S   UNL A   1      31.904  21.894  22.731  1.00  0.00    -0.135 SA
ATOM     11  N   UNL A   1      34.212  22.813  23.549  1.00  0.00    -0.318 N 
ATOM     12  C   UNL A   1      31.933  23.644  23.184  1.00  0.00     0.107 C 
BRANCH  11  13
ATOM     13  C   UNL A   1      35.562  22.956  23.827  1.00  0.00     0.232 C 
ATOM     14  O   UNL A   1      36.358  23.174  22.906  1.00  0.00    -0.274 OA
BRANCH  13  15
ATOM     15  C   UNL A   1      36.138  22.751  25.240  1.00  0.00     0.120 C 
ATOM     16  C   UNL A   1      36.628  24.033  25.931  1.00  0.00     0.093 C 
ATOM     17  C   UNL A   1      37.209  21.702  25.356  1.00  0.00    -0.021 A 
ATOM     18  S   UNL A   1      38.393  23.857  26.339  1.00  0.00    -0.125 SA
ATOM     19  C   UNL A   1      38.430  22.160  25.852  1.00  0.00     0.011 A 
ATOM     20  C   UNL A   1      37.051  20.363  25.009  1.00  0.00     0.006 A 
ATOM     21  C   UNL A   1      39.535  21.327  25.914  1.00  0.00     0.015 A 
ATOM     22  C   UNL A   1      38.154  19.512  25.086  1.00  0.00     0.000 A 
ATOM     23  C   UNL A   1      39.394  19.996  25.517  1.00  0.00     0.001 A 
ENDBRANCH  13  15
ENDBRANCH  11  13
ENDBRANCH   4   7
ENDBRANCH   2   3
ENDBRANCH   1   2
BRANCH   1  24
ATOM     24  C   UNL A   1      34.045  28.885  25.696  1.00  0.00     0.118 C 
BRANCH  24  25
ATOM     25  N   UNL A   1      33.772  30.159  26.349  1.00  0.00    -0.352 N 
ATOM     26  C   UNL A   1      34.424  30.754  27.408  1.00  0.00     0.251 C 
ATOM     27  H   UNL A   1      33.013  30.667  25.983  1.00  0.00     0.163 HD
ATOM     28  O   UNL A   1      33.966  31.760  27.927  1.00  0.00    -0.269 OA
BRANCH  26  29
ATOM     29  C   UNL A   1      35.667  30.139  27.928  1.00  0.00     0.039 A 
ATOM     30  C   UNL A   1      36.877  30.389  27.276  1.00  0.00     0.014 A 
ATOM     31  C   UNL A   1      35.638  29.365  29.089  1.00  0.00     0.014 A 
ATOM     32  C   UNL A   1      38.072  29.943  27.846  1.00  0.00     0.010 A 
ATOM     33  C   UNL A   1      36.832  29.004  29.702  1.00  0.00     0.010 A 
ATOM     34  C   UNL A   1      38.062  29.293  29.090  1.00  0.00    -0.014 A 
BRANCH  34  35
ATOM     35  C   UNL A   1      39.313  28.913  29.796  1.00  0.00     0.031 A 
ATOM     36  C   UNL A   1      39.786  29.728  30.967  1.00  0.00     0.074 A 
ATOM     37  C   UNL A   1      40.088  27.925  29.303  1.00  0.00     0.049 A 
ATOM     38  N   UNL A   1      40.927  29.674  31.604  1.00  0.00    -0.248 NA
ATOM     39  C   UNL A   1      38.870  30.769  31.460  1.00  0.00     0.031 C 
ATOM     40  C   UNL A   1      39.771  27.095  28.139  1.00  0.00     0.029 A 
ATOM     41  N   UNL A   1      41.321  27.473  29.705  1.00  0.00    -0.354 N 
ATOM     42  C   UNL A   1      40.886  30.703  32.538  1.00  0.00     0.074 A 
ATOM     43  C   UNL A   1      39.622  31.385  32.360  1.00  0.00     0.031 C 
ATOM     44  C   UNL A   1      40.778  26.233  27.926  1.00  0.00     0.029 A 
ATOM     45  C   UNL A   1      41.830  26.478  28.906  1.00  0.00     0.049 A 
ATOM     46  H   UNL A   1      41.795  27.830  30.492  1.00  0.00     0.167 HD
ATOM     47  C   UNL A   1      41.811  31.045  33.465  1.00  0.00     0.031 A 
ATOM     48  C   UNL A   1      43.019  25.844  28.942  1.00  0.00     0.031 A 
ATOM     49  C   UNL A   1      43.053  30.346  33.659  1.00  0.00     0.049 A 
ATOM     50  C   UNL A   1      44.016  26.208  30.006  1.00  0.00     0.074 A 
ATOM     51  C   UNL A   1      44.019  30.561  34.626  1.00  0.00     0.029 A 
ATOM     52  N   UNL A   1      43.500  29.298  32.869  1.00  0.00    -0.354 N 
ATOM     53  N   UNL A   1      43.931  27.138  30.927  1.00  0.00    -0.248 NA
ATOM     54  C   UNL A   1      45.263  25.431  30.045  1.00  0.00     0.031 C 
ATOM     55  C   UNL A   1      45.071  29.667  34.395  1.00  0.00     0.029 A 
ATOM     56  C   UNL A   1      44.738  28.864  33.315  1.00  0.00     0.049 A 
ATOM     57  H   UNL A   1      43.011  28.916  32.104  1.00  0.00     0.167 HD
ATOM     58  C   UNL A   1      45.101  27.043  31.671  1.00  0.00     0.074 A 
ATOM     59  C   UNL A   1      45.875  25.961  31.097  1.00  0.00     0.031 C 
ATOM     60  C   UNL A   1      45.495  27.783  32.736  1.00  0.00     0.031 A 
BRANCH  47  61
ATOM     61  C   UNL A   1      41.514  32.245  34.324  1.00  0.00    -0.014 A 
ATOM     62  C   UNL A   1      40.840  32.118  35.552  1.00  0.00     0.010 A 
ATOM     63  C   UNL A   1      41.914  33.524  33.894  1.00  0.00     0.010 A 
ATOM     64  C   UNL A   1      40.514  33.250  36.302  1.00  0.00     0.020 A 
ATOM     65  C   UNL A   1      41.615  34.658  34.655  1.00  0.00     0.020 A 
ATOM     66  C   UNL A   1      40.894  34.515  35.841  1.00  0.00     0.054 A 
BRANCH  66  67
ATOM     67  S   UNL A   1      40.445  35.973  36.823  1.00  0.00     0.124 S 
ATOM     68  O   UNL A   1      41.756  36.460  37.249  1.00  0.00    -0.237 OA
ATOM     69  O   UNL A   1      39.749  36.814  35.853  1.00  0.00    -0.237 OA
ATOM     70  O   UNL A   1      39.606  35.428  37.887  1.00  0.00    -0.744 OA
ENDBRANCH  66  67
ENDBRANCH  47  61
BRANCH  48  71
ATOM     71  C   UNL A   1      43.314  24.789  27.936  1.00  0.00    -0.014 A 
ATOM     72  C   UNL A   1      44.021  25.103  26.763  1.00  0.00     0.010 A 
ATOM     73  C   UNL A   1      42.947  23.452  28.178  1.00  0.00     0.010 A 
ATOM     74  C   UNL A   1      44.361  24.100  25.851  1.00  0.00     0.020 A 
ATOM     75  C   UNL A   1      43.304  22.443  27.278  1.00  0.00     0.020 A 
ATOM     76  C   UNL A   1      44.007  22.774  26.119  1.00  0.00     0.054 A 
BRANCH  76  77
ATOM     77  S   UNL A   1      44.542  21.476  24.969  1.00  0.00     0.124 S 
ATOM     78  O   UNL A   1      45.885  21.172  25.456  1.00  0.00    -0.237 OA
ATOM     79  O   UNL A   1      43.541  20.432  25.182  1.00  0.00    -0.237 OA
ATOM     80  O   UNL A   1      44.481  22.129  23.663  1.00  0.00    -0.744 OA
ENDBRANCH  76  77
ENDBRANCH  48  71
BRANCH  60  81
ATOM     81  C   UNL A   1      46.808  27.433  33.381  1.00  0.00    -0.014 A 
ATOM     82  C   UNL A   1      46.880  26.494  34.424  1.00  0.00     0.010 A 
ATOM     83  C   UNL A   1      47.995  27.995  32.877  1.00  0.00     0.010 A 
ATOM     84  C   UNL A   1      48.118  26.137  34.965  1.00  0.00     0.020 A 
ATOM     85  C   UNL A   1      49.235  27.624  33.401  1.00  0.00     0.020 A 
ATOM     86  C   UNL A   1      49.289  26.702  34.448  1.00  0.00     0.054 A 
BRANCH  86  87
ATOM     87  S   UNL A   1      50.888  26.175  35.122  1.00  0.00     0.124 S 
ATOM     88  O   UNL A   1      50.498  25.077  36.004  1.00  0.00    -0.237 OA
ATOM     89  O   UNL A   1      51.630  25.787  33.926  1.00  0.00    -0.237 OA
ATOM     90  O   UNL A   1      51.389  27.369  35.799  1.00  0.00    -0.744 OA
ENDBRANCH  86  87
ENDBRANCH  60  81
ENDBRANCH  34  35
ENDBRANCH  26  29
ENDBRANCH  24  25
ENDBRANCH   1  24
TORSDOF 15
ENDMDL
