MODEL 1
REMARK VINA RESULT:     -11.5      0.000      0.000
REMARK SMILES C[C@@H]1CCC[C@H]1NC(=O)c1csc(/C=C/C(=O)NCCCNC(=O)c2ccc(-c3c4nc(c(-c5ccc(S(=O)(=O)[O-])cc5)c5ccc([nH]5)c(-c5ccc(S(=O)(=O)[O-])cc5)c5nc(c(-c6ccc(S(=O)(=O)[O-])cc6)c6ccc3[nH]6)C=C5)C=C4)cc2)c1
REMARK SMILES IDX 20 1 19 2 18 3 16 4 17 5 15 7 14 8 13 9 10 10 11 11 85 12
REMARK SMILES IDX 12 13 8 14 7 15 9 17 6 18 1 19 2 20 3 21 4 22 5 23 21 24
REMARK SMILES IDX 22 25 23 26 24 28 25 29 26 30 84 31 27 32 83 33 28 34 29 35
REMARK SMILES IDX 30 36 77 37 31 38 82 39 76 40 78 41 32 42 81 43 75 44 74 45
REMARK SMILES IDX 33 47 63 48 44 49 62 50 45 51 48 52 61 53 79 54 46 55 47 56
REMARK SMILES IDX 60 58 80 59 49 60 34 61 35 62 43 63 36 64 42 65 37 66 38 67
REMARK SMILES IDX 39 68 40 69 41 70 64 71 65 72 73 73 66 74 72 75 67 76 68 77
REMARK SMILES IDX 69 78 70 79 71 80 50 81 51 82 59 83 52 84 58 85 53 86 54 87
REMARK SMILES IDX 55 88 56 89 57 90
REMARK H PARENT 18 6 7 16 22 27 78 46 48 57
REMARK Flexibility Score: inf
ROOT
ATOM      1  C   UNL A   1      33.911  28.128  25.019  1.00  0.00     0.042 C 
ENDROOT
BRANCH   1   2
ATOM      2  C   UNL A   1      32.705  27.488  24.334  1.00  0.00     0.118 C 
BRANCH   2   3
ATOM      3  N   UNL A   1      32.975  27.205  22.933  1.00  0.00    -0.352 N 
ATOM      4  C   UNL A   1      33.332  26.048  22.313  1.00  0.00     0.244 C 
ATOM      5  O   UNL A   1      33.391  26.006  21.086  1.00  0.00    -0.270 OA
ATOM      6  H   UNL A   1      32.885  27.981  22.333  1.00  0.00     0.163 HD
BRANCH   4   7
ATOM      7  C   UNL A   1      33.546  24.811  23.092  1.00  0.00     0.072 C 
ATOM      8  C   UNL A   1      34.653  24.574  23.808  1.00  0.00     0.024 C 
BRANCH   8   9
ATOM      9  C   UNL A   1      34.832  23.407  24.607  1.00  0.00     0.028 A 
ATOM     10  C   UNL A   1      35.444  21.208  25.215  1.00  0.00     0.051 A 
ATOM     11  C   UNL A   1      34.845  21.668  26.372  1.00  0.00     0.079 A 
ATOM     12  C   UNL A   1      35.468  22.239  24.221  1.00  0.00     0.033 A 
ATOM     13  S   UNL A   1      34.241  23.255  26.214  1.00  0.00    -0.144 S 
BRANCH  10  14
ATOM     14  C   UNL A   1      36.036  19.889  25.040  1.00  0.00     0.252 C 
ATOM     15  N   UNL A   1      35.235  18.840  24.672  1.00  0.00    -0.349 N 
ATOM     16  H   UNL A   1      35.680  17.962  24.648  1.00  0.00     0.164 HD
ATOM     17  O   UNL A   1      37.241  19.704  25.179  1.00  0.00    -0.269 OA
BRANCH  15  18
ATOM     18  C   UNL A   1      33.821  18.828  24.306  1.00  0.00     0.085 C 
ATOM     19  C   UNL A   1      32.255  18.087  22.457  1.00  0.00     0.010 C 
ATOM     20  C   UNL A   1      33.527  17.760  23.242  1.00  0.00     0.008 C 
ATOM     21  C   UNL A   1      33.372  16.480  24.063  1.00  0.00     0.005 C 
ATOM     22  C   UNL A   1      32.722  16.915  25.374  1.00  0.00     0.002 C 
ATOM     23  C   UNL A   1      32.973  18.418  25.512  1.00  0.00     0.025 C 
ENDBRANCH  15  18
ENDBRANCH  10  14
ENDBRANCH   8   9
ENDBRANCH   4   7
ENDBRANCH   2   3
ENDBRANCH   1   2
BRANCH   1  24
ATOM     24  C   UNL A   1      33.759  28.247  26.534  1.00  0.00     0.118 C 
BRANCH  24  25
ATOM     25  N   UNL A   1      33.593  29.629  26.961  1.00  0.00    -0.352 N 
ATOM     26  C   UNL A   1      34.393  30.413  27.754  1.00  0.00     0.251 C 
ATOM     27  H   UNL A   1      32.777  30.069  26.629  1.00  0.00     0.163 HD
ATOM     28  O   UNL A   1      33.956  31.482  28.173  1.00  0.00    -0.269 OA
BRANCH  26  29
ATOM     29  C   UNL A   1      35.763  29.984  28.112  1.00  0.00     0.039 A 
ATOM     30  C   UNL A   1      36.767  30.066  27.142  1.00  0.00     0.014 A 
ATOM     31  C   UNL A   1      36.055  29.455  29.372  1.00  0.00     0.014 A 
ATOM     32  C   UNL A   1      38.070  29.669  27.452  1.00  0.00     0.010 A 
ATOM     33  C   UNL A   1      37.367  29.124  29.702  1.00  0.00     0.010 A 
ATOM     34  C   UNL A   1      38.388  29.221  28.745  1.00  0.00    -0.014 A 
BRANCH  34  35
ATOM     35  C   UNL A   1      39.780  28.856  29.113  1.00  0.00     0.031 A 
ATOM     36  C   UNL A   1      40.678  29.861  29.785  1.00  0.00     0.074 A 
ATOM     37  C   UNL A   1      40.257  27.639  28.783  1.00  0.00     0.049 A 
ATOM     38  N   UNL A   1      41.937  29.745  30.122  1.00  0.00    -0.248 NA
ATOM     39  C   UNL A   1      40.092  31.174  30.098  1.00  0.00     0.031 C 
ATOM     40  C   UNL A   1      39.499  26.590  28.097  1.00  0.00     0.029 A 
ATOM     41  N   UNL A   1      41.496  27.081  28.973  1.00  0.00    -0.354 N 
ATOM     42  C   UNL A   1      42.299  30.973  30.666  1.00  0.00     0.074 A 
ATOM     43  C   UNL A   1      41.139  31.832  30.575  1.00  0.00     0.031 C 
ATOM     44  C   UNL A   1      40.281  25.510  27.943  1.00  0.00     0.029 A 
ATOM     45  C   UNL A   1      41.606  25.801  28.483  1.00  0.00     0.049 A 
ATOM     46  H   UNL A   1      42.237  27.551  29.420  1.00  0.00     0.167 HD
ATOM     47  C   UNL A   1      43.484  31.345  31.207  1.00  0.00     0.031 A 
ATOM     48  C   UNL A   1      42.656  24.957  28.459  1.00  0.00     0.031 A 
ATOM     49  C   UNL A   1      44.633  30.483  31.306  1.00  0.00     0.049 A 
ATOM     50  C   UNL A   1      43.962  25.394  29.063  1.00  0.00     0.074 A 
ATOM     51  C   UNL A   1      45.860  30.749  31.890  1.00  0.00     0.029 A 
ATOM     52  N   UNL A   1      44.698  29.190  30.810  1.00  0.00    -0.354 N 
ATOM     53  N   UNL A   1      44.264  26.538  29.630  1.00  0.00    -0.248 NA
ATOM     54  C   UNL A   1      45.063  24.423  29.035  1.00  0.00     0.031 C 
ATOM     55  C   UNL A   1      46.683  29.633  31.702  1.00  0.00     0.029 A 
ATOM     56  C   UNL A   1      45.950  28.652  31.053  1.00  0.00     0.049 A 
ATOM     57  H   UNL A   1      43.962  28.723  30.354  1.00  0.00     0.167 HD
ATOM     58  C   UNL A   1      45.584  26.414  30.048  1.00  0.00     0.074 A 
ATOM     59  C   UNL A   1      46.015  25.081  29.683  1.00  0.00     0.031 C 
ATOM     60  C   UNL A   1      46.367  27.324  30.680  1.00  0.00     0.031 A 
BRANCH  47  61
ATOM     61  C   UNL A   1      43.600  32.755  31.727  1.00  0.00    -0.014 A 
ATOM     62  C   UNL A   1      43.985  33.812  30.882  1.00  0.00     0.010 A 
ATOM     63  C   UNL A   1      43.281  33.037  33.068  1.00  0.00     0.010 A 
ATOM     64  C   UNL A   1      44.095  35.113  31.379  1.00  0.00     0.020 A 
ATOM     65  C   UNL A   1      43.361  34.342  33.562  1.00  0.00     0.020 A 
ATOM     66  C   UNL A   1      43.785  35.369  32.718  1.00  0.00     0.054 A 
BRANCH  66  67
ATOM     67  S   UNL A   1      43.918  37.071  33.331  1.00  0.00     0.124 S 
ATOM     68  O   UNL A   1      45.184  37.030  34.059  1.00  0.00    -0.237 OA
ATOM     69  O   UNL A   1      43.928  37.858  32.100  1.00  0.00    -0.237 OA
ATOM     70  O   UNL A   1      42.727  37.235  34.162  1.00  0.00    -0.744 OA
ENDBRANCH  66  67
ENDBRANCH  47  61
BRANCH  48  71
ATOM     71  C   UNL A   1      42.508  23.607  27.851  1.00  0.00    -0.014 A 
ATOM     72  C   UNL A   1      42.798  23.402  26.490  1.00  0.00     0.010 A 
ATOM     73  C   UNL A   1      42.097  22.513  28.634  1.00  0.00     0.010 A 
ATOM     74  C   UNL A   1      42.665  22.131  25.921  1.00  0.00     0.020 A 
ATOM     75  C   UNL A   1      41.988  21.237  28.075  1.00  0.00     0.020 A 
ATOM     76  C   UNL A   1      42.262  21.057  26.718  1.00  0.00     0.054 A 
BRANCH  76  77
ATOM     77  S   UNL A   1      42.149  19.406  25.972  1.00  0.00     0.124 S 
ATOM     78  O   UNL A   1      40.714  19.278  25.735  1.00  0.00    -0.237 OA
ATOM     79  O   UNL A   1      42.979  19.541  24.778  1.00  0.00    -0.237 OA
ATOM     80  O   UNL A   1      42.696  18.527  27.003  1.00  0.00    -0.744 OA
ENDBRANCH  76  77
ENDBRANCH  48  71
BRANCH  60  81
ATOM     81  C   UNL A   1      47.764  26.899  31.047  1.00  0.00    -0.014 A 
ATOM     82  C   UNL A   1      48.034  26.260  32.269  1.00  0.00     0.010 A 
ATOM     83  C   UNL A   1      48.811  27.095  30.128  1.00  0.00     0.010 A 
ATOM     84  C   UNL A   1      49.334  25.853  32.581  1.00  0.00     0.020 A 
ATOM     85  C   UNL A   1      50.107  26.664  30.424  1.00  0.00     0.020 A 
ATOM     86  C   UNL A   1      50.363  26.059  31.655  1.00  0.00     0.054 A 
BRANCH  86  87
ATOM     87  S   UNL A   1      52.034  25.483  32.064  1.00  0.00     0.124 S 
ATOM     88  O   UNL A   1      52.320  26.227  33.287  1.00  0.00    -0.237 OA
ATOM     89  O   UNL A   1      51.845  24.045  32.234  1.00  0.00    -0.237 OA
ATOM     90  O   UNL A   1      52.828  25.868  30.899  1.00  0.00    -0.744 OA
ENDBRANCH  86  87
ENDBRANCH  60  81
ENDBRANCH  34  35
ENDBRANCH  26  29
ENDBRANCH  24  25
ENDBRANCH   1  24
TORSDOF 16
ENDMDL
MODEL 2
REMARK VINA RESULT:     -10.9      4.023      8.215
REMARK SMILES C[C@@H]1CCC[C@H]1NC(=O)c1csc(/C=C/C(=O)NCCCNC(=O)c2ccc(-c3c4nc(c(-c5ccc(S(=O)(=O)[O-])cc5)c5ccc([nH]5)c(-c5ccc(S(=O)(=O)[O-])cc5)c5nc(c(-c6ccc(S(=O)(=O)[O-])cc6)c6ccc3[nH]6)C=C5)C=C4)cc2)c1
REMARK SMILES IDX 20 1 19 2 18 3 16 4 17 5 15 7 14 8 13 9 10 10 11 11 85 12
REMARK SMILES IDX 12 13 8 14 7 15 9 17 6 18 1 19 2 20 3 21 4 22 5 23 21 24
REMARK SMILES IDX 22 25 23 26 24 28 25 29 26 30 84 31 27 32 83 33 28 34 29 35
REMARK SMILES IDX 30 36 77 37 31 38 82 39 76 40 78 41 32 42 81 43 75 44 74 45
REMARK SMILES IDX 33 47 63 48 44 49 62 50 45 51 48 52 61 53 79 54 46 55 47 56
REMARK SMILES IDX 60 58 80 59 49 60 34 61 35 62 43 63 36 64 42 65 37 66 38 67
REMARK SMILES IDX 39 68 40 69 41 70 64 71 65 72 73 73 66 74 72 75 67 76 68 77
REMARK SMILES IDX 69 78 70 79 71 80 50 81 51 82 59 83 52 84 58 85 53 86 54 87
REMARK SMILES IDX 55 88 56 89 57 90
REMARK H PARENT 18 6 7 16 22 27 78 46 48 57
REMARK Flexibility Score: inf
ROOT
ATOM      1  C   UNL A   1      33.666  33.833  28.086  1.00  0.00     0.042 C 
ENDROOT
BRANCH   1   2
ATOM      2  C   UNL A   1      34.215  35.158  28.611  1.00  0.00     0.118 C 
BRANCH   2   3
ATOM      3  N   UNL A   1      33.243  35.843  29.449  1.00  0.00    -0.352 N 
ATOM      4  C   UNL A   1      33.181  35.990  30.800  1.00  0.00     0.244 C 
ATOM      5  O   UNL A   1      32.328  36.722  31.296  1.00  0.00    -0.270 OA
ATOM      6  H   UNL A   1      32.506  36.271  28.956  1.00  0.00     0.163 HD
BRANCH   4   7
ATOM      7  C   UNL A   1      34.197  35.364  31.673  1.00  0.00     0.072 C 
ATOM      8  C   UNL A   1      34.051  34.150  32.219  1.00  0.00     0.024 C 
BRANCH   8   9
ATOM      9  C   UNL A   1      35.057  33.524  33.012  1.00  0.00     0.028 A 
ATOM     10  C   UNL A   1      36.522  33.116  34.819  1.00  0.00     0.051 A 
ATOM     11  C   UNL A   1      36.877  32.117  33.933  1.00  0.00     0.079 A 
ATOM     12  C   UNL A   1      35.439  33.891  34.291  1.00  0.00     0.033 A 
ATOM     13  S   UNL A   1      35.999  32.191  32.472  1.00  0.00    -0.144 S 
BRANCH  10  14
ATOM     14  C   UNL A   1      37.107  33.319  36.137  1.00  0.00     0.252 C 
ATOM     15  N   UNL A   1      38.467  33.444  36.253  1.00  0.00    -0.349 N 
ATOM     16  H   UNL A   1      38.804  33.499  37.176  1.00  0.00     0.164 HD
ATOM     17  O   UNL A   1      36.407  33.418  37.140  1.00  0.00    -0.269 OA
BRANCH  15  18
ATOM     18  C   UNL A   1      39.491  33.510  35.214  1.00  0.00     0.085 C 
ATOM     19  C   UNL A   1      40.068  34.731  33.070  1.00  0.00     0.010 C 
ATOM     20  C   UNL A   1      39.438  34.846  34.460  1.00  0.00     0.008 C 
ATOM     21  C   UNL A   1      40.231  35.790  35.364  1.00  0.00     0.005 C 
ATOM     22  C   UNL A   1      41.334  34.933  35.979  1.00  0.00     0.002 C 
ATOM     23  C   UNL A   1      40.882  33.477  35.849  1.00  0.00     0.025 C 
ENDBRANCH  15  18
ENDBRANCH  10  14
ENDBRANCH   8   9
ENDBRANCH   4   7
ENDBRANCH   2   3
ENDBRANCH   1   2
BRANCH   1  24
ATOM     24  C   UNL A   1      34.521  32.625  28.467  1.00  0.00     0.118 C 
BRANCH  24  25
ATOM     25  N   UNL A   1      33.864  31.366  28.145  1.00  0.00    -0.352 N 
ATOM     26  C   UNL A   1      34.398  30.123  27.915  1.00  0.00     0.251 C 
ATOM     27  H   UNL A   1      32.883  31.416  28.081  1.00  0.00     0.163 HD
ATOM     28  O   UNL A   1      33.683  29.244  27.440  1.00  0.00    -0.269 OA
BRANCH  26  29
ATOM     29  C   UNL A   1      35.815  29.835  28.225  1.00  0.00     0.039 A 
ATOM     30  C   UNL A   1      36.151  29.428  29.521  1.00  0.00     0.014 A 
ATOM     31  C   UNL A   1      36.820  30.011  27.270  1.00  0.00     0.014 A 
ATOM     32  C   UNL A   1      37.481  29.148  29.842  1.00  0.00     0.010 A 
ATOM     33  C   UNL A   1      38.136  29.666  27.571  1.00  0.00     0.010 A 
ATOM     34  C   UNL A   1      38.482  29.237  28.861  1.00  0.00    -0.014 A 
BRANCH  34  35
ATOM     35  C   UNL A   1      39.892  28.881  29.166  1.00  0.00     0.031 A 
ATOM     36  C   UNL A   1      40.816  29.895  29.787  1.00  0.00     0.074 A 
ATOM     37  C   UNL A   1      40.359  27.663  28.824  1.00  0.00     0.049 A 
ATOM     38  N   UNL A   1      42.090  29.787  30.066  1.00  0.00    -0.248 NA
ATOM     39  C   UNL A   1      40.239  31.208  30.117  1.00  0.00     0.031 C 
ATOM     40  C   UNL A   1      39.574  26.606  28.182  1.00  0.00     0.029 A 
ATOM     41  N   UNL A   1      41.608  27.112  28.960  1.00  0.00    -0.354 N 
ATOM     42  C   UNL A   1      42.471  31.021  30.583  1.00  0.00     0.074 A 
ATOM     43  C   UNL A   1      41.304  31.874  30.540  1.00  0.00     0.031 C 
ATOM     44  C   UNL A   1      40.353  25.528  27.999  1.00  0.00     0.029 A 
ATOM     45  C   UNL A   1      41.700  25.829  28.474  1.00  0.00     0.049 A 
ATOM     46  H   UNL A   1      42.367  27.589  29.367  1.00  0.00     0.167 HD
ATOM     47  C   UNL A   1      43.679  31.402  31.065  1.00  0.00     0.031 A 
ATOM     48  C   UNL A   1      42.752  24.989  28.408  1.00  0.00     0.031 A 
ATOM     49  C   UNL A   1      44.835  30.546  31.116  1.00  0.00     0.049 A 
ATOM     50  C   UNL A   1      44.082  25.437  28.947  1.00  0.00     0.074 A 
ATOM     51  C   UNL A   1      46.087  30.821  31.640  1.00  0.00     0.029 A 
ATOM     52  N   UNL A   1      44.883  29.249  30.627  1.00  0.00    -0.354 N 
ATOM     53  N   UNL A   1      44.406  26.586  29.490  1.00  0.00    -0.248 NA
ATOM     54  C   UNL A   1      45.186  24.470  28.874  1.00  0.00     0.031 C 
ATOM     55  C   UNL A   1      46.905  29.708  31.421  1.00  0.00     0.029 A 
ATOM     56  C   UNL A   1      46.148  28.719  30.815  1.00  0.00     0.049 A 
ATOM     57  H   UNL A   1      44.128  28.776  30.210  1.00  0.00     0.167 HD
ATOM     58  C   UNL A   1      45.744  26.471  29.847  1.00  0.00     0.074 A 
ATOM     59  C   UNL A   1      46.164  25.137  29.472  1.00  0.00     0.031 C 
ATOM     60  C   UNL A   1      46.552  27.389  30.434  1.00  0.00     0.031 A 
BRANCH  47  61
ATOM     61  C   UNL A   1      43.813  32.817  31.567  1.00  0.00    -0.014 A 
ATOM     62  C   UNL A   1      44.043  33.885  30.680  1.00  0.00     0.010 A 
ATOM     63  C   UNL A   1      43.666  33.090  32.940  1.00  0.00     0.010 A 
ATOM     64  C   UNL A   1      44.172  35.190  31.161  1.00  0.00     0.020 A 
ATOM     65  C   UNL A   1      43.765  34.399  33.422  1.00  0.00     0.020 A 
ATOM     66  C   UNL A   1      44.035  35.439  32.530  1.00  0.00     0.054 A 
BRANCH  66  67
ATOM     67  S   UNL A   1      44.188  37.146  33.125  1.00  0.00     0.124 S 
ATOM     68  O   UNL A   1      44.504  37.865  31.894  1.00  0.00    -0.237 OA
ATOM     69  O   UNL A   1      42.865  37.411  33.684  1.00  0.00    -0.237 OA
ATOM     70  O   UNL A   1      45.272  37.078  34.102  1.00  0.00    -0.744 OA
ENDBRANCH  66  67
ENDBRANCH  47  61
BRANCH  48  71
ATOM     71  C   UNL A   1      42.582  23.633  27.818  1.00  0.00    -0.014 A 
ATOM     72  C   UNL A   1      42.976  23.378  26.492  1.00  0.00     0.010 A 
ATOM     73  C   UNL A   1      42.044  22.584  28.585  1.00  0.00     0.010 A 
ATOM     74  C   UNL A   1      42.821  22.102  25.941  1.00  0.00     0.020 A 
ATOM     75  C   UNL A   1      41.912  21.302  28.046  1.00  0.00     0.020 A 
ATOM     76  C   UNL A   1      42.292  21.072  26.722  1.00  0.00     0.054 A 
BRANCH  76  77
ATOM     77  S   UNL A   1      42.152  19.411  26.004  1.00  0.00     0.124 S 
ATOM     78  O   UNL A   1      40.712  19.292  25.793  1.00  0.00    -0.237 OA
ATOM     79  O   UNL A   1      42.963  19.520  24.794  1.00  0.00    -0.237 OA
ATOM     80  O   UNL A   1      42.708  18.543  27.040  1.00  0.00    -0.744 OA
ENDBRANCH  76  77
ENDBRANCH  48  71
BRANCH  60  81
ATOM     81  C   UNL A   1      47.966  26.973  30.737  1.00  0.00    -0.014 A 
ATOM     82  C   UNL A   1      48.990  27.123  29.786  1.00  0.00     0.010 A 
ATOM     83  C   UNL A   1      48.283  26.472  32.014  1.00  0.00     0.010 A 
ATOM     84  C   UNL A   1      50.302  26.749  30.095  1.00  0.00     0.020 A 
ATOM     85  C   UNL A   1      49.597  26.124  32.336  1.00  0.00     0.020 A 
ATOM     86  C   UNL A   1      50.596  26.252  31.370  1.00  0.00     0.054 A 
BRANCH  86  87
ATOM     87  S   UNL A   1      52.312  25.815  31.761  1.00  0.00     0.124 S 
ATOM     88  O   UNL A   1      52.612  26.723  32.865  1.00  0.00    -0.237 OA
ATOM     89  O   UNL A   1      52.210  24.403  32.120  1.00  0.00    -0.237 OA
ATOM     90  O   UNL A   1      53.031  26.087  30.518  1.00  0.00    -0.744 OA
ENDBRANCH  86  87
ENDBRANCH  60  81
ENDBRANCH  34  35
ENDBRANCH  26  29
ENDBRANCH  24  25
ENDBRANCH   1  24
TORSDOF 16
ENDMDL
MODEL 3
REMARK VINA RESULT:     -10.8      0.657      8.275
REMARK SMILES C[C@@H]1CCC[C@H]1NC(=O)c1csc(/C=C/C(=O)NCCCNC(=O)c2ccc(-c3c4nc(c(-c5ccc(S(=O)(=O)[O-])cc5)c5ccc([nH]5)c(-c5ccc(S(=O)(=O)[O-])cc5)c5nc(c(-c6ccc(S(=O)(=O)[O-])cc6)c6ccc3[nH]6)C=C5)C=C4)cc2)c1
REMARK SMILES IDX 20 1 19 2 18 3 16 4 17 5 15 7 14 8 13 9 10 10 11 11 85 12
REMARK SMILES IDX 12 13 8 14 7 15 9 17 6 18 1 19 2 20 3 21 4 22 5 23 21 24
REMARK SMILES IDX 22 25 23 26 24 28 25 29 26 30 84 31 27 32 83 33 28 34 29 35
REMARK SMILES IDX 30 36 77 37 31 38 82 39 76 40 78 41 32 42 81 43 75 44 74 45
REMARK SMILES IDX 33 47 63 48 44 49 62 50 45 51 48 52 61 53 79 54 46 55 47 56
REMARK SMILES IDX 60 58 80 59 49 60 34 61 35 62 43 63 36 64 42 65 37 66 38 67
REMARK SMILES IDX 39 68 40 69 41 70 64 71 65 72 73 73 66 74 72 75 67 76 68 77
REMARK SMILES IDX 69 78 70 79 71 80 50 81 51 82 59 83 52 84 58 85 53 86 54 87
REMARK SMILES IDX 55 88 56 89 57 90
REMARK H PARENT 18 6 7 16 22 27 78 46 48 57
REMARK Flexibility Score: inf
ROOT
ATOM      1  C   UNL A   1      33.911  27.910  24.852  1.00  0.00     0.042 C 
ENDROOT
BRANCH   1   2
ATOM      2  C   UNL A   1      32.709  27.188  24.247  1.00  0.00     0.118 C 
BRANCH   2   3
ATOM      3  N   UNL A   1      32.918  26.889  22.839  1.00  0.00    -0.352 N 
ATOM      4  C   UNL A   1      33.289  25.735  22.221  1.00  0.00     0.244 C 
ATOM      5  O   UNL A   1      33.287  25.672  20.995  1.00  0.00    -0.270 OA
ATOM      6  H   UNL A   1      32.766  27.649  22.232  1.00  0.00     0.163 HD
BRANCH   4   7
ATOM      7  C   UNL A   1      33.594  24.523  23.010  1.00  0.00     0.072 C 
ATOM      8  C   UNL A   1      34.664  24.412  23.808  1.00  0.00     0.024 C 
BRANCH   8   9
ATOM      9  C   UNL A   1      34.924  23.265  24.612  1.00  0.00     0.028 A 
ATOM     10  C   UNL A   1      35.579  21.075  25.207  1.00  0.00     0.051 A 
ATOM     11  C   UNL A   1      35.127  21.575  26.413  1.00  0.00     0.079 A 
ATOM     12  C   UNL A   1      35.496  22.078  24.187  1.00  0.00     0.033 A 
ATOM     13  S   UNL A   1      34.527  23.166  26.282  1.00  0.00    -0.144 S 
BRANCH  10  14
ATOM     14  C   UNL A   1      36.131  19.744  25.001  1.00  0.00     0.252 C 
ATOM     15  N   UNL A   1      35.292  18.720  24.645  1.00  0.00    -0.349 N 
ATOM     16  H   UNL A   1      35.714  17.831  24.600  1.00  0.00     0.164 HD
ATOM     17  O   UNL A   1      37.334  19.526  25.102  1.00  0.00    -0.269 OA
BRANCH  15  18
ATOM     18  C   UNL A   1      33.868  18.748  24.322  1.00  0.00     0.085 C 
ATOM     19  C   UNL A   1      32.225  18.034  22.530  1.00  0.00     0.010 C 
ATOM     20  C   UNL A   1      33.510  17.677  23.281  1.00  0.00     0.008 C 
ATOM     21  C   UNL A   1      33.339  16.413  24.124  1.00  0.00     0.005 C 
ATOM     22  C   UNL A   1      32.742  16.884  25.447  1.00  0.00     0.002 C 
ATOM     23  C   UNL A   1      33.045  18.380  25.558  1.00  0.00     0.025 C 
ENDBRANCH  15  18
ENDBRANCH  10  14
ENDBRANCH   8   9
ENDBRANCH   4   7
ENDBRANCH   2   3
ENDBRANCH   1   2
BRANCH   1  24
ATOM     24  C   UNL A   1      33.847  28.033  26.373  1.00  0.00     0.118 C 
BRANCH  24  25
ATOM     25  N   UNL A   1      33.552  29.393  26.800  1.00  0.00    -0.352 N 
ATOM     26  C   UNL A   1      34.265  30.241  27.610  1.00  0.00     0.251 C 
ATOM     27  H   UNL A   1      32.707  29.762  26.454  1.00  0.00     0.163 HD
ATOM     28  O   UNL A   1      33.729  31.266  28.023  1.00  0.00    -0.269 OA
BRANCH  26  29
ATOM     29  C   UNL A   1      35.661  29.932  27.993  1.00  0.00     0.039 A 
ATOM     30  C   UNL A   1      36.669  30.079  27.034  1.00  0.00     0.014 A 
ATOM     31  C   UNL A   1      35.977  29.451  29.266  1.00  0.00     0.014 A 
ATOM     32  C   UNL A   1      37.995  29.796  27.368  1.00  0.00     0.010 A 
ATOM     33  C   UNL A   1      37.308  29.235  29.619  1.00  0.00     0.010 A 
ATOM     34  C   UNL A   1      38.330  29.398  28.672  1.00  0.00    -0.014 A 
BRANCH  34  35
ATOM     35  C   UNL A   1      39.742  29.155  29.064  1.00  0.00     0.031 A 
ATOM     36  C   UNL A   1      40.405  27.840  28.750  1.00  0.00     0.074 A 
ATOM     37  C   UNL A   1      40.410  30.097  29.761  1.00  0.00     0.049 A 
ATOM     38  N   UNL A   1      41.604  27.424  29.067  1.00  0.00    -0.248 NA
ATOM     39  C   UNL A   1      39.607  26.855  28.000  1.00  0.00     0.031 C 
ATOM     40  C   UNL A   1      39.867  31.397  30.161  1.00  0.00     0.029 A 
ATOM     41  N   UNL A   1      41.687  30.102  30.265  1.00  0.00    -0.354 N 
ATOM     42  C   UNL A   1      41.698  26.126  28.577  1.00  0.00     0.074 A 
ATOM     43  C   UNL A   1      40.420  25.808  27.978  1.00  0.00     0.031 C 
ATOM     44  C   UNL A   1      40.810  32.082  30.829  1.00  0.00     0.029 A 
ATOM     45  C   UNL A   1      42.009  31.257  30.939  1.00  0.00     0.049 A 
ATOM     46  H   UNL A   1      42.313  29.351  30.154  1.00  0.00     0.167 HD
ATOM     47  C   UNL A   1      42.757  25.282  28.608  1.00  0.00     0.031 A 
ATOM     48  C   UNL A   1      43.138  31.611  31.583  1.00  0.00     0.031 A 
ATOM     49  C   UNL A   1      44.031  25.606  29.194  1.00  0.00     0.049 A 
ATOM     50  C   UNL A   1      44.299  30.655  31.606  1.00  0.00     0.074 A 
ATOM     51  C   UNL A   1      45.184  24.840  29.224  1.00  0.00     0.029 A 
ATOM     52  N   UNL A   1      44.321  26.791  29.854  1.00  0.00    -0.354 N 
ATOM     53  N   UNL A   1      44.389  29.456  31.081  1.00  0.00    -0.248 NA
ATOM     54  C   UNL A   1      45.514  31.105  32.297  1.00  0.00     0.031 C 
ATOM     55  C   UNL A   1      46.155  25.542  29.946  1.00  0.00     0.029 A 
ATOM     56  C   UNL A   1      45.626  26.768  30.315  1.00  0.00     0.049 A 
ATOM     57  H   UNL A   1      43.691  27.537  29.975  1.00  0.00     0.167 HD
ATOM     58  C   UNL A   1      45.679  29.019  31.357  1.00  0.00     0.074 A 
ATOM     59  C   UNL A   1      46.337  30.086  32.082  1.00  0.00     0.031 C 
ATOM     60  C   UNL A   1      46.266  27.838  31.038  1.00  0.00     0.031 A 
BRANCH  47  61
ATOM     61  C   UNL A   1      42.577  23.916  27.995  1.00  0.00    -0.014 A 
ATOM     62  C   UNL A   1      42.855  23.687  26.635  1.00  0.00     0.010 A 
ATOM     63  C   UNL A   1      42.164  22.837  28.798  1.00  0.00     0.010 A 
ATOM     64  C   UNL A   1      42.678  22.417  26.080  1.00  0.00     0.020 A 
ATOM     65  C   UNL A   1      42.014  21.559  28.253  1.00  0.00     0.020 A 
ATOM     66  C   UNL A   1      42.255  21.361  26.892  1.00  0.00     0.054 A 
BRANCH  66  67
ATOM     67  S   UNL A   1      42.052  19.719  26.149  1.00  0.00     0.124 S 
ATOM     68  O   UNL A   1      42.970  19.787  25.015  1.00  0.00    -0.237 OA
ATOM     69  O   UNL A   1      42.456  18.824  27.231  1.00  0.00    -0.237 OA
ATOM     70  O   UNL A   1      40.634  19.668  25.800  1.00  0.00    -0.744 OA
ENDBRANCH  66  67
ENDBRANCH  47  61
BRANCH  48  71
ATOM     71  C   UNL A   1      43.227  32.939  32.248  1.00  0.00    -0.014 A 
ATOM     72  C   UNL A   1      42.948  33.069  33.620  1.00  0.00     0.010 A 
ATOM     73  C   UNL A   1      43.612  34.077  31.518  1.00  0.00     0.010 A 
ATOM     74  C   UNL A   1      43.037  34.317  34.246  1.00  0.00     0.020 A 
ATOM     75  C   UNL A   1      43.728  35.321  32.145  1.00  0.00     0.020 A 
ATOM     76  C   UNL A   1      43.429  35.434  33.504  1.00  0.00     0.054 A 
BRANCH  76  77
ATOM     77  S   UNL A   1      43.592  37.032  34.348  1.00  0.00     0.124 S 
ATOM     78  O   UNL A   1      44.265  37.842  33.337  1.00  0.00    -0.237 OA
ATOM     79  O   UNL A   1      42.203  37.388  34.624  1.00  0.00    -0.237 OA
ATOM     80  O   UNL A   1      44.390  36.714  35.530  1.00  0.00    -0.744 OA
ENDBRANCH  76  77
ENDBRANCH  48  71
BRANCH  60  81
ATOM     81  C   UNL A   1      47.704  27.649  31.443  1.00  0.00    -0.014 A 
ATOM     82  C   UNL A   1      48.756  28.070  30.611  1.00  0.00     0.010 A 
ATOM     83  C   UNL A   1      48.003  27.089  32.698  1.00  0.00     0.010 A 
ATOM     84  C   UNL A   1      50.084  27.905  31.015  1.00  0.00     0.020 A 
ATOM     85  C   UNL A   1      49.328  26.949  33.118  1.00  0.00     0.020 A 
ATOM     86  C   UNL A   1      50.361  27.344  32.267  1.00  0.00     0.054 A 
BRANCH  86  87
ATOM     87  S   UNL A   1      52.091  27.181  32.787  1.00  0.00     0.124 S 
ATOM     88  O   UNL A   1      52.202  25.744  33.023  1.00  0.00    -0.237 OA
ATOM     89  O   UNL A   1      52.824  27.685  31.628  1.00  0.00    -0.237 OA
ATOM     90  O   UNL A   1      52.174  28.017  33.982  1.00  0.00    -0.744 OA
ENDBRANCH  86  87
ENDBRANCH  60  81
ENDBRANCH  34  35
ENDBRANCH  26  29
ENDBRANCH  24  25
ENDBRANCH   1  24
TORSDOF 16
ENDMDL
