MODEL 1
REMARK VINA RESULT:     -11.5      0.000      0.000
REMARK SMILES O=C(NCCCNC(=O)c1ccc(-c2c3nc(c(-c4ccc(S(=O)(=O)[O-])cc4)c4ccc([nH]4)c(-c4ccc(S(=O)(=O)[O-])cc4)c4nc(c(-c5ccc(S(=O)(=O)[O-])cc5)c5ccc2[nH]5)C=C4)C=C3)cc1)C1=Cc2c(ccc(Cl)c2Cl)O[C@H]1C(F)(F)F
REMARK SMILES IDX 6 1 5 2 4 3 3 4 1 5 2 6 70 8 71 9 81 10 72 11 80 12 73 13
REMARK SMILES IDX 78 14 74 15 76 16 79 17 75 18 77 19 82 20 83 21 84 22 85 23
REMARK SMILES IDX 7 24 8 25 9 27 10 28 11 29 69 30 12 31 68 32 13 33 14 34
REMARK SMILES IDX 15 35 62 36 16 37 67 38 61 39 63 40 17 41 66 42 60 43 59 44
REMARK SMILES IDX 18 46 48 47 29 48 47 49 30 50 33 51 46 52 64 53 31 54 32 55
REMARK SMILES IDX 45 57 65 58 34 59 19 60 20 61 28 62 21 63 27 64 22 65 23 66
REMARK SMILES IDX 24 67 25 68 26 69 49 70 50 71 58 72 51 73 57 74 52 75 53 76
REMARK SMILES IDX 54 77 55 78 56 79 35 80 36 81 44 82 37 83 43 84 38 85 39 86
REMARK SMILES IDX 40 87 41 88 42 89
REMARK H PARENT 3 7 7 26 63 45 33 56
REMARK Flexibility Score: inf
ROOT
ATOM      1  C   UNL A   1      33.564  28.387  26.936  1.00  0.00     0.118 C 
ENDROOT
BRANCH   1   2
ATOM      2  C   UNL A   1      34.028  28.329  25.495  1.00  0.00     0.042 C 
BRANCH   2   3
ATOM      3  C   UNL A   1      32.995  27.861  24.496  1.00  0.00     0.118 C 
BRANCH   3   4
ATOM      4  N   UNL A   1      33.418  26.967  23.443  1.00  0.00    -0.352 N 
ATOM      5  O   UNL A   1      33.974  24.953  22.582  1.00  0.00    -0.270 OA
ATOM      6  C   UNL A   1      33.581  25.607  23.543  1.00  0.00     0.251 C 
ATOM      7  H   UNL A   1      33.608  27.373  22.567  1.00  0.00     0.163 HD
BRANCH   6   8
ATOM      8  C   UNL A   1      33.344  24.914  24.844  1.00  0.00     0.067 C 
ATOM      9  C   UNL A   1      34.390  24.552  25.610  1.00  0.00     0.027 C 
ATOM     10  C   UNL A   1      32.034  24.175  24.948  1.00  0.00     0.314 C 
ATOM     11  C   UNL A   1      34.595  23.077  25.563  1.00  0.00     0.037 A 
ATOM     12  O   UNL A   1      32.197  22.744  25.201  1.00  0.00    -0.475 OA
ATOM     13  C   UNL A   1      33.481  22.259  25.295  1.00  0.00     0.129 A 
ATOM     14  C   UNL A   1      35.893  22.530  25.534  1.00  0.00     0.070 A 
ATOM     15  C   UNL A   1      33.663  20.925  24.930  1.00  0.00     0.049 A 
ATOM     16  C   UNL A   1      36.067  21.200  25.128  1.00  0.00     0.060 A 
ATOM     17  Cl  UNL A   1      37.259  23.543  25.886  1.00  0.00    -0.082 Cl
ATOM     18  C   UNL A   1      34.956  20.411  24.807  1.00  0.00     0.026 A 
ATOM     19  Cl  UNL A   1      37.630  20.494  24.922  1.00  0.00    -0.083 Cl
BRANCH  10  20
ATOM     20  C   UNL A   1      31.102  24.803  26.003  1.00  0.00     0.429 C 
ATOM     21  F   UNL A   1      31.757  25.600  26.879  1.00  0.00    -0.167 F 
ATOM     22  F   UNL A   1      30.143  25.560  25.418  1.00  0.00    -0.167 F 
ATOM     23  F   UNL A   1      30.469  23.859  26.743  1.00  0.00    -0.167 F 
ENDBRANCH  10  20
ENDBRANCH   6   8
ENDBRANCH   3   4
ENDBRANCH   2   3
ENDBRANCH   1   2
BRANCH   1  24
ATOM     24  N   UNL A   1      33.515  29.728  27.514  1.00  0.00    -0.352 N 
ATOM     25  C   UNL A   1      34.469  30.496  28.141  1.00  0.00     0.251 C 
ATOM     26  H   UNL A   1      32.634  30.162  27.443  1.00  0.00     0.163 HD
ATOM     27  O   UNL A   1      34.148  31.607  28.564  1.00  0.00    -0.269 OA
BRANCH  25  28
ATOM     28  C   UNL A   1      35.853  30.009  28.351  1.00  0.00     0.039 A 
ATOM     29  C   UNL A   1      36.777  30.114  27.305  1.00  0.00     0.014 A 
ATOM     30  C   UNL A   1      36.255  29.446  29.558  1.00  0.00     0.014 A 
ATOM     31  C   UNL A   1      38.107  29.730  27.509  1.00  0.00     0.010 A 
ATOM     32  C   UNL A   1      37.602  29.222  29.811  1.00  0.00     0.010 A 
ATOM     33  C   UNL A   1      38.542  29.327  28.781  1.00  0.00    -0.014 A 
BRANCH  33  34
ATOM     34  C   UNL A   1      39.960  28.973  29.050  1.00  0.00     0.031 A 
ATOM     35  C   UNL A   1      40.890  29.989  29.670  1.00  0.00     0.074 A 
ATOM     36  C   UNL A   1      40.426  27.763  28.679  1.00  0.00     0.049 A 
ATOM     37  N   UNL A   1      42.165  29.881  29.944  1.00  0.00    -0.248 NA
ATOM     38  C   UNL A   1      40.328  31.315  29.984  1.00  0.00     0.031 C 
ATOM     39  C   UNL A   1      39.647  26.724  28.000  1.00  0.00     0.029 A 
ATOM     40  N   UNL A   1      41.667  27.198  28.825  1.00  0.00    -0.354 N 
ATOM     41  C   UNL A   1      42.555  31.125  30.430  1.00  0.00     0.074 A 
ATOM     42  C   UNL A   1      41.405  31.994  30.345  1.00  0.00     0.031 C 
ATOM     43  C   UNL A   1      40.411  25.632  27.837  1.00  0.00     0.029 A 
ATOM     44  C   UNL A   1      41.746  25.906  28.356  1.00  0.00     0.049 A 
ATOM     45  H   UNL A   1      42.432  27.672  29.226  1.00  0.00     0.167 HD
ATOM     46  C   UNL A   1      43.753  31.504  30.932  1.00  0.00     0.031 A 
ATOM     47  C   UNL A   1      42.775  25.038  28.352  1.00  0.00     0.031 A 
ATOM     48  C   UNL A   1      44.883  30.622  31.049  1.00  0.00     0.049 A 
ATOM     49  C   UNL A   1      44.082  25.467  28.958  1.00  0.00     0.074 A 
ATOM     50  C   UNL A   1      46.119  30.876  31.616  1.00  0.00     0.029 A 
ATOM     51  N   UNL A   1      44.909  29.312  30.595  1.00  0.00    -0.354 N 
ATOM     52  N   UNL A   1      44.406  26.624  29.487  1.00  0.00    -0.248 NA
ATOM     53  C   UNL A   1      45.157  24.467  28.986  1.00  0.00     0.031 C 
ATOM     54  C   UNL A   1      46.913  29.736  31.454  1.00  0.00     0.029 A 
ATOM     55  C   UNL A   1      46.149  28.750  30.848  1.00  0.00     0.049 A 
ATOM     56  H   UNL A   1      44.157  28.849  30.159  1.00  0.00     0.167 HD
ATOM     57  C   UNL A   1      45.715  26.483  29.932  1.00  0.00     0.074 A 
ATOM     58  C   UNL A   1      46.109  25.120  29.636  1.00  0.00     0.031 C 
ATOM     59  C   UNL A   1      46.523  27.396  30.529  1.00  0.00     0.031 A 
BRANCH  46  60
ATOM     60  C   UNL A   1      43.901  32.931  31.399  1.00  0.00    -0.014 A 
ATOM     61  C   UNL A   1      44.319  33.950  30.521  1.00  0.00     0.010 A 
ATOM     62  C   UNL A   1      43.578  33.268  32.726  1.00  0.00     0.010 A 
ATOM     63  C   UNL A   1      44.449  35.267  30.971  1.00  0.00     0.020 A 
ATOM     64  C   UNL A   1      43.674  34.590  33.171  1.00  0.00     0.020 A 
ATOM     65  C   UNL A   1      44.123  35.578  32.293  1.00  0.00     0.054 A 
BRANCH  65  66
ATOM     66  S   UNL A   1      44.260  37.304  32.838  1.00  0.00     0.124 S 
ATOM     67  O   UNL A   1      43.157  37.409  33.790  1.00  0.00    -0.237 OA
ATOM     68  O   UNL A   1      45.599  37.348  33.421  1.00  0.00    -0.237 OA
ATOM     69  O   UNL A   1      44.093  38.071  31.606  1.00  0.00    -0.744 OA
ENDBRANCH  65  66
ENDBRANCH  46  60
BRANCH  47  70
ATOM     70  C   UNL A   1      42.600  23.673  27.781  1.00  0.00    -0.014 A 
ATOM     71  C   UNL A   1      42.739  23.446  26.400  1.00  0.00     0.010 A 
ATOM     72  C   UNL A   1      42.304  22.584  28.622  1.00  0.00     0.010 A 
ATOM     73  C   UNL A   1      42.560  22.165  25.868  1.00  0.00     0.020 A 
ATOM     74  C   UNL A   1      42.157  21.296  28.099  1.00  0.00     0.020 A 
ATOM     75  C   UNL A   1      42.273  21.098  26.723  1.00  0.00     0.054 A 
BRANCH  75  76
ATOM     76  S   UNL A   1      42.090  19.436  26.017  1.00  0.00     0.124 S 
ATOM     77  O   UNL A   1      40.666  19.394  25.703  1.00  0.00    -0.237 OA
ATOM     78  O   UNL A   1      42.991  19.480  24.870  1.00  0.00    -0.237 OA
ATOM     79  O   UNL A   1      42.518  18.555  27.103  1.00  0.00    -0.744 OA
ENDBRANCH  75  76
ENDBRANCH  47  70
BRANCH  59  80
ATOM     80  C   UNL A   1      47.900  26.934  30.922  1.00  0.00    -0.014 A 
ATOM     81  C   UNL A   1      48.146  26.357  32.181  1.00  0.00     0.010 A 
ATOM     82  C   UNL A   1      48.963  27.071  30.010  1.00  0.00     0.010 A 
ATOM     83  C   UNL A   1      49.442  25.985  32.544  1.00  0.00     0.020 A 
ATOM     84  C   UNL A   1      50.253  26.665  30.356  1.00  0.00     0.020 A 
ATOM     85  C   UNL A   1      50.488  26.149  31.631  1.00  0.00     0.054 A 
BRANCH  85  86
ATOM     86  S   UNL A   1      52.162  25.663  32.128  1.00  0.00     0.124 S 
ATOM     87  O   UNL A   1      51.986  24.246  32.438  1.00  0.00    -0.237 OA
ATOM     88  O   UNL A   1      52.950  25.953  30.933  1.00  0.00    -0.237 OA
ATOM     89  O   UNL A   1      52.446  26.521  33.277  1.00  0.00    -0.744 OA
ENDBRANCH  85  86
ENDBRANCH  59  80
ENDBRANCH  33  34
ENDBRANCH  25  28
ENDBRANCH   1  24
TORSDOF 14
ENDMDL
MODEL 2
REMARK VINA RESULT:     -11.3      4.049      6.708
REMARK SMILES O=C(NCCCNC(=O)c1ccc(-c2c3nc(c(-c4ccc(S(=O)(=O)[O-])cc4)c4ccc([nH]4)c(-c4ccc(S(=O)(=O)[O-])cc4)c4nc(c(-c5ccc(S(=O)(=O)[O-])cc5)c5ccc2[nH]5)C=C4)C=C3)cc1)C1=Cc2c(ccc(Cl)c2Cl)O[C@H]1C(F)(F)F
REMARK SMILES IDX 6 1 5 2 4 3 3 4 1 5 2 6 70 8 71 9 81 10 72 11 80 12 73 13
REMARK SMILES IDX 78 14 74 15 76 16 79 17 75 18 77 19 82 20 83 21 84 22 85 23
REMARK SMILES IDX 7 24 8 25 9 27 10 28 11 29 69 30 12 31 68 32 13 33 14 34
REMARK SMILES IDX 15 35 62 36 16 37 67 38 61 39 63 40 17 41 66 42 60 43 59 44
REMARK SMILES IDX 18 46 48 47 29 48 47 49 30 50 33 51 46 52 64 53 31 54 32 55
REMARK SMILES IDX 45 57 65 58 34 59 19 60 20 61 28 62 21 63 27 64 22 65 23 66
REMARK SMILES IDX 24 67 25 68 26 69 49 70 50 71 58 72 51 73 57 74 52 75 53 76
REMARK SMILES IDX 54 77 55 78 56 79 35 80 36 81 44 82 37 83 43 84 38 85 39 86
REMARK SMILES IDX 40 87 41 88 42 89
REMARK H PARENT 3 7 7 26 63 45 33 56
REMARK Flexibility Score: inf
ROOT
ATOM      1  C   UNL A   1      34.576  32.645  28.007  1.00  0.00     0.118 C 
ENDROOT
BRANCH   1   2
ATOM      2  C   UNL A   1      34.178  33.307  29.311  1.00  0.00     0.042 C 
BRANCH   2   3
ATOM      3  C   UNL A   1      34.543  32.549  30.565  1.00  0.00     0.118 C 
BRANCH   3   4
ATOM      4  N   UNL A   1      34.649  33.284  31.804  1.00  0.00    -0.352 N 
ATOM      5  O   UNL A   1      35.772  34.236  33.519  1.00  0.00    -0.270 OA
ATOM      6  C   UNL A   1      35.809  33.632  32.451  1.00  0.00     0.251 C 
ATOM      7  H   UNL A   1      33.805  33.564  32.227  1.00  0.00     0.163 HD
BRANCH   6   8
ATOM      8  C   UNL A   1      37.132  33.221  31.895  1.00  0.00     0.067 C 
ATOM      9  C   UNL A   1      37.806  32.200  32.458  1.00  0.00     0.027 C 
ATOM     10  C   UNL A   1      37.872  34.295  31.139  1.00  0.00     0.314 C 
ATOM     11  C   UNL A   1      38.976  32.701  33.232  1.00  0.00     0.037 A 
ATOM     12  O   UNL A   1      39.180  34.609  31.714  1.00  0.00    -0.475 OA
ATOM     13  C   UNL A   1      39.557  33.923  32.844  1.00  0.00     0.129 A 
ATOM     14  C   UNL A   1      39.334  32.110  34.460  1.00  0.00     0.070 A 
ATOM     15  C   UNL A   1      40.432  34.588  33.704  1.00  0.00     0.049 A 
ATOM     16  C   UNL A   1      40.183  32.806  35.333  1.00  0.00     0.060 A 
ATOM     17  Cl  UNL A   1      38.627  30.592  34.921  1.00  0.00    -0.082 Cl
ATOM     18  C   UNL A   1      40.709  34.049  34.962  1.00  0.00     0.026 A 
ATOM     19  Cl  UNL A   1      40.553  32.225  36.918  1.00  0.00    -0.083 Cl
BRANCH  10  20
ATOM     20  C   UNL A   1      38.013  33.951  29.643  1.00  0.00     0.429 C 
ATOM     21  F   UNL A   1      37.769  32.646  29.376  1.00  0.00    -0.167 F 
ATOM     22  F   UNL A   1      37.151  34.677  28.893  1.00  0.00    -0.167 F 
ATOM     23  F   UNL A   1      39.261  34.210  29.181  1.00  0.00    -0.167 F 
ENDBRANCH  10  20
ENDBRANCH   6   8
ENDBRANCH   3   4
ENDBRANCH   2   3
ENDBRANCH   1   2
BRANCH   1  24
ATOM     24  N   UNL A   1      34.009  31.316  27.793  1.00  0.00    -0.352 N 
ATOM     25  C   UNL A   1      34.561  30.057  27.858  1.00  0.00     0.251 C 
ATOM     26  H   UNL A   1      33.052  31.323  27.557  1.00  0.00     0.163 HD
ATOM     27  O   UNL A   1      33.848  29.086  27.601  1.00  0.00    -0.269 OA
BRANCH  25  28
ATOM     28  C   UNL A   1      35.989  29.845  28.189  1.00  0.00     0.039 A 
ATOM     29  C   UNL A   1      36.332  29.389  29.466  1.00  0.00     0.014 A 
ATOM     30  C   UNL A   1      37.000  30.093  27.264  1.00  0.00     0.014 A 
ATOM     31  C   UNL A   1      37.668  29.109  29.773  1.00  0.00     0.010 A 
ATOM     32  C   UNL A   1      38.296  29.663  27.512  1.00  0.00     0.010 A 
ATOM     33  C   UNL A   1      38.656  29.197  28.780  1.00  0.00    -0.014 A 
BRANCH  33  34
ATOM     34  C   UNL A   1      40.075  28.847  29.053  1.00  0.00     0.031 A 
ATOM     35  C   UNL A   1      40.999  29.864  29.679  1.00  0.00     0.074 A 
ATOM     36  C   UNL A   1      40.546  27.639  28.680  1.00  0.00     0.049 A 
ATOM     37  N   UNL A   1      42.273  29.760  29.957  1.00  0.00    -0.248 NA
ATOM     38  C   UNL A   1      40.431  31.187  29.995  1.00  0.00     0.031 C 
ATOM     39  C   UNL A   1      39.772  26.600  27.995  1.00  0.00     0.029 A 
ATOM     40  N   UNL A   1      41.788  27.078  28.829  1.00  0.00    -0.354 N 
ATOM     41  C   UNL A   1      42.657  31.004  30.448  1.00  0.00     0.074 A 
ATOM     42  C   UNL A   1      41.505  31.869  30.362  1.00  0.00     0.031 C 
ATOM     43  C   UNL A   1      40.541  25.511  27.832  1.00  0.00     0.029 A 
ATOM     44  C   UNL A   1      41.873  25.788  28.357  1.00  0.00     0.049 A 
ATOM     45  H   UNL A   1      42.550  27.554  29.234  1.00  0.00     0.167 HD
ATOM     46  C   UNL A   1      43.853  31.385  30.955  1.00  0.00     0.031 A 
ATOM     47  C   UNL A   1      42.905  24.924  28.353  1.00  0.00     0.031 A 
ATOM     48  C   UNL A   1      44.985  30.506  31.074  1.00  0.00     0.049 A 
ATOM     49  C   UNL A   1      44.209  25.355  28.965  1.00  0.00     0.074 A 
ATOM     50  C   UNL A   1      46.218  30.763  31.646  1.00  0.00     0.029 A 
ATOM     51  N   UNL A   1      45.017  29.198  30.616  1.00  0.00    -0.354 N 
ATOM     52  N   UNL A   1      44.526  26.511  29.499  1.00  0.00    -0.248 NA
ATOM     53  C   UNL A   1      45.287  24.358  28.994  1.00  0.00     0.031 C 
ATOM     54  C   UNL A   1      47.016  29.626  31.483  1.00  0.00     0.029 A 
ATOM     55  C   UNL A   1      46.258  28.639  30.871  1.00  0.00     0.049 A 
ATOM     56  H   UNL A   1      44.268  28.734  30.177  1.00  0.00     0.167 HD
ATOM     57  C   UNL A   1      45.834  26.373  29.948  1.00  0.00     0.074 A 
ATOM     58  C   UNL A   1      46.234  25.012  29.649  1.00  0.00     0.031 C 
ATOM     59  C   UNL A   1      46.637  27.287  30.550  1.00  0.00     0.031 A 
BRANCH  46  60
ATOM     60  C   UNL A   1      43.994  32.812  31.427  1.00  0.00    -0.014 A 
ATOM     61  C   UNL A   1      44.205  33.866  30.519  1.00  0.00     0.010 A 
ATOM     62  C   UNL A   1      43.874  33.109  32.796  1.00  0.00     0.010 A 
ATOM     63  C   UNL A   1      44.332  35.181  30.973  1.00  0.00     0.020 A 
ATOM     64  C   UNL A   1      43.966  34.427  33.253  1.00  0.00     0.020 A 
ATOM     65  C   UNL A   1      44.209  35.454  32.338  1.00  0.00     0.054 A 
BRANCH  65  66
ATOM     66  S   UNL A   1      44.336  37.176  32.895  1.00  0.00     0.124 S 
ATOM     67  O   UNL A   1      44.048  37.912  31.666  1.00  0.00    -0.237 OA
ATOM     68  O   UNL A   1      43.306  37.253  33.928  1.00  0.00    -0.237 OA
ATOM     69  O   UNL A   1      45.710  37.285  33.378  1.00  0.00    -0.744 OA
ENDBRANCH  65  66
ENDBRANCH  46  60
BRANCH  47  70
ATOM     70  C   UNL A   1      42.736  23.560  27.778  1.00  0.00    -0.014 A 
ATOM     71  C   UNL A   1      42.167  22.522  28.539  1.00  0.00     0.010 A 
ATOM     72  C   UNL A   1      43.135  23.292  26.455  1.00  0.00     0.010 A 
ATOM     73  C   UNL A   1      42.025  21.240  27.998  1.00  0.00     0.020 A 
ATOM     74  C   UNL A   1      42.963  22.021  25.900  1.00  0.00     0.020 A 
ATOM     75  C   UNL A   1      42.422  20.999  26.680  1.00  0.00     0.054 A 
BRANCH  75  76
ATOM     76  S   UNL A   1      42.185  19.341  25.983  1.00  0.00     0.124 S 
ATOM     77  O   UNL A   1      42.671  18.486  27.062  1.00  0.00    -0.237 OA
ATOM     78  O   UNL A   1      40.745  19.302  25.744  1.00  0.00    -0.237 OA
ATOM     79  O   UNL A   1      43.009  19.356  24.776  1.00  0.00    -0.744 OA
ENDBRANCH  75  76
ENDBRANCH  47  70
BRANCH  59  80
ATOM     80  C   UNL A   1      48.015  26.829  30.946  1.00  0.00    -0.014 A 
ATOM     81  C   UNL A   1      48.266  26.282  32.218  1.00  0.00     0.010 A 
ATOM     82  C   UNL A   1      49.073  26.939  30.025  1.00  0.00     0.010 A 
ATOM     83  C   UNL A   1      49.562  25.912  32.583  1.00  0.00     0.020 A 
ATOM     84  C   UNL A   1      50.363  26.536  30.374  1.00  0.00     0.020 A 
ATOM     85  C   UNL A   1      50.604  26.049  31.660  1.00  0.00     0.054 A 
BRANCH  85  86
ATOM     86  S   UNL A   1      52.278  25.568  32.159  1.00  0.00     0.124 S 
ATOM     87  O   UNL A   1      52.463  26.344  33.383  1.00  0.00    -0.237 OA
ATOM     88  O   UNL A   1      52.158  24.124  32.340  1.00  0.00    -0.237 OA
ATOM     89  O   UNL A   1      53.109  25.981  31.029  1.00  0.00    -0.744 OA
ENDBRANCH  85  86
ENDBRANCH  59  80
ENDBRANCH  33  34
ENDBRANCH  25  28
ENDBRANCH   1  24
TORSDOF 14
ENDMDL
MODEL 3
REMARK VINA RESULT:     -11.2      3.009      9.272
REMARK SMILES O=C(NCCCNC(=O)c1ccc(-c2c3nc(c(-c4ccc(S(=O)(=O)[O-])cc4)c4ccc([nH]4)c(-c4ccc(S(=O)(=O)[O-])cc4)c4nc(c(-c5ccc(S(=O)(=O)[O-])cc5)c5ccc2[nH]5)C=C4)C=C3)cc1)C1=Cc2c(ccc(Cl)c2Cl)O[C@H]1C(F)(F)F
REMARK SMILES IDX 6 1 5 2 4 3 3 4 1 5 2 6 70 8 71 9 81 10 72 11 80 12 73 13
REMARK SMILES IDX 78 14 74 15 76 16 79 17 75 18 77 19 82 20 83 21 84 22 85 23
REMARK SMILES IDX 7 24 8 25 9 27 10 28 11 29 69 30 12 31 68 32 13 33 14 34
REMARK SMILES IDX 15 35 62 36 16 37 67 38 61 39 63 40 17 41 66 42 60 43 59 44
REMARK SMILES IDX 18 46 48 47 29 48 47 49 30 50 33 51 46 52 64 53 31 54 32 55
REMARK SMILES IDX 45 57 65 58 34 59 19 60 20 61 28 62 21 63 27 64 22 65 23 66
REMARK SMILES IDX 24 67 25 68 26 69 49 70 50 71 58 72 51 73 57 74 52 75 53 76
REMARK SMILES IDX 54 77 55 78 56 79 35 80 36 81 44 82 37 83 43 84 38 85 39 86
REMARK SMILES IDX 40 87 41 88 42 89
REMARK H PARENT 3 7 7 26 63 45 33 56
REMARK Flexibility Score: inf
ROOT
ATOM      1  C   UNL A   1      36.666  23.606  25.312  1.00  0.00     0.118 C 
ENDROOT
BRANCH   1   2
ATOM      2  C   UNL A   1      35.674  23.432  26.444  1.00  0.00     0.042 C 
BRANCH   2   3
ATOM      3  C   UNL A   1      34.358  22.794  26.065  1.00  0.00     0.118 C 
BRANCH   3   4
ATOM      4  N   UNL A   1      33.144  23.346  26.622  1.00  0.00    -0.352 N 
ATOM      5  O   UNL A   1      31.465  24.852  26.756  1.00  0.00    -0.270 OA
ATOM      6  C   UNL A   1      32.475  24.461  26.180  1.00  0.00     0.251 C 
ATOM      7  H   UNL A   1      32.759  22.876  27.397  1.00  0.00     0.163 HD
BRANCH   6   8
ATOM      8  C   UNL A   1      33.008  25.251  25.031  1.00  0.00     0.067 C 
ATOM      9  C   UNL A   1      33.721  26.369  25.261  1.00  0.00     0.027 C 
ATOM     10  C   UNL A   1      32.260  25.081  23.733  1.00  0.00     0.314 C 
ATOM     11  C   UNL A   1      32.923  27.584  24.932  1.00  0.00     0.037 A 
ATOM     12  O   UNL A   1      31.702  26.332  23.220  1.00  0.00    -0.475 OA
ATOM     13  C   UNL A   1      31.907  27.470  23.964  1.00  0.00     0.129 A 
ATOM     14  C   UNL A   1      33.004  28.739  25.735  1.00  0.00     0.070 A 
ATOM     15  C   UNL A   1      30.938  28.465  23.845  1.00  0.00     0.049 A 
ATOM     16  C   UNL A   1      32.002  29.714  25.635  1.00  0.00     0.060 A 
ATOM     17  Cl  UNL A   1      34.272  28.879  26.913  1.00  0.00    -0.082 Cl
ATOM     18  C   UNL A   1      30.963  29.563  24.708  1.00  0.00     0.026 A 
ATOM     19  Cl  UNL A   1      31.941  31.087  26.682  1.00  0.00    -0.083 Cl
BRANCH  10  20
ATOM     20  C   UNL A   1      33.125  24.398  22.656  1.00  0.00     0.429 C 
ATOM     21  F   UNL A   1      34.376  24.110  23.088  1.00  0.00    -0.167 F 
ATOM     22  F   UNL A   1      32.568  23.232  22.250  1.00  0.00    -0.167 F 
ATOM     23  F   UNL A   1      33.270  25.176  21.556  1.00  0.00    -0.167 F 
ENDBRANCH  10  20
ENDBRANCH   6   8
ENDBRANCH   3   4
ENDBRANCH   2   3
ENDBRANCH   1   2
BRANCH   1  24
ATOM     24  N   UNL A   1      37.871  22.787  25.417  1.00  0.00    -0.352 N 
ATOM     25  C   UNL A   1      39.083  23.006  26.029  1.00  0.00     0.251 C 
ATOM     26  H   UNL A   1      37.803  21.915  24.964  1.00  0.00     0.163 HD
ATOM     27  O   UNL A   1      39.954  22.140  25.941  1.00  0.00    -0.269 OA
BRANCH  25  28
ATOM     28  C   UNL A   1      39.379  24.265  26.753  1.00  0.00     0.039 A 
ATOM     29  C   UNL A   1      38.933  24.413  28.071  1.00  0.00     0.014 A 
ATOM     30  C   UNL A   1      40.083  25.306  26.154  1.00  0.00     0.014 A 
ATOM     31  C   UNL A   1      39.268  25.561  28.796  1.00  0.00     0.010 A 
ATOM     32  C   UNL A   1      40.552  26.364  26.921  1.00  0.00     0.010 A 
ATOM     33  C   UNL A   1      40.124  26.525  28.242  1.00  0.00    -0.014 A 
BRANCH  33  34
ATOM     34  C   UNL A   1      40.552  27.727  29.006  1.00  0.00     0.031 A 
ATOM     35  C   UNL A   1      41.905  27.756  29.675  1.00  0.00     0.074 A 
ATOM     36  C   UNL A   1      39.700  28.763  29.149  1.00  0.00     0.049 A 
ATOM     37  N   UNL A   1      42.440  28.694  30.414  1.00  0.00    -0.248 NA
ATOM     38  C   UNL A   1      42.754  26.559  29.534  1.00  0.00     0.031 C 
ATOM     39  C   UNL A   1      38.336  28.821  28.616  1.00  0.00     0.029 A 
ATOM     40  N   UNL A   1      39.856  29.969  29.782  1.00  0.00    -0.354 N 
ATOM     41  C   UNL A   1      43.662  28.188  30.844  1.00  0.00     0.074 A 
ATOM     42  C   UNL A   1      43.761  26.837  30.347  1.00  0.00     0.031 C 
ATOM     43  C   UNL A   1      37.801  30.020  28.898  1.00  0.00     0.029 A 
ATOM     44  C   UNL A   1      38.763  30.798  29.669  1.00  0.00     0.049 A 
ATOM     45  H   UNL A   1      40.673  30.219  30.272  1.00  0.00     0.167 HD
ATOM     46  C   UNL A   1      44.632  28.803  31.562  1.00  0.00     0.031 A 
ATOM     47  C   UNL A   1      38.561  32.047  30.130  1.00  0.00     0.031 A 
ATOM     48  C   UNL A   1      44.542  30.163  32.020  1.00  0.00     0.049 A 
ATOM     49  C   UNL A   1      39.671  32.726  30.884  1.00  0.00     0.074 A 
ATOM     50  C   UNL A   1      45.497  30.912  32.684  1.00  0.00     0.029 A 
ATOM     51  N   UNL A   1      43.433  30.978  31.855  1.00  0.00    -0.354 N 
ATOM     52  N   UNL A   1      40.854  32.257  31.209  1.00  0.00    -0.248 NA
ATOM     53  C   UNL A   1      39.429  34.109  31.314  1.00  0.00     0.031 C 
ATOM     54  C   UNL A   1      44.943  32.164  32.971  1.00  0.00     0.029 A 
ATOM     55  C   UNL A   1      43.670  32.217  32.425  1.00  0.00     0.049 A 
ATOM     56  H   UNL A   1      42.602  30.716  31.398  1.00  0.00     0.167 HD
ATOM     57  C   UNL A   1      41.505  33.297  31.862  1.00  0.00     0.074 A 
ATOM     58  C   UNL A   1      40.595  34.425  31.857  1.00  0.00     0.031 C 
ATOM     59  C   UNL A   1      42.742  33.319  32.421  1.00  0.00     0.031 A 
BRANCH  46  60
ATOM     60  C   UNL A   1      45.874  28.011  31.888  1.00  0.00    -0.014 A 
ATOM     61  C   UNL A   1      45.984  27.280  33.085  1.00  0.00     0.010 A 
ATOM     62  C   UNL A   1      46.934  27.965  30.964  1.00  0.00     0.010 A 
ATOM     63  C   UNL A   1      47.142  26.551  33.370  1.00  0.00     0.020 A 
ATOM     64  C   UNL A   1      48.081  27.210  31.228  1.00  0.00     0.020 A 
ATOM     65  C   UNL A   1      48.183  26.519  32.437  1.00  0.00     0.054 A 
BRANCH  65  66
ATOM     66  S   UNL A   1      49.657  25.530  32.815  1.00  0.00     0.124 S 
ATOM     67  O   UNL A   1      50.497  26.498  33.518  1.00  0.00    -0.237 OA
ATOM     68  O   UNL A   1      49.114  24.454  33.640  1.00  0.00    -0.237 OA
ATOM     69  O   UNL A   1      50.146  25.120  31.501  1.00  0.00    -0.744 OA
ENDBRANCH  65  66
ENDBRANCH  46  60
BRANCH  47  70
ATOM     70  C   UNL A   1      37.270  32.742  29.866  1.00  0.00    -0.014 A 
ATOM     71  C   UNL A   1      37.099  33.531  28.714  1.00  0.00     0.010 A 
ATOM     72  C   UNL A   1      36.195  32.609  30.765  1.00  0.00     0.010 A 
ATOM     73  C   UNL A   1      35.890  34.193  28.480  1.00  0.00     0.020 A 
ATOM     74  C   UNL A   1      34.973  33.241  30.516  1.00  0.00     0.020 A 
ATOM     75  C   UNL A   1      34.834  34.041  29.382  1.00  0.00     0.054 A 
BRANCH  75  76
ATOM     76  S   UNL A   1      33.258  34.871  29.033  1.00  0.00     0.124 S 
ATOM     77  O   UNL A   1      32.607  34.848  30.339  1.00  0.00    -0.237 OA
ATOM     78  O   UNL A   1      33.691  36.184  28.564  1.00  0.00    -0.237 OA
ATOM     79  O   UNL A   1      32.644  34.024  28.013  1.00  0.00    -0.744 OA
ENDBRANCH  75  76
ENDBRANCH  47  70
BRANCH  59  80
ATOM     80  C   UNL A   1      43.185  34.615  33.045  1.00  0.00    -0.014 A 
ATOM     81  C   UNL A   1      42.974  34.878  34.411  1.00  0.00     0.010 A 
ATOM     82  C   UNL A   1      43.834  35.580  32.253  1.00  0.00     0.010 A 
ATOM     83  C   UNL A   1      43.346  36.108  34.958  1.00  0.00     0.020 A 
ATOM     84  C   UNL A   1      44.241  36.795  32.804  1.00  0.00     0.020 A 
ATOM     85  C   UNL A   1      43.970  37.062  34.148  1.00  0.00     0.054 A 
BRANCH  85  86
ATOM     86  S   UNL A   1      44.439  38.653  34.879  1.00  0.00     0.124 S 
ATOM     87  O   UNL A   1      44.190  38.418  36.299  1.00  0.00    -0.237 OA
ATOM     88  O   UNL A   1      45.843  38.781  34.498  1.00  0.00    -0.237 OA
ATOM     89  O   UNL A   1      43.536  39.608  34.238  1.00  0.00    -0.744 OA
ENDBRANCH  85  86
ENDBRANCH  59  80
ENDBRANCH  33  34
ENDBRANCH  25  28
ENDBRANCH   1  24
TORSDOF 14
ENDMDL
