MODEL 1
REMARK VINA RESULT:     -11.5      0.000      0.000
REMARK SMILES Cc1c[nH]c(C[N@H+]2C[C@@H]3CN(S(C)(=O)=O)C[C@]3(C(=O)NCCCNC(=O)c3ccc(-c4c5nc(c(-c6ccc(S(=O)(=O)[O-])cc6)c6ccc([nH]6)c(-c6ccc(S(=O)(=O)[O-])cc6)c6nc(c(-c7ccc(S(=O)(=O)[O-])cc7)c7ccc4[nH]7)C=C6)C=C5)cc3)C2)n1
REMARK SMILES IDX 22 1 21 2 20 3 18 4 19 5 17 7 7 8 8 9 87 10 9 12 10 13 16 14
REMARK SMILES IDX 11 15 6 16 5 17 1 18 2 19 3 20 88 21 4 22 12 24 13 25 14 26
REMARK SMILES IDX 15 27 23 28 24 29 25 30 26 32 27 33 28 34 86 35 29 36 85 37
REMARK SMILES IDX 30 38 31 39 32 40 79 41 33 42 84 43 78 44 80 45 34 46 83 47
REMARK SMILES IDX 77 48 76 49 35 51 65 52 46 53 64 54 47 55 50 56 63 57 81 58
REMARK SMILES IDX 48 59 49 60 62 62 82 63 51 64 36 65 37 66 45 67 38 68 44 69
REMARK SMILES IDX 39 70 40 71 41 72 42 73 43 74 66 75 67 76 75 77 68 78 74 79
REMARK SMILES IDX 69 80 70 81 71 82 72 83 73 84 52 85 53 86 61 87 54 88 60 89
REMARK SMILES IDX 55 90 56 91 57 92 58 93 59 94
REMARK H PARENT 20 6 7 11 4 23 24 31 80 50 50 61
REMARK Flexibility Score: inf
ROOT
ATOM      1  C   UNL A   1      33.458  27.803  26.866  1.00  0.00     0.042 C 
ENDROOT
BRANCH   1   2
ATOM      2  C   UNL A   1      31.943  27.964  26.956  1.00  0.00     0.117 C 
BRANCH   2   3
ATOM      3  N   UNL A   1      31.293  26.667  27.068  1.00  0.00    -0.355 N 
ATOM      4  C   UNL A   1      30.781  25.894  26.047  1.00  0.00     0.233 C 
ATOM      5  O   UNL A   1      29.884  25.100  26.330  1.00  0.00    -0.274 OA
ATOM      6  H   UNL A   1      31.211  26.298  27.976  1.00  0.00     0.163 HD
BRANCH   4   7
ATOM      7  C   UNL A   1      31.418  26.077  24.614  1.00  0.00     0.121 C 
ATOM      8  N   UNL A   1      33.307  24.520  23.975  1.00  0.00    -0.327 N 
ATOM      9  C   UNL A   1      32.779  25.096  22.763  1.00  0.00     0.268 C 
ATOM     10  C   UNL A   1      32.273  24.777  25.005  1.00  0.00     0.281 C 
ATOM     11  H   UNL A   1      34.201  24.947  24.217  1.00  0.00     0.348 HD
ATOM     12  C   UNL A   1      31.352  25.441  23.140  1.00  0.00     0.082 C 
ATOM     13  C   UNL A   1      30.813  26.434  22.112  1.00  0.00     0.113 C 
ATOM     14  C   UNL A   1      30.050  26.779  24.266  1.00  0.00     0.125 C 
ATOM     15  N   UNL A   1      30.239  27.453  22.961  1.00  0.00    -0.200 NA
BRANCH   8  16
ATOM     16  C   UNL A   1      33.658  23.087  23.858  1.00  0.00     0.338 C 
BRANCH  16  17
ATOM     17  C   UNL A   1      34.975  22.692  24.469  1.00  0.00     0.161 A 
ATOM     18  C   UNL A   1      38.090  23.348  26.051  1.00  0.00     0.068 C 
ATOM     19  C   UNL A   1      36.882  22.723  25.471  1.00  0.00     0.056 A 
ATOM     20  C   UNL A   1      36.446  21.420  25.534  1.00  0.00     0.107 A 
ATOM     21  N   UNL A   1      35.978  23.488  24.778  1.00  0.00    -0.233 NA
ATOM     22  N   UNL A   1      35.252  21.406  24.868  1.00  0.00    -0.344 N 
ATOM     23  H   UNL A   1      34.689  20.615  24.704  1.00  0.00     0.167 HD
ENDBRANCH  16  17
ENDBRANCH   8  16
BRANCH  15  24
ATOM     24  S   UNL A   1      30.835  29.025  22.857  1.00  0.00     0.211 S 
ATOM     25  C   UNL A   1      32.593  28.831  22.586  1.00  0.00     0.176 C 
ATOM     26  O   UNL A   1      30.298  29.614  21.652  1.00  0.00    -0.213 OA
ATOM     27  O   UNL A   1      30.657  29.654  24.150  1.00  0.00    -0.213 OA
ENDBRANCH  15  24
ENDBRANCH   4   7
ENDBRANCH   2   3
ENDBRANCH   1   2
BRANCH   1  28
ATOM     28  C   UNL A   1      34.107  28.902  26.048  1.00  0.00     0.118 C 
BRANCH  28  29
ATOM     29  N   UNL A   1      33.929  30.195  26.689  1.00  0.00    -0.352 N 
ATOM     30  C   UNL A   1      34.599  30.730  27.763  1.00  0.00     0.251 C 
ATOM     31  H   UNL A   1      33.231  30.769  26.299  1.00  0.00     0.163 HD
ATOM     32  O   UNL A   1      34.074  31.638  28.403  1.00  0.00    -0.269 OA
BRANCH  30  33
ATOM     33  C   UNL A   1      35.940  30.224  28.140  1.00  0.00     0.039 A 
ATOM     34  C   UNL A   1      36.128  29.637  29.393  1.00  0.00     0.014 A 
ATOM     35  C   UNL A   1      37.030  30.385  27.282  1.00  0.00     0.014 A 
ATOM     36  C   UNL A   1      37.399  29.190  29.766  1.00  0.00     0.010 A 
ATOM     37  C   UNL A   1      38.260  29.822  27.598  1.00  0.00     0.010 A 
ATOM     38  C   UNL A   1      38.472  29.259  28.862  1.00  0.00    -0.014 A 
BRANCH  38  39
ATOM     39  C   UNL A   1      39.841  28.812  29.230  1.00  0.00     0.031 A 
ATOM     40  C   UNL A   1      40.759  29.753  29.975  1.00  0.00     0.074 A 
ATOM     41  C   UNL A   1      40.275  27.596  28.845  1.00  0.00     0.049 A 
ATOM     42  N   UNL A   1      42.006  29.580  30.327  1.00  0.00    -0.248 NA
ATOM     43  C   UNL A   1      40.217  31.075  30.342  1.00  0.00     0.031 C 
ATOM     44  C   UNL A   1      39.497  26.617  28.079  1.00  0.00     0.029 A 
ATOM     45  N   UNL A   1      41.483  26.974  29.041  1.00  0.00    -0.354 N 
ATOM     46  C   UNL A   1      42.403  30.777  30.917  1.00  0.00     0.074 A 
ATOM     47  C   UNL A   1      41.285  31.686  30.833  1.00  0.00     0.031 C 
ATOM     48  C   UNL A   1      40.231  25.506  27.908  1.00  0.00     0.029 A 
ATOM     49  C   UNL A   1      41.547  25.709  28.503  1.00  0.00     0.049 A 
ATOM     50  H   UNL A   1      42.232  27.393  29.522  1.00  0.00     0.167 HD
ATOM     51  C   UNL A   1      43.587  31.083  31.496  1.00  0.00     0.031 A 
ATOM     52  C   UNL A   1      42.558  24.818  28.485  1.00  0.00     0.031 A 
ATOM     53  C   UNL A   1      44.680  30.156  31.616  1.00  0.00     0.049 A 
ATOM     54  C   UNL A   1      43.859  25.185  29.150  1.00  0.00     0.074 A 
ATOM     55  C   UNL A   1      45.889  30.336  32.264  1.00  0.00     0.029 A 
ATOM     56  N   UNL A   1      44.696  28.879  31.079  1.00  0.00    -0.354 N 
ATOM     57  N   UNL A   1      44.182  26.290  29.781  1.00  0.00    -0.248 NA
ATOM     58  C   UNL A   1      44.928  24.178  29.113  1.00  0.00     0.031 C 
ATOM     59  C   UNL A   1      46.663  29.191  32.061  1.00  0.00     0.029 A 
ATOM     60  C   UNL A   1      45.908  28.270  31.353  1.00  0.00     0.049 A 
ATOM     61  H   UNL A   1      43.956  28.467  30.577  1.00  0.00     0.167 HD
ATOM     62  C   UNL A   1      45.476  26.091  30.251  1.00  0.00     0.074 A 
ATOM     63  C   UNL A   1      45.867  24.757  29.847  1.00  0.00     0.031 C 
ATOM     64  C   UNL A   1      46.270  26.934  30.955  1.00  0.00     0.031 A 
BRANCH  51  65
ATOM     65  C   UNL A   1      43.776  32.473  32.047  1.00  0.00    -0.014 A 
ATOM     66  C   UNL A   1      44.324  33.505  31.264  1.00  0.00     0.010 A 
ATOM     67  C   UNL A   1      43.315  32.772  33.343  1.00  0.00     0.010 A 
ATOM     68  C   UNL A   1      44.421  34.804  31.772  1.00  0.00     0.020 A 
ATOM     69  C   UNL A   1      43.383  34.074  33.844  1.00  0.00     0.020 A 
ATOM     70  C   UNL A   1      43.943  35.082  33.056  1.00  0.00     0.054 A 
BRANCH  70  71
ATOM     71  S   UNL A   1      44.015  36.791  33.660  1.00  0.00     0.124 S 
ATOM     72  O   UNL A   1      43.058  36.762  34.762  1.00  0.00    -0.237 OA
ATOM     73  O   UNL A   1      45.415  36.932  34.049  1.00  0.00    -0.237 OA
ATOM     74  O   UNL A   1      43.608  37.586  32.505  1.00  0.00    -0.744 OA
ENDBRANCH  70  71
ENDBRANCH  51  65
BRANCH  52  75
ATOM     75  C   UNL A   1      42.389  23.491  27.827  1.00  0.00    -0.014 A 
ATOM     76  C   UNL A   1      41.616  22.485  28.434  1.00  0.00     0.010 A 
ATOM     77  C   UNL A   1      43.034  23.211  26.608  1.00  0.00     0.010 A 
ATOM     78  C   UNL A   1      41.536  21.210  27.865  1.00  0.00     0.020 A 
ATOM     79  C   UNL A   1      42.925  21.949  26.016  1.00  0.00     0.020 A 
ATOM     80  C   UNL A   1      42.197  20.948  26.662  1.00  0.00     0.054 A 
BRANCH  80  81
ATOM     81  S   UNL A   1      42.088  19.285  25.947  1.00  0.00     0.124 S 
ATOM     82  O   UNL A   1      40.650  19.139  25.741  1.00  0.00    -0.237 OA
ATOM     83  O   UNL A   1      42.892  19.408  24.734  1.00  0.00    -0.237 OA
ATOM     84  O   UNL A   1      42.661  18.428  26.982  1.00  0.00    -0.744 OA
ENDBRANCH  80  81
ENDBRANCH  52  75
BRANCH  64  85
ATOM     85  C   UNL A   1      47.616  26.419  31.391  1.00  0.00    -0.014 A 
ATOM     86  C   UNL A   1      47.781  25.708  32.593  1.00  0.00     0.010 A 
ATOM     87  C   UNL A   1      48.728  26.612  30.550  1.00  0.00     0.010 A 
ATOM     88  C   UNL A   1      49.042  25.240  32.967  1.00  0.00     0.020 A 
ATOM     89  C   UNL A   1      49.983  26.111  30.903  1.00  0.00     0.020 A 
ATOM     90  C   UNL A   1      50.136  25.445  32.120  1.00  0.00     0.054 A 
BRANCH  90  91
ATOM     91  S   UNL A   1      51.755  24.798  32.613  1.00  0.00     0.124 S 
ATOM     92  O   UNL A   1      52.632  25.363  31.591  1.00  0.00    -0.237 OA
ATOM     93  O   UNL A   1      51.922  25.344  33.958  1.00  0.00    -0.237 OA
ATOM     94  O   UNL A   1      51.583  23.348  32.554  1.00  0.00    -0.744 OA
ENDBRANCH  90  91
ENDBRANCH  64  85
ENDBRANCH  38  39
ENDBRANCH  30  33
ENDBRANCH  28  29
ENDBRANCH   1  28
TORSDOF 16
ENDMDL
MODEL 2
REMARK VINA RESULT:     -11.3      1.471      2.173
REMARK SMILES Cc1c[nH]c(C[N@H+]2C[C@@H]3CN(S(C)(=O)=O)C[C@]3(C(=O)NCCCNC(=O)c3ccc(-c4c5nc(c(-c6ccc(S(=O)(=O)[O-])cc6)c6ccc([nH]6)c(-c6ccc(S(=O)(=O)[O-])cc6)c6nc(c(-c7ccc(S(=O)(=O)[O-])cc7)c7ccc4[nH]7)C=C6)C=C5)cc3)C2)n1
REMARK SMILES IDX 22 1 21 2 20 3 18 4 19 5 17 7 7 8 8 9 87 10 9 12 10 13 16 14
REMARK SMILES IDX 11 15 6 16 5 17 1 18 2 19 3 20 88 21 4 22 12 24 13 25 14 26
REMARK SMILES IDX 15 27 23 28 24 29 25 30 26 32 27 33 28 34 86 35 29 36 85 37
REMARK SMILES IDX 30 38 31 39 32 40 79 41 33 42 84 43 78 44 80 45 34 46 83 47
REMARK SMILES IDX 77 48 76 49 35 51 65 52 46 53 64 54 47 55 50 56 63 57 81 58
REMARK SMILES IDX 48 59 49 60 62 62 82 63 51 64 36 65 37 66 45 67 38 68 44 69
REMARK SMILES IDX 39 70 40 71 41 72 42 73 43 74 66 75 67 76 75 77 68 78 74 79
REMARK SMILES IDX 69 80 70 81 71 82 72 83 73 84 52 85 53 86 61 87 54 88 60 89
REMARK SMILES IDX 55 90 56 91 57 92 58 93 59 94
REMARK H PARENT 20 6 7 11 4 23 24 31 80 50 50 61
REMARK Flexibility Score: inf
ROOT
ATOM      1  C   UNL A   1      32.582  27.901  26.688  1.00  0.00     0.042 C 
ENDROOT
BRANCH   1   2
ATOM      2  C   UNL A   1      32.308  26.875  25.591  1.00  0.00     0.117 C 
BRANCH   2   3
ATOM      3  N   UNL A   1      31.661  25.694  26.141  1.00  0.00    -0.355 N 
ATOM      4  C   UNL A   1      31.550  24.450  25.558  1.00  0.00     0.233 C 
ATOM      5  O   UNL A   1      30.612  23.736  25.912  1.00  0.00    -0.274 OA
ATOM      6  H   UNL A   1      31.256  25.794  27.033  1.00  0.00     0.163 HD
BRANCH   4   7
ATOM      7  C   UNL A   1      32.661  24.042  24.513  1.00  0.00     0.121 C 
ATOM      8  N   UNL A   1      34.610  22.669  25.364  1.00  0.00    -0.327 N 
ATOM      9  C   UNL A   1      34.565  22.532  23.930  1.00  0.00     0.268 C 
ATOM     10  C   UNL A   1      33.284  23.215  25.740  1.00  0.00     0.281 C 
ATOM     11  H   UNL A   1      35.370  23.289  25.644  1.00  0.00     0.348 HD
ATOM     12  C   UNL A   1      33.108  22.793  23.605  1.00  0.00     0.082 C 
ATOM     13  C   UNL A   1      32.999  23.104  22.113  1.00  0.00     0.113 C 
ATOM     14  C   UNL A   1      31.528  24.288  23.445  1.00  0.00     0.125 C 
ATOM     15  N   UNL A   1      32.189  24.300  22.120  1.00  0.00    -0.200 NA
BRANCH   8  16
ATOM     16  C   UNL A   1      34.938  21.416  26.080  1.00  0.00     0.338 C 
BRANCH  16  17
ATOM     17  C   UNL A   1      34.259  20.178  25.558  1.00  0.00     0.161 A 
ATOM     18  C   UNL A   1      34.121  17.144  23.711  1.00  0.00     0.068 C 
ATOM     19  C   UNL A   1      33.847  18.292  24.602  1.00  0.00     0.056 A 
ATOM     20  C   UNL A   1      32.839  18.474  25.521  1.00  0.00     0.107 A 
ATOM     21  N   UNL A   1      34.694  19.370  24.613  1.00  0.00    -0.233 NA
ATOM     22  N   UNL A   1      33.093  19.688  26.098  1.00  0.00    -0.344 N 
ATOM     23  H   UNL A   1      32.540  20.132  26.780  1.00  0.00     0.167 HD
ENDBRANCH  16  17
ENDBRANCH   8  16
BRANCH  15  24
ATOM     24  S   UNL A   1      32.827  25.715  21.465  1.00  0.00     0.211 S 
ATOM     25  C   UNL A   1      31.606  26.975  21.820  1.00  0.00     0.176 C 
ATOM     26  O   UNL A   1      34.001  26.057  22.235  1.00  0.00    -0.213 OA
ATOM     27  O   UNL A   1      32.886  25.553  20.028  1.00  0.00    -0.213 OA
ENDBRANCH  15  24
ENDBRANCH   4   7
ENDBRANCH   2   3
ENDBRANCH   1   2
BRANCH   1  28
ATOM     28  C   UNL A   1      33.920  28.591  26.512  1.00  0.00     0.118 C 
BRANCH  28  29
ATOM     29  N   UNL A   1      33.845  29.978  26.943  1.00  0.00    -0.352 N 
ATOM     30  C   UNL A   1      34.614  30.641  27.869  1.00  0.00     0.251 C 
ATOM     31  H   UNL A   1      33.144  30.519  26.512  1.00  0.00     0.163 HD
ATOM     32  O   UNL A   1      34.177  31.667  28.384  1.00  0.00    -0.269 OA
BRANCH  30  33
ATOM     33  C   UNL A   1      35.957  30.132  28.232  1.00  0.00     0.039 A 
ATOM     34  C   UNL A   1      36.161  29.562  29.492  1.00  0.00     0.014 A 
ATOM     35  C   UNL A   1      37.035  30.271  27.356  1.00  0.00     0.014 A 
ATOM     36  C   UNL A   1      37.434  29.111  29.852  1.00  0.00     0.010 A 
ATOM     37  C   UNL A   1      38.265  29.703  27.662  1.00  0.00     0.010 A 
ATOM     38  C   UNL A   1      38.493  29.158  28.931  1.00  0.00    -0.014 A 
BRANCH  38  39
ATOM     39  C   UNL A   1      39.864  28.707  29.285  1.00  0.00     0.031 A 
ATOM     40  C   UNL A   1      40.789  29.642  30.029  1.00  0.00     0.074 A 
ATOM     41  C   UNL A   1      40.294  27.494  28.887  1.00  0.00     0.049 A 
ATOM     42  N   UNL A   1      42.039  29.464  30.370  1.00  0.00    -0.248 NA
ATOM     43  C   UNL A   1      40.252  30.961  30.410  1.00  0.00     0.031 C 
ATOM     44  C   UNL A   1      39.508  26.521  28.120  1.00  0.00     0.029 A 
ATOM     45  N   UNL A   1      41.502  26.868  29.069  1.00  0.00    -0.354 N 
ATOM     46  C   UNL A   1      42.442  30.656  30.966  1.00  0.00     0.074 A 
ATOM     47  C   UNL A   1      41.325  31.567  30.898  1.00  0.00     0.031 C 
ATOM     48  C   UNL A   1      40.240  25.411  27.934  1.00  0.00     0.029 A 
ATOM     49  C   UNL A   1      41.561  25.608  28.521  1.00  0.00     0.049 A 
ATOM     50  H   UNL A   1      42.255  27.282  29.547  1.00  0.00     0.167 HD
ATOM     51  C   UNL A   1      43.631  30.956  31.538  1.00  0.00     0.031 A 
ATOM     52  C   UNL A   1      42.570  24.715  28.488  1.00  0.00     0.031 A 
ATOM     53  C   UNL A   1      44.723  30.027  31.642  1.00  0.00     0.049 A 
ATOM     54  C   UNL A   1      43.876  25.075  29.145  1.00  0.00     0.074 A 
ATOM     55  C   UNL A   1      45.937  30.200  32.283  1.00  0.00     0.029 A 
ATOM     56  N   UNL A   1      44.733  28.754  31.096  1.00  0.00    -0.354 N 
ATOM     57  N   UNL A   1      44.206  26.175  29.783  1.00  0.00    -0.248 NA
ATOM     58  C   UNL A   1      44.944  24.068  29.092  1.00  0.00     0.031 C 
ATOM     59  C   UNL A   1      46.709  29.056  32.065  1.00  0.00     0.029 A 
ATOM     60  C   UNL A   1      45.947  28.142  31.356  1.00  0.00     0.049 A 
ATOM     61  H   UNL A   1      43.989  28.346  30.597  1.00  0.00     0.167 HD
ATOM     62  C   UNL A   1      45.504  25.971  30.241  1.00  0.00     0.074 A 
ATOM     63  C   UNL A   1      45.889  24.640  29.823  1.00  0.00     0.031 C 
ATOM     64  C   UNL A   1      46.304  26.808  30.945  1.00  0.00     0.031 A 
BRANCH  51  65
ATOM     65  C   UNL A   1      43.826  32.342  32.098  1.00  0.00    -0.014 A 
ATOM     66  C   UNL A   1      43.527  32.642  33.439  1.00  0.00     0.010 A 
ATOM     67  C   UNL A   1      44.401  33.340  31.288  1.00  0.00     0.010 A 
ATOM     68  C   UNL A   1      43.785  33.916  33.954  1.00  0.00     0.020 A 
ATOM     69  C   UNL A   1      44.687  34.605  31.806  1.00  0.00     0.020 A 
ATOM     70  C   UNL A   1      44.370  34.887  33.137  1.00  0.00     0.054 A 
BRANCH  70  71
ATOM     71  S   UNL A   1      44.762  36.506  33.854  1.00  0.00     0.124 S 
ATOM     72  O   UNL A   1      46.195  36.387  34.105  1.00  0.00    -0.237 OA
ATOM     73  O   UNL A   1      44.387  37.427  32.784  1.00  0.00    -0.237 OA
ATOM     74  O   UNL A   1      43.925  36.570  35.049  1.00  0.00    -0.744 OA
ENDBRANCH  70  71
ENDBRANCH  51  65
BRANCH  52  75
ATOM     75  C   UNL A   1      42.394  23.394  27.821  1.00  0.00    -0.014 A 
ATOM     76  C   UNL A   1      41.801  22.319  28.508  1.00  0.00     0.010 A 
ATOM     77  C   UNL A   1      42.856  23.189  26.508  1.00  0.00     0.010 A 
ATOM     78  C   UNL A   1      41.723  21.054  27.917  1.00  0.00     0.020 A 
ATOM     79  C   UNL A   1      42.745  21.935  25.899  1.00  0.00     0.020 A 
ATOM     80  C   UNL A   1      42.202  20.869  26.618  1.00  0.00     0.054 A 
BRANCH  80  81
ATOM     81  S   UNL A   1      42.100  19.217  25.875  1.00  0.00     0.124 S 
ATOM     82  O   UNL A   1      42.967  19.357  24.708  1.00  0.00    -0.237 OA
ATOM     83  O   UNL A   1      42.608  18.359  26.942  1.00  0.00    -0.237 OA
ATOM     84  O   UNL A   1      40.678  19.060  25.582  1.00  0.00    -0.744 OA
ENDBRANCH  80  81
ENDBRANCH  52  75
BRANCH  64  85
ATOM     85  C   UNL A   1      47.653  26.288  31.366  1.00  0.00    -0.014 A 
ATOM     86  C   UNL A   1      47.859  25.712  32.633  1.00  0.00     0.010 A 
ATOM     87  C   UNL A   1      48.722  26.335  30.452  1.00  0.00     0.010 A 
ATOM     88  C   UNL A   1      49.122  25.235  32.991  1.00  0.00     0.020 A 
ATOM     89  C   UNL A   1      49.975  25.824  30.794  1.00  0.00     0.020 A 
ATOM     90  C   UNL A   1      50.172  25.295  32.070  1.00  0.00     0.054 A 
BRANCH  90  91
ATOM     91  S   UNL A   1      51.792  24.638  32.550  1.00  0.00     0.124 S 
ATOM     92  O   UNL A   1      51.631  23.211  32.285  1.00  0.00    -0.237 OA
ATOM     93  O   UNL A   1      52.703  25.346  31.653  1.00  0.00    -0.237 OA
ATOM     94  O   UNL A   1      51.910  25.001  33.960  1.00  0.00    -0.744 OA
ENDBRANCH  90  91
ENDBRANCH  64  85
ENDBRANCH  38  39
ENDBRANCH  30  33
ENDBRANCH  28  29
ENDBRANCH   1  28
TORSDOF 16
ENDMDL
MODEL 3
REMARK VINA RESULT:     -10.7      1.645      3.249
REMARK SMILES Cc1c[nH]c(C[N@H+]2C[C@@H]3CN(S(C)(=O)=O)C[C@]3(C(=O)NCCCNC(=O)c3ccc(-c4c5nc(c(-c6ccc(S(=O)(=O)[O-])cc6)c6ccc([nH]6)c(-c6ccc(S(=O)(=O)[O-])cc6)c6nc(c(-c7ccc(S(=O)(=O)[O-])cc7)c7ccc4[nH]7)C=C6)C=C5)cc3)C2)n1
REMARK SMILES IDX 22 1 21 2 20 3 18 4 19 5 17 7 7 8 8 9 87 10 9 12 10 13 16 14
REMARK SMILES IDX 11 15 6 16 5 17 1 18 2 19 3 20 88 21 4 22 12 24 13 25 14 26
REMARK SMILES IDX 15 27 23 28 24 29 25 30 26 32 27 33 28 34 86 35 29 36 85 37
REMARK SMILES IDX 30 38 31 39 32 40 79 41 33 42 84 43 78 44 80 45 34 46 83 47
REMARK SMILES IDX 77 48 76 49 35 51 65 52 46 53 64 54 47 55 50 56 63 57 81 58
REMARK SMILES IDX 48 59 49 60 62 62 82 63 51 64 36 65 37 66 45 67 38 68 44 69
REMARK SMILES IDX 39 70 40 71 41 72 42 73 43 74 66 75 67 76 75 77 68 78 74 79
REMARK SMILES IDX 69 80 70 81 71 82 72 83 73 84 52 85 53 86 61 87 54 88 60 89
REMARK SMILES IDX 55 90 56 91 57 92 58 93 59 94
REMARK H PARENT 20 6 7 11 4 23 24 31 80 50 50 61
REMARK Flexibility Score: inf
ROOT
ATOM      1  C   UNL A   1      33.085  27.808  26.817  1.00  0.00     0.042 C 
ENDROOT
BRANCH   1   2
ATOM      2  C   UNL A   1      32.143  27.092  25.852  1.00  0.00     0.117 C 
BRANCH   2   3
ATOM      3  N   UNL A   1      31.517  25.949  26.497  1.00  0.00    -0.355 N 
ATOM      4  C   UNL A   1      31.386  24.671  25.995  1.00  0.00     0.233 C 
ATOM      5  O   UNL A   1      30.462  23.982  26.427  1.00  0.00    -0.274 OA
ATOM      6  H   UNL A   1      31.146  26.104  27.395  1.00  0.00     0.163 HD
BRANCH   4   7
ATOM      7  C   UNL A   1      32.459  24.198  24.938  1.00  0.00     0.121 C 
ATOM      8  N   UNL A   1      31.927  24.580  22.493  1.00  0.00    -0.327 N 
ATOM      9  C   UNL A   1      33.348  24.361  22.608  1.00  0.00     0.268 C 
ATOM     10  C   UNL A   1      31.472  24.879  23.871  1.00  0.00     0.281 C 
ATOM     11  H   UNL A   1      31.465  23.756  22.109  1.00  0.00     0.348 HD
ATOM     12  C   UNL A   1      33.647  24.788  24.031  1.00  0.00     0.082 C 
ATOM     13  C   UNL A   1      35.006  24.213  24.427  1.00  0.00     0.113 C 
ATOM     14  C   UNL A   1      33.465  24.292  26.147  1.00  0.00     0.125 C 
ATOM     15  N   UNL A   1      34.714  23.624  25.713  1.00  0.00    -0.200 NA
BRANCH   8  16
ATOM     16  C   UNL A   1      31.557  25.637  21.524  1.00  0.00     0.338 C 
BRANCH  16  17
ATOM     17  C   UNL A   1      31.577  27.042  22.063  1.00  0.00     0.161 A 
ATOM     18  C   UNL A   1      30.212  29.808  23.830  1.00  0.00     0.068 C 
ATOM     19  C   UNL A   1      31.085  28.869  23.093  1.00  0.00     0.056 A 
ATOM     20  C   UNL A   1      32.437  28.930  22.846  1.00  0.00     0.107 A 
ATOM     21  N   UNL A   1      30.563  27.713  22.570  1.00  0.00    -0.233 NA
ATOM     22  N   UNL A   1      32.732  27.781  22.165  1.00  0.00    -0.344 N 
ATOM     23  H   UNL A   1      33.614  27.528  21.812  1.00  0.00     0.167 HD
ENDBRANCH  16  17
ENDBRANCH   8  16
BRANCH  15  24
ATOM     24  S   UNL A   1      34.945  21.968  25.917  1.00  0.00     0.211 S 
ATOM     25  C   UNL A   1      33.973  21.544  27.359  1.00  0.00     0.176 C 
ATOM     26  O   UNL A   1      34.324  21.302  24.796  1.00  0.00    -0.213 OA
ATOM     27  O   UNL A   1      36.339  21.751  26.247  1.00  0.00    -0.213 OA
ENDBRANCH  15  24
ENDBRANCH   4   7
ENDBRANCH   2   3
ENDBRANCH   1   2
BRANCH   1  28
ATOM     28  C   UNL A   1      34.037  28.747  26.103  1.00  0.00     0.118 C 
BRANCH  28  29
ATOM     29  N   UNL A   1      33.920  30.098  26.631  1.00  0.00    -0.352 N 
ATOM     30  C   UNL A   1      34.615  30.691  27.657  1.00  0.00     0.251 C 
ATOM     31  H   UNL A   1      33.249  30.667  26.190  1.00  0.00     0.163 HD
ATOM     32  O   UNL A   1      34.134  31.674  28.214  1.00  0.00    -0.269 OA
BRANCH  30  33
ATOM     33  C   UNL A   1      35.932  30.158  28.079  1.00  0.00     0.039 A 
ATOM     34  C   UNL A   1      36.067  29.577  29.342  1.00  0.00     0.014 A 
ATOM     35  C   UNL A   1      37.052  30.287  27.255  1.00  0.00     0.014 A 
ATOM     36  C   UNL A   1      37.315  29.104  29.758  1.00  0.00     0.010 A 
ATOM     37  C   UNL A   1      38.258  29.699  27.614  1.00  0.00     0.010 A 
ATOM     38  C   UNL A   1      38.417  29.142  28.888  1.00  0.00    -0.014 A 
BRANCH  38  39
ATOM     39  C   UNL A   1      39.763  28.667  29.302  1.00  0.00     0.031 A 
ATOM     40  C   UNL A   1      40.661  29.578  30.106  1.00  0.00     0.074 A 
ATOM     41  C   UNL A   1      40.197  27.454  28.907  1.00  0.00     0.049 A 
ATOM     42  N   UNL A   1      41.890  29.379  30.506  1.00  0.00    -0.248 NA
ATOM     43  C   UNL A   1      40.123  30.899  30.482  1.00  0.00     0.031 C 
ATOM     44  C   UNL A   1      39.439  26.504  28.086  1.00  0.00     0.029 A 
ATOM     45  N   UNL A   1      41.387  26.810  29.139  1.00  0.00    -0.354 N 
ATOM     46  C   UNL A   1      42.278  30.556  31.140  1.00  0.00     0.074 A 
ATOM     47  C   UNL A   1      41.177  31.483  31.032  1.00  0.00     0.031 C 
ATOM     48  C   UNL A   1      40.165  25.387  27.920  1.00  0.00     0.029 A 
ATOM     49  C   UNL A   1      41.457  25.558  28.574  1.00  0.00     0.049 A 
ATOM     50  H   UNL A   1      42.120  27.207  29.660  1.00  0.00     0.167 HD
ATOM     51  C   UNL A   1      43.441  30.832  31.776  1.00  0.00     0.031 A 
ATOM     52  C   UNL A   1      42.456  24.653  28.577  1.00  0.00     0.031 A 
ATOM     53  C   UNL A   1      44.515  29.887  31.919  1.00  0.00     0.049 A 
ATOM     54  C   UNL A   1      43.732  24.986  29.304  1.00  0.00     0.074 A 
ATOM     55  C   UNL A   1      45.698  30.034  32.622  1.00  0.00     0.029 A 
ATOM     56  N   UNL A   1      44.536  28.623  31.354  1.00  0.00    -0.354 N 
ATOM     57  N   UNL A   1      44.043  26.071  29.975  1.00  0.00    -0.248 NA
ATOM     58  C   UNL A   1      44.789  23.965  29.288  1.00  0.00     0.031 C 
ATOM     59  C   UNL A   1      46.465  28.884  32.424  1.00  0.00     0.029 A 
ATOM     60  C   UNL A   1      45.728  27.990  31.663  1.00  0.00     0.049 A 
ATOM     61  H   UNL A   1      43.813  28.232  30.812  1.00  0.00     0.167 HD
ATOM     62  C   UNL A   1      45.314  25.843  30.494  1.00  0.00     0.074 A 
ATOM     63  C   UNL A   1      45.703  24.513  30.074  1.00  0.00     0.031 C 
ATOM     64  C   UNL A   1      46.089  26.658  31.250  1.00  0.00     0.031 A 
BRANCH  51  65
ATOM     65  C   UNL A   1      43.625  32.206  32.366  1.00  0.00    -0.014 A 
ATOM     66  C   UNL A   1      44.205  33.252  31.626  1.00  0.00     0.010 A 
ATOM     67  C   UNL A   1      43.127  32.477  33.655  1.00  0.00     0.010 A 
ATOM     68  C   UNL A   1      44.298  34.537  32.170  1.00  0.00     0.020 A 
ATOM     69  C   UNL A   1      43.191  33.766  34.190  1.00  0.00     0.020 A 
ATOM     70  C   UNL A   1      43.783  34.787  33.445  1.00  0.00     0.054 A 
BRANCH  70  71
ATOM     71  S   UNL A   1      43.851  36.480  34.093  1.00  0.00     0.124 S 
ATOM     72  O   UNL A   1      45.289  36.690  34.238  1.00  0.00    -0.237 OA
ATOM     73  O   UNL A   1      43.209  37.252  33.032  1.00  0.00    -0.237 OA
ATOM     74  O   UNL A   1      43.104  36.405  35.345  1.00  0.00    -0.744 OA
ENDBRANCH  70  71
ENDBRANCH  51  65
BRANCH  52  75
ATOM     75  C   UNL A   1      42.298  23.344  27.882  1.00  0.00    -0.014 A 
ATOM     76  C   UNL A   1      41.664  22.264  28.524  1.00  0.00     0.010 A 
ATOM     77  C   UNL A   1      42.815  23.156  26.587  1.00  0.00     0.010 A 
ATOM     78  C   UNL A   1      41.601  21.010  27.909  1.00  0.00     0.020 A 
ATOM     79  C   UNL A   1      42.719  21.913  25.953  1.00  0.00     0.020 A 
ATOM     80  C   UNL A   1      42.135  20.841  26.630  1.00  0.00     0.054 A 
BRANCH  80  81
ATOM     81  S   UNL A   1      42.050  19.202  25.856  1.00  0.00     0.124 S 
ATOM     82  O   UNL A   1      40.623  19.076  25.573  1.00  0.00    -0.237 OA
ATOM     83  O   UNL A   1      42.915  19.358  24.690  1.00  0.00    -0.237 OA
ATOM     84  O   UNL A   1      42.564  18.308  26.889  1.00  0.00    -0.744 OA
ENDBRANCH  80  81
ENDBRANCH  52  75
BRANCH  64  85
ATOM     85  C   UNL A   1      47.408  26.114  31.729  1.00  0.00    -0.014 A 
ATOM     86  C   UNL A   1      47.542  25.508  32.991  1.00  0.00     0.010 A 
ATOM     87  C   UNL A   1      48.524  26.170  30.873  1.00  0.00     0.010 A 
ATOM     88  C   UNL A   1      48.779  25.009  33.404  1.00  0.00     0.020 A 
ATOM     89  C   UNL A   1      49.753  25.638  31.269  1.00  0.00     0.020 A 
ATOM     90  C   UNL A   1      49.877  25.078  32.541  1.00  0.00     0.054 A 
BRANCH  90  91
ATOM     91  S   UNL A   1      51.463  24.393  33.090  1.00  0.00     0.124 S 
ATOM     92  O   UNL A   1      51.598  23.218  32.233  1.00  0.00    -0.237 OA
ATOM     93  O   UNL A   1      52.395  25.483  32.814  1.00  0.00    -0.237 OA
ATOM     94  O   UNL A   1      51.247  24.110  34.506  1.00  0.00    -0.744 OA
ENDBRANCH  90  91
ENDBRANCH  64  85
ENDBRANCH  38  39
ENDBRANCH  30  33
ENDBRANCH  28  29
ENDBRANCH   1  28
TORSDOF 16
ENDMDL
