MODEL 1
REMARK VINA RESULT:     -11.5      0.000      0.000
REMARK SMILES Cc1nn(Cc2ccc(C(=O)NCCCNC(=O)c3ccc(-c4c5nc(c(-c6ccc(S(=O)(=O)[O-])cc6)c6ccc([nH]6)c(-c6ccc(S(=O)(=O)[O-])cc6)c6nc(c(-c7ccc(S(=O)(=O)[O-])cc7)c7ccc4[nH]7)C=C6)C=C5)cc3)o2)c(C)c1C
REMARK SMILES IDX 14 1 13 2 12 3 10 4 11 5 9 7 6 8 7 9 79 10 8 11 5 12 4 13
REMARK SMILES IDX 1 14 2 15 3 16 82 17 80 18 83 19 81 20 15 21 16 22 17 23
REMARK SMILES IDX 18 25 19 26 20 27 78 28 21 29 77 30 22 31 23 32 24 33 71 34
REMARK SMILES IDX 25 35 76 36 70 37 72 38 26 39 75 40 69 41 68 42 27 44 57 45
REMARK SMILES IDX 38 46 56 47 39 48 42 49 55 50 73 51 40 52 41 53 54 55 74 56
REMARK SMILES IDX 43 57 28 58 29 59 37 60 30 61 36 62 31 63 32 64 33 65 34 66
REMARK SMILES IDX 35 67 58 68 59 69 67 70 60 71 66 72 61 73 62 74 63 75 64 76
REMARK SMILES IDX 65 77 44 78 45 79 53 80 46 81 52 82 47 83 48 84 49 85 50 86
REMARK SMILES IDX 51 87
REMARK H PARENT 12 6 16 24 72 43 42 54
REMARK Flexibility Score: inf
ROOT
ATOM      1  C   UNL A   1      31.365  31.790  26.495  1.00  0.00     0.042 C 
ENDROOT
BRANCH   1   2
ATOM      2  C   UNL A   1      31.741  30.476  25.803  1.00  0.00     0.118 C 
BRANCH   2   3
ATOM      3  N   UNL A   1      32.851  29.795  26.448  1.00  0.00    -0.349 N 
ATOM      4  C   UNL A   1      33.746  28.861  25.975  1.00  0.00     0.286 C 
ATOM      5  O   UNL A   1      34.657  28.548  26.743  1.00  0.00    -0.266 OA
ATOM      6  H   UNL A   1      32.987  30.045  27.390  1.00  0.00     0.163 HD
BRANCH   4   7
ATOM      7  C   UNL A   1      33.641  28.305  24.640  1.00  0.00     0.191 A 
ATOM      8  C   UNL A   1      33.213  26.807  23.077  1.00  0.00     0.126 A 
ATOM      9  C   UNL A   1      33.598  27.953  22.416  1.00  0.00     0.048 A 
ATOM     10  O   UNL A   1      33.259  27.010  24.424  1.00  0.00    -0.454 OA
ATOM     11  C   UNL A   1      33.880  28.910  23.418  1.00  0.00     0.056 A 
BRANCH   8  12
ATOM     12  C   UNL A   1      32.723  25.481  22.624  1.00  0.00     0.219 C 
BRANCH  12  13
ATOM     13  N   UNL A   1      33.498  24.383  23.190  1.00  0.00    -0.262 N 
ATOM     14  C   UNL A   1      36.604  22.698  23.299  1.00  0.00     0.069 C 
ATOM     15  C   UNL A   1      35.190  23.124  23.448  1.00  0.00     0.063 A 
ATOM     16  N   UNL A   1      34.768  24.196  22.772  1.00  0.00    -0.177 NA
ATOM     17  C   UNL A   1      34.147  22.544  24.220  1.00  0.00    -0.007 A 
ATOM     18  C   UNL A   1      33.061  23.385  24.029  1.00  0.00     0.039 A 
ATOM     19  C   UNL A   1      34.189  21.316  25.052  1.00  0.00     0.048 C 
ATOM     20  C   UNL A   1      31.681  23.318  24.575  1.00  0.00     0.066 C 
ENDBRANCH  12  13
ENDBRANCH   8  12
ENDBRANCH   4   7
ENDBRANCH   2   3
ENDBRANCH   1   2
BRANCH   1  21
ATOM     21  C   UNL A   1      32.546  32.405  27.235  1.00  0.00     0.118 C 
BRANCH  21  22
ATOM     22  N   UNL A   1      32.343  33.822  27.574  1.00  0.00    -0.352 N 
ATOM     23  C   UNL A   1      33.021  34.593  28.510  1.00  0.00     0.251 C 
ATOM     24  H   UNL A   1      31.633  34.284  27.072  1.00  0.00     0.163 HD
ATOM     25  O   UNL A   1      32.558  35.642  28.914  1.00  0.00    -0.269 OA
BRANCH  23  26
ATOM     26  C   UNL A   1      34.322  34.096  28.998  1.00  0.00     0.039 A 
ATOM     27  C   UNL A   1      34.452  33.367  30.184  1.00  0.00     0.014 A 
ATOM     28  C   UNL A   1      35.415  34.311  28.172  1.00  0.00     0.014 A 
ATOM     29  C   UNL A   1      35.680  32.769  30.471  1.00  0.00     0.010 A 
ATOM     30  C   UNL A   1      36.535  33.547  28.343  1.00  0.00     0.010 A 
ATOM     31  C   UNL A   1      36.714  32.845  29.529  1.00  0.00    -0.014 A 
BRANCH  31  32
ATOM     32  C   UNL A   1      37.989  32.158  29.709  1.00  0.00     0.031 A 
ATOM     33  C   UNL A   1      38.042  30.744  29.251  1.00  0.00     0.074 A 
ATOM     34  C   UNL A   1      39.123  32.831  30.009  1.00  0.00     0.049 A 
ATOM     35  N   UNL A   1      38.196  29.684  29.972  1.00  0.00    -0.248 NA
ATOM     36  C   UNL A   1      37.794  30.463  27.827  1.00  0.00     0.031 C 
ATOM     37  C   UNL A   1      39.304  34.284  30.167  1.00  0.00     0.029 A 
ATOM     38  N   UNL A   1      40.397  32.369  30.080  1.00  0.00    -0.354 N 
ATOM     39  C   UNL A   1      38.287  28.619  29.080  1.00  0.00     0.074 A 
ATOM     40  C   UNL A   1      37.850  29.129  27.804  1.00  0.00     0.031 C 
ATOM     41  C   UNL A   1      40.611  34.595  30.034  1.00  0.00     0.029 A 
ATOM     42  C   UNL A   1      41.368  33.360  30.001  1.00  0.00     0.049 A 
ATOM     43  H   UNL A   1      40.615  31.415  30.179  1.00  0.00     0.167 HD
ATOM     44  C   UNL A   1      38.943  27.467  29.397  1.00  0.00     0.031 A 
ATOM     45  C   UNL A   1      42.707  33.187  29.897  1.00  0.00     0.031 A 
ATOM     46  C   UNL A   1      39.262  27.399  30.801  1.00  0.00     0.049 A 
ATOM     47  C   UNL A   1      43.002  31.822  30.391  1.00  0.00     0.074 A 
ATOM     48  C   UNL A   1      38.529  27.416  31.970  1.00  0.00     0.029 A 
ATOM     49  N   UNL A   1      40.553  27.717  31.160  1.00  0.00    -0.354 N 
ATOM     50  N   UNL A   1      42.789  31.448  31.624  1.00  0.00    -0.248 NA
ATOM     51  C   UNL A   1      43.087  30.739  29.423  1.00  0.00     0.031 C 
ATOM     52  C   UNL A   1      39.297  28.213  32.871  1.00  0.00     0.029 A 
ATOM     53  C   UNL A   1      40.483  28.576  32.226  1.00  0.00     0.049 A 
ATOM     54  H   UNL A   1      41.374  27.385  30.730  1.00  0.00     0.167 HD
ATOM     55  C   UNL A   1      42.280  30.161  31.526  1.00  0.00     0.074 A 
ATOM     56  C   UNL A   1      42.598  29.738  30.162  1.00  0.00     0.031 C 
ATOM     57  C   UNL A   1      41.410  29.668  32.458  1.00  0.00     0.031 A 
BRANCH  44  58
ATOM     58  C   UNL A   1      39.647  26.590  28.388  1.00  0.00    -0.014 A 
ATOM     59  C   UNL A   1      39.280  25.232  28.288  1.00  0.00     0.010 A 
ATOM     60  C   UNL A   1      40.835  26.981  27.739  1.00  0.00     0.010 A 
ATOM     61  C   UNL A   1      40.098  24.304  27.628  1.00  0.00     0.020 A 
ATOM     62  C   UNL A   1      41.634  26.075  27.041  1.00  0.00     0.020 A 
ATOM     63  C   UNL A   1      41.280  24.733  27.023  1.00  0.00     0.054 A 
BRANCH  63  64
ATOM     64  S   UNL A   1      42.392  23.511  26.282  1.00  0.00     0.124 S 
ATOM     65  O   UNL A   1      42.906  24.238  25.125  1.00  0.00    -0.237 OA
ATOM     66  O   UNL A   1      43.350  23.271  27.357  1.00  0.00    -0.237 OA
ATOM     67  O   UNL A   1      41.510  22.388  25.976  1.00  0.00    -0.744 OA
ENDBRANCH  63  64
ENDBRANCH  44  58
BRANCH  45  68
ATOM     68  C   UNL A   1      43.657  34.023  29.127  1.00  0.00    -0.014 A 
ATOM     69  C   UNL A   1      44.888  34.431  29.668  1.00  0.00     0.010 A 
ATOM     70  C   UNL A   1      43.451  34.217  27.743  1.00  0.00     0.010 A 
ATOM     71  C   UNL A   1      45.892  34.972  28.846  1.00  0.00     0.020 A 
ATOM     72  C   UNL A   1      44.444  34.758  26.919  1.00  0.00     0.020 A 
ATOM     73  C   UNL A   1      45.669  35.118  27.472  1.00  0.00     0.054 A 
BRANCH  73  74
ATOM     74  S   UNL A   1      47.026  35.675  26.397  1.00  0.00     0.124 S 
ATOM     75  O   UNL A   1      48.161  35.694  27.315  1.00  0.00    -0.237 OA
ATOM     76  O   UNL A   1      47.062  34.639  25.369  1.00  0.00    -0.237 OA
ATOM     77  O   UNL A   1      46.581  36.989  25.934  1.00  0.00    -0.744 OA
ENDBRANCH  73  74
ENDBRANCH  45  68
BRANCH  57  78
ATOM     78  C   UNL A   1      41.208  30.455  33.738  1.00  0.00    -0.014 A 
ATOM     79  C   UNL A   1      41.925  30.208  34.927  1.00  0.00     0.010 A 
ATOM     80  C   UNL A   1      40.381  31.590  33.687  1.00  0.00     0.010 A 
ATOM     81  C   UNL A   1      41.794  31.055  36.039  1.00  0.00     0.020 A 
ATOM     82  C   UNL A   1      40.258  32.448  34.784  1.00  0.00     0.020 A 
ATOM     83  C   UNL A   1      40.958  32.172  35.959  1.00  0.00     0.054 A 
BRANCH  83  84
ATOM     84  S   UNL A   1      40.826  33.292  37.382  1.00  0.00     0.124 S 
ATOM     85  O   UNL A   1      41.097  32.405  38.511  1.00  0.00    -0.237 OA
ATOM     86  O   UNL A   1      41.855  34.293  37.109  1.00  0.00    -0.237 OA
ATOM     87  O   UNL A   1      39.454  33.791  37.306  1.00  0.00    -0.744 OA
ENDBRANCH  83  84
ENDBRANCH  57  78
ENDBRANCH  31  32
ENDBRANCH  23  26
ENDBRANCH  21  22
ENDBRANCH   1  21
TORSDOF 15
ENDMDL
MODEL 2
REMARK VINA RESULT:     -11.5      4.519     10.125
REMARK SMILES Cc1nn(Cc2ccc(C(=O)NCCCNC(=O)c3ccc(-c4c5nc(c(-c6ccc(S(=O)(=O)[O-])cc6)c6ccc([nH]6)c(-c6ccc(S(=O)(=O)[O-])cc6)c6nc(c(-c7ccc(S(=O)(=O)[O-])cc7)c7ccc4[nH]7)C=C6)C=C5)cc3)o2)c(C)c1C
REMARK SMILES IDX 14 1 13 2 12 3 10 4 11 5 9 7 6 8 7 9 79 10 8 11 5 12 4 13
REMARK SMILES IDX 1 14 2 15 3 16 82 17 80 18 83 19 81 20 15 21 16 22 17 23
REMARK SMILES IDX 18 25 19 26 20 27 78 28 21 29 77 30 22 31 23 32 24 33 71 34
REMARK SMILES IDX 25 35 76 36 70 37 72 38 26 39 75 40 69 41 68 42 27 44 57 45
REMARK SMILES IDX 38 46 56 47 39 48 42 49 55 50 73 51 40 52 41 53 54 55 74 56
REMARK SMILES IDX 43 57 28 58 29 59 37 60 30 61 36 62 31 63 32 64 33 65 34 66
REMARK SMILES IDX 35 67 58 68 59 69 67 70 60 71 66 72 61 73 62 74 63 75 64 76
REMARK SMILES IDX 65 77 44 78 45 79 53 80 46 81 52 82 47 83 48 84 49 85 50 86
REMARK SMILES IDX 51 87
REMARK H PARENT 12 6 16 24 72 43 42 54
REMARK Flexibility Score: inf
ROOT
ATOM      1  C   UNL A   1      37.814  19.585  25.013  1.00  0.00     0.042 C 
ENDROOT
BRANCH   1   2
ATOM      2  C   UNL A   1      36.736  20.670  24.928  1.00  0.00     0.118 C 
BRANCH   2   3
ATOM      3  N   UNL A   1      35.408  20.175  25.248  1.00  0.00    -0.349 N 
ATOM      4  C   UNL A   1      34.201  20.824  25.386  1.00  0.00     0.286 C 
ATOM      5  O   UNL A   1      33.216  20.104  25.555  1.00  0.00    -0.266 OA
ATOM      6  H   UNL A   1      35.362  19.202  25.391  1.00  0.00     0.163 HD
BRANCH   4   7
ATOM      7  C   UNL A   1      34.094  22.267  25.302  1.00  0.00     0.191 A 
ATOM      8  C   UNL A   1      33.788  24.244  24.369  1.00  0.00     0.126 A 
ATOM      9  C   UNL A   1      33.964  24.477  25.716  1.00  0.00     0.048 A 
ATOM     10  O   UNL A   1      33.888  22.909  24.112  1.00  0.00    -0.454 OA
ATOM     11  C   UNL A   1      34.168  23.211  26.312  1.00  0.00     0.056 A 
BRANCH   8  12
ATOM     12  C   UNL A   1      33.465  25.118  23.214  1.00  0.00     0.219 C 
BRANCH  12  13
ATOM     13  N   UNL A   1      32.251  25.897  23.434  1.00  0.00    -0.262 N 
ATOM     14  C   UNL A   1      30.856  29.058  24.180  1.00  0.00     0.069 C 
ATOM     15  C   UNL A   1      31.103  27.619  23.911  1.00  0.00     0.063 A 
ATOM     16  N   UNL A   1      32.363  27.202  23.761  1.00  0.00    -0.177 NA
ATOM     17  C   UNL A   1      30.175  26.549  23.795  1.00  0.00    -0.007 A 
ATOM     18  C   UNL A   1      30.954  25.443  23.485  1.00  0.00     0.039 A 
ATOM     19  C   UNL A   1      28.701  26.583  23.961  1.00  0.00     0.048 C 
ATOM     20  C   UNL A   1      30.568  24.031  23.234  1.00  0.00     0.066 C 
ENDBRANCH  12  13
ENDBRANCH   8  12
ENDBRANCH   4   7
ENDBRANCH   2   3
ENDBRANCH   1   2
BRANCH   1  21
ATOM     21  C   UNL A   1      39.107  20.109  25.625  1.00  0.00     0.118 C 
BRANCH  21  22
ATOM     22  N   UNL A   1      40.161  19.086  25.716  1.00  0.00    -0.352 N 
ATOM     23  C   UNL A   1      41.522  19.264  25.931  1.00  0.00     0.251 C 
ATOM     24  H   UNL A   1      39.862  18.154  25.611  1.00  0.00     0.163 HD
ATOM     25  O   UNL A   1      42.318  18.382  25.674  1.00  0.00    -0.269 OA
BRANCH  23  26
ATOM     26  C   UNL A   1      41.968  20.559  26.481  1.00  0.00     0.039 A 
ATOM     27  C   UNL A   1      42.425  21.602  25.670  1.00  0.00     0.014 A 
ATOM     28  C   UNL A   1      41.830  20.729  27.850  1.00  0.00     0.014 A 
ATOM     29  C   UNL A   1      42.642  22.854  26.249  1.00  0.00     0.010 A 
ATOM     30  C   UNL A   1      41.826  21.995  28.362  1.00  0.00     0.010 A 
ATOM     31  C   UNL A   1      42.316  23.048  27.598  1.00  0.00    -0.014 A 
BRANCH  31  32
ATOM     32  C   UNL A   1      42.414  24.353  28.246  1.00  0.00     0.031 A 
ATOM     33  C   UNL A   1      41.254  25.265  28.061  1.00  0.00     0.074 A 
ATOM     34  C   UNL A   1      43.357  24.613  29.179  1.00  0.00     0.049 A 
ATOM     35  N   UNL A   1      41.226  26.391  27.429  1.00  0.00    -0.248 NA
ATOM     36  C   UNL A   1      39.937  24.828  28.553  1.00  0.00     0.031 C 
ATOM     37  C   UNL A   1      44.378  23.700  29.722  1.00  0.00     0.029 A 
ATOM     38  N   UNL A   1      43.503  25.711  29.963  1.00  0.00    -0.354 N 
ATOM     39  C   UNL A   1      39.951  26.914  27.626  1.00  0.00     0.074 A 
ATOM     40  C   UNL A   1      39.155  25.836  28.159  1.00  0.00     0.031 C 
ATOM     41  C   UNL A   1      44.829  24.175  30.902  1.00  0.00     0.029 A 
ATOM     42  C   UNL A   1      44.298  25.510  31.084  1.00  0.00     0.049 A 
ATOM     43  H   UNL A   1      43.082  26.576  29.754  1.00  0.00     0.167 HD
ATOM     44  C   UNL A   1      39.705  28.254  27.569  1.00  0.00     0.031 A 
ATOM     45  C   UNL A   1      44.498  26.371  32.110  1.00  0.00     0.031 A 
ATOM     46  C   UNL A   1      40.824  28.982  27.025  1.00  0.00     0.049 A 
ATOM     47  C   UNL A   1      44.159  27.722  31.607  1.00  0.00     0.074 A 
ATOM     48  C   UNL A   1      41.514  28.960  25.830  1.00  0.00     0.029 A 
ATOM     49  N   UNL A   1      41.649  29.617  27.926  1.00  0.00    -0.354 N 
ATOM     50  N   UNL A   1      44.818  28.311  30.645  1.00  0.00    -0.248 NA
ATOM     51  C   UNL A   1      42.816  28.230  31.836  1.00  0.00     0.031 C 
ATOM     52  C   UNL A   1      42.883  29.132  26.196  1.00  0.00     0.029 A 
ATOM     53  C   UNL A   1      42.942  29.318  27.580  1.00  0.00     0.049 A 
ATOM     54  H   UNL A   1      41.362  30.182  28.679  1.00  0.00     0.167 HD
ATOM     55  C   UNL A   1      43.847  28.935  29.874  1.00  0.00     0.074 A 
ATOM     56  C   UNL A   1      42.653  28.948  30.720  1.00  0.00     0.031 C 
ATOM     57  C   UNL A   1      44.019  29.127  28.532  1.00  0.00     0.031 A 
BRANCH  44  58
ATOM     58  C   UNL A   1      38.626  28.950  28.364  1.00  0.00    -0.014 A 
ATOM     59  C   UNL A   1      37.702  29.774  27.689  1.00  0.00     0.010 A 
ATOM     60  C   UNL A   1      38.660  29.045  29.770  1.00  0.00     0.010 A 
ATOM     61  C   UNL A   1      36.902  30.692  28.383  1.00  0.00     0.020 A 
ATOM     62  C   UNL A   1      37.836  29.923  30.475  1.00  0.00     0.020 A 
ATOM     63  C   UNL A   1      36.989  30.770  29.774  1.00  0.00     0.054 A 
BRANCH  63  64
ATOM     64  S   UNL A   1      36.047  32.042  30.653  1.00  0.00     0.124 S 
ATOM     65  O   UNL A   1      36.974  33.169  30.629  1.00  0.00    -0.237 OA
ATOM     66  O   UNL A   1      34.857  32.179  29.818  1.00  0.00    -0.237 OA
ATOM     67  O   UNL A   1      35.815  31.448  31.967  1.00  0.00    -0.744 OA
ENDBRANCH  63  64
ENDBRANCH  44  58
BRANCH  45  68
ATOM     68  C   UNL A   1      44.672  26.029  33.541  1.00  0.00    -0.014 A 
ATOM     69  C   UNL A   1      43.678  25.349  34.263  1.00  0.00     0.010 A 
ATOM     70  C   UNL A   1      45.945  26.159  34.138  1.00  0.00     0.010 A 
ATOM     71  C   UNL A   1      43.960  24.783  35.520  1.00  0.00     0.020 A 
ATOM     72  C   UNL A   1      46.232  25.602  35.390  1.00  0.00     0.020 A 
ATOM     73  C   UNL A   1      45.241  24.900  36.068  1.00  0.00     0.054 A 
BRANCH  73  74
ATOM     74  S   UNL A   1      45.636  24.036  37.618  1.00  0.00     0.124 S 
ATOM     75  O   UNL A   1      45.507  22.633  37.234  1.00  0.00    -0.237 OA
ATOM     76  O   UNL A   1      46.995  24.491  37.898  1.00  0.00    -0.237 OA
ATOM     77  O   UNL A   1      44.619  24.519  38.552  1.00  0.00    -0.744 OA
ENDBRANCH  73  74
ENDBRANCH  45  68
BRANCH  57  78
ATOM     78  C   UNL A   1      45.396  28.881  27.944  1.00  0.00    -0.014 A 
ATOM     79  C   UNL A   1      46.395  29.872  27.857  1.00  0.00     0.010 A 
ATOM     80  C   UNL A   1      45.742  27.559  27.617  1.00  0.00     0.010 A 
ATOM     81  C   UNL A   1      47.693  29.553  27.428  1.00  0.00     0.020 A 
ATOM     82  C   UNL A   1      47.037  27.230  27.205  1.00  0.00     0.020 A 
ATOM     83  C   UNL A   1      48.006  28.230  27.104  1.00  0.00     0.054 A 
BRANCH  83  84
ATOM     84  S   UNL A   1      49.697  27.812  26.594  1.00  0.00     0.124 S 
ATOM     85  O   UNL A   1      50.003  28.855  25.617  1.00  0.00    -0.237 OA
ATOM     86  O   UNL A   1      50.445  27.886  27.847  1.00  0.00    -0.237 OA
ATOM     87  O   UNL A   1      49.571  26.465  26.038  1.00  0.00    -0.744 OA
ENDBRANCH  83  84
ENDBRANCH  57  78
ENDBRANCH  31  32
ENDBRANCH  23  26
ENDBRANCH  21  22
ENDBRANCH   1  21
TORSDOF 15
ENDMDL
MODEL 3
REMARK VINA RESULT:     -11.5      1.588      2.710
REMARK SMILES Cc1nn(Cc2ccc(C(=O)NCCCNC(=O)c3ccc(-c4c5nc(c(-c6ccc(S(=O)(=O)[O-])cc6)c6ccc([nH]6)c(-c6ccc(S(=O)(=O)[O-])cc6)c6nc(c(-c7ccc(S(=O)(=O)[O-])cc7)c7ccc4[nH]7)C=C6)C=C5)cc3)o2)c(C)c1C
REMARK SMILES IDX 14 1 13 2 12 3 10 4 11 5 9 7 6 8 7 9 79 10 8 11 5 12 4 13
REMARK SMILES IDX 1 14 2 15 3 16 82 17 80 18 83 19 81 20 15 21 16 22 17 23
REMARK SMILES IDX 18 25 19 26 20 27 78 28 21 29 77 30 22 31 23 32 24 33 71 34
REMARK SMILES IDX 25 35 76 36 70 37 72 38 26 39 75 40 69 41 68 42 27 44 57 45
REMARK SMILES IDX 38 46 56 47 39 48 42 49 55 50 73 51 40 52 41 53 54 55 74 56
REMARK SMILES IDX 43 57 28 58 29 59 37 60 30 61 36 62 31 63 32 64 33 65 34 66
REMARK SMILES IDX 35 67 58 68 59 69 67 70 60 71 66 72 61 73 62 74 63 75 64 76
REMARK SMILES IDX 65 77 44 78 45 79 53 80 46 81 52 82 47 83 48 84 49 85 50 86
REMARK SMILES IDX 51 87
REMARK H PARENT 12 6 16 24 72 43 42 54
REMARK Flexibility Score: inf
ROOT
ATOM      1  C   UNL A   1      31.491  32.155  26.623  1.00  0.00     0.042 C 
ENDROOT
BRANCH   1   2
ATOM      2  C   UNL A   1      31.639  30.637  26.485  1.00  0.00     0.118 C 
BRANCH   2   3
ATOM      3  N   UNL A   1      32.912  30.145  26.985  1.00  0.00    -0.349 N 
ATOM      4  C   UNL A   1      33.614  28.991  26.714  1.00  0.00     0.286 C 
ATOM      5  O   UNL A   1      34.735  28.909  27.220  1.00  0.00    -0.266 OA
ATOM      6  H   UNL A   1      33.351  30.742  27.633  1.00  0.00     0.163 HD
BRANCH   4   7
ATOM      7  C   UNL A   1      33.079  27.952  25.857  1.00  0.00     0.191 A 
ATOM      8  C   UNL A   1      32.157  27.055  24.063  1.00  0.00     0.126 A 
ATOM      9  C   UNL A   1      32.443  26.009  24.914  1.00  0.00     0.048 A 
ATOM     10  O   UNL A   1      32.520  28.235  24.641  1.00  0.00    -0.454 OA
ATOM     11  C   UNL A   1      33.026  26.585  26.066  1.00  0.00     0.056 A 
BRANCH   8  12
ATOM     12  C   UNL A   1      31.613  27.132  22.684  1.00  0.00     0.219 C 
BRANCH  12  13
ATOM     13  N   UNL A   1      30.389  27.923  22.617  1.00  0.00    -0.262 N 
ATOM     14  C   UNL A   1      28.843  30.900  21.504  1.00  0.00     0.069 C 
ATOM     15  C   UNL A   1      29.180  29.604  22.145  1.00  0.00     0.063 A 
ATOM     16  N   UNL A   1      30.427  29.137  22.030  1.00  0.00    -0.177 NA
ATOM     17  C   UNL A   1      28.360  28.736  22.915  1.00  0.00    -0.007 A 
ATOM     18  C   UNL A   1      29.176  27.653  23.207  1.00  0.00     0.039 A 
ATOM     19  C   UNL A   1      26.947  28.924  23.325  1.00  0.00     0.048 C 
ATOM     20  C   UNL A   1      28.896  26.413  23.976  1.00  0.00     0.066 C 
ENDBRANCH  12  13
ENDBRANCH   8  12
ENDBRANCH   4   7
ENDBRANCH   2   3
ENDBRANCH   1   2
BRANCH   1  21
ATOM     21  C   UNL A   1      32.701  32.789  27.297  1.00  0.00     0.118 C 
BRANCH  21  22
ATOM     22  N   UNL A   1      32.442  34.150  27.791  1.00  0.00    -0.352 N 
ATOM     23  C   UNL A   1      33.088  34.838  28.811  1.00  0.00     0.251 C 
ATOM     24  H   UNL A   1      31.715  34.637  27.340  1.00  0.00     0.163 HD
ATOM     25  O   UNL A   1      32.583  35.816  29.327  1.00  0.00    -0.269 OA
BRANCH  23  26
ATOM     26  C   UNL A   1      34.407  34.341  29.247  1.00  0.00     0.039 A 
ATOM     27  C   UNL A   1      34.608  33.733  30.490  1.00  0.00     0.014 A 
ATOM     28  C   UNL A   1      35.436  34.424  28.321  1.00  0.00     0.014 A 
ATOM     29  C   UNL A   1      35.836  33.119  30.744  1.00  0.00     0.010 A 
ATOM     30  C   UNL A   1      36.541  33.637  28.485  1.00  0.00     0.010 A 
ATOM     31  C   UNL A   1      36.792  33.055  29.722  1.00  0.00    -0.014 A 
BRANCH  31  32
ATOM     32  C   UNL A   1      38.055  32.337  29.876  1.00  0.00     0.031 A 
ATOM     33  C   UNL A   1      38.072  30.930  29.395  1.00  0.00     0.074 A 
ATOM     34  C   UNL A   1      39.206  32.982  30.171  1.00  0.00     0.049 A 
ATOM     35  N   UNL A   1      38.212  29.856  30.097  1.00  0.00    -0.248 NA
ATOM     36  C   UNL A   1      37.800  30.677  27.970  1.00  0.00     0.031 C 
ATOM     37  C   UNL A   1      39.420  34.428  30.349  1.00  0.00     0.029 A 
ATOM     38  N   UNL A   1      40.471  32.493  30.219  1.00  0.00    -0.354 N 
ATOM     39  C   UNL A   1      38.269  28.803  29.188  1.00  0.00     0.074 A 
ATOM     40  C   UNL A   1      37.827  29.343  27.925  1.00  0.00     0.031 C 
ATOM     41  C   UNL A   1      40.731  34.713  30.204  1.00  0.00     0.029 A 
ATOM     42  C   UNL A   1      41.461  33.464  30.143  1.00  0.00     0.049 A 
ATOM     43  H   UNL A   1      40.670  31.532  30.300  1.00  0.00     0.167 HD
ATOM     44  C   UNL A   1      38.905  27.633  29.479  1.00  0.00     0.031 A 
ATOM     45  C   UNL A   1      42.795  33.265  30.019  1.00  0.00     0.031 A 
ATOM     46  C   UNL A   1      39.239  27.537  30.877  1.00  0.00     0.049 A 
ATOM     47  C   UNL A   1      43.067  31.886  30.488  1.00  0.00     0.074 A 
ATOM     48  C   UNL A   1      38.521  27.551  32.055  1.00  0.00     0.029 A 
ATOM     49  N   UNL A   1      40.541  27.821  31.225  1.00  0.00    -0.354 N 
ATOM     50  N   UNL A   1      42.861  31.497  31.718  1.00  0.00    -0.248 NA
ATOM     51  C   UNL A   1      43.117  30.817  29.503  1.00  0.00     0.031 C 
ATOM     52  C   UNL A   1      39.318  28.317  32.959  1.00  0.00     0.029 A 
ATOM     53  C   UNL A   1      40.503  28.665  32.305  1.00  0.00     0.049 A 
ATOM     54  H   UNL A   1      41.350  27.480  30.780  1.00  0.00     0.167 HD
ATOM     55  C   UNL A   1      42.324  30.222  31.607  1.00  0.00     0.074 A 
ATOM     56  C   UNL A   1      42.616  29.815  30.233  1.00  0.00     0.031 C 
ATOM     57  C   UNL A   1      41.455  29.733  32.542  1.00  0.00     0.031 A 
BRANCH  44  58
ATOM     58  C   UNL A   1      39.577  26.757  28.448  1.00  0.00    -0.014 A 
ATOM     59  C   UNL A   1      39.370  25.363  28.494  1.00  0.00     0.010 A 
ATOM     60  C   UNL A   1      40.616  27.223  27.616  1.00  0.00     0.010 A 
ATOM     61  C   UNL A   1      40.206  24.480  27.796  1.00  0.00     0.020 A 
ATOM     62  C   UNL A   1      41.425  26.355  26.882  1.00  0.00     0.020 A 
ATOM     63  C   UNL A   1      41.239  24.986  27.007  1.00  0.00     0.054 A 
BRANCH  63  64
ATOM     64  S   UNL A   1      42.390  23.838  26.209  1.00  0.00     0.124 S 
ATOM     65  O   UNL A   1      43.407  23.669  27.242  1.00  0.00    -0.237 OA
ATOM     66  O   UNL A   1      41.544  22.676  25.955  1.00  0.00    -0.237 OA
ATOM     67  O   UNL A   1      42.822  24.563  25.016  1.00  0.00    -0.744 OA
ENDBRANCH  63  64
ENDBRANCH  44  58
BRANCH  45  68
ATOM     68  C   UNL A   1      43.753  34.092  29.251  1.00  0.00    -0.014 A 
ATOM     69  C   UNL A   1      45.058  34.332  29.712  1.00  0.00     0.010 A 
ATOM     70  C   UNL A   1      43.452  34.449  27.918  1.00  0.00     0.010 A 
ATOM     71  C   UNL A   1      46.037  34.869  28.858  1.00  0.00     0.020 A 
ATOM     72  C   UNL A   1      44.420  34.987  27.062  1.00  0.00     0.020 A 
ATOM     73  C   UNL A   1      45.716  35.178  27.532  1.00  0.00     0.054 A 
BRANCH  73  74
ATOM     74  S   UNL A   1      47.025  35.728  26.396  1.00  0.00     0.124 S 
ATOM     75  O   UNL A   1      47.000  34.690  25.369  1.00  0.00    -0.237 OA
ATOM     76  O   UNL A   1      46.549  37.043  25.976  1.00  0.00    -0.237 OA
ATOM     77  O   UNL A   1      48.224  35.744  27.232  1.00  0.00    -0.744 OA
ENDBRANCH  73  74
ENDBRANCH  45  68
BRANCH  57  78
ATOM     78  C   UNL A   1      41.286  30.505  33.837  1.00  0.00    -0.014 A 
ATOM     79  C   UNL A   1      42.017  30.228  35.010  1.00  0.00     0.010 A 
ATOM     80  C   UNL A   1      40.476  31.653  33.815  1.00  0.00     0.010 A 
ATOM     81  C   UNL A   1      41.917  31.060  36.137  1.00  0.00     0.020 A 
ATOM     82  C   UNL A   1      40.384  32.496  34.927  1.00  0.00     0.020 A 
ATOM     83  C   UNL A   1      41.098  32.192  36.086  1.00  0.00     0.054 A 
BRANCH  83  84
ATOM     84  S   UNL A   1      41.006  33.292  37.528  1.00  0.00     0.124 S 
ATOM     85  O   UNL A   1      42.121  34.209  37.301  1.00  0.00    -0.237 OA
ATOM     86  O   UNL A   1      39.674  33.880  37.407  1.00  0.00    -0.237 OA
ATOM     87  O   UNL A   1      41.173  32.389  38.666  1.00  0.00    -0.744 OA
ENDBRANCH  83  84
ENDBRANCH  57  78
ENDBRANCH  31  32
ENDBRANCH  23  26
ENDBRANCH  21  22
ENDBRANCH   1  21
TORSDOF 15
ENDMDL
