MODEL 1
REMARK VINA RESULT:     -12.2      0.000      0.000
REMARK SMILES CC(C)c1nc(N2C[C@H](C)OC(C)(C)C2)sc1C(=O)NCCCNC(=O)c1ccc(-c2c3nc(c(-c4ccc(S(=O)(=O)[O-])cc4)c4ccc([nH]4)c(-c4ccc(S(=O)(=O)[O-])cc4)c4nc(c(-c5ccc(S(=O)(=O)[O-])cc5)c5ccc2[nH]5)C=C4)C=C3)cc1
REMARK SMILES IDX 23 1 22 2 21 3 20 4 18 5 19 6 17 8 4 9 5 10 6 11 16 12 2 13
REMARK SMILES IDX 1 14 3 15 7 16 8 17 15 18 9 19 12 20 11 21 10 22 13 23 14 24
REMARK SMILES IDX 24 25 25 26 26 28 27 29 28 30 86 31 29 32 85 33 30 34 31 35
REMARK SMILES IDX 32 36 79 37 33 38 84 39 78 40 80 41 34 42 83 43 77 44 76 45
REMARK SMILES IDX 35 47 65 48 46 49 64 50 47 51 50 52 63 53 81 54 48 55 49 56
REMARK SMILES IDX 62 58 82 59 51 60 36 61 37 62 45 63 38 64 44 65 39 66 40 67
REMARK SMILES IDX 41 68 42 69 43 70 66 71 67 72 75 73 68 74 74 75 69 76 70 77
REMARK SMILES IDX 71 78 72 79 73 80 52 81 53 82 61 83 54 84 60 85 55 86 56 87
REMARK SMILES IDX 57 88 58 89 59 90
REMARK H PARENT 20 7 24 27 80 46 50 57
REMARK Flexibility Score: inf
ROOT
ATOM      1  C   UNL A   1      38.963  23.759  26.853  1.00  0.00     0.118 C 
ENDROOT
BRANCH   1   2
ATOM      2  C   UNL A   1      37.765  23.834  25.926  1.00  0.00     0.042 C 
BRANCH   2   3
ATOM      3  C   UNL A   1      37.187  22.461  25.596  1.00  0.00     0.118 C 
BRANCH   3   4
ATOM      4  N   UNL A   1      36.151  22.087  26.519  1.00  0.00    -0.351 N 
ATOM      5  C   UNL A   1      34.789  22.198  26.549  1.00  0.00     0.263 C 
ATOM      6  O   UNL A   1      34.324  21.628  27.549  1.00  0.00    -0.268 OA
ATOM      7  H   UNL A   1      36.508  21.643  27.322  1.00  0.00     0.163 HD
BRANCH   5   8
ATOM      8  C   UNL A   1      33.932  22.859  25.564  1.00  0.00     0.117 A 
ATOM      9  C   UNL A   1      33.153  22.567  24.439  1.00  0.00     0.069 A 
ATOM     10  N   UNL A   1      32.471  23.662  23.898  1.00  0.00    -0.224 NA
ATOM     11  C   UNL A   1      32.851  24.789  24.438  1.00  0.00     0.186 A 
ATOM     12  S   UNL A   1      33.880  24.591  25.783  1.00  0.00    -0.091 S 
BRANCH   9  13
ATOM     13  C   UNL A   1      32.933  21.286  23.680  1.00  0.00     0.034 C 
ATOM     14  C   UNL A   1      32.385  20.172  24.574  1.00  0.00     0.014 C 
ATOM     15  C   UNL A   1      32.015  21.450  22.459  1.00  0.00     0.014 C 
ENDBRANCH   9  13
BRANCH  11  16
ATOM     16  N   UNL A   1      32.447  26.009  24.016  1.00  0.00    -0.343 N 
ATOM     17  C   UNL A   1      31.189  26.202  23.302  1.00  0.00     0.150 C 
ATOM     18  C   UNL A   1      33.094  27.220  24.505  1.00  0.00     0.153 C 
ATOM     19  C   UNL A   1      30.242  27.058  24.164  1.00  0.00     0.135 C 
ATOM     20  C   UNL A   1      32.099  28.155  25.242  1.00  0.00     0.081 C 
ATOM     21  O   UNL A   1      30.859  28.312  24.512  1.00  0.00    -0.369 OA
ATOM     22  C   UNL A   1      28.956  27.367  23.409  1.00  0.00     0.040 C 
ATOM     23  C   UNL A   1      31.826  27.677  26.676  1.00  0.00     0.044 C 
ATOM     24  C   UNL A   1      32.712  29.563  25.305  1.00  0.00     0.044 C 
ENDBRANCH  11  16
ENDBRANCH   5   8
ENDBRANCH   3   4
ENDBRANCH   2   3
ENDBRANCH   1   2
BRANCH   1  25
ATOM     25  N   UNL A   1      40.200  24.053  26.137  1.00  0.00    -0.352 N 
ATOM     26  C   UNL A   1      41.013  25.155  26.207  1.00  0.00     0.251 C 
ATOM     27  H   UNL A   1      40.496  23.354  25.510  1.00  0.00     0.163 HD
ATOM     28  O   UNL A   1      41.892  25.309  25.360  1.00  0.00    -0.269 OA
BRANCH  26  29
ATOM     29  C   UNL A   1      40.819  26.156  27.275  1.00  0.00     0.039 A 
ATOM     30  C   UNL A   1      39.942  25.866  28.323  1.00  0.00     0.014 A 
ATOM     31  C   UNL A   1      41.495  27.379  27.244  1.00  0.00     0.014 A 
ATOM     32  C   UNL A   1      39.788  26.780  29.366  1.00  0.00     0.010 A 
ATOM     33  C   UNL A   1      41.421  28.238  28.332  1.00  0.00     0.010 A 
ATOM     34  C   UNL A   1      40.554  27.957  29.396  1.00  0.00    -0.014 A 
BRANCH  34  35
ATOM     35  C   UNL A   1      40.450  28.921  30.517  1.00  0.00     0.031 A 
ATOM     36  C   UNL A   1      41.350  28.778  31.715  1.00  0.00     0.074 A 
ATOM     37  C   UNL A   1      39.505  29.882  30.481  1.00  0.00     0.049 A 
ATOM     38  N   UNL A   1      41.369  29.477  32.819  1.00  0.00    -0.248 NA
ATOM     39  C   UNL A   1      42.338  27.685  31.682  1.00  0.00     0.031 C 
ATOM     40  C   UNL A   1      38.549  30.092  29.392  1.00  0.00     0.029 A 
ATOM     41  N   UNL A   1      39.192  30.862  31.388  1.00  0.00    -0.354 N 
ATOM     42  C   UNL A   1      42.353  28.900  33.615  1.00  0.00     0.074 A 
ATOM     43  C   UNL A   1      42.865  27.757  32.894  1.00  0.00     0.031 C 
ATOM     44  C   UNL A   1      37.783  31.158  29.676  1.00  0.00     0.029 A 
ATOM     45  C   UNL A   1      38.158  31.675  30.988  1.00  0.00     0.049 A 
ATOM     46  H   UNL A   1      39.663  30.974  32.246  1.00  0.00     0.167 HD
ATOM     47  C   UNL A   1      42.806  29.302  34.825  1.00  0.00     0.031 A 
ATOM     48  C   UNL A   1      37.574  32.717  31.609  1.00  0.00     0.031 A 
ATOM     49  C   UNL A   1      42.298  30.449  35.528  1.00  0.00     0.049 A 
ATOM     50  C   UNL A   1      38.085  33.134  32.962  1.00  0.00     0.074 A 
ATOM     51  C   UNL A   1      42.723  30.975  36.735  1.00  0.00     0.029 A 
ATOM     52  N   UNL A   1      41.254  31.248  35.087  1.00  0.00    -0.354 N 
ATOM     53  N   UNL A   1      39.060  32.614  33.669  1.00  0.00    -0.248 NA
ATOM     54  C   UNL A   1      37.426  34.284  33.593  1.00  0.00     0.031 C 
ATOM     55  C   UNL A   1      41.896  32.056  37.052  1.00  0.00     0.029 A 
ATOM     56  C   UNL A   1      41.001  32.247  36.010  1.00  0.00     0.049 A 
ATOM     57  H   UNL A   1      40.764  31.123  34.241  1.00  0.00     0.167 HD
ATOM     58  C   UNL A   1      39.151  33.394  34.817  1.00  0.00     0.074 A 
ATOM     59  C   UNL A   1      38.143  34.429  34.698  1.00  0.00     0.031 C 
ATOM     60  C   UNL A   1      39.993  33.269  35.872  1.00  0.00     0.031 A 
BRANCH  47  61
ATOM     61  C   UNL A   1      43.903  28.491  35.465  1.00  0.00    -0.014 A 
ATOM     62  C   UNL A   1      45.259  28.787  35.232  1.00  0.00     0.010 A 
ATOM     63  C   UNL A   1      43.576  27.442  36.344  1.00  0.00     0.010 A 
ATOM     64  C   UNL A   1      46.265  28.024  35.832  1.00  0.00     0.020 A 
ATOM     65  C   UNL A   1      44.579  26.697  36.971  1.00  0.00     0.020 A 
ATOM     66  C   UNL A   1      45.918  26.983  36.699  1.00  0.00     0.054 A 
BRANCH  66  67
ATOM     67  S   UNL A   1      47.246  26.031  37.484  1.00  0.00     0.124 S 
ATOM     68  O   UNL A   1      46.953  24.674  37.031  1.00  0.00    -0.237 OA
ATOM     69  O   UNL A   1      48.449  26.635  36.918  1.00  0.00    -0.237 OA
ATOM     70  O   UNL A   1      47.046  26.267  38.912  1.00  0.00    -0.744 OA
ENDBRANCH  66  67
ENDBRANCH  47  61
BRANCH  48  71
ATOM     71  C   UNL A   1      36.456  33.447  30.951  1.00  0.00    -0.014 A 
ATOM     72  C   UNL A   1      35.266  33.712  31.652  1.00  0.00     0.010 A 
ATOM     73  C   UNL A   1      36.579  33.896  29.624  1.00  0.00     0.010 A 
ATOM     74  C   UNL A   1      34.213  34.391  31.031  1.00  0.00     0.020 A 
ATOM     75  C   UNL A   1      35.541  34.603  29.010  1.00  0.00     0.020 A 
ATOM     76  C   UNL A   1      34.359  34.835  29.715  1.00  0.00     0.054 A 
BRANCH  76  77
ATOM     77  S   UNL A   1      32.996  35.753  28.946  1.00  0.00     0.124 S 
ATOM     78  O   UNL A   1      33.707  36.796  28.214  1.00  0.00    -0.237 OA
ATOM     79  O   UNL A   1      32.351  34.731  28.127  1.00  0.00    -0.237 OA
ATOM     80  O   UNL A   1      32.207  36.214  30.087  1.00  0.00    -0.744 OA
ENDBRANCH  76  77
ENDBRANCH  48  71
BRANCH  60  81
ATOM     81  C   UNL A   1      39.890  34.296  36.968  1.00  0.00    -0.014 A 
ATOM     82  C   UNL A   1      40.493  35.561  36.844  1.00  0.00     0.010 A 
ATOM     83  C   UNL A   1      39.128  34.008  38.115  1.00  0.00     0.010 A 
ATOM     84  C   UNL A   1      40.360  36.507  37.864  1.00  0.00     0.020 A 
ATOM     85  C   UNL A   1      38.967  34.963  39.122  1.00  0.00     0.020 A 
ATOM     86  C   UNL A   1      39.597  36.203  38.995  1.00  0.00     0.054 A 
BRANCH  86  87
ATOM     87  S   UNL A   1      39.403  37.465  40.282  1.00  0.00     0.124 S 
ATOM     88  O   UNL A   1      40.790  37.820  40.569  1.00  0.00    -0.237 OA
ATOM     89  O   UNL A   1      38.618  38.494  39.604  1.00  0.00    -0.237 OA
ATOM     90  O   UNL A   1      38.704  36.763  41.356  1.00  0.00    -0.744 OA
ENDBRANCH  86  87
ENDBRANCH  60  81
ENDBRANCH  34  35
ENDBRANCH  26  29
ENDBRANCH   1  25
TORSDOF 15
ENDMDL
MODEL 2
REMARK VINA RESULT:     -12.2      4.446     10.402
REMARK SMILES CC(C)c1nc(N2C[C@H](C)OC(C)(C)C2)sc1C(=O)NCCCNC(=O)c1ccc(-c2c3nc(c(-c4ccc(S(=O)(=O)[O-])cc4)c4ccc([nH]4)c(-c4ccc(S(=O)(=O)[O-])cc4)c4nc(c(-c5ccc(S(=O)(=O)[O-])cc5)c5ccc2[nH]5)C=C4)C=C3)cc1
REMARK SMILES IDX 23 1 22 2 21 3 20 4 18 5 19 6 17 8 4 9 5 10 6 11 16 12 2 13
REMARK SMILES IDX 1 14 3 15 7 16 8 17 15 18 9 19 12 20 11 21 10 22 13 23 14 24
REMARK SMILES IDX 24 25 25 26 26 28 27 29 28 30 86 31 29 32 85 33 30 34 31 35
REMARK SMILES IDX 32 36 79 37 33 38 84 39 78 40 80 41 34 42 83 43 77 44 76 45
REMARK SMILES IDX 35 47 65 48 46 49 64 50 47 51 50 52 63 53 81 54 48 55 49 56
REMARK SMILES IDX 62 58 82 59 51 60 36 61 37 62 45 63 38 64 44 65 39 66 40 67
REMARK SMILES IDX 41 68 42 69 43 70 66 71 67 72 75 73 68 74 74 75 69 76 70 77
REMARK SMILES IDX 71 78 72 79 73 80 52 81 53 82 61 83 54 84 60 85 55 86 56 87
REMARK SMILES IDX 57 88 58 89 59 90
REMARK H PARENT 20 7 24 27 80 46 50 57
REMARK Flexibility Score: inf
ROOT
ATOM      1  C   UNL A   1      33.606  28.376  27.277  1.00  0.00     0.118 C 
ENDROOT
BRANCH   1   2
ATOM      2  C   UNL A   1      32.365  27.898  26.547  1.00  0.00     0.042 C 
BRANCH   2   3
ATOM      3  C   UNL A   1      31.704  28.998  25.722  1.00  0.00     0.118 C 
BRANCH   3   4
ATOM      4  N   UNL A   1      32.299  29.114  24.420  1.00  0.00    -0.351 N 
ATOM      5  C   UNL A   1      32.523  28.263  23.373  1.00  0.00     0.263 C 
ATOM      6  O   UNL A   1      33.004  28.874  22.406  1.00  0.00    -0.268 OA
ATOM      7  H   UNL A   1      32.624  30.025  24.237  1.00  0.00     0.163 HD
BRANCH   5   8
ATOM      8  C   UNL A   1      32.237  26.829  23.321  1.00  0.00     0.117 A 
ATOM      9  C   UNL A   1      31.167  25.935  23.442  1.00  0.00     0.069 A 
ATOM     10  N   UNL A   1      31.500  24.593  23.232  1.00  0.00    -0.224 NA
ATOM     11  C   UNL A   1      32.791  24.416  23.152  1.00  0.00     0.186 A 
ATOM     12  S   UNL A   1      33.679  25.870  23.097  1.00  0.00    -0.091 S 
BRANCH   9  13
ATOM     13  C   UNL A   1      29.719  26.149  23.788  1.00  0.00     0.034 C 
ATOM     14  C   UNL A   1      29.450  25.968  25.283  1.00  0.00     0.014 C 
ATOM     15  C   UNL A   1      29.179  27.516  23.341  1.00  0.00     0.014 C 
ENDBRANCH   9  13
BRANCH  11  16
ATOM     16  N   UNL A   1      33.391  23.206  23.076  1.00  0.00    -0.343 N 
ATOM     17  C   UNL A   1      34.843  23.062  23.046  1.00  0.00     0.150 C 
ATOM     18  C   UNL A   1      32.635  21.982  23.313  1.00  0.00     0.153 C 
ATOM     19  C   UNL A   1      35.307  22.333  24.322  1.00  0.00     0.135 C 
ATOM     20  C   UNL A   1      33.202  21.170  24.508  1.00  0.00     0.081 C 
ATOM     21  O   UNL A   1      34.646  21.061  24.452  1.00  0.00    -0.369 OA
ATOM     22  C   UNL A   1      36.807  22.075  24.279  1.00  0.00     0.040 C 
ATOM     23  C   UNL A   1      32.755  21.754  25.856  1.00  0.00     0.044 C 
ATOM     24  C   UNL A   1      32.684  19.727  24.404  1.00  0.00     0.044 C 
ENDBRANCH  11  16
ENDBRANCH   5   8
ENDBRANCH   3   4
ENDBRANCH   2   3
ENDBRANCH   1   2
BRANCH   1  25
ATOM     25  N   UNL A   1      33.540  29.810  27.540  1.00  0.00    -0.352 N 
ATOM     26  C   UNL A   1      34.463  30.638  28.124  1.00  0.00     0.251 C 
ATOM     27  H   UNL A   1      32.706  30.249  27.255  1.00  0.00     0.163 HD
ATOM     28  O   UNL A   1      34.129  31.774  28.456  1.00  0.00    -0.269 OA
BRANCH  26  29
ATOM     29  C   UNL A   1      35.839  30.160  28.372  1.00  0.00     0.039 A 
ATOM     30  C   UNL A   1      36.770  30.208  27.333  1.00  0.00     0.014 A 
ATOM     31  C   UNL A   1      36.211  29.662  29.624  1.00  0.00     0.014 A 
ATOM     32  C   UNL A   1      38.087  29.809  27.566  1.00  0.00     0.010 A 
ATOM     33  C   UNL A   1      37.542  29.366  29.883  1.00  0.00     0.010 A 
ATOM     34  C   UNL A   1      38.490  29.419  28.853  1.00  0.00    -0.014 A 
BRANCH  34  35
ATOM     35  C   UNL A   1      39.894  29.039  29.143  1.00  0.00     0.031 A 
ATOM     36  C   UNL A   1      40.829  30.043  29.762  1.00  0.00     0.074 A 
ATOM     37  C   UNL A   1      40.338  27.816  28.792  1.00  0.00     0.049 A 
ATOM     38  N   UNL A   1      42.103  29.926  30.032  1.00  0.00    -0.248 NA
ATOM     39  C   UNL A   1      40.267  31.365  30.092  1.00  0.00     0.031 C 
ATOM     40  C   UNL A   1      39.534  26.774  28.148  1.00  0.00     0.029 A 
ATOM     41  N   UNL A   1      41.576  27.242  28.925  1.00  0.00    -0.354 N 
ATOM     42  C   UNL A   1      42.496  31.157  30.544  1.00  0.00     0.074 A 
ATOM     43  C   UNL A   1      41.343  32.027  30.490  1.00  0.00     0.031 C 
ATOM     44  C   UNL A   1      40.289  25.676  27.978  1.00  0.00     0.029 A 
ATOM     45  C   UNL A   1      41.641  25.952  28.452  1.00  0.00     0.049 A 
ATOM     46  H   UNL A   1      42.347  27.709  29.321  1.00  0.00     0.167 HD
ATOM     47  C   UNL A   1      43.702  31.522  31.038  1.00  0.00     0.031 A 
ATOM     48  C   UNL A   1      42.674  25.090  28.402  1.00  0.00     0.031 A 
ATOM     49  C   UNL A   1      44.840  30.644  31.099  1.00  0.00     0.049 A 
ATOM     50  C   UNL A   1      44.009  25.526  28.943  1.00  0.00     0.074 A 
ATOM     51  C   UNL A   1      46.092  30.896  31.629  1.00  0.00     0.029 A 
ATOM     52  N   UNL A   1      44.863  29.345  30.615  1.00  0.00    -0.354 N 
ATOM     53  N   UNL A   1      44.343  26.674  29.482  1.00  0.00    -0.248 NA
ATOM     54  C   UNL A   1      45.100  24.546  28.879  1.00  0.00     0.031 C 
ATOM     55  C   UNL A   1      46.891  29.770  31.411  1.00  0.00     0.029 A 
ATOM     56  C   UNL A   1      46.116  28.791  30.808  1.00  0.00     0.049 A 
ATOM     57  H   UNL A   1      44.099  28.885  30.194  1.00  0.00     0.167 HD
ATOM     58  C   UNL A   1      45.678  26.543  29.850  1.00  0.00     0.074 A 
ATOM     59  C   UNL A   1      46.081  25.200  29.486  1.00  0.00     0.031 C 
ATOM     60  C   UNL A   1      46.496  27.451  30.439  1.00  0.00     0.031 A 
BRANCH  47  61
ATOM     61  C   UNL A   1      43.851  32.933  31.547  1.00  0.00    -0.014 A 
ATOM     62  C   UNL A   1      43.537  33.264  32.880  1.00  0.00     0.010 A 
ATOM     63  C   UNL A   1      44.348  33.935  30.695  1.00  0.00     0.010 A 
ATOM     64  C   UNL A   1      43.678  34.577  33.336  1.00  0.00     0.020 A 
ATOM     65  C   UNL A   1      44.522  35.243  31.157  1.00  0.00     0.020 A 
ATOM     66  C   UNL A   1      44.171  35.559  32.472  1.00  0.00     0.054 A 
BRANCH  66  67
ATOM     67  S   UNL A   1      44.371  37.247  33.102  1.00  0.00     0.124 S 
ATOM     68  O   UNL A   1      43.111  37.457  33.809  1.00  0.00    -0.237 OA
ATOM     69  O   UNL A   1      45.555  37.132  33.951  1.00  0.00    -0.237 OA
ATOM     70  O   UNL A   1      44.549  38.050  31.895  1.00  0.00    -0.744 OA
ENDBRANCH  66  67
ENDBRANCH  47  61
BRANCH  48  71
ATOM     71  C   UNL A   1      42.481  23.726  27.836  1.00  0.00    -0.014 A 
ATOM     72  C   UNL A   1      42.794  23.461  26.491  1.00  0.00     0.010 A 
ATOM     73  C   UNL A   1      41.998  22.681  28.643  1.00  0.00     0.010 A 
ATOM     74  C   UNL A   1      42.605  22.182  25.958  1.00  0.00     0.020 A 
ATOM     75  C   UNL A   1      41.838  21.393  28.123  1.00  0.00     0.020 A 
ATOM     76  C   UNL A   1      42.131  21.155  26.779  1.00  0.00     0.054 A 
BRANCH  76  77
ATOM     77  S   UNL A   1      41.938  19.493  26.077  1.00  0.00     0.124 S 
ATOM     78  O   UNL A   1      42.432  18.647  27.158  1.00  0.00    -0.237 OA
ATOM     79  O   UNL A   1      40.501  19.425  25.823  1.00  0.00    -0.237 OA
ATOM     80  O   UNL A   1      42.773  19.530  24.878  1.00  0.00    -0.744 OA
ENDBRANCH  76  77
ENDBRANCH  48  71
BRANCH  60  81
ATOM     81  C   UNL A   1      47.899  27.012  30.763  1.00  0.00    -0.014 A 
ATOM     82  C   UNL A   1      48.956  27.208  29.856  1.00  0.00     0.010 A 
ATOM     83  C   UNL A   1      48.171  26.445  32.022  1.00  0.00     0.010 A 
ATOM     84  C   UNL A   1      50.254  26.816  30.191  1.00  0.00     0.020 A 
ATOM     85  C   UNL A   1      49.474  26.082  32.373  1.00  0.00     0.020 A 
ATOM     86  C   UNL A   1      50.505  26.257  31.448  1.00  0.00     0.054 A 
BRANCH  86  87
ATOM     87  S   UNL A   1      52.206  25.799  31.875  1.00  0.00     0.124 S 
ATOM     88  O   UNL A   1      52.925  26.123  30.647  1.00  0.00    -0.237 OA
ATOM     89  O   UNL A   1      52.493  26.664  33.018  1.00  0.00    -0.237 OA
ATOM     90  O   UNL A   1      52.116  24.375  32.187  1.00  0.00    -0.744 OA
ENDBRANCH  86  87
ENDBRANCH  60  81
ENDBRANCH  34  35
ENDBRANCH  26  29
ENDBRANCH   1  25
TORSDOF 15
ENDMDL
MODEL 3
REMARK VINA RESULT:     -12.2      4.430     10.378
REMARK SMILES CC(C)c1nc(N2C[C@H](C)OC(C)(C)C2)sc1C(=O)NCCCNC(=O)c1ccc(-c2c3nc(c(-c4ccc(S(=O)(=O)[O-])cc4)c4ccc([nH]4)c(-c4ccc(S(=O)(=O)[O-])cc4)c4nc(c(-c5ccc(S(=O)(=O)[O-])cc5)c5ccc2[nH]5)C=C4)C=C3)cc1
REMARK SMILES IDX 23 1 22 2 21 3 20 4 18 5 19 6 17 8 4 9 5 10 6 11 16 12 2 13
REMARK SMILES IDX 1 14 3 15 7 16 8 17 15 18 9 19 12 20 11 21 10 22 13 23 14 24
REMARK SMILES IDX 24 25 25 26 26 28 27 29 28 30 86 31 29 32 85 33 30 34 31 35
REMARK SMILES IDX 32 36 79 37 33 38 84 39 78 40 80 41 34 42 83 43 77 44 76 45
REMARK SMILES IDX 35 47 65 48 46 49 64 50 47 51 50 52 63 53 81 54 48 55 49 56
REMARK SMILES IDX 62 58 82 59 51 60 36 61 37 62 45 63 38 64 44 65 39 66 40 67
REMARK SMILES IDX 41 68 42 69 43 70 66 71 67 72 75 73 68 74 74 75 69 76 70 77
REMARK SMILES IDX 71 78 72 79 73 80 52 81 53 82 61 83 54 84 60 85 55 86 56 87
REMARK SMILES IDX 57 88 58 89 59 90
REMARK H PARENT 20 7 24 27 80 46 50 57
REMARK Flexibility Score: inf
ROOT
ATOM      1  C   UNL A   1      33.660  28.390  27.212  1.00  0.00     0.118 C 
ENDROOT
BRANCH   1   2
ATOM      2  C   UNL A   1      33.378  28.154  25.741  1.00  0.00     0.042 C 
BRANCH   2   3
ATOM      3  C   UNL A   1      31.954  28.532  25.345  1.00  0.00     0.118 C 
BRANCH   3   4
ATOM      4  N   UNL A   1      31.008  27.525  25.742  1.00  0.00    -0.351 N 
ATOM      5  C   UNL A   1      30.993  26.158  25.758  1.00  0.00     0.263 C 
ATOM      6  O   UNL A   1      29.953  25.737  26.289  1.00  0.00    -0.268 OA
ATOM      7  H   UNL A   1      30.171  27.913  26.084  1.00  0.00     0.163 HD
BRANCH   5   8
ATOM      8  C   UNL A   1      32.032  25.255  25.263  1.00  0.00     0.117 A 
ATOM      9  C   UNL A   1      32.669  24.889  24.072  1.00  0.00     0.069 A 
ATOM     10  N   UNL A   1      33.692  23.947  24.220  1.00  0.00    -0.224 NA
ATOM     11  C   UNL A   1      33.725  23.448  25.427  1.00  0.00     0.186 A 
ATOM     12  S   UNL A   1      32.683  24.235  26.522  1.00  0.00    -0.091 S 
BRANCH   9  13
ATOM     13  C   UNL A   1      32.434  25.302  22.644  1.00  0.00     0.034 C 
ATOM     14  C   UNL A   1      33.110  26.633  22.310  1.00  0.00     0.014 C 
ATOM     15  C   UNL A   1      32.873  24.243  21.622  1.00  0.00     0.014 C 
ENDBRANCH   9  13
BRANCH  11  16
ATOM     16  N   UNL A   1      34.532  22.431  25.807  1.00  0.00    -0.343 N 
ATOM     17  C   UNL A   1      34.104  21.037  25.738  1.00  0.00     0.150 C 
ATOM     18  C   UNL A   1      35.956  22.650  26.026  1.00  0.00     0.153 C 
ATOM     19  C   UNL A   1      34.971  20.292  24.705  1.00  0.00     0.135 C 
ATOM     20  C   UNL A   1      36.831  21.779  25.085  1.00  0.00     0.081 C 
ATOM     21  O   UNL A   1      36.368  20.408  25.031  1.00  0.00    -0.369 OA
ATOM     22  C   UNL A   1      34.622  18.810  24.678  1.00  0.00     0.040 C 
ATOM     23  C   UNL A   1      36.916  22.378  23.674  1.00  0.00     0.044 C 
ATOM     24  C   UNL A   1      38.249  21.705  25.671  1.00  0.00     0.044 C 
ENDBRANCH  11  16
ENDBRANCH   5   8
ENDBRANCH   3   4
ENDBRANCH   2   3
ENDBRANCH   1   2
BRANCH   1  25
ATOM     25  N   UNL A   1      33.584  29.809  27.541  1.00  0.00    -0.352 N 
ATOM     26  C   UNL A   1      34.495  30.612  28.175  1.00  0.00     0.251 C 
ATOM     27  H   UNL A   1      32.752  30.258  27.267  1.00  0.00     0.163 HD
ATOM     28  O   UNL A   1      34.151  31.731  28.556  1.00  0.00    -0.269 OA
BRANCH  26  29
ATOM     29  C   UNL A   1      35.870  30.130  28.419  1.00  0.00     0.039 A 
ATOM     30  C   UNL A   1      36.810  30.218  27.390  1.00  0.00     0.014 A 
ATOM     31  C   UNL A   1      36.232  29.589  29.655  1.00  0.00     0.014 A 
ATOM     32  C   UNL A   1      38.126  29.815  27.621  1.00  0.00     0.010 A 
ATOM     33  C   UNL A   1      37.562  29.287  29.915  1.00  0.00     0.010 A 
ATOM     34  C   UNL A   1      38.519  29.379  28.897  1.00  0.00    -0.014 A 
BRANCH  34  35
ATOM     35  C   UNL A   1      39.921  28.993  29.185  1.00  0.00     0.031 A 
ATOM     36  C   UNL A   1      40.859  29.990  29.812  1.00  0.00     0.074 A 
ATOM     37  C   UNL A   1      40.362  27.771  28.827  1.00  0.00     0.049 A 
ATOM     38  N   UNL A   1      42.132  29.867  30.082  1.00  0.00    -0.248 NA
ATOM     39  C   UNL A   1      40.301  31.312  30.150  1.00  0.00     0.031 C 
ATOM     40  C   UNL A   1      39.555  26.736  28.175  1.00  0.00     0.029 A 
ATOM     41  N   UNL A   1      41.598  27.192  28.957  1.00  0.00    -0.354 N 
ATOM     42  C   UNL A   1      42.529  31.093  30.603  1.00  0.00     0.074 A 
ATOM     43  C   UNL A   1      41.378  31.967  30.553  1.00  0.00     0.031 C 
ATOM     44  C   UNL A   1      40.307  25.637  27.998  1.00  0.00     0.029 A 
ATOM     45  C   UNL A   1      41.659  25.905  28.476  1.00  0.00     0.049 A 
ATOM     46  H   UNL A   1      42.370  27.654  29.357  1.00  0.00     0.167 HD
ATOM     47  C   UNL A   1      43.735  31.452  31.100  1.00  0.00     0.031 A 
ATOM     48  C   UNL A   1      42.689  25.040  28.421  1.00  0.00     0.031 A 
ATOM     49  C   UNL A   1      44.870  30.570  31.157  1.00  0.00     0.049 A 
ATOM     50  C   UNL A   1      44.026  25.468  28.966  1.00  0.00     0.074 A 
ATOM     51  C   UNL A   1      46.123  30.814  31.690  1.00  0.00     0.029 A 
ATOM     52  N   UNL A   1      44.890  29.274  30.664  1.00  0.00    -0.354 N 
ATOM     53  N   UNL A   1      44.363  26.612  29.513  1.00  0.00    -0.248 NA
ATOM     54  C   UNL A   1      45.114  24.485  28.897  1.00  0.00     0.031 C 
ATOM     55  C   UNL A   1      46.918  29.687  31.464  1.00  0.00     0.029 A 
ATOM     56  C   UNL A   1      46.141  28.715  30.854  1.00  0.00     0.049 A 
ATOM     57  H   UNL A   1      44.125  28.819  30.239  1.00  0.00     0.167 HD
ATOM     58  C   UNL A   1      45.697  26.474  29.882  1.00  0.00     0.074 A 
ATOM     59  C   UNL A   1      46.096  25.132  29.509  1.00  0.00     0.031 C 
ATOM     60  C   UNL A   1      46.517  27.375  30.477  1.00  0.00     0.031 A 
BRANCH  47  61
ATOM     61  C   UNL A   1      43.888  32.858  31.618  1.00  0.00    -0.014 A 
ATOM     62  C   UNL A   1      43.460  33.209  32.913  1.00  0.00     0.010 A 
ATOM     63  C   UNL A   1      44.504  33.837  30.817  1.00  0.00     0.010 A 
ATOM     64  C   UNL A   1      43.607  34.518  33.379  1.00  0.00     0.020 A 
ATOM     65  C   UNL A   1      44.682  35.140  31.291  1.00  0.00     0.020 A 
ATOM     66  C   UNL A   1      44.218  35.476  32.565  1.00  0.00     0.054 A 
BRANCH  66  67
ATOM     67  S   UNL A   1      44.421  37.158  33.208  1.00  0.00     0.124 S 
ATOM     68  O   UNL A   1      45.823  37.158  33.617  1.00  0.00    -0.237 OA
ATOM     69  O   UNL A   1      44.108  37.985  32.045  1.00  0.00    -0.237 OA
ATOM     70  O   UNL A   1      43.454  37.233  34.300  1.00  0.00    -0.744 OA
ENDBRANCH  66  67
ENDBRANCH  47  61
BRANCH  48  71
ATOM     71  C   UNL A   1      42.493  23.681  27.846  1.00  0.00    -0.014 A 
ATOM     72  C   UNL A   1      42.798  23.425  26.498  1.00  0.00     0.010 A 
ATOM     73  C   UNL A   1      42.013  22.629  28.648  1.00  0.00     0.010 A 
ATOM     74  C   UNL A   1      42.606  22.150  25.956  1.00  0.00     0.020 A 
ATOM     75  C   UNL A   1      41.850  21.345  28.120  1.00  0.00     0.020 A 
ATOM     76  C   UNL A   1      42.136  21.118  26.772  1.00  0.00     0.054 A 
BRANCH  76  77
ATOM     77  S   UNL A   1      41.938  19.461  26.058  1.00  0.00     0.124 S 
ATOM     78  O   UNL A   1      40.493  19.381  25.873  1.00  0.00    -0.237 OA
ATOM     79  O   UNL A   1      42.731  19.550  24.834  1.00  0.00    -0.237 OA
ATOM     80  O   UNL A   1      42.489  18.578  27.085  1.00  0.00    -0.744 OA
ENDBRANCH  76  77
ENDBRANCH  48  71
BRANCH  60  81
ATOM     81  C   UNL A   1      47.919  26.930  30.799  1.00  0.00    -0.014 A 
ATOM     82  C   UNL A   1      48.973  27.110  29.886  1.00  0.00     0.010 A 
ATOM     83  C   UNL A   1      48.192  26.374  32.063  1.00  0.00     0.010 A 
ATOM     84  C   UNL A   1      50.270  26.712  30.220  1.00  0.00     0.020 A 
ATOM     85  C   UNL A   1      49.494  26.005  32.412  1.00  0.00     0.020 A 
ATOM     86  C   UNL A   1      50.522  26.163  31.481  1.00  0.00     0.054 A 
BRANCH  86  87
ATOM     87  S   UNL A   1      52.222  25.698  31.906  1.00  0.00     0.124 S 
ATOM     88  O   UNL A   1      52.079  24.279  32.219  1.00  0.00    -0.237 OA
ATOM     89  O   UNL A   1      52.952  26.000  30.676  1.00  0.00    -0.237 OA
ATOM     90  O   UNL A   1      52.545  26.558  33.042  1.00  0.00    -0.744 OA
ENDBRANCH  86  87
ENDBRANCH  60  81
ENDBRANCH  34  35
ENDBRANCH  26  29
ENDBRANCH   1  25
TORSDOF 15
ENDMDL
