MODEL 1
REMARK VINA RESULT:     -10.5      0.000      0.000
REMARK SMILES CN1CC(=O)N(CC(=O)N2CCCC[C@H]2C(=O)NCCCNC(=O)c2ccc(-c3c4nc(c(-c5ccc(S(=O)(=O)[O-])cc5)c5ccc([nH]5)c(-c5ccc(S(=O)(=O)[O-])cc5)c5nc(c(-c6ccc(S(=O)(=O)[O-])cc6)c6ccc3[nH]6)C=C5)C=C4)cc2)C1=O
REMARK SMILES IDX 20 1 19 2 18 3 16 4 17 5 15 7 10 8 11 9 12 10 14 11 13 12
REMARK SMILES IDX 8 13 9 14 7 15 6 16 1 17 2 18 3 19 85 20 4 21 86 22 5 23
REMARK SMILES IDX 21 24 22 25 23 26 24 28 25 29 26 30 84 31 27 32 83 33 28 34
REMARK SMILES IDX 29 35 30 36 77 37 31 38 82 39 76 40 78 41 32 42 81 43 75 44
REMARK SMILES IDX 74 45 33 47 63 48 44 49 62 50 45 51 48 52 61 53 79 54 46 55
REMARK SMILES IDX 47 56 60 58 80 59 49 60 34 61 35 62 43 63 36 64 42 65 37 66
REMARK SMILES IDX 38 67 39 68 40 69 41 70 64 71 65 72 73 73 66 74 72 75 67 76
REMARK SMILES IDX 68 77 69 78 70 79 71 80 50 81 51 82 59 83 52 84 58 85 53 86
REMARK SMILES IDX 54 87 55 88 56 89 57 90
REMARK H PARENT 18 6 22 27 78 46 48 57
REMARK Flexibility Score: inf
ROOT
ATOM      1  C   UNL A   1      33.682  27.753  25.744  1.00  0.00     0.042 C 
ENDROOT
BRANCH   1   2
ATOM      2  C   UNL A   1      33.418  26.270  25.514  1.00  0.00     0.117 C 
BRANCH   2   3
ATOM      3  N   UNL A   1      34.636  25.507  25.397  1.00  0.00    -0.354 N 
ATOM      4  C   UNL A   1      34.842  24.179  25.629  1.00  0.00     0.242 C 
ATOM      5  O   UNL A   1      35.974  23.754  25.383  1.00  0.00    -0.273 OA
ATOM      6  H   UNL A   1      35.429  26.014  25.110  1.00  0.00     0.163 HD
BRANCH   4   7
ATOM      7  C   UNL A   1      33.672  23.252  26.098  1.00  0.00     0.174 C 
ATOM      8  N   UNL A   1      32.772  22.859  24.990  1.00  0.00    -0.329 N 
ATOM      9  C   UNL A   1      33.420  22.038  23.956  1.00  0.00     0.120 C 
ATOM     10  C   UNL A   1      33.975  20.746  24.545  1.00  0.00     0.022 C 
ATOM     11  C   UNL A   1      34.250  21.975  26.747  1.00  0.00     0.035 C 
ATOM     12  C   UNL A   1      34.883  21.003  25.742  1.00  0.00     0.004 C 
BRANCH   8  13
ATOM     13  C   UNL A   1      31.400  23.061  24.878  1.00  0.00     0.243 C 
ATOM     14  O   UNL A   1      30.644  22.662  25.780  1.00  0.00    -0.273 OA
BRANCH  13  15
ATOM     15  C   UNL A   1      30.711  23.547  23.590  1.00  0.00     0.230 C 
BRANCH  15  16
ATOM     16  N   UNL A   1      30.858  24.904  23.116  1.00  0.00    -0.253 N 
ATOM     17  C   UNL A   1      30.073  28.428  23.194  1.00  0.00     0.149 C 
ATOM     18  N   UNL A   1      30.660  27.116  23.045  1.00  0.00    -0.318 N 
ATOM     19  C   UNL A   1      31.764  26.849  22.158  1.00  0.00     0.221 C 
ATOM     20  C   UNL A   1      30.240  25.976  23.697  1.00  0.00     0.327 C 
ATOM     21  C   UNL A   1      31.864  25.336  22.301  1.00  0.00     0.250 C 
ATOM     22  O   UNL A   1      29.456  25.941  24.626  1.00  0.00    -0.248 OA
ATOM     23  O   UNL A   1      32.711  24.637  21.765  1.00  0.00    -0.272 OA
ENDBRANCH  15  16
ENDBRANCH  13  15
ENDBRANCH   8  13
ENDBRANCH   4   7
ENDBRANCH   2   3
ENDBRANCH   1   2
BRANCH   1  24
ATOM     24  C   UNL A   1      33.537  28.164  27.204  1.00  0.00     0.118 C 
BRANCH  24  25
ATOM     25  N   UNL A   1      33.404  29.609  27.355  1.00  0.00    -0.352 N 
ATOM     26  C   UNL A   1      34.260  30.540  27.887  1.00  0.00     0.251 C 
ATOM     27  H   UNL A   1      32.556  29.979  27.018  1.00  0.00     0.163 HD
ATOM     28  O   UNL A   1      33.848  31.681  28.093  1.00  0.00    -0.269 OA
BRANCH  26  29
ATOM     29  C   UNL A   1      35.658  30.193  28.221  1.00  0.00     0.039 A 
ATOM     30  C   UNL A   1      35.951  29.753  29.516  1.00  0.00     0.014 A 
ATOM     31  C   UNL A   1      36.688  30.344  27.291  1.00  0.00     0.014 A 
ATOM     32  C   UNL A   1      37.263  29.414  29.858  1.00  0.00     0.010 A 
ATOM     33  C   UNL A   1      37.979  29.927  27.607  1.00  0.00     0.010 A 
ATOM     34  C   UNL A   1      38.283  29.468  28.897  1.00  0.00    -0.014 A 
BRANCH  34  35
ATOM     35  C   UNL A   1      39.678  29.069  29.217  1.00  0.00     0.031 A 
ATOM     36  C   UNL A   1      40.619  30.061  29.851  1.00  0.00     0.074 A 
ATOM     37  C   UNL A   1      40.120  27.844  28.874  1.00  0.00     0.049 A 
ATOM     38  N   UNL A   1      41.896  29.938  30.108  1.00  0.00    -0.248 NA
ATOM     39  C   UNL A   1      40.057  31.374  30.214  1.00  0.00     0.031 C 
ATOM     40  C   UNL A   1      39.320  26.804  28.222  1.00  0.00     0.029 A 
ATOM     41  N   UNL A   1      41.358  27.268  29.017  1.00  0.00    -0.354 N 
ATOM     42  C   UNL A   1      42.296  31.162  30.632  1.00  0.00     0.074 A 
ATOM     43  C   UNL A   1      41.137  32.028  30.616  1.00  0.00     0.031 C 
ATOM     44  C   UNL A   1      40.080  25.711  28.045  1.00  0.00     0.029 A 
ATOM     45  C   UNL A   1      41.429  25.985  28.529  1.00  0.00     0.049 A 
ATOM     46  H   UNL A   1      42.123  27.731  29.429  1.00  0.00     0.167 HD
ATOM     47  C   UNL A   1      43.512  31.529  31.103  1.00  0.00     0.031 A 
ATOM     48  C   UNL A   1      42.465  25.126  28.470  1.00  0.00     0.031 A 
ATOM     49  C   UNL A   1      44.655  30.658  31.147  1.00  0.00     0.049 A 
ATOM     50  C   UNL A   1      43.803  25.550  29.010  1.00  0.00     0.074 A 
ATOM     51  C   UNL A   1      45.914  30.915  31.660  1.00  0.00     0.029 A 
ATOM     52  N   UNL A   1      44.676  29.357  30.666  1.00  0.00    -0.354 N 
ATOM     53  N   UNL A   1      44.148  26.697  29.545  1.00  0.00    -0.248 NA
ATOM     54  C   UNL A   1      44.887  24.561  28.949  1.00  0.00     0.031 C 
ATOM     55  C   UNL A   1      46.710  29.783  31.454  1.00  0.00     0.029 A 
ATOM     56  C   UNL A   1      45.931  28.804  30.856  1.00  0.00     0.049 A 
ATOM     57  H   UNL A   1      43.913  28.896  30.251  1.00  0.00     0.167 HD
ATOM     58  C   UNL A   1      45.484  26.559  29.904  1.00  0.00     0.074 A 
ATOM     59  C   UNL A   1      45.879  25.213  29.538  1.00  0.00     0.031 C 
ATOM     60  C   UNL A   1      46.308  27.464  30.485  1.00  0.00     0.031 A 
BRANCH  47  61
ATOM     61  C   UNL A   1      43.664  32.940  31.609  1.00  0.00    -0.014 A 
ATOM     62  C   UNL A   1      44.214  33.946  30.795  1.00  0.00     0.010 A 
ATOM     63  C   UNL A   1      43.225  33.270  32.904  1.00  0.00     0.010 A 
ATOM     64  C   UNL A   1      44.367  35.247  31.284  1.00  0.00     0.020 A 
ATOM     65  C   UNL A   1      43.350  34.576  33.386  1.00  0.00     0.020 A 
ATOM     66  C   UNL A   1      43.939  35.553  32.579  1.00  0.00     0.054 A 
BRANCH  66  67
ATOM     67  S   UNL A   1      44.136  37.250  33.183  1.00  0.00     0.124 S 
ATOM     68  O   UNL A   1      45.444  37.188  33.830  1.00  0.00    -0.237 OA
ATOM     69  O   UNL A   1      44.081  38.039  31.954  1.00  0.00    -0.237 OA
ATOM     70  O   UNL A   1      43.002  37.431  34.086  1.00  0.00    -0.744 OA
ENDBRANCH  66  67
ENDBRANCH  47  61
BRANCH  48  71
ATOM     71  C   UNL A   1      42.270  23.770  27.889  1.00  0.00    -0.014 A 
ATOM     72  C   UNL A   1      42.503  23.544  26.522  1.00  0.00     0.010 A 
ATOM     73  C   UNL A   1      41.873  22.695  28.703  1.00  0.00     0.010 A 
ATOM     74  C   UNL A   1      42.330  22.270  25.975  1.00  0.00     0.020 A 
ATOM     75  C   UNL A   1      41.723  21.414  28.166  1.00  0.00     0.020 A 
ATOM     76  C   UNL A   1      41.944  21.211  26.802  1.00  0.00     0.054 A 
BRANCH  76  77
ATOM     77  S   UNL A   1      41.789  19.551  26.088  1.00  0.00     0.124 S 
ATOM     78  O   UNL A   1      42.679  19.631  24.935  1.00  0.00    -0.237 OA
ATOM     79  O   UNL A   1      42.241  18.691  27.180  1.00  0.00    -0.237 OA
ATOM     80  O   UNL A   1      40.365  19.448  25.776  1.00  0.00    -0.744 OA
ENDBRANCH  76  77
ENDBRANCH  48  71
BRANCH  60  81
ATOM     81  C   UNL A   1      47.713  27.022  30.789  1.00  0.00    -0.014 A 
ATOM     82  C   UNL A   1      48.748  27.197  29.854  1.00  0.00     0.010 A 
ATOM     83  C   UNL A   1      48.010  26.472  32.049  1.00  0.00     0.010 A 
ATOM     84  C   UNL A   1      50.052  26.803  30.164  1.00  0.00     0.020 A 
ATOM     85  C   UNL A   1      49.316  26.100  32.371  1.00  0.00     0.020 A 
ATOM     86  C   UNL A   1      50.328  26.255  31.421  1.00  0.00     0.054 A 
BRANCH  86  87
ATOM     87  S   UNL A   1      52.035  25.792  31.817  1.00  0.00     0.124 S 
ATOM     88  O   UNL A   1      52.309  26.615  32.990  1.00  0.00    -0.237 OA
ATOM     89  O   UNL A   1      51.930  24.356  32.067  1.00  0.00    -0.237 OA
ATOM     90  O   UNL A   1      52.780  26.154  30.613  1.00  0.00    -0.744 OA
ENDBRANCH  86  87
ENDBRANCH  60  81
ENDBRANCH  34  35
ENDBRANCH  26  29
ENDBRANCH  24  25
ENDBRANCH   1  24
TORSDOF 16
ENDMDL
MODEL 2
REMARK VINA RESULT:     -10.5      2.474      8.969
REMARK SMILES CN1CC(=O)N(CC(=O)N2CCCC[C@H]2C(=O)NCCCNC(=O)c2ccc(-c3c4nc(c(-c5ccc(S(=O)(=O)[O-])cc5)c5ccc([nH]5)c(-c5ccc(S(=O)(=O)[O-])cc5)c5nc(c(-c6ccc(S(=O)(=O)[O-])cc6)c6ccc3[nH]6)C=C5)C=C4)cc2)C1=O
REMARK SMILES IDX 20 1 19 2 18 3 16 4 17 5 15 7 10 8 11 9 12 10 14 11 13 12
REMARK SMILES IDX 8 13 9 14 7 15 6 16 1 17 2 18 3 19 85 20 4 21 86 22 5 23
REMARK SMILES IDX 21 24 22 25 23 26 24 28 25 29 26 30 84 31 27 32 83 33 28 34
REMARK SMILES IDX 29 35 30 36 77 37 31 38 82 39 76 40 78 41 32 42 81 43 75 44
REMARK SMILES IDX 74 45 33 47 63 48 44 49 62 50 45 51 48 52 61 53 79 54 46 55
REMARK SMILES IDX 47 56 60 58 80 59 49 60 34 61 35 62 43 63 36 64 42 65 37 66
REMARK SMILES IDX 38 67 39 68 40 69 41 70 64 71 65 72 73 73 66 74 72 75 67 76
REMARK SMILES IDX 68 77 69 78 70 79 71 80 50 81 51 82 59 83 52 84 58 85 53 86
REMARK SMILES IDX 54 87 55 88 56 89 57 90
REMARK H PARENT 18 6 22 27 78 46 48 57
REMARK Flexibility Score: inf
ROOT
ATOM      1  C   UNL A   1      35.363  23.765  25.961  1.00  0.00     0.042 C 
ENDROOT
BRANCH   1   2
ATOM      2  C   UNL A   1      34.191  24.458  25.277  1.00  0.00     0.117 C 
BRANCH   2   3
ATOM      3  N   UNL A   1      33.190  24.901  26.217  1.00  0.00    -0.354 N 
ATOM      4  C   UNL A   1      32.641  26.140  26.365  1.00  0.00     0.242 C 
ATOM      5  O   UNL A   1      31.742  26.239  27.204  1.00  0.00    -0.273 OA
ATOM      6  H   UNL A   1      32.857  24.213  26.837  1.00  0.00     0.163 HD
BRANCH   4   7
ATOM      7  C   UNL A   1      33.083  27.331  25.452  1.00  0.00     0.174 C 
ATOM      8  N   UNL A   1      32.012  28.336  25.260  1.00  0.00    -0.329 N 
ATOM      9  C   UNL A   1      31.613  29.026  26.496  1.00  0.00     0.120 C 
ATOM     10  C   UNL A   1      32.792  29.762  27.123  1.00  0.00     0.022 C 
ATOM     11  C   UNL A   1      34.315  28.029  26.069  1.00  0.00     0.035 C 
ATOM     12  C   UNL A   1      33.997  28.849  27.326  1.00  0.00     0.004 C 
BRANCH   8  13
ATOM     13  C   UNL A   1      31.446  28.779  24.069  1.00  0.00     0.243 C 
ATOM     14  O   UNL A   1      30.628  29.714  24.089  1.00  0.00    -0.273 OA
BRANCH  13  15
ATOM     15  C   UNL A   1      31.583  28.034  22.729  1.00  0.00     0.230 C 
BRANCH  15  16
ATOM     16  N   UNL A   1      31.882  26.622  22.672  1.00  0.00    -0.253 N 
ATOM     17  C   UNL A   1      31.087  23.153  23.280  1.00  0.00     0.149 C 
ATOM     18  N   UNL A   1      31.581  24.424  22.805  1.00  0.00    -0.318 N 
ATOM     19  C   UNL A   1      32.772  24.552  22.004  1.00  0.00     0.221 C 
ATOM     20  C   UNL A   1      31.005  25.650  23.065  1.00  0.00     0.327 C 
ATOM     21  C   UNL A   1      32.878  26.069  21.921  1.00  0.00     0.250 C 
ATOM     22  O   UNL A   1      29.906  25.826  23.558  1.00  0.00    -0.248 OA
ATOM     23  O   UNL A   1      33.725  26.678  21.283  1.00  0.00    -0.272 OA
ENDBRANCH  15  16
ENDBRANCH  13  15
ENDBRANCH   8  13
ENDBRANCH   4   7
ENDBRANCH   2   3
ENDBRANCH   1   2
BRANCH   1  24
ATOM     24  C   UNL A   1      36.652  23.834  25.149  1.00  0.00     0.118 C 
BRANCH  24  25
ATOM     25  N   UNL A   1      37.611  22.814  25.558  1.00  0.00    -0.352 N 
ATOM     26  C   UNL A   1      38.808  22.920  26.220  1.00  0.00     0.251 C 
ATOM     27  H   UNL A   1      37.356  21.894  25.319  1.00  0.00     0.163 HD
ATOM     28  O   UNL A   1      39.547  21.939  26.278  1.00  0.00    -0.269 OA
BRANCH  26  29
ATOM     29  C   UNL A   1      39.224  24.191  26.853  1.00  0.00     0.039 A 
ATOM     30  C   UNL A   1      38.824  24.449  28.169  1.00  0.00     0.014 A 
ATOM     31  C   UNL A   1      39.958  25.149  26.151  1.00  0.00     0.014 A 
ATOM     32  C   UNL A   1      39.207  25.640  28.793  1.00  0.00     0.010 A 
ATOM     33  C   UNL A   1      40.408  26.295  26.801  1.00  0.00     0.010 A 
ATOM     34  C   UNL A   1      40.029  26.559  28.125  1.00  0.00    -0.014 A 
BRANCH  34  35
ATOM     35  C   UNL A   1      40.490  27.811  28.779  1.00  0.00     0.031 A 
ATOM     36  C   UNL A   1      41.871  27.884  29.378  1.00  0.00     0.074 A 
ATOM     37  C   UNL A   1      39.646  28.854  28.901  1.00  0.00     0.049 A 
ATOM     38  N   UNL A   1      42.416  28.844  30.080  1.00  0.00    -0.248 NA
ATOM     39  C   UNL A   1      42.742  26.711  29.188  1.00  0.00     0.031 C 
ATOM     40  C   UNL A   1      38.271  28.897  28.398  1.00  0.00     0.029 A 
ATOM     41  N   UNL A   1      39.819  30.078  29.497  1.00  0.00    -0.354 N 
ATOM     42  C   UNL A   1      43.676  28.381  30.440  1.00  0.00     0.074 A 
ATOM     43  C   UNL A   1      43.799  27.038  29.917  1.00  0.00     0.031 C 
ATOM     44  C   UNL A   1      37.735  30.094  28.685  1.00  0.00     0.029 A 
ATOM     45  C   UNL A   1      38.709  30.887  29.427  1.00  0.00     0.049 A 
ATOM     46  H   UNL A   1      40.658  30.351  29.933  1.00  0.00     0.167 HD
ATOM     47  C   UNL A   1      44.653  29.021  31.127  1.00  0.00     0.031 A 
ATOM     48  C   UNL A   1      38.495  32.125  29.913  1.00  0.00     0.031 A 
ATOM     49  C   UNL A   1      44.541  30.367  31.620  1.00  0.00     0.049 A 
ATOM     50  C   UNL A   1      39.598  32.821  30.662  1.00  0.00     0.074 A 
ATOM     51  C   UNL A   1      45.495  31.126  32.276  1.00  0.00     0.029 A 
ATOM     52  N   UNL A   1      43.409  31.159  31.506  1.00  0.00    -0.354 N 
ATOM     53  N   UNL A   1      40.799  32.382  30.951  1.00  0.00    -0.248 NA
ATOM     54  C   UNL A   1      39.318  34.181  31.140  1.00  0.00     0.031 C 
ATOM     55  C   UNL A   1      44.927  32.364  32.593  1.00  0.00     0.029 A 
ATOM     56  C   UNL A   1      43.635  32.393  32.092  1.00  0.00     0.049 A 
ATOM     57  H   UNL A   1      42.570  30.885  31.072  1.00  0.00     0.167 HD
ATOM     58  C   UNL A   1      41.428  33.423  31.627  1.00  0.00     0.074 A 
ATOM     59  C   UNL A   1      40.478  34.515  31.689  1.00  0.00     0.031 C 
ATOM     60  C   UNL A   1      42.679  33.469  32.147  1.00  0.00     0.031 A 
BRANCH  47  61
ATOM     61  C   UNL A   1      45.930  28.264  31.386  1.00  0.00    -0.014 A 
ATOM     62  C   UNL A   1      47.002  28.318  30.477  1.00  0.00     0.010 A 
ATOM     63  C   UNL A   1      46.071  27.513  32.567  1.00  0.00     0.010 A 
ATOM     64  C   UNL A   1      48.173  27.597  30.721  1.00  0.00     0.020 A 
ATOM     65  C   UNL A   1      47.252  26.813  32.828  1.00  0.00     0.020 A 
ATOM     66  C   UNL A   1      48.289  26.843  31.893  1.00  0.00     0.054 A 
BRANCH  66  67
ATOM     67  S   UNL A   1      49.825  25.928  32.191  1.00  0.00     0.124 S 
ATOM     68  O   UNL A   1      50.091  25.352  30.874  1.00  0.00    -0.237 OA
ATOM     69  O   UNL A   1      50.750  26.977  32.615  1.00  0.00    -0.237 OA
ATOM     70  O   UNL A   1      49.460  24.967  33.228  1.00  0.00    -0.744 OA
ENDBRANCH  66  67
ENDBRANCH  47  61
BRANCH  48  71
ATOM     71  C   UNL A   1      37.184  32.791  29.689  1.00  0.00    -0.014 A 
ATOM     72  C   UNL A   1      36.248  32.884  30.733  1.00  0.00     0.010 A 
ATOM     73  C   UNL A   1      36.874  33.355  28.439  1.00  0.00     0.010 A 
ATOM     74  C   UNL A   1      35.019  33.518  30.529  1.00  0.00     0.020 A 
ATOM     75  C   UNL A   1      35.657  34.012  28.237  1.00  0.00     0.020 A 
ATOM     76  C   UNL A   1      34.733  34.081  29.282  1.00  0.00     0.054 A 
BRANCH  76  77
ATOM     77  S   UNL A   1      33.161  34.957  29.055  1.00  0.00     0.124 S 
ATOM     78  O   UNL A   1      32.583  34.897  30.393  1.00  0.00    -0.237 OA
ATOM     79  O   UNL A   1      33.595  36.279  28.611  1.00  0.00    -0.237 OA
ATOM     80  O   UNL A   1      32.474  34.163  28.038  1.00  0.00    -0.744 OA
ENDBRANCH  76  77
ENDBRANCH  48  71
BRANCH  60  81
ATOM     81  C   UNL A   1      43.105  34.752  32.805  1.00  0.00    -0.014 A 
ATOM     82  C   UNL A   1      42.884  34.974  34.175  1.00  0.00     0.010 A 
ATOM     83  C   UNL A   1      43.783  35.726  32.050  1.00  0.00     0.010 A 
ATOM     84  C   UNL A   1      43.310  36.163  34.773  1.00  0.00     0.020 A 
ATOM     85  C   UNL A   1      44.232  36.904  32.650  1.00  0.00     0.020 A 
ATOM     86  C   UNL A   1      43.980  37.122  34.006  1.00  0.00     0.054 A 
BRANCH  86  87
ATOM     87  S   UNL A   1      44.562  38.636  34.815  1.00  0.00     0.124 S 
ATOM     88  O   UNL A   1      43.547  39.605  34.411  1.00  0.00    -0.237 OA
ATOM     89  O   UNL A   1      44.554  38.270  36.229  1.00  0.00    -0.237 OA
ATOM     90  O   UNL A   1      45.889  38.847  34.240  1.00  0.00    -0.744 OA
ENDBRANCH  86  87
ENDBRANCH  60  81
ENDBRANCH  34  35
ENDBRANCH  26  29
ENDBRANCH  24  25
ENDBRANCH   1  24
TORSDOF 16
ENDMDL
MODEL 3
REMARK VINA RESULT:     -10.4      4.545     10.214
REMARK SMILES CN1CC(=O)N(CC(=O)N2CCCC[C@H]2C(=O)NCCCNC(=O)c2ccc(-c3c4nc(c(-c5ccc(S(=O)(=O)[O-])cc5)c5ccc([nH]5)c(-c5ccc(S(=O)(=O)[O-])cc5)c5nc(c(-c6ccc(S(=O)(=O)[O-])cc6)c6ccc3[nH]6)C=C5)C=C4)cc2)C1=O
REMARK SMILES IDX 20 1 19 2 18 3 16 4 17 5 15 7 10 8 11 9 12 10 14 11 13 12
REMARK SMILES IDX 8 13 9 14 7 15 6 16 1 17 2 18 3 19 85 20 4 21 86 22 5 23
REMARK SMILES IDX 21 24 22 25 23 26 24 28 25 29 26 30 84 31 27 32 83 33 28 34
REMARK SMILES IDX 29 35 30 36 77 37 31 38 82 39 76 40 78 41 32 42 81 43 75 44
REMARK SMILES IDX 74 45 33 47 63 48 44 49 62 50 45 51 48 52 61 53 79 54 46 55
REMARK SMILES IDX 47 56 60 58 80 59 49 60 34 61 35 62 43 63 36 64 42 65 37 66
REMARK SMILES IDX 38 67 39 68 40 69 41 70 64 71 65 72 73 73 66 74 72 75 67 76
REMARK SMILES IDX 68 77 69 78 70 79 71 80 50 81 51 82 59 83 52 84 58 85 53 86
REMARK SMILES IDX 54 87 55 88 56 89 57 90
REMARK H PARENT 18 6 22 27 78 46 48 57
REMARK Flexibility Score: inf
ROOT
ATOM      1  C   UNL A   1      39.105  22.099  26.264  1.00  0.00     0.042 C 
ENDROOT
BRANCH   1   2
ATOM      2  C   UNL A   1      37.774  22.233  25.533  1.00  0.00     0.117 C 
BRANCH   2   3
ATOM      3  N   UNL A   1      36.649  21.918  26.379  1.00  0.00    -0.354 N 
ATOM      4  C   UNL A   1      35.317  21.990  26.097  1.00  0.00     0.242 C 
ATOM      5  O   UNL A   1      34.553  21.590  26.979  1.00  0.00    -0.273 OA
ATOM      6  H   UNL A   1      36.874  21.609  27.286  1.00  0.00     0.163 HD
BRANCH   4   7
ATOM      7  C   UNL A   1      34.816  22.473  24.696  1.00  0.00     0.174 C 
ATOM      8  N   UNL A   1      33.370  22.233  24.489  1.00  0.00    -0.329 N 
ATOM      9  C   UNL A   1      32.501  22.988  25.404  1.00  0.00     0.120 C 
ATOM     10  C   UNL A   1      32.718  24.490  25.257  1.00  0.00     0.022 C 
ATOM     11  C   UNL A   1      35.097  23.984  24.537  1.00  0.00     0.035 C 
ATOM     12  C   UNL A   1      34.187  24.875  25.392  1.00  0.00     0.004 C 
BRANCH   8  13
ATOM     13  C   UNL A   1      32.751  21.499  23.482  1.00  0.00     0.243 C 
ATOM     14  O   UNL A   1      32.587  22.009  22.361  1.00  0.00    -0.273 OA
BRANCH  13  15
ATOM     15  C   UNL A   1      32.033  20.157  23.721  1.00  0.00     0.230 C 
BRANCH  15  16
ATOM     16  N   UNL A   1      32.753  18.906  23.747  1.00  0.00    -0.253 N 
ATOM     17  C   UNL A   1      34.520  16.262  25.458  1.00  0.00     0.149 C 
ATOM     18  N   UNL A   1      33.750  17.095  24.564  1.00  0.00    -0.318 N 
ATOM     19  C   UNL A   1      33.517  16.756  23.183  1.00  0.00     0.221 C 
ATOM     20  C   UNL A   1      33.170  18.301  24.900  1.00  0.00     0.327 C 
ATOM     21  C   UNL A   1      32.796  18.013  22.715  1.00  0.00     0.250 C 
ATOM     22  O   UNL A   1      33.054  18.740  26.029  1.00  0.00    -0.248 OA
ATOM     23  O   UNL A   1      32.338  18.182  21.595  1.00  0.00    -0.272 OA
ENDBRANCH  15  16
ENDBRANCH  13  15
ENDBRANCH   8  13
ENDBRANCH   4   7
ENDBRANCH   2   3
ENDBRANCH   1   2
BRANCH   1  24
ATOM     24  C   UNL A   1      39.648  23.434  26.762  1.00  0.00     0.118 C 
BRANCH  24  25
ATOM     25  N   UNL A   1      40.832  23.854  26.020  1.00  0.00    -0.352 N 
ATOM     26  C   UNL A   1      41.608  24.980  26.130  1.00  0.00     0.251 C 
ATOM     27  H   UNL A   1      41.122  23.223  25.323  1.00  0.00     0.163 HD
ATOM     28  O   UNL A   1      42.441  25.217  25.257  1.00  0.00    -0.269 OA
BRANCH  26  29
ATOM     29  C   UNL A   1      41.454  25.909  27.269  1.00  0.00     0.039 A 
ATOM     30  C   UNL A   1      42.318  27.005  27.366  1.00  0.00     0.014 A 
ATOM     31  C   UNL A   1      40.503  25.687  28.268  1.00  0.00     0.014 A 
ATOM     32  C   UNL A   1      42.192  27.902  28.430  1.00  0.00     0.010 A 
ATOM     33  C   UNL A   1      40.324  26.625  29.281  1.00  0.00     0.010 A 
ATOM     34  C   UNL A   1      41.173  27.737  29.380  1.00  0.00    -0.014 A 
BRANCH  34  35
ATOM     35  C   UNL A   1      40.984  28.700  30.495  1.00  0.00     0.031 A 
ATOM     36  C   UNL A   1      41.836  28.595  31.734  1.00  0.00     0.074 A 
ATOM     37  C   UNL A   1      40.002  29.620  30.428  1.00  0.00     0.049 A 
ATOM     38  N   UNL A   1      41.753  29.270  32.852  1.00  0.00    -0.248 NA
ATOM     39  C   UNL A   1      42.902  27.578  31.725  1.00  0.00     0.031 C 
ATOM     40  C   UNL A   1      39.083  29.801  29.302  1.00  0.00     0.029 A 
ATOM     41  N   UNL A   1      39.604  30.570  31.335  1.00  0.00    -0.354 N 
ATOM     42  C   UNL A   1      42.730  28.740  33.687  1.00  0.00     0.074 A 
ATOM     43  C   UNL A   1      43.364  27.660  32.965  1.00  0.00     0.031 C 
ATOM     44  C   UNL A   1      38.247  30.816  29.574  1.00  0.00     0.029 A 
ATOM     45  C   UNL A   1      38.540  31.329  30.908  1.00  0.00     0.049 A 
ATOM     46  H   UNL A   1      40.039  30.696  32.209  1.00  0.00     0.167 HD
ATOM     47  C   UNL A   1      43.082  29.129  34.936  1.00  0.00     0.031 A 
ATOM     48  C   UNL A   1      37.869  32.322  31.523  1.00  0.00     0.031 A 
ATOM     49  C   UNL A   1      42.472  30.223  35.642  1.00  0.00     0.049 A 
ATOM     50  C   UNL A   1      38.285  32.744  32.904  1.00  0.00     0.074 A 
ATOM     51  C   UNL A   1      42.798  30.734  36.887  1.00  0.00     0.029 A 
ATOM     52  N   UNL A   1      41.415  30.981  35.163  1.00  0.00    -0.354 N 
ATOM     53  N   UNL A   1      39.243  32.261  33.659  1.00  0.00    -0.248 NA
ATOM     54  C   UNL A   1      37.538  33.853  33.512  1.00  0.00     0.031 C 
ATOM     55  C   UNL A   1      41.911  31.776  37.177  1.00  0.00     0.029 A 
ATOM     56  C   UNL A   1      41.065  31.946  36.092  1.00  0.00     0.049 A 
ATOM     57  H   UNL A   1      40.978  30.852  34.290  1.00  0.00     0.167 HD
ATOM     58  C   UNL A   1      39.227  33.022  34.822  1.00  0.00     0.074 A 
ATOM     59  C   UNL A   1      38.175  34.006  34.665  1.00  0.00     0.031 C 
ATOM     60  C   UNL A   1      40.014  32.915  35.921  1.00  0.00     0.031 A 
BRANCH  47  61
ATOM     61  C   UNL A   1      44.183  28.359  35.618  1.00  0.00    -0.014 A 
ATOM     62  C   UNL A   1      43.892  27.269  36.459  1.00  0.00     0.010 A 
ATOM     63  C   UNL A   1      45.526  28.710  35.394  1.00  0.00     0.010 A 
ATOM     64  C   UNL A   1      44.922  26.575  37.100  1.00  0.00     0.020 A 
ATOM     65  C   UNL A   1      46.561  28.001  36.011  1.00  0.00     0.020 A 
ATOM     66  C   UNL A   1      46.250  26.949  36.877  1.00  0.00     0.054 A 
BRANCH  66  67
ATOM     67  S   UNL A   1      47.567  26.024  37.710  1.00  0.00     0.124 S 
ATOM     68  O   UNL A   1      48.312  27.092  38.372  1.00  0.00    -0.237 OA
ATOM     69  O   UNL A   1      46.824  25.134  38.599  1.00  0.00    -0.237 OA
ATOM     70  O   UNL A   1      48.270  25.360  36.615  1.00  0.00    -0.744 OA
ENDBRANCH  66  67
ENDBRANCH  47  61
BRANCH  48  71
ATOM     71  C   UNL A   1      36.740  32.994  30.825  1.00  0.00    -0.014 A 
ATOM     72  C   UNL A   1      35.423  32.833  31.288  1.00  0.00     0.010 A 
ATOM     73  C   UNL A   1      36.978  33.816  29.710  1.00  0.00     0.010 A 
ATOM     74  C   UNL A   1      34.361  33.471  30.641  1.00  0.00     0.020 A 
ATOM     75  C   UNL A   1      35.923  34.477  29.075  1.00  0.00     0.020 A 
ATOM     76  C   UNL A   1      34.619  34.293  29.539  1.00  0.00     0.054 A 
BRANCH  76  77
ATOM     77  S   UNL A   1      33.237  35.165  28.753  1.00  0.00     0.124 S 
ATOM     78  O   UNL A   1      32.621  34.108  27.959  1.00  0.00    -0.237 OA
ATOM     79  O   UNL A   1      32.461  35.631  29.901  1.00  0.00    -0.237 OA
ATOM     80  O   UNL A   1      33.895  36.223  27.989  1.00  0.00    -0.744 OA
ENDBRANCH  76  77
ENDBRANCH  48  71
BRANCH  60  81
ATOM     81  C   UNL A   1      39.788  33.906  37.029  1.00  0.00    -0.014 A 
ATOM     82  C   UNL A   1      38.916  33.619  38.094  1.00  0.00     0.010 A 
ATOM     83  C   UNL A   1      40.499  35.120  37.030  1.00  0.00     0.010 A 
ATOM     84  C   UNL A   1      38.739  34.542  39.128  1.00  0.00     0.020 A 
ATOM     85  C   UNL A   1      40.341  36.034  38.074  1.00  0.00     0.020 A 
ATOM     86  C   UNL A   1      39.451  35.745  39.110  1.00  0.00     0.054 A 
BRANCH  86  87
ATOM     87  S   UNL A   1      39.237  36.908  40.485  1.00  0.00     0.124 S 
ATOM     88  O   UNL A   1      38.493  37.992  39.852  1.00  0.00    -0.237 OA
ATOM     89  O   UNL A   1      38.489  36.118  41.461  1.00  0.00    -0.237 OA
ATOM     90  O   UNL A   1      40.606  37.236  40.877  1.00  0.00    -0.744 OA
ENDBRANCH  86  87
ENDBRANCH  60  81
ENDBRANCH  34  35
ENDBRANCH  26  29
ENDBRANCH  24  25
ENDBRANCH   1  24
TORSDOF 16
ENDMDL
