MODEL 1
REMARK VINA RESULT:     -12.2      0.000      0.000
REMARK SMILES C[C@@H]1Cc2ccccc2N1S(=O)(=O)c1c[nH]c(C(=O)NCCCNC(=O)c2ccc(-c3c4nc(c(-c5ccc(S(=O)(=O)[O-])cc5)c5ccc([nH]5)c(-c5ccc(S(=O)(=O)[O-])cc5)c5nc(c(-c6ccc(S(=O)(=O)[O-])cc6)c6ccc3[nH]6)C=C5)C=C4)cc2)c1
REMARK SMILES IDX 22 1 21 2 20 3 18 4 19 5 17 7 14 8 15 9 87 10 16 11 11 13
REMARK SMILES IDX 12 14 13 15 10 16 1 17 2 18 3 19 4 20 9 21 5 22 8 23 6 24
REMARK SMILES IDX 7 25 23 26 24 27 25 28 26 30 27 31 28 32 86 33 29 34 85 35
REMARK SMILES IDX 30 36 31 37 32 38 79 39 33 40 84 41 78 42 80 43 34 44 83 45
REMARK SMILES IDX 77 46 76 47 35 49 65 50 46 51 64 52 47 53 50 54 63 55 81 56
REMARK SMILES IDX 48 57 49 58 62 60 82 61 51 62 36 63 37 64 45 65 38 66 44 67
REMARK SMILES IDX 39 68 40 69 41 70 42 71 43 72 66 73 67 74 75 75 68 76 74 77
REMARK SMILES IDX 69 78 70 79 71 80 72 81 73 82 52 83 53 84 61 85 54 86 60 87
REMARK SMILES IDX 55 88 56 89 57 90 58 91 59 92
REMARK H PARENT 20 6 16 12 24 29 80 48 50 59
REMARK Flexibility Score: inf
ROOT
ATOM      1  C   UNL A   1      35.195  33.940  28.347  1.00  0.00     0.042 C 
ENDROOT
BRANCH   1   2
ATOM      2  C   UNL A   1      33.820  33.563  28.896  1.00  0.00     0.118 C 
BRANCH   2   3
ATOM      3  N   UNL A   1      33.118  34.718  29.426  1.00  0.00    -0.351 N 
ATOM      4  C   UNL A   1      33.204  35.367  30.624  1.00  0.00     0.267 C 
ATOM      5  O   UNL A   1      32.583  36.429  30.720  1.00  0.00    -0.268 OA
ATOM      6  H   UNL A   1      32.458  35.105  28.806  1.00  0.00     0.163 HD
BRANCH   4   7
ATOM      7  C   UNL A   1      33.987  34.869  31.732  1.00  0.00     0.105 A 
ATOM      8  C   UNL A   1      35.497  34.133  33.266  1.00  0.00     0.106 A 
ATOM      9  C   UNL A   1      34.249  33.692  33.651  1.00  0.00     0.105 A 
ATOM     10  C   UNL A   1      35.333  34.890  32.072  1.00  0.00     0.055 A 
ATOM     11  N   UNL A   1      33.356  34.123  32.716  1.00  0.00    -0.356 N 
ATOM     12  H   UNL A   1      32.391  33.931  32.737  1.00  0.00     0.166 HD
BRANCH   8  13
ATOM     13  S   UNL A   1      36.995  33.748  34.043  1.00  0.00     0.266 S 
ATOM     14  O   UNL A   1      36.602  32.913  35.155  1.00  0.00    -0.201 OA
ATOM     15  O   UNL A   1      37.592  35.055  34.251  1.00  0.00    -0.201 OA
BRANCH  13  16
ATOM     16  N   UNL A   1      38.012  32.850  33.009  1.00  0.00    -0.263 N 
ATOM     17  C   UNL A   1      36.840  30.745  32.338  1.00  0.00     0.032 C 
ATOM     18  C   UNL A   1      37.241  32.145  31.901  1.00  0.00     0.101 C 
ATOM     19  C   UNL A   1      38.176  32.123  30.670  1.00  0.00     0.063 C 
ATOM     20  C   UNL A   1      39.267  33.066  31.059  1.00  0.00    -0.021 A 
ATOM     21  C   UNL A   1      39.140  33.478  32.381  1.00  0.00     0.055 A 
ATOM     22  C   UNL A   1      40.353  33.448  30.277  1.00  0.00     0.006 A 
ATOM     23  C   UNL A   1      40.156  34.216  32.966  1.00  0.00     0.027 A 
ATOM     24  C   UNL A   1      41.343  34.244  30.851  1.00  0.00     0.000 A 
ATOM     25  C   UNL A   1      41.249  34.622  32.193  1.00  0.00     0.002 A 
ENDBRANCH  13  16
ENDBRANCH   8  13
ENDBRANCH   4   7
ENDBRANCH   2   3
ENDBRANCH   1   2
BRANCH   1  26
ATOM     26  C   UNL A   1      36.069  32.724  28.025  1.00  0.00     0.118 C 
BRANCH  26  27
ATOM     27  N   UNL A   1      35.336  31.488  27.812  1.00  0.00    -0.352 N 
ATOM     28  C   UNL A   1      35.625  30.154  27.945  1.00  0.00     0.251 C 
ATOM     29  H   UNL A   1      34.416  31.645  27.498  1.00  0.00     0.163 HD
ATOM     30  O   UNL A   1      34.696  29.374  27.721  1.00  0.00    -0.269 OA
BRANCH  28  31
ATOM     31  C   UNL A   1      36.967  29.599  28.277  1.00  0.00     0.039 A 
ATOM     32  C   UNL A   1      37.251  28.807  29.389  1.00  0.00     0.014 A 
ATOM     33  C   UNL A   1      38.017  29.908  27.388  1.00  0.00     0.014 A 
ATOM     34  C   UNL A   1      38.559  28.411  29.659  1.00  0.00     0.010 A 
ATOM     35  C   UNL A   1      39.325  29.492  27.637  1.00  0.00     0.010 A 
ATOM     36  C   UNL A   1      39.599  28.759  28.792  1.00  0.00    -0.014 A 
BRANCH  36  37
ATOM     37  C   UNL A   1      40.958  28.267  29.121  1.00  0.00     0.031 A 
ATOM     38  C   UNL A   1      41.310  26.996  28.323  1.00  0.00     0.074 A 
ATOM     39  C   UNL A   1      41.585  28.904  30.156  1.00  0.00     0.049 A 
ATOM     40  N   UNL A   1      41.864  25.883  28.709  1.00  0.00    -0.248 NA
ATOM     41  C   UNL A   1      40.841  26.908  26.914  1.00  0.00     0.031 C 
ATOM     42  C   UNL A   1      41.089  30.129  30.827  1.00  0.00     0.029 A 
ATOM     43  N   UNL A   1      42.726  28.651  30.882  1.00  0.00    -0.354 N 
ATOM     44  C   UNL A   1      41.904  25.010  27.591  1.00  0.00     0.074 A 
ATOM     45  C   UNL A   1      41.185  25.671  26.540  1.00  0.00     0.031 C 
ATOM     46  C   UNL A   1      41.841  30.432  31.906  1.00  0.00     0.029 A 
ATOM     47  C   UNL A   1      42.880  29.437  32.054  1.00  0.00     0.049 A 
ATOM     48  H   UNL A   1      43.387  27.974  30.609  1.00  0.00     0.167 HD
ATOM     49  C   UNL A   1      42.599  23.831  27.562  1.00  0.00     0.031 A 
ATOM     50  C   UNL A   1      43.693  29.216  33.135  1.00  0.00     0.031 A 
ATOM     51  C   UNL A   1      43.303  23.622  28.782  1.00  0.00     0.049 A 
ATOM     52  C   UNL A   1      44.307  27.903  32.867  1.00  0.00     0.074 A 
ATOM     53  C   UNL A   1      43.128  22.938  29.960  1.00  0.00     0.029 A 
ATOM     54  N   UNL A   1      44.518  24.249  28.854  1.00  0.00    -0.354 N 
ATOM     55  N   UNL A   1      45.219  27.638  31.984  1.00  0.00    -0.248 NA
ATOM     56  C   UNL A   1      43.629  26.751  33.463  1.00  0.00     0.031 C 
ATOM     57  C   UNL A   1      44.166  23.392  30.818  1.00  0.00     0.029 A 
ATOM     58  C   UNL A   1      44.755  24.481  30.182  1.00  0.00     0.049 A 
ATOM     59  H   UNL A   1      45.106  24.486  28.100  1.00  0.00     0.167 HD
ATOM     60  C   UNL A   1      45.047  26.296  31.716  1.00  0.00     0.074 A 
ATOM     61  C   UNL A   1      44.145  25.776  32.728  1.00  0.00     0.031 C 
ATOM     62  C   UNL A   1      45.358  25.742  30.519  1.00  0.00     0.031 A 
BRANCH  49  63
ATOM     63  C   UNL A   1      42.973  22.879  26.432  1.00  0.00    -0.014 A 
ATOM     64  C   UNL A   1      43.958  23.118  25.465  1.00  0.00     0.010 A 
ATOM     65  C   UNL A   1      42.524  21.533  26.559  1.00  0.00     0.010 A 
ATOM     66  C   UNL A   1      44.515  22.054  24.717  1.00  0.00     0.020 A 
ATOM     67  C   UNL A   1      43.096  20.471  25.854  1.00  0.00     0.020 A 
ATOM     68  C   UNL A   1      44.102  20.734  24.939  1.00  0.00     0.054 A 
BRANCH  68  69
ATOM     69  S   UNL A   1      44.948  19.351  24.115  1.00  0.00     0.124 S 
ATOM     70  O   UNL A   1      46.353  19.674  24.348  1.00  0.00    -0.237 OA
ATOM     71  O   UNL A   1      44.442  18.184  24.829  1.00  0.00    -0.237 OA
ATOM     72  O   UNL A   1      44.513  19.458  22.723  1.00  0.00    -0.744 OA
ENDBRANCH  68  69
ENDBRANCH  49  63
BRANCH  50  73
ATOM     73  C   UNL A   1      43.748  29.753  34.548  1.00  0.00    -0.014 A 
ATOM     74  C   UNL A   1      42.574  29.680  35.348  1.00  0.00     0.010 A 
ATOM     75  C   UNL A   1      44.841  30.402  35.137  1.00  0.00     0.010 A 
ATOM     76  C   UNL A   1      42.410  30.407  36.530  1.00  0.00     0.020 A 
ATOM     77  C   UNL A   1      44.705  31.108  36.357  1.00  0.00     0.020 A 
ATOM     78  C   UNL A   1      43.466  31.170  37.000  1.00  0.00     0.054 A 
BRANCH  78  79
ATOM     79  S   UNL A   1      43.173  32.253  38.427  1.00  0.00     0.124 S 
ATOM     80  O   UNL A   1      43.134  33.572  37.799  1.00  0.00    -0.237 OA
ATOM     81  O   UNL A   1      41.894  31.776  38.949  1.00  0.00    -0.237 OA
ATOM     82  O   UNL A   1      44.325  32.002  39.290  1.00  0.00    -0.744 OA
ENDBRANCH  78  79
ENDBRANCH  50  73
BRANCH  62  83
ATOM     83  C   UNL A   1      45.931  26.688  29.475  1.00  0.00    -0.014 A 
ATOM     84  C   UNL A   1      45.084  27.497  28.679  1.00  0.00     0.010 A 
ATOM     85  C   UNL A   1      47.308  26.776  29.256  1.00  0.00     0.010 A 
ATOM     86  C   UNL A   1      45.584  28.302  27.649  1.00  0.00     0.020 A 
ATOM     87  C   UNL A   1      47.822  27.595  28.236  1.00  0.00     0.020 A 
ATOM     88  C   UNL A   1      46.957  28.337  27.425  1.00  0.00     0.054 A 
BRANCH  88  89
ATOM     89  S   UNL A   1      47.588  29.324  26.035  1.00  0.00     0.124 S 
ATOM     90  O   UNL A   1      47.756  30.645  26.637  1.00  0.00    -0.237 OA
ATOM     91  O   UNL A   1      48.831  28.636  25.693  1.00  0.00    -0.237 OA
ATOM     92  O   UNL A   1      46.530  29.229  25.032  1.00  0.00    -0.744 OA
ENDBRANCH  88  89
ENDBRANCH  62  83
ENDBRANCH  36  37
ENDBRANCH  28  31
ENDBRANCH  26  27
ENDBRANCH   1  26
TORSDOF 15
ENDMDL
MODEL 2
REMARK VINA RESULT:     -11.5      4.049      6.917
REMARK SMILES C[C@@H]1Cc2ccccc2N1S(=O)(=O)c1c[nH]c(C(=O)NCCCNC(=O)c2ccc(-c3c4nc(c(-c5ccc(S(=O)(=O)[O-])cc5)c5ccc([nH]5)c(-c5ccc(S(=O)(=O)[O-])cc5)c5nc(c(-c6ccc(S(=O)(=O)[O-])cc6)c6ccc3[nH]6)C=C5)C=C4)cc2)c1
REMARK SMILES IDX 22 1 21 2 20 3 18 4 19 5 17 7 14 8 15 9 87 10 16 11 11 13
REMARK SMILES IDX 12 14 13 15 10 16 1 17 2 18 3 19 4 20 9 21 5 22 8 23 6 24
REMARK SMILES IDX 7 25 23 26 24 27 25 28 26 30 27 31 28 32 86 33 29 34 85 35
REMARK SMILES IDX 30 36 31 37 32 38 79 39 33 40 84 41 78 42 80 43 34 44 83 45
REMARK SMILES IDX 77 46 76 47 35 49 65 50 46 51 64 52 47 53 50 54 63 55 81 56
REMARK SMILES IDX 48 57 49 58 62 60 82 61 51 62 36 63 37 64 45 65 38 66 44 67
REMARK SMILES IDX 39 68 40 69 41 70 42 71 43 72 66 73 67 74 75 75 68 76 74 77
REMARK SMILES IDX 69 78 70 79 71 80 72 81 73 82 52 83 53 84 61 85 54 86 60 87
REMARK SMILES IDX 55 88 56 89 57 90 58 91 59 92
REMARK H PARENT 20 6 16 12 24 29 80 48 50 59
REMARK Flexibility Score: inf
ROOT
ATOM      1  C   UNL A   1      33.809  28.535  24.894  1.00  0.00     0.042 C 
ENDROOT
BRANCH   1   2
ATOM      2  C   UNL A   1      32.312  28.752  25.105  1.00  0.00     0.118 C 
BRANCH   2   3
ATOM      3  N   UNL A   1      31.595  28.816  23.844  1.00  0.00    -0.351 N 
ATOM      4  C   UNL A   1      31.112  27.841  23.020  1.00  0.00     0.267 C 
ATOM      5  O   UNL A   1      30.397  28.215  22.086  1.00  0.00    -0.268 OA
ATOM      6  H   UNL A   1      31.426  29.732  23.525  1.00  0.00     0.163 HD
BRANCH   4   7
ATOM      7  C   UNL A   1      31.392  26.437  23.215  1.00  0.00     0.105 A 
ATOM      8  C   UNL A   1      32.032  24.254  23.235  1.00  0.00     0.106 A 
ATOM      9  C   UNL A   1      30.911  24.376  24.028  1.00  0.00     0.105 A 
ATOM     10  C   UNL A   1      32.349  25.550  22.740  1.00  0.00     0.055 A 
ATOM     11  N   UNL A   1      30.527  25.683  23.994  1.00  0.00    -0.356 N 
ATOM     12  H   UNL A   1      29.740  26.045  24.460  1.00  0.00     0.166 HD
BRANCH   8  13
ATOM     13  S   UNL A   1      32.841  22.775  22.839  1.00  0.00     0.266 S 
ATOM     14  O   UNL A   1      33.849  23.179  21.886  1.00  0.00    -0.201 OA
ATOM     15  O   UNL A   1      31.745  21.904  22.459  1.00  0.00    -0.201 OA
BRANCH  13  16
ATOM     16  N   UNL A   1      33.610  22.109  24.209  1.00  0.00    -0.263 N 
ATOM     17  C   UNL A   1      32.366  20.062  24.928  1.00  0.00     0.032 C 
ATOM     18  C   UNL A   1      33.595  20.586  24.203  1.00  0.00     0.101 C 
ATOM     19  C   UNL A   1      34.907  20.138  24.887  1.00  0.00     0.063 C 
ATOM     20  C   UNL A   1      35.700  21.402  24.954  1.00  0.00    -0.021 A 
ATOM     21  C   UNL A   1      34.949  22.500  24.547  1.00  0.00     0.055 A 
ATOM     22  C   UNL A   1      36.995  21.546  25.444  1.00  0.00     0.006 A 
ATOM     23  C   UNL A   1      35.464  23.776  24.707  1.00  0.00     0.027 A 
ATOM     24  C   UNL A   1      37.534  22.828  25.545  1.00  0.00     0.000 A 
ATOM     25  C   UNL A   1      36.769  23.941  25.184  1.00  0.00     0.002 A 
ENDBRANCH  13  16
ENDBRANCH   8  13
ENDBRANCH   4   7
ENDBRANCH   2   3
ENDBRANCH   1   2
BRANCH   1  26
ATOM     26  C   UNL A   1      34.581  28.355  26.204  1.00  0.00     0.118 C 
BRANCH  26  27
ATOM     27  N   UNL A   1      34.536  29.498  27.100  1.00  0.00    -0.352 N 
ATOM     28  C   UNL A   1      35.424  30.093  27.958  1.00  0.00     0.251 C 
ATOM     29  H   UNL A   1      33.663  29.953  27.086  1.00  0.00     0.163 HD
ATOM     30  O   UNL A   1      35.030  31.118  28.520  1.00  0.00    -0.269 OA
BRANCH  28  31
ATOM     31  C   UNL A   1      36.776  29.565  28.291  1.00  0.00     0.039 A 
ATOM     32  C   UNL A   1      37.099  28.870  29.456  1.00  0.00     0.014 A 
ATOM     33  C   UNL A   1      37.795  29.793  27.343  1.00  0.00     0.014 A 
ATOM     34  C   UNL A   1      38.415  28.495  29.715  1.00  0.00     0.010 A 
ATOM     35  C   UNL A   1      39.111  29.395  27.582  1.00  0.00     0.010 A 
ATOM     36  C   UNL A   1      39.425  28.764  28.785  1.00  0.00    -0.014 A 
BRANCH  36  37
ATOM     37  C   UNL A   1      40.794  28.297  29.109  1.00  0.00     0.031 A 
ATOM     38  C   UNL A   1      41.158  27.020  28.327  1.00  0.00     0.074 A 
ATOM     39  C   UNL A   1      41.421  28.960  30.127  1.00  0.00     0.049 A 
ATOM     40  N   UNL A   1      41.732  25.922  28.725  1.00  0.00    -0.248 NA
ATOM     41  C   UNL A   1      40.677  26.903  26.925  1.00  0.00     0.031 C 
ATOM     42  C   UNL A   1      40.912  30.188  30.784  1.00  0.00     0.029 A 
ATOM     43  N   UNL A   1      42.572  28.736  30.846  1.00  0.00    -0.354 N 
ATOM     44  C   UNL A   1      41.775  25.032  27.621  1.00  0.00     0.074 A 
ATOM     45  C   UNL A   1      41.036  25.665  26.566  1.00  0.00     0.031 C 
ATOM     46  C   UNL A   1      41.671  30.520  31.851  1.00  0.00     0.029 A 
ATOM     47  C   UNL A   1      42.726  29.543  32.004  1.00  0.00     0.049 A 
ATOM     48  H   UNL A   1      43.241  28.065  30.577  1.00  0.00     0.167 HD
ATOM     49  C   UNL A   1      42.488  23.864  27.603  1.00  0.00     0.031 A 
ATOM     50  C   UNL A   1      43.552  29.352  33.080  1.00  0.00     0.031 A 
ATOM     51  C   UNL A   1      43.207  23.684  28.820  1.00  0.00     0.049 A 
ATOM     52  C   UNL A   1      44.184  28.044  32.827  1.00  0.00     0.074 A 
ATOM     53  C   UNL A   1      43.053  23.016  30.010  1.00  0.00     0.029 A 
ATOM     54  N   UNL A   1      44.413  24.330  28.870  1.00  0.00    -0.354 N 
ATOM     55  N   UNL A   1      45.091  27.779  31.939  1.00  0.00    -0.248 NA
ATOM     56  C   UNL A   1      43.530  26.892  33.447  1.00  0.00     0.031 C 
ATOM     57  C   UNL A   1      44.093  23.500  30.851  1.00  0.00     0.029 A 
ATOM     58  C   UNL A   1      44.659  24.587  30.192  1.00  0.00     0.049 A 
ATOM     59  H   UNL A   1      44.990  24.565  28.106  1.00  0.00     0.167 HD
ATOM     60  C   UNL A   1      44.938  26.431  31.694  1.00  0.00     0.074 A 
ATOM     61  C   UNL A   1      44.054  25.913  32.723  1.00  0.00     0.031 C 
ATOM     62  C   UNL A   1      45.245  25.863  30.503  1.00  0.00     0.031 A 
BRANCH  49  63
ATOM     63  C   UNL A   1      42.865  22.899  26.485  1.00  0.00    -0.014 A 
ATOM     64  C   UNL A   1      43.814  23.152  25.484  1.00  0.00     0.010 A 
ATOM     65  C   UNL A   1      42.472  21.541  26.654  1.00  0.00     0.010 A 
ATOM     66  C   UNL A   1      44.389  22.092  24.744  1.00  0.00     0.020 A 
ATOM     67  C   UNL A   1      43.064  20.484  25.958  1.00  0.00     0.020 A 
ATOM     68  C   UNL A   1      44.032  20.764  25.008  1.00  0.00     0.054 A 
BRANCH  68  69
ATOM     69  S   UNL A   1      44.906  19.394  24.191  1.00  0.00     0.124 S 
ATOM     70  O   UNL A   1      44.531  19.587  22.792  1.00  0.00    -0.237 OA
ATOM     71  O   UNL A   1      46.306  19.659  24.511  1.00  0.00    -0.237 OA
ATOM     72  O   UNL A   1      44.347  18.199  24.820  1.00  0.00    -0.744 OA
ENDBRANCH  68  69
ENDBRANCH  49  63
BRANCH  50  73
ATOM     73  C   UNL A   1      43.612  29.911  34.485  1.00  0.00    -0.014 A 
ATOM     74  C   UNL A   1      42.467  29.780  35.318  1.00  0.00     0.010 A 
ATOM     75  C   UNL A   1      44.680  30.634  35.034  1.00  0.00     0.010 A 
ATOM     76  C   UNL A   1      42.291  30.512  36.494  1.00  0.00     0.020 A 
ATOM     77  C   UNL A   1      44.534  31.349  36.248  1.00  0.00     0.020 A 
ATOM     78  C   UNL A   1      43.311  31.345  36.924  1.00  0.00     0.054 A 
BRANCH  78  79
ATOM     79  S   UNL A   1      42.992  32.430  38.345  1.00  0.00     0.124 S 
ATOM     80  O   UNL A   1      42.746  33.714  37.692  1.00  0.00    -0.237 OA
ATOM     81  O   UNL A   1      41.821  31.818  38.973  1.00  0.00    -0.237 OA
ATOM     82  O   UNL A   1      44.225  32.346  39.124  1.00  0.00    -0.744 OA
ENDBRANCH  78  79
ENDBRANCH  50  73
BRANCH  62  83
ATOM     83  C   UNL A   1      45.793  26.801  29.439  1.00  0.00    -0.014 A 
ATOM     84  C   UNL A   1      44.928  27.594  28.648  1.00  0.00     0.010 A 
ATOM     85  C   UNL A   1      47.166  26.896  29.195  1.00  0.00     0.010 A 
ATOM     86  C   UNL A   1      45.404  28.391  27.600  1.00  0.00     0.020 A 
ATOM     87  C   UNL A   1      47.657  27.707  28.157  1.00  0.00     0.020 A 
ATOM     88  C   UNL A   1      46.773  28.433  27.352  1.00  0.00     0.054 A 
BRANCH  88  89
ATOM     89  S   UNL A   1      47.373  29.409  25.941  1.00  0.00     0.124 S 
ATOM     90  O   UNL A   1      48.384  30.266  26.557  1.00  0.00    -0.237 OA
ATOM     91  O   UNL A   1      47.895  28.382  25.042  1.00  0.00    -0.237 OA
ATOM     92  O   UNL A   1      46.179  30.103  25.465  1.00  0.00    -0.744 OA
ENDBRANCH  88  89
ENDBRANCH  62  83
ENDBRANCH  36  37
ENDBRANCH  28  31
ENDBRANCH  26  27
ENDBRANCH   1  26
TORSDOF 15
ENDMDL
MODEL 3
REMARK VINA RESULT:     -11.4      4.661     11.364
REMARK SMILES C[C@@H]1Cc2ccccc2N1S(=O)(=O)c1c[nH]c(C(=O)NCCCNC(=O)c2ccc(-c3c4nc(c(-c5ccc(S(=O)(=O)[O-])cc5)c5ccc([nH]5)c(-c5ccc(S(=O)(=O)[O-])cc5)c5nc(c(-c6ccc(S(=O)(=O)[O-])cc6)c6ccc3[nH]6)C=C5)C=C4)cc2)c1
REMARK SMILES IDX 22 1 21 2 20 3 18 4 19 5 17 7 14 8 15 9 87 10 16 11 11 13
REMARK SMILES IDX 12 14 13 15 10 16 1 17 2 18 3 19 4 20 9 21 5 22 8 23 6 24
REMARK SMILES IDX 7 25 23 26 24 27 25 28 26 30 27 31 28 32 86 33 29 34 85 35
REMARK SMILES IDX 30 36 31 37 32 38 79 39 33 40 84 41 78 42 80 43 34 44 83 45
REMARK SMILES IDX 77 46 76 47 35 49 65 50 46 51 64 52 47 53 50 54 63 55 81 56
REMARK SMILES IDX 48 57 49 58 62 60 82 61 51 62 36 63 37 64 45 65 38 66 44 67
REMARK SMILES IDX 39 68 40 69 41 70 42 71 43 72 66 73 67 74 75 75 68 76 74 77
REMARK SMILES IDX 69 78 70 79 71 80 72 81 73 82 52 83 53 84 61 85 54 86 60 87
REMARK SMILES IDX 55 88 56 89 57 90 58 91 59 92
REMARK H PARENT 20 6 16 12 24 29 80 48 50 59
REMARK Flexibility Score: inf
ROOT
ATOM      1  C   UNL A   1      33.199  28.782  24.573  1.00  0.00     0.042 C 
ENDROOT
BRANCH   1   2
ATOM      2  C   UNL A   1      31.760  29.231  24.818  1.00  0.00     0.118 C 
BRANCH   2   3
ATOM      3  N   UNL A   1      31.032  29.403  23.574  1.00  0.00    -0.351 N 
ATOM      4  C   UNL A   1      30.705  28.526  22.579  1.00  0.00     0.267 C 
ATOM      5  O   UNL A   1      29.931  28.942  21.713  1.00  0.00    -0.268 OA
ATOM      6  H   UNL A   1      30.715  30.323  23.419  1.00  0.00     0.163 HD
BRANCH   4   7
ATOM      7  C   UNL A   1      31.209  27.173  22.528  1.00  0.00     0.105 A 
ATOM      8  C   UNL A   1      31.863  25.008  22.769  1.00  0.00     0.106 A 
ATOM      9  C   UNL A   1      32.617  25.570  21.762  1.00  0.00     0.105 A 
ATOM     10  C   UNL A   1      30.964  26.006  23.239  1.00  0.00     0.055 A 
ATOM     11  N   UNL A   1      32.229  26.871  21.639  1.00  0.00    -0.356 N 
ATOM     12  H   UNL A   1      32.621  27.512  21.003  1.00  0.00     0.166 HD
BRANCH   8  13
ATOM     13  S   UNL A   1      32.051  23.409  23.408  1.00  0.00     0.266 S 
ATOM     14  O   UNL A   1      32.537  22.644  22.282  1.00  0.00    -0.201 OA
ATOM     15  O   UNL A   1      30.752  23.147  23.998  1.00  0.00    -0.201 OA
BRANCH  13  16
ATOM     16  N   UNL A   1      33.223  23.375  24.647  1.00  0.00    -0.263 N 
ATOM     17  C   UNL A   1      32.085  23.659  26.855  1.00  0.00     0.032 C 
ATOM     18  C   UNL A   1      32.727  22.666  25.900  1.00  0.00     0.101 C 
ATOM     19  C   UNL A   1      33.961  21.976  26.524  1.00  0.00     0.063 C 
ATOM     20  C   UNL A   1      34.987  22.080  25.443  1.00  0.00    -0.021 A 
ATOM     21  C   UNL A   1      34.538  22.861  24.384  1.00  0.00     0.055 A 
ATOM     22  C   UNL A   1      36.281  21.567  25.473  1.00  0.00     0.006 A 
ATOM     23  C   UNL A   1      35.417  23.209  23.372  1.00  0.00     0.027 A 
ATOM     24  C   UNL A   1      37.144  21.868  24.420  1.00  0.00     0.000 A 
ATOM     25  C   UNL A   1      36.717  22.692  23.376  1.00  0.00     0.002 A 
ENDBRANCH  13  16
ENDBRANCH   8  13
ENDBRANCH   4   7
ENDBRANCH   2   3
ENDBRANCH   1   2
BRANCH   1  26
ATOM     26  C   UNL A   1      34.084  28.892  25.818  1.00  0.00     0.118 C 
BRANCH  26  27
ATOM     27  N   UNL A   1      33.821  30.053  26.651  1.00  0.00    -0.352 N 
ATOM     28  C   UNL A   1      34.506  30.713  27.638  1.00  0.00     0.251 C 
ATOM     29  H   UNL A   1      32.945  30.461  26.462  1.00  0.00     0.163 HD
ATOM     30  O   UNL A   1      33.967  31.730  28.083  1.00  0.00    -0.269 OA
BRANCH  28  31
ATOM     31  C   UNL A   1      35.796  30.264  28.231  1.00  0.00     0.039 A 
ATOM     32  C   UNL A   1      35.957  29.799  29.536  1.00  0.00     0.014 A 
ATOM     33  C   UNL A   1      36.929  30.318  27.394  1.00  0.00     0.014 A 
ATOM     34  C   UNL A   1      37.223  29.485  30.024  1.00  0.00     0.010 A 
ATOM     35  C   UNL A   1      38.198  29.979  27.867  1.00  0.00     0.010 A 
ATOM     36  C   UNL A   1      38.347  29.584  29.196  1.00  0.00    -0.014 A 
BRANCH  36  37
ATOM     37  C   UNL A   1      39.656  29.193  29.771  1.00  0.00     0.031 A 
ATOM     38  C   UNL A   1      40.337  30.376  30.488  1.00  0.00     0.074 A 
ATOM     39  C   UNL A   1      40.097  27.941  29.444  1.00  0.00     0.049 A 
ATOM     40  N   UNL A   1      41.570  30.791  30.446  1.00  0.00    -0.248 NA
ATOM     41  C   UNL A   1      39.474  31.315  31.252  1.00  0.00     0.031 C 
ATOM     42  C   UNL A   1      39.299  26.917  28.727  1.00  0.00     0.029 A 
ATOM     43  N   UNL A   1      41.294  27.280  29.599  1.00  0.00    -0.354 N 
ATOM     44  C   UNL A   1      41.658  31.962  31.243  1.00  0.00     0.074 A 
ATOM     45  C   UNL A   1      40.316  32.276  31.644  1.00  0.00     0.031 C 
ATOM     46  C   UNL A   1      40.053  25.842  28.416  1.00  0.00     0.029 A 
ATOM     47  C   UNL A   1      41.406  26.062  28.878  1.00  0.00     0.049 A 
ATOM     48  H   UNL A   1      42.019  27.625  30.168  1.00  0.00     0.167 HD
ATOM     49  C   UNL A   1      42.836  32.559  31.603  1.00  0.00     0.031 A 
ATOM     50  C   UNL A   1      42.536  25.356  28.555  1.00  0.00     0.031 A 
ATOM     51  C   UNL A   1      43.953  31.828  31.105  1.00  0.00     0.049 A 
ATOM     52  C   UNL A   1      43.643  26.205  29.032  1.00  0.00     0.074 A 
ATOM     53  C   UNL A   1      44.809  31.873  30.033  1.00  0.00     0.029 A 
ATOM     54  N   UNL A   1      44.338  30.772  31.888  1.00  0.00    -0.354 N 
ATOM     55  N   UNL A   1      43.987  26.411  30.265  1.00  0.00    -0.248 NA
ATOM     56  C   UNL A   1      44.229  27.104  28.038  1.00  0.00     0.031 C 
ATOM     57  C   UNL A   1      45.546  30.658  30.087  1.00  0.00     0.029 A 
ATOM     58  C   UNL A   1      44.927  29.865  31.049  1.00  0.00     0.049 A 
ATOM     59  H   UNL A   1      44.214  30.683  32.861  1.00  0.00     0.167 HD
ATOM     60  C   UNL A   1      44.625  27.633  30.236  1.00  0.00     0.074 A 
ATOM     61  C   UNL A   1      44.850  27.958  28.838  1.00  0.00     0.031 C 
ATOM     62  C   UNL A   1      44.640  28.478  31.296  1.00  0.00     0.031 A 
BRANCH  49  63
ATOM     63  C   UNL A   1      43.178  33.646  32.615  1.00  0.00    -0.014 A 
ATOM     64  C   UNL A   1      44.474  34.053  32.959  1.00  0.00     0.010 A 
ATOM     65  C   UNL A   1      42.120  34.522  32.991  1.00  0.00     0.010 A 
ATOM     66  C   UNL A   1      44.702  35.303  33.581  1.00  0.00     0.020 A 
ATOM     67  C   UNL A   1      42.338  35.775  33.568  1.00  0.00     0.020 A 
ATOM     68  C   UNL A   1      43.635  36.168  33.853  1.00  0.00     0.054 A 
BRANCH  68  69
ATOM     69  S   UNL A   1      43.945  37.848  34.478  1.00  0.00     0.124 S 
ATOM     70  O   UNL A   1      45.204  38.189  33.818  1.00  0.00    -0.237 OA
ATOM     71  O   UNL A   1      42.774  38.590  34.022  1.00  0.00    -0.237 OA
ATOM     72  O   UNL A   1      44.036  37.669  35.926  1.00  0.00    -0.744 OA
ENDBRANCH  68  69
ENDBRANCH  49  63
BRANCH  50  73
ATOM     73  C   UNL A   1      42.855  24.260  27.563  1.00  0.00    -0.014 A 
ATOM     74  C   UNL A   1      43.853  23.306  27.903  1.00  0.00     0.010 A 
ATOM     75  C   UNL A   1      42.309  24.133  26.278  1.00  0.00     0.010 A 
ATOM     76  C   UNL A   1      44.445  22.455  26.966  1.00  0.00     0.020 A 
ATOM     77  C   UNL A   1      42.869  23.244  25.329  1.00  0.00     0.020 A 
ATOM     78  C   UNL A   1      43.985  22.472  25.660  1.00  0.00     0.054 A 
BRANCH  78  79
ATOM     79  S   UNL A   1      44.889  21.503  24.419  1.00  0.00     0.124 S 
ATOM     80  O   UNL A   1      46.264  21.603  24.904  1.00  0.00    -0.237 OA
ATOM     81  O   UNL A   1      44.287  20.175  24.531  1.00  0.00    -0.237 OA
ATOM     82  O   UNL A   1      44.611  22.203  23.168  1.00  0.00    -0.744 OA
ENDBRANCH  78  79
ENDBRANCH  50  73
BRANCH  62  83
ATOM     83  C   UNL A   1      43.923  27.992  32.545  1.00  0.00    -0.014 A 
ATOM     84  C   UNL A   1      42.544  28.246  32.740  1.00  0.00     0.010 A 
ATOM     85  C   UNL A   1      44.605  27.298  33.548  1.00  0.00     0.010 A 
ATOM     86  C   UNL A   1      41.886  27.892  33.925  1.00  0.00     0.020 A 
ATOM     87  C   UNL A   1      43.950  26.922  34.733  1.00  0.00     0.020 A 
ATOM     88  C   UNL A   1      42.601  27.239  34.925  1.00  0.00     0.054 A 
BRANCH  88  89
ATOM     89  S   UNL A   1      41.758  26.855  36.489  1.00  0.00     0.124 S 
ATOM     90  O   UNL A   1      40.947  28.049  36.712  1.00  0.00    -0.237 OA
ATOM     91  O   UNL A   1      41.006  25.647  36.157  1.00  0.00    -0.237 OA
ATOM     92  O   UNL A   1      42.854  26.664  37.437  1.00  0.00    -0.744 OA
ENDBRANCH  88  89
ENDBRANCH  62  83
ENDBRANCH  36  37
ENDBRANCH  28  31
ENDBRANCH  26  27
ENDBRANCH   1  26
TORSDOF 15
ENDMDL
