MODEL 1
REMARK VINA RESULT:     -10.1      0.000      0.000
REMARK SMILES CC[C@@](O)(C(=O)NCCCNC(=O)c1ccc(-c2c3nc(c(-c4ccc(S(=O)(=O)[O-])cc4)c4ccc([nH]4)c(-c4ccc(S(=O)(=O)[O-])cc4)c4nc(c(-c5ccc(S(=O)(=O)[O-])cc5)c5ccc2[nH]5)C=C4)C=C3)cc1)[C@@H](C)c1ccc(OC)c(OC)c1
REMARK SMILES IDX 9 1 8 2 7 3 5 4 6 5 3 7 2 8 1 9 4 10 74 12 75 13 76 14 77 15
REMARK SMILES IDX 85 16 78 17 82 18 79 19 83 20 84 21 80 22 81 23 10 24 11 25
REMARK SMILES IDX 12 26 13 28 14 29 15 30 73 31 16 32 72 33 17 34 18 35 19 36
REMARK SMILES IDX 66 37 20 38 71 39 65 40 67 41 21 42 70 43 64 44 63 45 22 47
REMARK SMILES IDX 52 48 33 49 51 50 34 51 37 52 50 53 68 54 35 55 36 56 49 58
REMARK SMILES IDX 69 59 38 60 23 61 24 62 32 63 25 64 31 65 26 66 27 67 28 68
REMARK SMILES IDX 29 69 30 70 53 71 54 72 62 73 55 74 61 75 56 76 57 77 58 78
REMARK SMILES IDX 59 79 60 80 39 81 40 82 48 83 41 84 47 85 42 86 43 87 44 88
REMARK SMILES IDX 45 89 46 90
REMARK H PARENT 7 6 4 11 11 27 67 46 37 57
REMARK Flexibility Score: inf
ROOT
ATOM      1  C   UNL A   1      33.456  27.255  25.571  1.00  0.00     0.042 C 
ENDROOT
BRANCH   1   2
ATOM      2  C   UNL A   1      33.718  25.768  25.372  1.00  0.00     0.117 C 
BRANCH   2   3
ATOM      3  N   UNL A   1      34.013  25.412  23.984  1.00  0.00    -0.354 N 
ATOM      4  C   UNL A   1      33.282  24.691  23.070  1.00  0.00     0.252 C 
ATOM      5  O   UNL A   1      33.682  24.695  21.903  1.00  0.00    -0.272 OA
ATOM      6  H   UNL A   1      34.878  25.744  23.650  1.00  0.00     0.163 HD
BRANCH   4   7
ATOM      7  C   UNL A   1      31.983  23.939  23.514  1.00  0.00     0.149 C 
BRANCH   7   8
ATOM      8  C   UNL A   1      30.834  24.984  23.522  1.00  0.00     0.043 C 
ATOM      9  C   UNL A   1      31.009  26.285  22.759  1.00  0.00     0.007 C 
ENDBRANCH   7   8
BRANCH   7  10
ATOM     10  O   UNL A   1      31.846  22.971  22.454  1.00  0.00    -0.379 OA
ATOM     11  H   UNL A   1      31.798  22.080  22.834  1.00  0.00     0.212 HD
ENDBRANCH   7  10
BRANCH   7  12
ATOM     12  C   UNL A   1      32.160  23.167  24.886  1.00  0.00     0.058 C 
ATOM     13  C   UNL A   1      30.798  23.038  25.609  1.00  0.00     0.016 C 
BRANCH  12  14
ATOM     14  C   UNL A   1      32.887  21.795  24.832  1.00  0.00    -0.038 A 
ATOM     15  C   UNL A   1      32.183  20.606  24.607  1.00  0.00     0.008 A 
ATOM     16  C   UNL A   1      34.275  21.655  25.028  1.00  0.00     0.054 A 
ATOM     17  C   UNL A   1      32.856  19.380  24.484  1.00  0.00     0.051 A 
ATOM     18  C   UNL A   1      34.973  20.448  24.884  1.00  0.00     0.160 A 
ATOM     19  C   UNL A   1      34.250  19.295  24.586  1.00  0.00     0.160 A 
BRANCH  18  20
ATOM     20  O   UNL A   1      36.327  20.371  25.091  1.00  0.00    -0.493 OA
ATOM     21  C   UNL A   1      37.120  21.458  24.616  1.00  0.00     0.278 C 
ENDBRANCH  18  20
BRANCH  19  22
ATOM     22  O   UNL A   1      34.742  18.030  24.390  1.00  0.00    -0.493 OA
ATOM     23  C   UNL A   1      33.893  17.113  23.707  1.00  0.00     0.278 C 
ENDBRANCH  19  22
ENDBRANCH  12  14
ENDBRANCH   7  12
ENDBRANCH   4   7
ENDBRANCH   2   3
ENDBRANCH   1   2
BRANCH   1  24
ATOM     24  C   UNL A   1      34.056  27.809  26.846  1.00  0.00     0.118 C 
BRANCH  24  25
ATOM     25  N   UNL A   1      33.730  29.213  27.041  1.00  0.00    -0.352 N 
ATOM     26  C   UNL A   1      34.441  30.197  27.683  1.00  0.00     0.251 C 
ATOM     27  H   UNL A   1      32.870  29.500  26.656  1.00  0.00     0.163 HD
ATOM     28  O   UNL A   1      33.898  31.266  27.942  1.00  0.00    -0.269 OA
BRANCH  26  29
ATOM     29  C   UNL A   1      35.847  29.958  28.076  1.00  0.00     0.039 A 
ATOM     30  C   UNL A   1      36.128  29.578  29.391  1.00  0.00     0.014 A 
ATOM     31  C   UNL A   1      36.886  30.110  27.155  1.00  0.00     0.014 A 
ATOM     32  C   UNL A   1      37.444  29.292  29.760  1.00  0.00     0.010 A 
ATOM     33  C   UNL A   1      38.178  29.726  27.496  1.00  0.00     0.010 A 
ATOM     34  C   UNL A   1      38.474  29.326  28.806  1.00  0.00    -0.014 A 
BRANCH  34  35
ATOM     35  C   UNL A   1      39.869  28.961  29.158  1.00  0.00     0.031 A 
ATOM     36  C   UNL A   1      40.779  29.980  29.790  1.00  0.00     0.074 A 
ATOM     37  C   UNL A   1      40.338  27.735  28.846  1.00  0.00     0.049 A 
ATOM     38  N   UNL A   1      42.043  29.873  30.106  1.00  0.00    -0.248 NA
ATOM     39  C   UNL A   1      40.200  31.304  30.077  1.00  0.00     0.031 C 
ATOM     40  C   UNL A   1      39.567  26.675  28.191  1.00  0.00     0.029 A 
ATOM     41  N   UNL A   1      41.578  27.178  29.030  1.00  0.00    -0.354 N 
ATOM     42  C   UNL A   1      42.413  31.115  30.611  1.00  0.00     0.074 A 
ATOM     43  C   UNL A   1      41.257  31.977  30.505  1.00  0.00     0.031 C 
ATOM     44  C   UNL A   1      40.344  25.589  28.054  1.00  0.00     0.029 A 
ATOM     45  C   UNL A   1      41.678  25.889  28.564  1.00  0.00     0.049 A 
ATOM     46  H   UNL A   1      42.325  27.656  29.456  1.00  0.00     0.167 HD
ATOM     47  C   UNL A   1      43.601  31.498  31.135  1.00  0.00     0.031 A 
ATOM     48  C   UNL A   1      42.728  25.044  28.536  1.00  0.00     0.031 A 
ATOM     49  C   UNL A   1      44.747  30.634  31.243  1.00  0.00     0.049 A 
ATOM     50  C   UNL A   1      44.044  25.497  29.108  1.00  0.00     0.074 A 
ATOM     51  C   UNL A   1      45.979  30.907  31.810  1.00  0.00     0.029 A 
ATOM     52  N   UNL A   1      44.803  29.332  30.769  1.00  0.00    -0.354 N 
ATOM     53  N   UNL A   1      44.354  26.652  29.649  1.00  0.00    -0.248 NA
ATOM     54  C   UNL A   1      45.149  24.529  29.078  1.00  0.00     0.031 C 
ATOM     55  C   UNL A   1      46.801  29.791  31.622  1.00  0.00     0.029 A 
ATOM     56  C   UNL A   1      46.059  28.798  31.004  1.00  0.00     0.049 A 
ATOM     57  H   UNL A   1      44.060  28.857  30.332  1.00  0.00     0.167 HD
ATOM     58  C   UNL A   1      45.681  26.539  30.049  1.00  0.00     0.074 A 
ATOM     59  C   UNL A   1      46.108  25.200  29.703  1.00  0.00     0.031 C 
ATOM     60  C   UNL A   1      46.472  27.462  30.651  1.00  0.00     0.031 A 
BRANCH  47  61
ATOM     61  C   UNL A   1      43.724  32.920  31.621  1.00  0.00    -0.014 A 
ATOM     62  C   UNL A   1      43.291  33.293  32.907  1.00  0.00     0.010 A 
ATOM     63  C   UNL A   1      44.308  33.894  30.790  1.00  0.00     0.010 A 
ATOM     64  C   UNL A   1      43.395  34.619  33.333  1.00  0.00     0.020 A 
ATOM     65  C   UNL A   1      44.444  35.215  31.226  1.00  0.00     0.020 A 
ATOM     66  C   UNL A   1      43.968  35.574  32.488  1.00  0.00     0.054 A 
BRANCH  66  67
ATOM     67  S   UNL A   1      44.102  37.284  33.075  1.00  0.00     0.124 S 
ATOM     68  O   UNL A   1      43.736  38.040  31.879  1.00  0.00    -0.237 OA
ATOM     69  O   UNL A   1      43.131  37.325  34.165  1.00  0.00    -0.237 OA
ATOM     70  O   UNL A   1      45.500  37.404  33.483  1.00  0.00    -0.744 OA
ENDBRANCH  66  67
ENDBRANCH  47  61
BRANCH  48  71
ATOM     71  C   UNL A   1      42.572  23.686  27.947  1.00  0.00    -0.014 A 
ATOM     72  C   UNL A   1      42.051  22.628  28.711  1.00  0.00     0.010 A 
ATOM     73  C   UNL A   1      42.926  23.449  26.605  1.00  0.00     0.010 A 
ATOM     74  C   UNL A   1      41.903  21.355  28.152  1.00  0.00     0.020 A 
ATOM     75  C   UNL A   1      42.750  22.187  26.032  1.00  0.00     0.020 A 
ATOM     76  C   UNL A   1      42.249  21.144  26.813  1.00  0.00     0.054 A 
BRANCH  76  77
ATOM     77  S   UNL A   1      41.995  19.499  26.093  1.00  0.00     0.124 S 
ATOM     78  O   UNL A   1      42.478  18.623  27.155  1.00  0.00    -0.237 OA
ATOM     79  O   UNL A   1      40.552  19.477  25.860  1.00  0.00    -0.237 OA
ATOM     80  O   UNL A   1      42.812  19.525  24.882  1.00  0.00    -0.744 OA
ENDBRANCH  76  77
ENDBRANCH  48  71
BRANCH  60  81
ATOM     81  C   UNL A   1      47.874  27.047  31.009  1.00  0.00    -0.014 A 
ATOM     82  C   UNL A   1      48.153  26.359  32.203  1.00  0.00     0.010 A 
ATOM     83  C   UNL A   1      48.920  27.294  30.102  1.00  0.00     0.010 A 
ATOM     84  C   UNL A   1      49.458  25.951  32.496  1.00  0.00     0.020 A 
ATOM     85  C   UNL A   1      50.220  26.860  30.375  1.00  0.00     0.020 A 
ATOM     86  C   UNL A   1      50.482  26.202  31.577  1.00  0.00     0.054 A 
BRANCH  86  87
ATOM     87  S   UNL A   1      52.156  25.617  31.957  1.00  0.00     0.124 S 
ATOM     88  O   UNL A   1      52.520  26.454  33.097  1.00  0.00    -0.237 OA
ATOM     89  O   UNL A   1      51.939  24.204  32.259  1.00  0.00    -0.237 OA
ATOM     90  O   UNL A   1      52.903  25.878  30.730  1.00  0.00    -0.744 OA
ENDBRANCH  86  87
ENDBRANCH  60  81
ENDBRANCH  34  35
ENDBRANCH  26  29
ENDBRANCH  24  25
ENDBRANCH   1  24
TORSDOF 19
ENDMDL
MODEL 2
REMARK VINA RESULT:      -9.9      3.512      9.268
REMARK SMILES CC[C@@](O)(C(=O)NCCCNC(=O)c1ccc(-c2c3nc(c(-c4ccc(S(=O)(=O)[O-])cc4)c4ccc([nH]4)c(-c4ccc(S(=O)(=O)[O-])cc4)c4nc(c(-c5ccc(S(=O)(=O)[O-])cc5)c5ccc2[nH]5)C=C4)C=C3)cc1)[C@@H](C)c1ccc(OC)c(OC)c1
REMARK SMILES IDX 9 1 8 2 7 3 5 4 6 5 3 7 2 8 1 9 4 10 74 12 75 13 76 14 77 15
REMARK SMILES IDX 85 16 78 17 82 18 79 19 83 20 84 21 80 22 81 23 10 24 11 25
REMARK SMILES IDX 12 26 13 28 14 29 15 30 73 31 16 32 72 33 17 34 18 35 19 36
REMARK SMILES IDX 66 37 20 38 71 39 65 40 67 41 21 42 70 43 64 44 63 45 22 47
REMARK SMILES IDX 52 48 33 49 51 50 34 51 37 52 50 53 68 54 35 55 36 56 49 58
REMARK SMILES IDX 69 59 38 60 23 61 24 62 32 63 25 64 31 65 26 66 27 67 28 68
REMARK SMILES IDX 29 69 30 70 53 71 54 72 62 73 55 74 61 75 56 76 57 77 58 78
REMARK SMILES IDX 59 79 60 80 39 81 40 82 48 83 41 84 47 85 42 86 43 87 44 88
REMARK SMILES IDX 45 89 46 90
REMARK H PARENT 7 6 4 11 11 27 67 46 37 57
REMARK Flexibility Score: inf
ROOT
ATOM      1  C   UNL A   1      38.159  19.703  25.093  1.00  0.00     0.042 C 
ENDROOT
BRANCH   1   2
ATOM      2  C   UNL A   1      36.964  20.601  24.801  1.00  0.00     0.117 C 
BRANCH   2   3
ATOM      3  N   UNL A   1      37.221  22.014  25.072  1.00  0.00    -0.354 N 
ATOM      4  C   UNL A   1      36.370  23.020  25.466  1.00  0.00     0.252 C 
ATOM      5  O   UNL A   1      36.883  24.089  25.805  1.00  0.00    -0.272 OA
ATOM      6  H   UNL A   1      38.159  22.292  24.952  1.00  0.00     0.163 HD
BRANCH   4   7
ATOM      7  C   UNL A   1      34.824  22.775  25.508  1.00  0.00     0.149 C 
BRANCH   7   8
ATOM      8  C   UNL A   1      34.576  21.609  26.502  1.00  0.00     0.043 C 
ATOM      9  C   UNL A   1      33.619  21.812  27.662  1.00  0.00     0.007 C 
ENDBRANCH   7   8
BRANCH   7  10
ATOM     10  O   UNL A   1      34.355  24.042  26.010  1.00  0.00    -0.379 OA
ATOM     11  H   UNL A   1      34.388  24.039  26.979  1.00  0.00     0.212 HD
ENDBRANCH   7  10
BRANCH   7  12
ATOM     12  C   UNL A   1      34.202  22.538  24.070  1.00  0.00     0.058 C 
ATOM     13  C   UNL A   1      33.444  21.190  24.029  1.00  0.00     0.016 C 
BRANCH  12  14
ATOM     14  C   UNL A   1      33.327  23.681  23.485  1.00  0.00    -0.038 A 
ATOM     15  C   UNL A   1      31.932  23.667  23.611  1.00  0.00     0.008 A 
ATOM     16  C   UNL A   1      33.865  24.774  22.779  1.00  0.00     0.054 A 
ATOM     17  C   UNL A   1      31.154  24.739  23.148  1.00  0.00     0.051 A 
ATOM     18  C   UNL A   1      33.114  25.869  22.331  1.00  0.00     0.160 A 
ATOM     19  C   UNL A   1      31.736  25.858  22.538  1.00  0.00     0.160 A 
BRANCH  18  20
ATOM     20  O   UNL A   1      33.693  26.906  21.643  1.00  0.00    -0.493 OA
ATOM     21  C   UNL A   1      34.028  28.074  22.391  1.00  0.00     0.278 C 
ENDBRANCH  18  20
BRANCH  19  22
ATOM     22  O   UNL A   1      30.834  26.831  22.193  1.00  0.00    -0.493 OA
ATOM     23  C   UNL A   1      30.378  27.680  23.241  1.00  0.00     0.278 C 
ENDBRANCH  19  22
ENDBRANCH  12  14
ENDBRANCH   7  12
ENDBRANCH   4   7
ENDBRANCH   2   3
ENDBRANCH   1   2
BRANCH   1  24
ATOM     24  C   UNL A   1      39.234  20.376  25.918  1.00  0.00     0.118 C 
BRANCH  24  25
ATOM     25  N   UNL A   1      40.388  19.516  26.125  1.00  0.00    -0.352 N 
ATOM     26  C   UNL A   1      41.709  19.847  26.303  1.00  0.00     0.251 C 
ATOM     27  H   UNL A   1      40.193  18.551  26.140  1.00  0.00     0.163 HD
ATOM     28  O   UNL A   1      42.567  18.973  26.234  1.00  0.00    -0.269 OA
BRANCH  26  29
ATOM     29  C   UNL A   1      42.092  21.254  26.554  1.00  0.00     0.039 A 
ATOM     30  C   UNL A   1      42.302  21.674  27.870  1.00  0.00     0.014 A 
ATOM     31  C   UNL A   1      42.238  22.158  25.500  1.00  0.00     0.014 A 
ATOM     32  C   UNL A   1      42.721  22.983  28.118  1.00  0.00     0.010 A 
ATOM     33  C   UNL A   1      42.754  23.426  25.739  1.00  0.00     0.010 A 
ATOM     34  C   UNL A   1      42.987  23.858  27.052  1.00  0.00    -0.014 A 
BRANCH  34  35
ATOM     35  C   UNL A   1      43.497  25.232  27.286  1.00  0.00     0.031 A 
ATOM     36  C   UNL A   1      44.951  25.547  27.051  1.00  0.00     0.074 A 
ATOM     37  C   UNL A   1      42.670  26.178  27.775  1.00  0.00     0.049 A 
ATOM     38  N   UNL A   1      45.598  26.664  27.262  1.00  0.00    -0.248 NA
ATOM     39  C   UNL A   1      45.796  24.454  26.539  1.00  0.00     0.031 C 
ATOM     40  C   UNL A   1      41.252  25.984  28.087  1.00  0.00     0.029 A 
ATOM     41  N   UNL A   1      42.905  27.489  28.105  1.00  0.00    -0.354 N 
ATOM     42  C   UNL A   1      46.922  26.404  26.926  1.00  0.00     0.074 A 
ATOM     43  C   UNL A   1      46.998  25.009  26.554  1.00  0.00     0.031 C 
ATOM     44  C   UNL A   1      40.739  27.140  28.536  1.00  0.00     0.029 A 
ATOM     45  C   UNL A   1      41.798  28.143  28.591  1.00  0.00     0.049 A 
ATOM     46  H   UNL A   1      43.784  27.921  28.002  1.00  0.00     0.167 HD
ATOM     47  C   UNL A   1      47.975  27.254  26.910  1.00  0.00     0.031 A 
ATOM     48  C   UNL A   1      41.652  29.404  29.044  1.00  0.00     0.031 A 
ATOM     49  C   UNL A   1      47.892  28.643  27.276  1.00  0.00     0.049 A 
ATOM     50  C   UNL A   1      42.840  30.326  29.032  1.00  0.00     0.074 A 
ATOM     51  C   UNL A   1      48.887  29.603  27.239  1.00  0.00     0.029 A 
ATOM     52  N   UNL A   1      46.749  29.269  27.752  1.00  0.00    -0.354 N 
ATOM     53  N   UNL A   1      44.069  30.082  28.641  1.00  0.00    -0.248 NA
ATOM     54  C   UNL A   1      42.620  31.698  29.510  1.00  0.00     0.031 C 
ATOM     55  C   UNL A   1      48.364  30.794  27.752  1.00  0.00     0.029 A 
ATOM     56  C   UNL A   1      47.023  30.595  28.041  1.00  0.00     0.049 A 
ATOM     57  H   UNL A   1      45.873  28.834  27.867  1.00  0.00     0.167 HD
ATOM     58  C   UNL A   1      44.761  31.277  28.801  1.00  0.00     0.074 A 
ATOM     59  C   UNL A   1      43.811  32.246  29.307  1.00  0.00     0.031 C 
ATOM     60  C   UNL A   1      46.066  31.548  28.547  1.00  0.00     0.031 A 
BRANCH  47  61
ATOM     61  C   UNL A   1      49.313  26.699  26.492  1.00  0.00    -0.014 A 
ATOM     62  C   UNL A   1      50.160  26.060  27.415  1.00  0.00     0.010 A 
ATOM     63  C   UNL A   1      49.717  26.789  25.147  1.00  0.00     0.010 A 
ATOM     64  C   UNL A   1      51.405  25.568  27.014  1.00  0.00     0.020 A 
ATOM     65  C   UNL A   1      50.947  26.268  24.734  1.00  0.00     0.020 A 
ATOM     66  C   UNL A   1      51.792  25.678  25.676  1.00  0.00     0.054 A 
BRANCH  66  67
ATOM     67  S   UNL A   1      53.406  25.018  25.182  1.00  0.00     0.124 S 
ATOM     68  O   UNL A   1      54.289  25.591  26.197  1.00  0.00    -0.237 OA
ATOM     69  O   UNL A   1      53.202  23.574  25.271  1.00  0.00    -0.237 OA
ATOM     70  O   UNL A   1      53.596  25.536  23.829  1.00  0.00    -0.744 OA
ENDBRANCH  66  67
ENDBRANCH  47  61
BRANCH  48  71
ATOM     71  C   UNL A   1      40.326  29.863  29.543  1.00  0.00    -0.014 A 
ATOM     72  C   UNL A   1      40.023  29.828  30.914  1.00  0.00     0.010 A 
ATOM     73  C   UNL A   1      39.363  30.360  28.644  1.00  0.00     0.010 A 
ATOM     74  C   UNL A   1      38.778  30.264  31.377  1.00  0.00     0.020 A 
ATOM     75  C   UNL A   1      38.130  30.827  29.105  1.00  0.00     0.020 A 
ATOM     76  C   UNL A   1      37.840  30.766  30.469  1.00  0.00     0.054 A 
BRANCH  76  77
ATOM     77  S   UNL A   1      36.253  31.378  31.099  1.00  0.00     0.124 S 
ATOM     78  O   UNL A   1      36.609  32.708  31.580  1.00  0.00    -0.237 OA
ATOM     79  O   UNL A   1      35.407  31.341  29.908  1.00  0.00    -0.237 OA
ATOM     80  O   UNL A   1      35.899  30.410  32.134  1.00  0.00    -0.744 OA
ENDBRANCH  76  77
ENDBRANCH  48  71
BRANCH  60  81
ATOM     81  C   UNL A   1      46.541  32.958  28.779  1.00  0.00    -0.014 A 
ATOM     82  C   UNL A   1      47.109  33.348  30.004  1.00  0.00     0.010 A 
ATOM     83  C   UNL A   1      46.476  33.890  27.727  1.00  0.00     0.010 A 
ATOM     84  C   UNL A   1      47.576  34.654  30.182  1.00  0.00     0.020 A 
ATOM     85  C   UNL A   1      46.971  35.186  27.889  1.00  0.00     0.020 A 
ATOM     86  C   UNL A   1      47.507  35.563  29.121  1.00  0.00     0.054 A 
BRANCH  86  87
ATOM     87  S   UNL A   1      48.168  37.235  29.362  1.00  0.00     0.124 S 
ATOM     88  O   UNL A   1      48.695  37.160  30.722  1.00  0.00    -0.237 OA
ATOM     89  O   UNL A   1      49.171  37.336  28.304  1.00  0.00    -0.237 OA
ATOM     90  O   UNL A   1      47.002  38.098  29.192  1.00  0.00    -0.744 OA
ENDBRANCH  86  87
ENDBRANCH  60  81
ENDBRANCH  34  35
ENDBRANCH  26  29
ENDBRANCH  24  25
ENDBRANCH   1  24
TORSDOF 19
ENDMDL
MODEL 3
REMARK VINA RESULT:      -9.9      1.104      2.203
REMARK SMILES CC[C@@](O)(C(=O)NCCCNC(=O)c1ccc(-c2c3nc(c(-c4ccc(S(=O)(=O)[O-])cc4)c4ccc([nH]4)c(-c4ccc(S(=O)(=O)[O-])cc4)c4nc(c(-c5ccc(S(=O)(=O)[O-])cc5)c5ccc2[nH]5)C=C4)C=C3)cc1)[C@@H](C)c1ccc(OC)c(OC)c1
REMARK SMILES IDX 9 1 8 2 7 3 5 4 6 5 3 7 2 8 1 9 4 10 74 12 75 13 76 14 77 15
REMARK SMILES IDX 85 16 78 17 82 18 79 19 83 20 84 21 80 22 81 23 10 24 11 25
REMARK SMILES IDX 12 26 13 28 14 29 15 30 73 31 16 32 72 33 17 34 18 35 19 36
REMARK SMILES IDX 66 37 20 38 71 39 65 40 67 41 21 42 70 43 64 44 63 45 22 47
REMARK SMILES IDX 52 48 33 49 51 50 34 51 37 52 50 53 68 54 35 55 36 56 49 58
REMARK SMILES IDX 69 59 38 60 23 61 24 62 32 63 25 64 31 65 26 66 27 67 28 68
REMARK SMILES IDX 29 69 30 70 53 71 54 72 62 73 55 74 61 75 56 76 57 77 58 78
REMARK SMILES IDX 59 79 60 80 39 81 40 82 48 83 41 84 47 85 42 86 43 87 44 88
REMARK SMILES IDX 45 89 46 90
REMARK H PARENT 7 6 4 11 11 27 67 46 37 57
REMARK Flexibility Score: inf
ROOT
ATOM      1  C   UNL A   1      32.756  28.285  25.966  1.00  0.00     0.042 C 
ENDROOT
BRANCH   1   2
ATOM      2  C   UNL A   1      33.195  28.938  24.662  1.00  0.00     0.117 C 
BRANCH   2   3
ATOM      3  N   UNL A   1      32.124  29.029  23.670  1.00  0.00    -0.354 N 
ATOM      4  C   UNL A   1      31.583  28.070  22.847  1.00  0.00     0.252 C 
ATOM      5  O   UNL A   1      30.557  28.372  22.232  1.00  0.00    -0.272 OA
ATOM      6  H   UNL A   1      31.725  29.925  23.577  1.00  0.00     0.163 HD
BRANCH   4   7
ATOM      7  C   UNL A   1      32.242  26.654  22.743  1.00  0.00     0.149 C 
BRANCH   7   8
ATOM      8  C   UNL A   1      31.702  25.996  21.444  1.00  0.00     0.043 C 
ATOM      9  C   UNL A   1      32.681  25.386  20.458  1.00  0.00     0.007 C 
ENDBRANCH   7   8
BRANCH   7  10
ATOM     10  O   UNL A   1      33.637  27.002  22.651  1.00  0.00    -0.379 OA
ATOM     11  H   UNL A   1      33.986  27.182  23.538  1.00  0.00     0.212 HD
ENDBRANCH   7  10
BRANCH   7  12
ATOM     12  C   UNL A   1      32.023  25.779  24.046  1.00  0.00     0.058 C 
ATOM     13  C   UNL A   1      30.618  25.131  24.028  1.00  0.00     0.016 C 
BRANCH  12  14
ATOM     14  C   UNL A   1      33.113  24.721  24.375  1.00  0.00    -0.038 A 
ATOM     15  C   UNL A   1      34.319  25.085  24.986  1.00  0.00     0.008 A 
ATOM     16  C   UNL A   1      32.974  23.355  24.063  1.00  0.00     0.054 A 
ATOM     17  C   UNL A   1      35.266  24.114  25.349  1.00  0.00     0.051 A 
ATOM     18  C   UNL A   1      33.891  22.364  24.437  1.00  0.00     0.160 A 
ATOM     19  C   UNL A   1      35.048  22.751  25.111  1.00  0.00     0.160 A 
BRANCH  18  20
ATOM     20  O   UNL A   1      33.705  21.047  24.101  1.00  0.00    -0.493 OA
ATOM     21  C   UNL A   1      33.197  20.182  25.117  1.00  0.00     0.278 C 
ENDBRANCH  18  20
BRANCH  19  22
ATOM     22  O   UNL A   1      36.053  21.942  25.575  1.00  0.00    -0.493 OA
ATOM     23  C   UNL A   1      37.318  22.062  24.934  1.00  0.00     0.278 C 
ENDBRANCH  19  22
ENDBRANCH  12  14
ENDBRANCH   7  12
ENDBRANCH   4   7
ENDBRANCH   2   3
ENDBRANCH   1   2
BRANCH   1  24
ATOM     24  C   UNL A   1      33.679  28.577  27.130  1.00  0.00     0.118 C 
BRANCH  24  25
ATOM     25  N   UNL A   1      33.579  29.957  27.578  1.00  0.00    -0.352 N 
ATOM     26  C   UNL A   1      34.472  30.711  28.300  1.00  0.00     0.251 C 
ATOM     27  H   UNL A   1      32.747  30.419  27.327  1.00  0.00     0.163 HD
ATOM     28  O   UNL A   1      34.112  31.782  28.778  1.00  0.00    -0.269 OA
BRANCH  26  29
ATOM     29  C   UNL A   1      35.851  30.221  28.516  1.00  0.00     0.039 A 
ATOM     30  C   UNL A   1      36.772  30.308  27.468  1.00  0.00     0.014 A 
ATOM     31  C   UNL A   1      36.236  29.674  29.742  1.00  0.00     0.014 A 
ATOM     32  C   UNL A   1      38.092  29.903  27.676  1.00  0.00     0.010 A 
ATOM     33  C   UNL A   1      37.571  29.370  29.978  1.00  0.00     0.010 A 
ATOM     34  C   UNL A   1      38.512  29.467  28.944  1.00  0.00    -0.014 A 
BRANCH  34  35
ATOM     35  C   UNL A   1      39.924  29.097  29.208  1.00  0.00     0.031 A 
ATOM     36  C   UNL A   1      40.878  30.115  29.774  1.00  0.00     0.074 A 
ATOM     37  C   UNL A   1      40.366  27.867  28.873  1.00  0.00     0.049 A 
ATOM     38  N   UNL A   1      42.160  30.003  30.010  1.00  0.00    -0.248 NA
ATOM     39  C   UNL A   1      40.325  31.443  30.090  1.00  0.00     0.031 C 
ATOM     40  C   UNL A   1      39.550  26.807  28.276  1.00  0.00     0.029 A 
ATOM     41  N   UNL A   1      41.613  27.304  28.982  1.00  0.00    -0.354 N 
ATOM     42  C   UNL A   1      42.567  31.245  30.484  1.00  0.00     0.074 A 
ATOM     43  C   UNL A   1      41.411  32.113  30.446  1.00  0.00     0.031 C 
ATOM     44  C   UNL A   1      40.312  25.716  28.095  1.00  0.00     0.029 A 
ATOM     45  C   UNL A   1      41.677  26.012  28.517  1.00  0.00     0.049 A 
ATOM     46  H   UNL A   1      42.388  27.781  29.356  1.00  0.00     0.167 HD
ATOM     47  C   UNL A   1      43.788  31.625  30.928  1.00  0.00     0.031 A 
ATOM     48  C   UNL A   1      42.719  25.162  28.427  1.00  0.00     0.031 A 
ATOM     49  C   UNL A   1      44.934  30.755  30.968  1.00  0.00     0.049 A 
ATOM     50  C   UNL A   1      44.071  25.611  28.912  1.00  0.00     0.074 A 
ATOM     51  C   UNL A   1      46.201  31.025  31.453  1.00  0.00     0.029 A 
ATOM     52  N   UNL A   1      44.954  29.450  30.499  1.00  0.00    -0.354 N 
ATOM     53  N   UNL A   1      44.420  26.767  29.425  1.00  0.00    -0.248 NA
ATOM     54  C   UNL A   1      45.166  24.636  28.817  1.00  0.00     0.031 C 
ATOM     55  C   UNL A   1      47.004  29.904  31.220  1.00  0.00     0.029 A 
ATOM     56  C   UNL A   1      46.219  28.911  30.656  1.00  0.00     0.049 A 
ATOM     57  H   UNL A   1      44.182  28.977  30.113  1.00  0.00     0.167 HD
ATOM     58  C   UNL A   1      45.769  26.649  29.740  1.00  0.00     0.074 A 
ATOM     59  C   UNL A   1      46.167  25.305  29.375  1.00  0.00     0.031 C 
ATOM     60  C   UNL A   1      46.602  27.571  30.286  1.00  0.00     0.031 A 
BRANCH  47  61
ATOM     61  C   UNL A   1      43.948  33.049  31.397  1.00  0.00    -0.014 A 
ATOM     62  C   UNL A   1      44.269  34.082  30.498  1.00  0.00     0.010 A 
ATOM     63  C   UNL A   1      43.744  33.364  32.753  1.00  0.00     0.010 A 
ATOM     64  C   UNL A   1      44.432  35.393  30.953  1.00  0.00     0.020 A 
ATOM     65  C   UNL A   1      43.874  34.680  33.207  1.00  0.00     0.020 A 
ATOM     66  C   UNL A   1      44.237  35.684  32.306  1.00  0.00     0.054 A 
BRANCH  66  67
ATOM     67  S   UNL A   1      44.441  37.396  32.865  1.00  0.00     0.124 S 
ATOM     68  O   UNL A   1      44.475  38.123  31.597  1.00  0.00    -0.237 OA
ATOM     69  O   UNL A   1      43.248  37.611  33.680  1.00  0.00    -0.237 OA
ATOM     70  O   UNL A   1      45.701  37.374  33.604  1.00  0.00    -0.744 OA
ENDBRANCH  66  67
ENDBRANCH  47  61
BRANCH  48  71
ATOM     71  C   UNL A   1      42.519  23.801  27.857  1.00  0.00    -0.014 A 
ATOM     72  C   UNL A   1      42.246  22.705  28.694  1.00  0.00     0.010 A 
ATOM     73  C   UNL A   1      42.580  23.598  26.466  1.00  0.00     0.010 A 
ATOM     74  C   UNL A   1      42.054  21.430  28.153  1.00  0.00     0.020 A 
ATOM     75  C   UNL A   1      42.358  22.332  25.918  1.00  0.00     0.020 A 
ATOM     76  C   UNL A   1      42.107  21.252  26.767  1.00  0.00     0.054 A 
BRANCH  76  77
ATOM     77  S   UNL A   1      41.800  19.601  26.084  1.00  0.00     0.124 S 
ATOM     78  O   UNL A   1      40.367  19.645  25.814  1.00  0.00    -0.237 OA
ATOM     79  O   UNL A   1      42.666  19.581  24.907  1.00  0.00    -0.237 OA
ATOM     80  O   UNL A   1      42.207  18.703  27.162  1.00  0.00    -0.744 OA
ENDBRANCH  76  77
ENDBRANCH  48  71
BRANCH  60  81
ATOM     81  C   UNL A   1      48.022  27.150  30.556  1.00  0.00    -0.014 A 
ATOM     82  C   UNL A   1      49.046  27.383  29.622  1.00  0.00     0.010 A 
ATOM     83  C   UNL A   1      48.346  26.570  31.796  1.00  0.00     0.010 A 
ATOM     84  C   UNL A   1      50.364  27.017  29.912  1.00  0.00     0.020 A 
ATOM     85  C   UNL A   1      49.666  26.232  32.103  1.00  0.00     0.020 A 
ATOM     86  C   UNL A   1      50.665  26.446  31.153  1.00  0.00     0.054 A 
BRANCH  86  87
ATOM     87  S   UNL A   1      52.391  26.028  31.524  1.00  0.00     0.124 S 
ATOM     88  O   UNL A   1      53.009  26.089  30.202  1.00  0.00    -0.237 OA
ATOM     89  O   UNL A   1      52.783  27.088  32.451  1.00  0.00    -0.237 OA
ATOM     90  O   UNL A   1      52.307  24.694  32.112  1.00  0.00    -0.744 OA
ENDBRANCH  86  87
ENDBRANCH  60  81
ENDBRANCH  34  35
ENDBRANCH  26  29
ENDBRANCH  24  25
ENDBRANCH   1  24
TORSDOF 19
ENDMDL
