MODEL 1
REMARK VINA RESULT:     -11.8      0.000      0.000
REMARK SMILES COc1ccc2[nH]c(C(=O)c3cc(C)ccn3)c(CC(=O)NCCCNC(=O)c3ccc(-c4c5nc(c(-c6ccc(S(=O)(=O)[O-])cc6)c6ccc([nH]6)c(-c6ccc(S(=O)(=O)[O-])cc6)c6nc(c(-c7ccc(S(=O)(=O)[O-])cc7)c7ccc4[nH]7)C=C6)C=C5)cc3)c2c1
REMARK SMILES IDX 24 1 23 2 22 3 20 4 21 5 19 7 18 8 3 9 4 10 90 11 5 12 89 13
REMARK SMILES IDX 6 14 7 15 8 16 2 18 1 19 9 20 10 21 11 22 12 23 17 24 13 25
REMARK SMILES IDX 16 26 14 27 15 28 25 29 26 30 27 31 28 33 29 34 30 35 88 36
REMARK SMILES IDX 31 37 87 38 32 39 33 40 34 41 81 42 35 43 86 44 80 45 82 46
REMARK SMILES IDX 36 47 85 48 79 49 78 50 37 52 67 53 48 54 66 55 49 56 52 57
REMARK SMILES IDX 65 58 83 59 50 60 51 61 64 63 84 64 53 65 38 66 39 67 47 68
REMARK SMILES IDX 40 69 46 70 41 71 42 72 43 73 44 74 45 75 68 76 69 77 77 78
REMARK SMILES IDX 70 79 76 80 71 81 72 82 73 83 74 84 75 85 54 86 55 87 63 88
REMARK SMILES IDX 56 89 62 90 57 91 58 92 59 93 60 94 61 95
REMARK H PARENT 22 6 7 17 26 32 82 51 52 62
REMARK Flexibility Score: inf
ROOT
ATOM      1  C   UNL A   1      35.455  23.635  25.714  1.00  0.00     0.042 C 
ENDROOT
BRANCH   1   2
ATOM      2  C   UNL A   1      34.539  24.854  25.676  1.00  0.00     0.117 C 
BRANCH   2   3
ATOM      3  N   UNL A   1      34.257  25.315  24.332  1.00  0.00    -0.356 N 
ATOM      4  C   UNL A   1      33.414  26.300  23.904  1.00  0.00     0.224 C 
ATOM      5  O   UNL A   1      33.535  26.661  22.729  1.00  0.00    -0.275 OA
ATOM      6  H   UNL A   1      34.748  24.845  23.619  1.00  0.00     0.163 HD
BRANCH   4   7
ATOM      7  C   UNL A   1      32.470  27.017  24.863  1.00  0.00     0.138 C 
BRANCH   7   8
ATOM      8  C   UNL A   1      31.010  26.681  24.697  1.00  0.00    -0.002 A 
ATOM      9  C   UNL A   1      28.982  29.225  22.665  1.00  0.00     0.119 A 
ATOM     10  C   UNL A   1      27.748  28.609  22.853  1.00  0.00     0.048 A 
ATOM     11  C   UNL A   1      30.142  28.649  23.194  1.00  0.00     0.057 A 
ATOM     12  C   UNL A   1      27.640  27.420  23.587  1.00  0.00     0.030 A 
ATOM     13  C   UNL A   1      30.060  27.467  23.961  1.00  0.00     0.008 A 
ATOM     14  C   UNL A   1      28.812  26.878  24.128  1.00  0.00     0.046 A 
ATOM     15  N   UNL A   1      28.999  25.750  24.890  1.00  0.00    -0.352 N 
ATOM     16  C   UNL A   1      30.337  25.553  25.169  1.00  0.00     0.093 A 
ATOM     17  H   UNL A   1      28.273  25.160  25.195  1.00  0.00     0.167 HD
BRANCH   9  18
ATOM     18  O   UNL A   1      29.187  30.381  21.958  1.00  0.00    -0.497 OA
ATOM     19  C   UNL A   1      28.136  30.749  21.071  1.00  0.00     0.278 C 
ENDBRANCH   9  18
BRANCH  16  20
ATOM     20  C   UNL A   1      30.887  24.384  25.849  1.00  0.00     0.227 C 
ATOM     21  O   UNL A   1      30.980  24.296  27.072  1.00  0.00    -0.285 OA
BRANCH  20  22
ATOM     22  C   UNL A   1      31.440  23.270  25.035  1.00  0.00     0.113 A 
ATOM     23  C   UNL A   1      31.916  22.125  25.669  1.00  0.00     0.036 A 
ATOM     24  N   UNL A   1      31.428  23.443  23.690  1.00  0.00    -0.253 NA
ATOM     25  C   UNL A   1      32.417  21.090  24.878  1.00  0.00    -0.047 A 
ATOM     26  C   UNL A   1      31.893  22.417  22.949  1.00  0.00     0.112 A 
ATOM     27  C   UNL A   1      32.953  19.832  25.491  1.00  0.00     0.044 C 
ATOM     28  C   UNL A   1      32.394  21.241  23.489  1.00  0.00     0.023 A 
ENDBRANCH  20  22
ENDBRANCH  16  20
ENDBRANCH   7   8
ENDBRANCH   4   7
ENDBRANCH   2   3
ENDBRANCH   1   2
BRANCH   1  29
ATOM     29  C   UNL A   1      36.817  23.843  25.056  1.00  0.00     0.118 C 
BRANCH  29  30
ATOM     30  N   UNL A   1      37.791  22.829  25.437  1.00  0.00    -0.352 N 
ATOM     31  C   UNL A   1      38.978  22.938  26.118  1.00  0.00     0.251 C 
ATOM     32  H   UNL A   1      37.560  21.913  25.159  1.00  0.00     0.163 HD
ATOM     33  O   UNL A   1      39.723  21.964  26.175  1.00  0.00    -0.269 OA
BRANCH  31  34
ATOM     34  C   UNL A   1      39.380  24.208  26.768  1.00  0.00     0.039 A 
ATOM     35  C   UNL A   1      38.954  24.449  28.080  1.00  0.00     0.014 A 
ATOM     36  C   UNL A   1      40.115  25.183  26.089  1.00  0.00     0.014 A 
ATOM     37  C   UNL A   1      39.312  25.636  28.726  1.00  0.00     0.010 A 
ATOM     38  C   UNL A   1      40.524  26.339  26.755  1.00  0.00     0.010 A 
ATOM     39  C   UNL A   1      40.125  26.580  28.078  1.00  0.00    -0.014 A 
BRANCH  39  40
ATOM     40  C   UNL A   1      40.566  27.820  28.768  1.00  0.00     0.031 A 
ATOM     41  C   UNL A   1      41.930  27.894  29.401  1.00  0.00     0.074 A 
ATOM     42  C   UNL A   1      39.716  28.860  28.881  1.00  0.00     0.049 A 
ATOM     43  N   UNL A   1      42.458  28.859  30.111  1.00  0.00    -0.248 NA
ATOM     44  C   UNL A   1      42.805  26.723  29.234  1.00  0.00     0.031 C 
ATOM     45  C   UNL A   1      38.355  28.904  28.343  1.00  0.00     0.029 A 
ATOM     46  N   UNL A   1      39.868  30.077  29.498  1.00  0.00    -0.354 N 
ATOM     47  C   UNL A   1      43.714  28.403  30.496  1.00  0.00     0.074 A 
ATOM     48  C   UNL A   1      43.855  27.063  29.969  1.00  0.00     0.031 C 
ATOM     49  C   UNL A   1      37.803  30.092  28.638  1.00  0.00     0.029 A 
ATOM     50  C   UNL A   1      38.755  30.879  29.417  1.00  0.00     0.049 A 
ATOM     51  H   UNL A   1      40.697  30.350  29.955  1.00  0.00     0.167 HD
ATOM     52  C   UNL A   1      44.670  29.045  31.210  1.00  0.00     0.031 A 
ATOM     53  C   UNL A   1      38.519  32.108  29.917  1.00  0.00     0.031 A 
ATOM     54  C   UNL A   1      44.538  30.385  31.718  1.00  0.00     0.049 A 
ATOM     55  C   UNL A   1      39.599  32.806  30.696  1.00  0.00     0.074 A 
ATOM     56  C   UNL A   1      45.472  31.140  32.408  1.00  0.00     0.029 A 
ATOM     57  N   UNL A   1      43.404  31.173  31.589  1.00  0.00    -0.354 N 
ATOM     58  N   UNL A   1      40.798  32.376  31.007  1.00  0.00    -0.248 NA
ATOM     59  C   UNL A   1      39.298  34.160  31.182  1.00  0.00     0.031 C 
ATOM     60  C   UNL A   1      44.889  32.371  32.729  1.00  0.00     0.029 A 
ATOM     61  C   UNL A   1      43.609  32.400  32.199  1.00  0.00     0.049 A 
ATOM     62  H   UNL A   1      42.576  30.900  31.132  1.00  0.00     0.167 HD
ATOM     63  C   UNL A   1      41.403  33.416  31.703  1.00  0.00     0.074 A 
ATOM     64  C   UNL A   1      40.443  34.499  31.759  1.00  0.00     0.031 C 
ATOM     65  C   UNL A   1      42.645  33.469  32.245  1.00  0.00     0.031 A 
BRANCH  52  66
ATOM     66  C   UNL A   1      45.945  28.297  31.491  1.00  0.00    -0.014 A 
ATOM     67  C   UNL A   1      46.036  27.398  32.569  1.00  0.00     0.010 A 
ATOM     68  C   UNL A   1      47.058  28.470  30.648  1.00  0.00     0.010 A 
ATOM     69  C   UNL A   1      47.231  26.719  32.825  1.00  0.00     0.020 A 
ATOM     70  C   UNL A   1      48.246  27.773  30.886  1.00  0.00     0.020 A 
ATOM     71  C   UNL A   1      48.330  26.917  31.985  1.00  0.00     0.054 A 
BRANCH  71  72
ATOM     72  S   UNL A   1      49.865  26.013  32.330  1.00  0.00     0.124 S 
ATOM     73  O   UNL A   1      50.880  27.014  32.013  1.00  0.00    -0.237 OA
ATOM     74  O   UNL A   1      49.732  25.680  33.746  1.00  0.00    -0.237 OA
ATOM     75  O   UNL A   1      49.808  24.872  31.418  1.00  0.00    -0.744 OA
ENDBRANCH  71  72
ENDBRANCH  52  66
BRANCH  53  76
ATOM     76  C   UNL A   1      37.205  32.762  29.683  1.00  0.00    -0.014 A 
ATOM     77  C   UNL A   1      36.299  32.942  30.743  1.00  0.00     0.010 A 
ATOM     78  C   UNL A   1      36.863  33.229  28.401  1.00  0.00     0.010 A 
ATOM     79  C   UNL A   1      35.068  33.567  30.523  1.00  0.00     0.020 A 
ATOM     80  C   UNL A   1      35.642  33.874  28.183  1.00  0.00     0.020 A 
ATOM     81  C   UNL A   1      34.749  34.031  29.244  1.00  0.00     0.054 A 
BRANCH  81  82
ATOM     82  S   UNL A   1      33.175  34.899  28.991  1.00  0.00     0.124 S 
ATOM     83  O   UNL A   1      33.621  36.202  28.511  1.00  0.00    -0.237 OA
ATOM     84  O   UNL A   1      32.504  34.056  28.004  1.00  0.00    -0.237 OA
ATOM     85  O   UNL A   1      32.567  34.891  30.319  1.00  0.00    -0.744 OA
ENDBRANCH  81  82
ENDBRANCH  53  76
BRANCH  65  86
ATOM     86  C   UNL A   1      43.051  34.751  32.918  1.00  0.00    -0.014 A 
ATOM     87  C   UNL A   1      42.845  34.947  34.295  1.00  0.00     0.010 A 
ATOM     88  C   UNL A   1      43.695  35.753  32.169  1.00  0.00     0.010 A 
ATOM     89  C   UNL A   1      43.252  36.136  34.907  1.00  0.00     0.020 A 
ATOM     90  C   UNL A   1      44.123  36.933  32.781  1.00  0.00     0.020 A 
ATOM     91  C   UNL A   1      43.887  37.122  34.144  1.00  0.00     0.054 A 
BRANCH  91  92
ATOM     92  S   UNL A   1      44.446  38.639  34.968  1.00  0.00     0.124 S 
ATOM     93  O   UNL A   1      44.174  38.340  36.371  1.00  0.00    -0.237 OA
ATOM     94  O   UNL A   1      45.858  38.706  34.601  1.00  0.00    -0.237 OA
ATOM     95  O   UNL A   1      43.607  39.681  34.379  1.00  0.00    -0.744 OA
ENDBRANCH  91  92
ENDBRANCH  65  86
ENDBRANCH  39  40
ENDBRANCH  31  34
ENDBRANCH  29  30
ENDBRANCH   1  29
TORSDOF 17
ENDMDL
MODEL 2
REMARK VINA RESULT:     -11.6      2.553      9.281
REMARK SMILES COc1ccc2[nH]c(C(=O)c3cc(C)ccn3)c(CC(=O)NCCCNC(=O)c3ccc(-c4c5nc(c(-c6ccc(S(=O)(=O)[O-])cc6)c6ccc([nH]6)c(-c6ccc(S(=O)(=O)[O-])cc6)c6nc(c(-c7ccc(S(=O)(=O)[O-])cc7)c7ccc4[nH]7)C=C6)C=C5)cc3)c2c1
REMARK SMILES IDX 24 1 23 2 22 3 20 4 21 5 19 7 18 8 3 9 4 10 90 11 5 12 89 13
REMARK SMILES IDX 6 14 7 15 8 16 2 18 1 19 9 20 10 21 11 22 12 23 17 24 13 25
REMARK SMILES IDX 16 26 14 27 15 28 25 29 26 30 27 31 28 33 29 34 30 35 88 36
REMARK SMILES IDX 31 37 87 38 32 39 33 40 34 41 81 42 35 43 86 44 80 45 82 46
REMARK SMILES IDX 36 47 85 48 79 49 78 50 37 52 67 53 48 54 66 55 49 56 52 57
REMARK SMILES IDX 65 58 83 59 50 60 51 61 64 63 84 64 53 65 38 66 39 67 47 68
REMARK SMILES IDX 40 69 46 70 41 71 42 72 43 73 44 74 45 75 68 76 69 77 77 78
REMARK SMILES IDX 70 79 76 80 71 81 72 82 73 83 74 84 75 85 54 86 55 87 63 88
REMARK SMILES IDX 56 89 62 90 57 91 58 92 59 93 60 94 61 95
REMARK H PARENT 22 6 7 17 26 32 82 51 52 62
REMARK Flexibility Score: inf
ROOT
ATOM      1  C   UNL A   1      33.105  28.112  25.911  1.00  0.00     0.042 C 
ENDROOT
BRANCH   1   2
ATOM      2  C   UNL A   1      33.475  26.714  25.429  1.00  0.00     0.117 C 
BRANCH   2   3
ATOM      3  N   UNL A   1      32.753  25.663  26.117  1.00  0.00    -0.356 N 
ATOM      4  C   UNL A   1      32.920  24.309  26.067  1.00  0.00     0.224 C 
ATOM      5  O   UNL A   1      32.337  23.646  26.931  1.00  0.00    -0.275 OA
ATOM      6  H   UNL A   1      32.031  25.973  26.711  1.00  0.00     0.163 HD
BRANCH   4   7
ATOM      7  C   UNL A   1      33.888  23.659  25.083  1.00  0.00     0.138 C 
BRANCH   7   8
ATOM      8  C   UNL A   1      33.242  22.879  23.968  1.00  0.00    -0.002 A 
ATOM      9  C   UNL A   1      32.717  19.148  24.690  1.00  0.00     0.119 A 
ATOM     10  C   UNL A   1      32.230  18.824  23.427  1.00  0.00     0.048 A 
ATOM     11  C   UNL A   1      33.042  20.474  24.998  1.00  0.00     0.057 A 
ATOM     12  C   UNL A   1      32.078  19.806  22.439  1.00  0.00     0.030 A 
ATOM     13  C   UNL A   1      32.924  21.479  24.014  1.00  0.00     0.008 A 
ATOM     14  C   UNL A   1      32.435  21.120  22.763  1.00  0.00     0.046 A 
ATOM     15  N   UNL A   1      32.404  22.262  22.001  1.00  0.00    -0.352 N 
ATOM     16  C   UNL A   1      32.797  23.363  22.736  1.00  0.00     0.093 A 
ATOM     17  H   UNL A   1      32.135  22.291  21.055  1.00  0.00     0.167 HD
BRANCH   9  18
ATOM     18  O   UNL A   1      32.893  18.261  25.719  1.00  0.00    -0.497 OA
ATOM     19  C   UNL A   1      32.648  16.896  25.398  1.00  0.00     0.278 C 
ENDBRANCH   9  18
BRANCH  16  20
ATOM     20  C   UNL A   1      32.758  24.743  22.264  1.00  0.00     0.227 C 
ATOM     21  O   UNL A   1      33.639  25.244  21.567  1.00  0.00    -0.285 OA
BRANCH  20  22
ATOM     22  C   UNL A   1      31.644  25.625  22.701  1.00  0.00     0.113 A 
ATOM     23  C   UNL A   1      31.611  26.952  22.282  1.00  0.00     0.036 A 
ATOM     24  N   UNL A   1      30.699  25.055  23.490  1.00  0.00    -0.253 NA
ATOM     25  C   UNL A   1      30.546  27.752  22.699  1.00  0.00    -0.047 A 
ATOM     26  C   UNL A   1      29.668  25.842  23.857  1.00  0.00     0.112 A 
ATOM     27  C   UNL A   1      30.448  29.191  22.293  1.00  0.00     0.044 C 
ATOM     28  C   UNL A   1      29.551  27.177  23.495  1.00  0.00     0.023 A 
ENDBRANCH  20  22
ENDBRANCH  16  20
ENDBRANCH   7   8
ENDBRANCH   4   7
ENDBRANCH   2   3
ENDBRANCH   1   2
BRANCH   1  29
ATOM     29  C   UNL A   1      33.624  28.462  27.304  1.00  0.00     0.118 C 
BRANCH  29  30
ATOM     30  N   UNL A   1      33.503  29.880  27.614  1.00  0.00    -0.352 N 
ATOM     31  C   UNL A   1      34.382  30.743  28.219  1.00  0.00     0.251 C 
ATOM     32  H   UNL A   1      32.648  30.287  27.345  1.00  0.00     0.163 HD
ATOM     33  O   UNL A   1      33.994  31.865  28.533  1.00  0.00    -0.269 OA
BRANCH  31  34
ATOM     34  C   UNL A   1      35.779  30.342  28.512  1.00  0.00     0.039 A 
ATOM     35  C   UNL A   1      36.715  30.376  27.472  1.00  0.00     0.014 A 
ATOM     36  C   UNL A   1      36.162  29.876  29.773  1.00  0.00     0.014 A 
ATOM     37  C   UNL A   1      38.041  30.003  27.710  1.00  0.00     0.010 A 
ATOM     38  C   UNL A   1      37.498  29.564  30.025  1.00  0.00     0.010 A 
ATOM     39  C   UNL A   1      38.451  29.621  28.997  1.00  0.00    -0.014 A 
BRANCH  39  40
ATOM     40  C   UNL A   1      39.869  29.277  29.284  1.00  0.00     0.031 A 
ATOM     41  C   UNL A   1      40.796  30.307  29.873  1.00  0.00     0.074 A 
ATOM     42  C   UNL A   1      40.340  28.058  28.956  1.00  0.00     0.049 A 
ATOM     43  N   UNL A   1      42.079  30.217  30.118  1.00  0.00    -0.248 NA
ATOM     44  C   UNL A   1      40.210  31.614  30.209  1.00  0.00     0.031 C 
ATOM     45  C   UNL A   1      39.556  26.982  28.348  1.00  0.00     0.029 A 
ATOM     46  N   UNL A   1      41.599  27.523  29.078  1.00  0.00    -0.354 N 
ATOM     47  C   UNL A   1      42.459  31.460  30.613  1.00  0.00     0.074 A 
ATOM     48  C   UNL A   1      41.278  32.296  30.601  1.00  0.00     0.031 C 
ATOM     49  C   UNL A   1      40.346  25.911  28.165  1.00  0.00     0.029 A 
ATOM     50  C   UNL A   1      41.699  26.235  28.608  1.00  0.00     0.049 A 
ATOM     51  H   UNL A   1      42.359  28.016  29.465  1.00  0.00     0.167 HD
ATOM     52  C   UNL A   1      43.675  31.865  31.050  1.00  0.00     0.031 A 
ATOM     53  C   UNL A   1      42.759  25.407  28.533  1.00  0.00     0.031 A 
ATOM     54  C   UNL A   1      44.845  31.029  31.080  1.00  0.00     0.049 A 
ATOM     55  C   UNL A   1      44.097  25.875  29.035  1.00  0.00     0.074 A 
ATOM     56  C   UNL A   1      46.110  31.333  31.555  1.00  0.00     0.029 A 
ATOM     57  N   UNL A   1      44.895  29.721  30.621  1.00  0.00    -0.354 N 
ATOM     58  N   UNL A   1      44.423  27.039  29.545  1.00  0.00    -0.248 NA
ATOM     59  C   UNL A   1      45.205  24.913  28.965  1.00  0.00     0.031 C 
ATOM     60  C   UNL A   1      46.935  30.222  31.348  1.00  0.00     0.029 A 
ATOM     61  C   UNL A   1      46.172  29.210  30.787  1.00  0.00     0.049 A 
ATOM     62  H   UNL A   1      44.136  29.229  30.234  1.00  0.00     0.167 HD
ATOM     63  C   UNL A   1      45.769  26.940  29.877  1.00  0.00     0.074 A 
ATOM     64  C   UNL A   1      46.193  25.602  29.522  1.00  0.00     0.031 C 
ATOM     65  C   UNL A   1      46.579  27.875  30.431  1.00  0.00     0.031 A 
BRANCH  52  66
ATOM     66  C   UNL A   1      43.802  33.287  31.527  1.00  0.00    -0.014 A 
ATOM     67  C   UNL A   1      44.238  34.306  30.661  1.00  0.00     0.010 A 
ATOM     68  C   UNL A   1      43.449  33.616  32.848  1.00  0.00     0.010 A 
ATOM     69  C   UNL A   1      44.362  35.620  31.121  1.00  0.00     0.020 A 
ATOM     70  C   UNL A   1      43.547  34.934  33.304  1.00  0.00     0.020 A 
ATOM     71  C   UNL A   1      44.022  35.924  32.442  1.00  0.00     0.054 A 
BRANCH  71  72
ATOM     72  S   UNL A   1      44.178  37.640  33.010  1.00  0.00     0.124 S 
ATOM     73  O   UNL A   1      43.144  37.709  34.040  1.00  0.00    -0.237 OA
ATOM     74  O   UNL A   1      45.554  37.695  33.498  1.00  0.00    -0.237 OA
ATOM     75  O   UNL A   1      43.915  38.428  31.808  1.00  0.00    -0.744 OA
ENDBRANCH  71  72
ENDBRANCH  52  66
BRANCH  53  76
ATOM     76  C   UNL A   1      42.592  24.042  27.968  1.00  0.00    -0.014 A 
ATOM     77  C   UNL A   1      42.312  22.952  28.810  1.00  0.00     0.010 A 
ATOM     78  C   UNL A   1      42.687  23.832  26.580  1.00  0.00     0.010 A 
ATOM     79  C   UNL A   1      42.144  21.671  28.277  1.00  0.00     0.020 A 
ATOM     80  C   UNL A   1      42.496  22.556  26.042  1.00  0.00     0.020 A 
ATOM     81  C   UNL A   1      42.233  21.482  26.895  1.00  0.00     0.054 A 
BRANCH  81  82
ATOM     82  S   UNL A   1      41.946  19.825  26.213  1.00  0.00     0.124 S 
ATOM     83  O   UNL A   1      42.838  19.813  25.058  1.00  0.00    -0.237 OA
ATOM     84  O   UNL A   1      42.333  18.955  27.321  1.00  0.00    -0.237 OA
ATOM     85  O   UNL A   1      40.518  19.829  25.905  1.00  0.00    -0.744 OA
ENDBRANCH  81  82
ENDBRANCH  53  76
BRANCH  65  86
ATOM     86  C   UNL A   1      48.001  27.475  30.718  1.00  0.00    -0.014 A 
ATOM     87  C   UNL A   1      49.047  27.830  29.847  1.00  0.00     0.010 A 
ATOM     88  C   UNL A   1      48.299  26.778  31.902  1.00  0.00     0.010 A 
ATOM     89  C   UNL A   1      50.364  27.471  30.144  1.00  0.00     0.020 A 
ATOM     90  C   UNL A   1      49.617  26.436  32.214  1.00  0.00     0.020 A 
ATOM     91  C   UNL A   1      50.640  26.773  31.325  1.00  0.00     0.054 A 
BRANCH  91  92
ATOM     92  S   UNL A   1      52.362  26.355  31.712  1.00  0.00     0.124 S 
ATOM     93  O   UNL A   1      52.903  26.047  30.391  1.00  0.00    -0.237 OA
ATOM     94  O   UNL A   1      52.863  27.582  32.326  1.00  0.00    -0.237 OA
ATOM     95  O   UNL A   1      52.245  25.215  32.619  1.00  0.00    -0.744 OA
ENDBRANCH  91  92
ENDBRANCH  65  86
ENDBRANCH  39  40
ENDBRANCH  31  34
ENDBRANCH  29  30
ENDBRANCH   1  29
TORSDOF 17
ENDMDL
MODEL 3
REMARK VINA RESULT:     -11.6      4.094      5.507
REMARK SMILES COc1ccc2[nH]c(C(=O)c3cc(C)ccn3)c(CC(=O)NCCCNC(=O)c3ccc(-c4c5nc(c(-c6ccc(S(=O)(=O)[O-])cc6)c6ccc([nH]6)c(-c6ccc(S(=O)(=O)[O-])cc6)c6nc(c(-c7ccc(S(=O)(=O)[O-])cc7)c7ccc4[nH]7)C=C6)C=C5)cc3)c2c1
REMARK SMILES IDX 24 1 23 2 22 3 20 4 21 5 19 7 18 8 3 9 4 10 90 11 5 12 89 13
REMARK SMILES IDX 6 14 7 15 8 16 2 18 1 19 9 20 10 21 11 22 12 23 17 24 13 25
REMARK SMILES IDX 16 26 14 27 15 28 25 29 26 30 27 31 28 33 29 34 30 35 88 36
REMARK SMILES IDX 31 37 87 38 32 39 33 40 34 41 81 42 35 43 86 44 80 45 82 46
REMARK SMILES IDX 36 47 85 48 79 49 78 50 37 52 67 53 48 54 66 55 49 56 52 57
REMARK SMILES IDX 65 58 83 59 50 60 51 61 64 63 84 64 53 65 38 66 39 67 47 68
REMARK SMILES IDX 40 69 46 70 41 71 42 72 43 73 44 74 45 75 68 76 69 77 77 78
REMARK SMILES IDX 70 79 76 80 71 81 72 82 73 83 74 84 75 85 54 86 55 87 63 88
REMARK SMILES IDX 56 89 62 90 57 91 58 92 59 93 60 94 61 95
REMARK H PARENT 22 6 7 17 26 32 82 51 52 62
REMARK Flexibility Score: inf
ROOT
ATOM      1  C   UNL A   1      38.155  19.640  25.157  1.00  0.00     0.042 C 
ENDROOT
BRANCH   1   2
ATOM      2  C   UNL A   1      36.933  20.539  25.003  1.00  0.00     0.117 C 
BRANCH   2   3
ATOM      3  N   UNL A   1      37.026  21.443  23.876  1.00  0.00    -0.356 N 
ATOM      4  C   UNL A   1      36.505  22.694  23.712  1.00  0.00     0.224 C 
ATOM      5  O   UNL A   1      36.931  23.352  22.757  1.00  0.00    -0.275 OA
ATOM      6  H   UNL A   1      37.546  21.103  23.111  1.00  0.00     0.163 HD
BRANCH   4   7
ATOM      7  C   UNL A   1      35.553  23.304  24.736  1.00  0.00     0.138 C 
BRANCH   7   8
ATOM      8  C   UNL A   1      34.107  23.357  24.315  1.00  0.00    -0.002 A 
ATOM      9  C   UNL A   1      33.145  26.410  22.202  1.00  0.00     0.119 A 
ATOM     10  C   UNL A   1      31.784  26.121  22.142  1.00  0.00     0.048 A 
ATOM     11  C   UNL A   1      34.019  25.537  22.858  1.00  0.00     0.057 A 
ATOM     12  C   UNL A   1      31.264  24.971  22.752  1.00  0.00     0.030 A 
ATOM     13  C   UNL A   1      33.519  24.386  23.505  1.00  0.00     0.008 A 
ATOM     14  C   UNL A   1      32.156  24.128  23.425  1.00  0.00     0.046 A 
ATOM     15  N   UNL A   1      31.927  22.961  24.112  1.00  0.00    -0.352 N 
ATOM     16  C   UNL A   1      33.107  22.419  24.582  1.00  0.00     0.093 A 
ATOM     17  H   UNL A   1      31.037  22.564  24.250  1.00  0.00     0.167 HD
BRANCH   9  18
ATOM     18  O   UNL A   1      33.744  27.503  21.633  1.00  0.00    -0.497 OA
ATOM     19  C   UNL A   1      34.027  28.578  22.522  1.00  0.00     0.278 C 
ENDBRANCH   9  18
BRANCH  16  20
ATOM     20  C   UNL A   1      33.230  21.124  25.243  1.00  0.00     0.227 C 
ATOM     21  O   UNL A   1      33.485  20.997  26.439  1.00  0.00    -0.285 OA
BRANCH  20  22
ATOM     22  C   UNL A   1      33.120  19.885  24.428  1.00  0.00     0.113 A 
ATOM     23  C   UNL A   1      33.844  18.754  24.796  1.00  0.00     0.036 A 
ATOM     24  N   UNL A   1      32.287  19.938  23.360  1.00  0.00    -0.253 NA
ATOM     25  C   UNL A   1      33.710  17.601  24.020  1.00  0.00    -0.047 A 
ATOM     26  C   UNL A   1      32.157  18.804  22.643  1.00  0.00     0.112 A 
ATOM     27  C   UNL A   1      34.464  16.349  24.352  1.00  0.00     0.044 C 
ATOM     28  C   UNL A   1      32.840  17.630  22.927  1.00  0.00     0.023 A 
ENDBRANCH  20  22
ENDBRANCH  16  20
ENDBRANCH   7   8
ENDBRANCH   4   7
ENDBRANCH   2   3
ENDBRANCH   1   2
BRANCH   1  29
ATOM     29  C   UNL A   1      39.359  20.311  25.815  1.00  0.00     0.118 C 
BRANCH  29  30
ATOM     30  N   UNL A   1      40.428  19.374  26.129  1.00  0.00    -0.352 N 
ATOM     31  C   UNL A   1      41.753  19.589  26.414  1.00  0.00     0.251 C 
ATOM     32  H   UNL A   1      40.155  18.428  26.137  1.00  0.00     0.163 HD
ATOM     33  O   UNL A   1      42.513  18.626  26.479  1.00  0.00    -0.269 OA
BRANCH  31  34
ATOM     34  C   UNL A   1      42.284  20.957  26.628  1.00  0.00     0.039 A 
ATOM     35  C   UNL A   1      42.586  21.738  25.508  1.00  0.00     0.014 A 
ATOM     36  C   UNL A   1      42.543  21.454  27.909  1.00  0.00     0.014 A 
ATOM     37  C   UNL A   1      43.090  23.032  25.670  1.00  0.00     0.010 A 
ATOM     38  C   UNL A   1      42.987  22.767  28.071  1.00  0.00     0.010 A 
ATOM     39  C   UNL A   1      43.268  23.568  26.954  1.00  0.00    -0.014 A 
BRANCH  39  40
ATOM     40  C   UNL A   1      43.746  24.963  27.149  1.00  0.00     0.031 A 
ATOM     41  C   UNL A   1      45.191  25.311  26.908  1.00  0.00     0.074 A 
ATOM     42  C   UNL A   1      42.895  25.903  27.603  1.00  0.00     0.049 A 
ATOM     43  N   UNL A   1      45.807  26.451  27.100  1.00  0.00    -0.248 NA
ATOM     44  C   UNL A   1      46.061  24.235  26.409  1.00  0.00     0.031 C 
ATOM     45  C   UNL A   1      41.479  25.688  27.909  1.00  0.00     0.029 A 
ATOM     46  N   UNL A   1      43.101  27.228  27.900  1.00  0.00    -0.354 N 
ATOM     47  C   UNL A   1      47.138  26.222  26.769  1.00  0.00     0.074 A 
ATOM     48  C   UNL A   1      47.247  24.828  26.398  1.00  0.00     0.031 C 
ATOM     49  C   UNL A   1      40.941  26.843  28.332  1.00  0.00     0.029 A 
ATOM     50  C   UNL A   1      41.978  27.870  28.365  1.00  0.00     0.049 A 
ATOM     51  H   UNL A   1      43.971  27.676  27.789  1.00  0.00     0.167 HD
ATOM     52  C   UNL A   1      48.174  27.095  26.762  1.00  0.00     0.031 A 
ATOM     53  C   UNL A   1      41.800  29.140  28.779  1.00  0.00     0.031 A 
ATOM     54  C   UNL A   1      48.064  28.486  27.113  1.00  0.00     0.049 A 
ATOM     55  C   UNL A   1      42.961  30.094  28.750  1.00  0.00     0.074 A 
ATOM     56  C   UNL A   1      49.046  29.462  27.086  1.00  0.00     0.029 A 
ATOM     57  N   UNL A   1      46.901  29.102  27.551  1.00  0.00    -0.354 N 
ATOM     58  N   UNL A   1      44.202  29.869  28.388  1.00  0.00    -0.248 NA
ATOM     59  C   UNL A   1      42.696  31.476  29.175  1.00  0.00     0.031 C 
ATOM     60  C   UNL A   1      48.487  30.660  27.543  1.00  0.00     0.029 A 
ATOM     61  C   UNL A   1      47.145  30.441  27.812  1.00  0.00     0.049 A 
ATOM     62  H   UNL A   1      46.032  28.654  27.662  1.00  0.00     0.167 HD
ATOM     63  C   UNL A   1      44.858  31.088  28.517  1.00  0.00     0.074 A 
ATOM     64  C   UNL A   1      43.877  32.047  28.982  1.00  0.00     0.031 C 
ATOM     65  C   UNL A   1      46.158  31.384  28.271  1.00  0.00     0.031 A 
BRANCH  52  66
ATOM     66  C   UNL A   1      49.526  26.564  26.367  1.00  0.00    -0.014 A 
ATOM     67  C   UNL A   1      50.311  25.832  27.275  1.00  0.00     0.010 A 
ATOM     68  C   UNL A   1      50.004  26.770  25.059  1.00  0.00     0.010 A 
ATOM     69  C   UNL A   1      51.570  25.355  26.897  1.00  0.00     0.020 A 
ATOM     70  C   UNL A   1      51.251  26.272  24.670  1.00  0.00     0.020 A 
ATOM     71  C   UNL A   1      52.034  25.584  25.599  1.00  0.00     0.054 A 
BRANCH  71  72
ATOM     72  S   UNL A   1      53.665  24.942  25.129  1.00  0.00     0.124 S 
ATOM     73  O   UNL A   1      54.484  25.343  26.270  1.00  0.00    -0.237 OA
ATOM     74  O   UNL A   1      53.422  23.507  25.003  1.00  0.00    -0.237 OA
ATOM     75  O   UNL A   1      53.960  25.633  23.875  1.00  0.00    -0.744 OA
ENDBRANCH  71  72
ENDBRANCH  52  66
BRANCH  53  76
ATOM     76  C   UNL A   1      40.460  29.584  29.245  1.00  0.00    -0.014 A 
ATOM     77  C   UNL A   1      40.165  29.640  30.618  1.00  0.00     0.010 A 
ATOM     78  C   UNL A   1      39.479  29.976  28.315  1.00  0.00     0.010 A 
ATOM     79  C   UNL A   1      38.909  30.068  31.055  1.00  0.00     0.020 A 
ATOM     80  C   UNL A   1      38.230  30.427  28.750  1.00  0.00     0.020 A 
ATOM     81  C   UNL A   1      37.949  30.462  30.117  1.00  0.00     0.054 A 
BRANCH  81  82
ATOM     82  S   UNL A   1      36.346  31.078  30.704  1.00  0.00     0.124 S 
ATOM     83  O   UNL A   1      35.983  30.077  31.701  1.00  0.00    -0.237 OA
ATOM     84  O   UNL A   1      36.687  32.400  31.227  1.00  0.00    -0.237 OA
ATOM     85  O   UNL A   1      35.526  31.090  29.495  1.00  0.00    -0.744 OA
ENDBRANCH  81  82
ENDBRANCH  53  76
BRANCH  65  86
ATOM     86  C   UNL A   1      46.590  32.812  28.467  1.00  0.00    -0.014 A 
ATOM     87  C   UNL A   1      46.493  33.751  27.424  1.00  0.00     0.010 A 
ATOM     88  C   UNL A   1      47.053  33.229  29.728  1.00  0.00     0.010 A 
ATOM     89  C   UNL A   1      46.878  35.078  27.633  1.00  0.00     0.020 A 
ATOM     90  C   UNL A   1      47.417  34.560  29.947  1.00  0.00     0.020 A 
ATOM     91  C   UNL A   1      47.339  35.473  28.893  1.00  0.00     0.054 A 
BRANCH  91  92
ATOM     92  S   UNL A   1      47.791  37.211  29.154  1.00  0.00     0.124 S 
ATOM     93  O   UNL A   1      49.174  37.237  28.687  1.00  0.00    -0.237 OA
ATOM     94  O   UNL A   1      46.831  37.924  28.316  1.00  0.00    -0.237 OA
ATOM     95  O   UNL A   1      47.614  37.401  30.592  1.00  0.00    -0.744 OA
ENDBRANCH  91  92
ENDBRANCH  65  86
ENDBRANCH  39  40
ENDBRANCH  31  34
ENDBRANCH  29  30
ENDBRANCH   1  29
TORSDOF 17
ENDMDL
