MODEL 1
REMARK VINA RESULT:     -13.4      0.000      0.000
REMARK SMILES O=C(Cn1cnc(-c2ccccc2)c1-c1ccccc1)NCCCNC(=O)c1ccc(-c2c3nc(c(-c4ccc(S(=O)(=O)[O-])cc4)c4ccc([nH]4)c(-c4ccc(S(=O)(=O)[O-])cc4)c4nc(c(-c5ccc(S(=O)(=O)[O-])cc5)c5ccc2[nH]5)C=C4)C=C3)cc1
REMARK SMILES IDX 23 1 22 2 21 3 1 4 2 5 3 7 4 8 5 9 14 10 6 11 7 12 15 13
REMARK SMILES IDX 16 14 20 15 17 16 19 17 18 18 8 19 9 20 13 21 10 22 12 23
REMARK SMILES IDX 11 24 24 25 25 26 26 27 27 29 28 30 29 31 87 32 30 33 86 34
REMARK SMILES IDX 31 35 32 36 33 37 80 38 34 39 85 40 79 41 81 42 35 43 84 44
REMARK SMILES IDX 78 45 77 46 36 48 66 49 47 50 65 51 48 52 51 53 64 54 82 55
REMARK SMILES IDX 49 56 50 57 63 59 83 60 52 61 37 62 38 63 46 64 39 65 45 66
REMARK SMILES IDX 40 67 41 68 42 69 43 70 44 71 67 72 68 73 76 74 69 75 75 76
REMARK SMILES IDX 70 77 71 78 72 79 73 80 74 81 53 82 54 83 62 84 55 85 61 86
REMARK SMILES IDX 56 87 57 88 58 89 59 90 60 91
REMARK H PARENT 21 6 25 28 81 47 51 58
REMARK Flexibility Score: inf
ROOT
ATOM      1  C   UNL A   1      36.892  22.873  24.146  1.00  0.00     0.042 C 
ENDROOT
BRANCH   1   2
ATOM      2  C   UNL A   1      35.483  22.292  23.972  1.00  0.00     0.117 C 
BRANCH   2   3
ATOM      3  N   UNL A   1      34.410  23.117  24.519  1.00  0.00    -0.354 N 
ATOM      4  O   UNL A   1      33.672  21.554  26.028  1.00  0.00    -0.273 OA
ATOM      5  C   UNL A   1      33.611  22.692  25.565  1.00  0.00     0.239 C 
ATOM      6  H   UNL A   1      34.249  24.006  24.129  1.00  0.00     0.163 HD
BRANCH   5   7
ATOM      7  C   UNL A   1      32.599  23.696  26.084  1.00  0.00     0.223 C 
BRANCH   7   8
ATOM      8  N   UNL A   1      31.800  24.327  25.043  1.00  0.00    -0.321 N 
ATOM      9  C   UNL A   1      31.033  23.686  24.111  1.00  0.00     0.201 A 
ATOM     10  C   UNL A   1      31.667  25.679  24.820  1.00  0.00     0.076 A 
ATOM     11  N   UNL A   1      30.361  24.535  23.363  1.00  0.00    -0.236 NA
ATOM     12  C   UNL A   1      30.755  25.785  23.784  1.00  0.00     0.096 A 
BRANCH  10  13
ATOM     13  C   UNL A   1      32.179  26.680  25.727  1.00  0.00     0.000 A 
ATOM     14  C   UNL A   1      33.469  27.136  25.489  1.00  0.00     0.010 A 
ATOM     15  C   UNL A   1      31.398  27.242  26.741  1.00  0.00     0.010 A 
ATOM     16  C   UNL A   1      33.926  28.215  26.205  1.00  0.00     0.001 A 
ATOM     17  C   UNL A   1      31.889  28.319  27.475  1.00  0.00     0.001 A 
ATOM     18  C   UNL A   1      33.140  28.833  27.167  1.00  0.00     0.000 A 
ENDBRANCH  10  13
BRANCH  12  19
ATOM     19  C   UNL A   1      30.208  27.040  23.288  1.00  0.00     0.002 A 
ATOM     20  C   UNL A   1      28.850  27.338  23.461  1.00  0.00     0.010 A 
ATOM     21  C   UNL A   1      31.042  28.004  22.700  1.00  0.00     0.010 A 
ATOM     22  C   UNL A   1      28.342  28.582  23.067  1.00  0.00     0.001 A 
ATOM     23  C   UNL A   1      30.533  29.243  22.303  1.00  0.00     0.001 A 
ATOM     24  C   UNL A   1      29.184  29.532  22.489  1.00  0.00     0.000 A 
ENDBRANCH  12  19
ENDBRANCH   7   8
ENDBRANCH   5   7
ENDBRANCH   2   3
ENDBRANCH   1   2
BRANCH   1  25
ATOM     25  C   UNL A   1      37.392  22.840  25.583  1.00  0.00     0.118 C 
BRANCH  25  26
ATOM     26  N   UNL A   1      38.428  21.832  25.852  1.00  0.00    -0.352 N 
ATOM     27  C   UNL A   1      39.713  22.011  26.366  1.00  0.00     0.251 C 
ATOM     28  H   UNL A   1      38.181  20.903  25.642  1.00  0.00     0.163 HD
ATOM     29  O   UNL A   1      40.564  21.151  26.197  1.00  0.00    -0.269 OA
BRANCH  27  30
ATOM     30  C   UNL A   1      40.031  23.249  27.122  1.00  0.00     0.039 A 
ATOM     31  C   UNL A   1      41.258  23.484  27.755  1.00  0.00     0.014 A 
ATOM     32  C   UNL A   1      39.051  24.220  27.174  1.00  0.00     0.014 A 
ATOM     33  C   UNL A   1      41.468  24.717  28.397  1.00  0.00     0.010 A 
ATOM     34  C   UNL A   1      39.381  25.500  27.508  1.00  0.00     0.010 A 
ATOM     35  C   UNL A   1      40.507  25.726  28.271  1.00  0.00    -0.014 A 
BRANCH  35  36
ATOM     36  C   UNL A   1      40.646  27.105  28.721  1.00  0.00     0.031 A 
ATOM     37  C   UNL A   1      41.697  27.842  28.009  1.00  0.00     0.074 A 
ATOM     38  C   UNL A   1      39.782  27.738  29.552  1.00  0.00     0.049 A 
ATOM     39  N   UNL A   1      42.881  28.009  28.487  1.00  0.00    -0.248 NA
ATOM     40  C   UNL A   1      41.545  28.265  26.614  1.00  0.00     0.031 C 
ATOM     41  C   UNL A   1      38.682  27.184  30.344  1.00  0.00     0.029 A 
ATOM     42  N   UNL A   1      39.674  29.076  29.807  1.00  0.00    -0.354 N 
ATOM     43  C   UNL A   1      43.543  28.812  27.584  1.00  0.00     0.074 A 
ATOM     44  C   UNL A   1      42.768  28.750  26.366  1.00  0.00     0.031 C 
ATOM     45  C   UNL A   1      37.909  28.185  30.840  1.00  0.00     0.029 A 
ATOM     46  C   UNL A   1      38.530  29.460  30.507  1.00  0.00     0.049 A 
ATOM     47  H   UNL A   1      40.357  29.723  29.518  1.00  0.00     0.167 HD
ATOM     48  C   UNL A   1      44.513  29.659  28.020  1.00  0.00     0.031 A 
ATOM     49  C   UNL A   1      38.234  30.668  31.070  1.00  0.00     0.031 A 
ATOM     50  C   UNL A   1      44.811  29.435  29.420  1.00  0.00     0.049 A 
ATOM     51  C   UNL A   1      39.552  31.272  31.384  1.00  0.00     0.074 A 
ATOM     52  C   UNL A   1      45.272  28.360  30.158  1.00  0.00     0.029 A 
ATOM     53  N   UNL A   1      44.199  30.281  30.322  1.00  0.00    -0.354 N 
ATOM     54  N   UNL A   1      40.322  30.789  32.317  1.00  0.00    -0.248 NA
ATOM     55  C   UNL A   1      40.225  32.058  30.360  1.00  0.00     0.031 C 
ATOM     56  C   UNL A   1      44.513  28.387  31.366  1.00  0.00     0.029 A 
ATOM     57  C   UNL A   1      43.699  29.521  31.349  1.00  0.00     0.049 A 
ATOM     58  H   UNL A   1      44.134  31.260  30.242  1.00  0.00     0.167 HD
ATOM     59  C   UNL A   1      41.589  30.791  31.754  1.00  0.00     0.074 A 
ATOM     60  C   UNL A   1      41.486  31.676  30.592  1.00  0.00     0.031 C 
ATOM     61  C   UNL A   1      42.526  29.870  32.123  1.00  0.00     0.031 A 
BRANCH  48  62
ATOM     62  C   UNL A   1      44.893  30.943  27.342  1.00  0.00    -0.014 A 
ATOM     63  C   UNL A   1      46.188  31.040  26.795  1.00  0.00     0.010 A 
ATOM     64  C   UNL A   1      44.142  32.129  27.446  1.00  0.00     0.010 A 
ATOM     65  C   UNL A   1      46.733  32.276  26.440  1.00  0.00     0.020 A 
ATOM     66  C   UNL A   1      44.663  33.364  27.058  1.00  0.00     0.020 A 
ATOM     67  C   UNL A   1      45.968  33.433  26.588  1.00  0.00     0.054 A 
BRANCH  67  68
ATOM     68  S   UNL A   1      46.720  35.032  26.211  1.00  0.00     0.124 S 
ATOM     69  O   UNL A   1      47.398  35.347  27.465  1.00  0.00    -0.237 OA
ATOM     70  O   UNL A   1      47.588  34.705  25.084  1.00  0.00    -0.237 OA
ATOM     71  O   UNL A   1      45.575  35.879  25.886  1.00  0.00    -0.744 OA
ENDBRANCH  67  68
ENDBRANCH  48  62
BRANCH  49  72
ATOM     72  C   UNL A   1      37.033  31.514  30.779  1.00  0.00    -0.014 A 
ATOM     73  C   UNL A   1      36.906  32.827  31.277  1.00  0.00     0.010 A 
ATOM     74  C   UNL A   1      36.094  31.117  29.814  1.00  0.00     0.010 A 
ATOM     75  C   UNL A   1      35.921  33.710  30.781  1.00  0.00     0.020 A 
ATOM     76  C   UNL A   1      35.105  31.978  29.319  1.00  0.00     0.020 A 
ATOM     77  C   UNL A   1      35.036  33.284  29.786  1.00  0.00     0.054 A 
BRANCH  77  78
ATOM     78  S   UNL A   1      33.879  34.461  29.019  1.00  0.00     0.124 S 
ATOM     79  O   UNL A   1      33.246  33.649  27.983  1.00  0.00    -0.237 OA
ATOM     80  O   UNL A   1      33.024  34.840  30.138  1.00  0.00    -0.237 OA
ATOM     81  O   UNL A   1      34.752  35.524  28.522  1.00  0.00    -0.744 OA
ENDBRANCH  77  78
ENDBRANCH  49  72
BRANCH  61  82
ATOM     82  C   UNL A   1      42.235  29.006  33.333  1.00  0.00    -0.014 A 
ATOM     83  C   UNL A   1      41.412  27.861  33.306  1.00  0.00     0.010 A 
ATOM     84  C   UNL A   1      42.944  29.288  34.511  1.00  0.00     0.010 A 
ATOM     85  C   UNL A   1      41.287  27.036  34.436  1.00  0.00     0.020 A 
ATOM     86  C   UNL A   1      42.839  28.463  35.633  1.00  0.00     0.020 A 
ATOM     87  C   UNL A   1      42.004  27.346  35.595  1.00  0.00     0.054 A 
BRANCH  87  88
ATOM     88  S   UNL A   1      41.873  26.264  37.046  1.00  0.00     0.124 S 
ATOM     89  O   UNL A   1      43.033  26.657  37.841  1.00  0.00    -0.237 OA
ATOM     90  O   UNL A   1      40.573  26.629  37.607  1.00  0.00    -0.237 OA
ATOM     91  O   UNL A   1      41.937  24.916  36.483  1.00  0.00    -0.744 OA
ENDBRANCH  87  88
ENDBRANCH  61  82
ENDBRANCH  35  36
ENDBRANCH  27  30
ENDBRANCH  25  26
ENDBRANCH   1  25
TORSDOF 16
ENDMDL
MODEL 2
REMARK VINA RESULT:     -12.9      2.771      9.335
REMARK SMILES O=C(Cn1cnc(-c2ccccc2)c1-c1ccccc1)NCCCNC(=O)c1ccc(-c2c3nc(c(-c4ccc(S(=O)(=O)[O-])cc4)c4ccc([nH]4)c(-c4ccc(S(=O)(=O)[O-])cc4)c4nc(c(-c5ccc(S(=O)(=O)[O-])cc5)c5ccc2[nH]5)C=C4)C=C3)cc1
REMARK SMILES IDX 23 1 22 2 21 3 1 4 2 5 3 7 4 8 5 9 14 10 6 11 7 12 15 13
REMARK SMILES IDX 16 14 20 15 17 16 19 17 18 18 8 19 9 20 13 21 10 22 12 23
REMARK SMILES IDX 11 24 24 25 25 26 26 27 27 29 28 30 29 31 87 32 30 33 86 34
REMARK SMILES IDX 31 35 32 36 33 37 80 38 34 39 85 40 79 41 81 42 35 43 84 44
REMARK SMILES IDX 78 45 77 46 36 48 66 49 47 50 65 51 48 52 51 53 64 54 82 55
REMARK SMILES IDX 49 56 50 57 63 59 83 60 52 61 37 62 38 63 46 64 39 65 45 66
REMARK SMILES IDX 40 67 41 68 42 69 43 70 44 71 67 72 68 73 76 74 69 75 75 76
REMARK SMILES IDX 70 77 71 78 72 79 73 80 74 81 53 82 54 83 62 84 55 85 61 86
REMARK SMILES IDX 56 87 57 88 58 89 59 90 60 91
REMARK H PARENT 21 6 25 28 81 47 51 58
REMARK Flexibility Score: inf
ROOT
ATOM      1  C   UNL A   1      32.026  29.922  26.729  1.00  0.00     0.042 C 
ENDROOT
BRANCH   1   2
ATOM      2  C   UNL A   1      31.632  28.441  26.688  1.00  0.00     0.117 C 
BRANCH   2   3
ATOM      3  N   UNL A   1      31.897  27.774  25.417  1.00  0.00    -0.354 N 
ATOM      4  O   UNL A   1      34.088  27.272  25.878  1.00  0.00    -0.273 OA
ATOM      5  C   UNL A   1      33.113  27.181  25.133  1.00  0.00     0.239 C 
ATOM      6  H   UNL A   1      31.185  27.747  24.738  1.00  0.00     0.163 HD
BRANCH   5   7
ATOM      7  C   UNL A   1      33.208  26.448  23.808  1.00  0.00     0.223 C 
BRANCH   7   8
ATOM      8  N   UNL A   1      32.542  25.152  23.797  1.00  0.00    -0.321 N 
ATOM      9  C   UNL A   1      31.230  24.920  23.495  1.00  0.00     0.201 A 
ATOM     10  C   UNL A   1      33.119  23.934  24.077  1.00  0.00     0.076 A 
ATOM     11  N   UNL A   1      30.951  23.633  23.487  1.00  0.00    -0.236 NA
ATOM     12  C   UNL A   1      32.116  23.003  23.860  1.00  0.00     0.096 A 
BRANCH  10  13
ATOM     13  C   UNL A   1      34.541  23.758  24.252  1.00  0.00     0.000 A 
ATOM     14  C   UNL A   1      35.048  23.993  25.523  1.00  0.00     0.010 A 
ATOM     15  C   UNL A   1      35.369  23.285  23.229  1.00  0.00     0.010 A 
ATOM     16  C   UNL A   1      36.354  23.659  25.782  1.00  0.00     0.001 A 
ATOM     17  C   UNL A   1      36.699  22.977  23.504  1.00  0.00     0.001 A 
ATOM     18  C   UNL A   1      37.173  23.122  24.800  1.00  0.00     0.000 A 
ENDBRANCH  10  13
BRANCH  12  19
ATOM     19  C   UNL A   1      32.301  21.560  23.912  1.00  0.00     0.002 A 
ATOM     20  C   UNL A   1      32.541  20.921  25.135  1.00  0.00     0.010 A 
ATOM     21  C   UNL A   1      32.166  20.777  22.755  1.00  0.00     0.010 A 
ATOM     22  C   UNL A   1      32.627  19.525  25.199  1.00  0.00     0.001 A 
ATOM     23  C   UNL A   1      32.258  19.385  22.819  1.00  0.00     0.001 A 
ATOM     24  C   UNL A   1      32.486  18.759  24.042  1.00  0.00     0.000 A 
ENDBRANCH  12  19
ENDBRANCH   7   8
ENDBRANCH   5   7
ENDBRANCH   2   3
ENDBRANCH   1   2
BRANCH   1  25
ATOM     25  C   UNL A   1      33.332  30.186  27.464  1.00  0.00     0.118 C 
BRANCH  25  26
ATOM     26  N   UNL A   1      33.908  31.520  27.241  1.00  0.00    -0.352 N 
ATOM     27  C   UNL A   1      35.126  32.035  27.685  1.00  0.00     0.251 C 
ATOM     28  H   UNL A   1      33.358  32.134  26.704  1.00  0.00     0.163 HD
ATOM     29  O   UNL A   1      35.299  33.244  27.728  1.00  0.00    -0.269 OA
BRANCH  27  30
ATOM     30  C   UNL A   1      36.206  31.104  28.098  1.00  0.00     0.039 A 
ATOM     31  C   UNL A   1      36.202  29.731  27.822  1.00  0.00     0.014 A 
ATOM     32  C   UNL A   1      37.278  31.650  28.777  1.00  0.00     0.014 A 
ATOM     33  C   UNL A   1      37.306  28.954  28.214  1.00  0.00     0.010 A 
ATOM     34  C   UNL A   1      38.453  30.962  28.856  1.00  0.00     0.010 A 
ATOM     35  C   UNL A   1      38.436  29.588  28.744  1.00  0.00    -0.014 A 
BRANCH  35  36
ATOM     36  C   UNL A   1      39.717  28.958  29.035  1.00  0.00     0.031 A 
ATOM     37  C   UNL A   1      39.925  28.707  30.467  1.00  0.00     0.074 A 
ATOM     38  C   UNL A   1      40.559  28.451  28.102  1.00  0.00     0.049 A 
ATOM     39  N   UNL A   1      40.614  29.489  31.222  1.00  0.00    -0.248 NA
ATOM     40  C   UNL A   1      39.195  27.661  31.189  1.00  0.00     0.031 C 
ATOM     41  C   UNL A   1      40.522  28.592  26.645  1.00  0.00     0.029 A 
ATOM     42  N   UNL A   1      41.625  27.616  28.283  1.00  0.00    -0.354 N 
ATOM     43  C   UNL A   1      40.653  28.883  32.458  1.00  0.00     0.074 A 
ATOM     44  C   UNL A   1      39.594  27.900  32.445  1.00  0.00     0.031 C 
ATOM     45  C   UNL A   1      41.395  27.726  26.068  1.00  0.00     0.029 A 
ATOM     46  C   UNL A   1      42.150  27.056  27.118  1.00  0.00     0.049 A 
ATOM     47  H   UNL A   1      41.996  27.424  29.174  1.00  0.00     0.167 HD
ATOM     48  C   UNL A   1      41.732  29.069  33.266  1.00  0.00     0.031 A 
ATOM     49  C   UNL A   1      43.307  26.352  26.951  1.00  0.00     0.031 A 
ATOM     50  C   UNL A   1      42.629  30.065  32.718  1.00  0.00     0.049 A 
ATOM     51  C   UNL A   1      44.203  26.836  28.028  1.00  0.00     0.074 A 
ATOM     52  C   UNL A   1      42.515  31.402  32.387  1.00  0.00     0.029 A 
ATOM     53  N   UNL A   1      43.717  29.591  32.013  1.00  0.00    -0.354 N 
ATOM     54  N   UNL A   1      44.691  28.044  28.023  1.00  0.00    -0.248 NA
ATOM     55  C   UNL A   1      44.149  26.189  29.331  1.00  0.00     0.031 C 
ATOM     56  C   UNL A   1      43.234  31.545  31.164  1.00  0.00     0.029 A 
ATOM     57  C   UNL A   1      43.827  30.319  30.856  1.00  0.00     0.049 A 
ATOM     58  H   UNL A   1      44.311  28.858  32.294  1.00  0.00     0.167 HD
ATOM     59  C   UNL A   1      44.550  28.480  29.331  1.00  0.00     0.074 A 
ATOM     60  C   UNL A   1      44.307  27.264  30.111  1.00  0.00     0.031 C 
ATOM     61  C   UNL A   1      44.375  29.803  29.619  1.00  0.00     0.031 A 
BRANCH  48  62
ATOM     62  C   UNL A   1      42.199  28.091  34.304  1.00  0.00    -0.014 A 
ATOM     63  C   UNL A   1      42.155  28.492  35.654  1.00  0.00     0.010 A 
ATOM     64  C   UNL A   1      42.911  26.915  33.999  1.00  0.00     0.010 A 
ATOM     65  C   UNL A   1      42.855  27.792  36.640  1.00  0.00     0.020 A 
ATOM     66  C   UNL A   1      43.580  26.187  34.983  1.00  0.00     0.020 A 
ATOM     67  C   UNL A   1      43.575  26.649  36.293  1.00  0.00     0.054 A 
BRANCH  67  68
ATOM     68  S   UNL A   1      44.547  25.810  37.563  1.00  0.00     0.124 S 
ATOM     69  O   UNL A   1      45.888  26.324  37.302  1.00  0.00    -0.237 OA
ATOM     70  O   UNL A   1      43.915  26.277  38.793  1.00  0.00    -0.237 OA
ATOM     71  O   UNL A   1      44.348  24.394  37.263  1.00  0.00    -0.744 OA
ENDBRANCH  67  68
ENDBRANCH  48  62
BRANCH  49  72
ATOM     72  C   UNL A   1      43.433  24.970  26.388  1.00  0.00    -0.014 A 
ATOM     73  C   UNL A   1      43.868  24.737  25.067  1.00  0.00     0.010 A 
ATOM     74  C   UNL A   1      43.343  23.845  27.224  1.00  0.00     0.010 A 
ATOM     75  C   UNL A   1      44.249  23.448  24.634  1.00  0.00     0.020 A 
ATOM     76  C   UNL A   1      43.708  22.558  26.807  1.00  0.00     0.020 A 
ATOM     77  C   UNL A   1      44.186  22.366  25.517  1.00  0.00     0.054 A 
BRANCH  77  78
ATOM     78  S   UNL A   1      44.835  20.739  25.024  1.00  0.00     0.124 S 
ATOM     79  O   UNL A   1      44.737  20.788  23.568  1.00  0.00    -0.237 OA
ATOM     80  O   UNL A   1      46.188  20.758  25.570  1.00  0.00    -0.237 OA
ATOM     81  O   UNL A   1      43.924  19.796  25.672  1.00  0.00    -0.744 OA
ENDBRANCH  77  78
ENDBRANCH  49  72
BRANCH  61  82
ATOM     82  C   UNL A   1      44.586  30.806  28.505  1.00  0.00    -0.014 A 
ATOM     83  C   UNL A   1      43.677  31.014  27.446  1.00  0.00     0.010 A 
ATOM     84  C   UNL A   1      45.684  31.674  28.618  1.00  0.00     0.010 A 
ATOM     85  C   UNL A   1      43.876  32.048  26.517  1.00  0.00     0.020 A 
ATOM     86  C   UNL A   1      45.879  32.716  27.709  1.00  0.00     0.020 A 
ATOM     87  C   UNL A   1      44.980  32.893  26.656  1.00  0.00     0.054 A 
BRANCH  87  88
ATOM     88  S   UNL A   1      45.223  34.253  25.478  1.00  0.00     0.124 S 
ATOM     89  O   UNL A   1      44.573  35.374  26.149  1.00  0.00    -0.237 OA
ATOM     90  O   UNL A   1      46.679  34.339  25.378  1.00  0.00    -0.237 OA
ATOM     91  O   UNL A   1      44.554  33.786  24.265  1.00  0.00    -0.744 OA
ENDBRANCH  87  88
ENDBRANCH  61  82
ENDBRANCH  35  36
ENDBRANCH  27  30
ENDBRANCH  25  26
ENDBRANCH   1  25
TORSDOF 16
ENDMDL
MODEL 3
REMARK VINA RESULT:     -12.8      1.071      2.064
REMARK SMILES O=C(Cn1cnc(-c2ccccc2)c1-c1ccccc1)NCCCNC(=O)c1ccc(-c2c3nc(c(-c4ccc(S(=O)(=O)[O-])cc4)c4ccc([nH]4)c(-c4ccc(S(=O)(=O)[O-])cc4)c4nc(c(-c5ccc(S(=O)(=O)[O-])cc5)c5ccc2[nH]5)C=C4)C=C3)cc1
REMARK SMILES IDX 23 1 22 2 21 3 1 4 2 5 3 7 4 8 5 9 14 10 6 11 7 12 15 13
REMARK SMILES IDX 16 14 20 15 17 16 19 17 18 18 8 19 9 20 13 21 10 22 12 23
REMARK SMILES IDX 11 24 24 25 25 26 26 27 27 29 28 30 29 31 87 32 30 33 86 34
REMARK SMILES IDX 31 35 32 36 33 37 80 38 34 39 85 40 79 41 81 42 35 43 84 44
REMARK SMILES IDX 78 45 77 46 36 48 66 49 47 50 65 51 48 52 51 53 64 54 82 55
REMARK SMILES IDX 49 56 50 57 63 59 83 60 52 61 37 62 38 63 46 64 39 65 45 66
REMARK SMILES IDX 40 67 41 68 42 69 43 70 44 71 67 72 68 73 76 74 69 75 75 76
REMARK SMILES IDX 70 77 71 78 72 79 73 80 74 81 53 82 54 83 62 84 55 85 61 86
REMARK SMILES IDX 56 87 57 88 58 89 59 90 60 91
REMARK H PARENT 21 6 25 28 81 47 51 58
REMARK Flexibility Score: inf
ROOT
ATOM      1  C   UNL A   1      36.872  22.215  24.547  1.00  0.00     0.042 C 
ENDROOT
BRANCH   1   2
ATOM      2  C   UNL A   1      35.654  21.289  24.639  1.00  0.00     0.117 C 
BRANCH   2   3
ATOM      3  N   UNL A   1      34.364  21.966  24.546  1.00  0.00    -0.354 N 
ATOM      4  O   UNL A   1      33.104  20.048  24.525  1.00  0.00    -0.273 OA
ATOM      5  C   UNL A   1      33.165  21.276  24.554  1.00  0.00     0.239 C 
ATOM      6  H   UNL A   1      34.347  22.947  24.474  1.00  0.00     0.163 HD
BRANCH   5   7
ATOM      7  C   UNL A   1      31.905  22.122  24.543  1.00  0.00     0.223 C 
BRANCH   7   8
ATOM      8  N   UNL A   1      31.927  23.231  25.488  1.00  0.00    -0.321 N 
ATOM      9  C   UNL A   1      31.871  23.134  26.850  1.00  0.00     0.201 A 
ATOM     10  C   UNL A   1      32.019  24.569  25.177  1.00  0.00     0.076 A 
ATOM     11  N   UNL A   1      32.000  24.309  27.429  1.00  0.00    -0.236 NA
ATOM     12  C   UNL A   1      32.081  25.218  26.399  1.00  0.00     0.096 A 
BRANCH  10  13
ATOM     13  C   UNL A   1      32.290  25.050  23.843  1.00  0.00     0.000 A 
ATOM     14  C   UNL A   1      31.191  25.400  23.070  1.00  0.00     0.010 A 
ATOM     15  C   UNL A   1      33.590  25.249  23.368  1.00  0.00     0.010 A 
ATOM     16  C   UNL A   1      31.406  26.035  21.872  1.00  0.00     0.001 A 
ATOM     17  C   UNL A   1      33.788  25.872  22.138  1.00  0.00     0.001 A 
ATOM     18  C   UNL A   1      32.688  26.307  21.415  1.00  0.00     0.000 A 
ENDBRANCH  10  13
BRANCH  12  19
ATOM     19  C   UNL A   1      32.311  26.646  26.566  1.00  0.00     0.002 A 
ATOM     20  C   UNL A   1      31.291  27.476  27.049  1.00  0.00     0.010 A 
ATOM     21  C   UNL A   1      33.576  27.203  26.321  1.00  0.00     0.010 A 
ATOM     22  C   UNL A   1      31.539  28.831  27.298  1.00  0.00     0.001 A 
ATOM     23  C   UNL A   1      33.821  28.556  26.564  1.00  0.00     0.001 A 
ATOM     24  C   UNL A   1      32.803  29.369  27.055  1.00  0.00     0.000 A 
ENDBRANCH  12  19
ENDBRANCH   7   8
ENDBRANCH   5   7
ENDBRANCH   2   3
ENDBRANCH   1   2
BRANCH   1  25
ATOM     25  C   UNL A   1      37.637  22.350  25.856  1.00  0.00     0.118 C 
BRANCH  25  26
ATOM     26  N   UNL A   1      38.831  21.499  25.963  1.00  0.00    -0.352 N 
ATOM     27  C   UNL A   1      40.126  21.850  26.342  1.00  0.00     0.251 C 
ATOM     28  H   UNL A   1      38.697  20.551  25.737  1.00  0.00     0.163 HD
ATOM     29  O   UNL A   1      41.067  21.130  26.041  1.00  0.00    -0.269 OA
BRANCH  27  30
ATOM     30  C   UNL A   1      40.349  23.097  27.117  1.00  0.00     0.039 A 
ATOM     31  C   UNL A   1      41.436  23.301  27.976  1.00  0.00     0.014 A 
ATOM     32  C   UNL A   1      39.425  24.111  26.949  1.00  0.00     0.014 A 
ATOM     33  C   UNL A   1      41.575  24.544  28.617  1.00  0.00     0.010 A 
ATOM     34  C   UNL A   1      39.745  25.385  27.312  1.00  0.00     0.010 A 
ATOM     35  C   UNL A   1      40.706  25.588  28.278  1.00  0.00    -0.014 A 
BRANCH  35  36
ATOM     36  C   UNL A   1      40.820  26.974  28.714  1.00  0.00     0.031 A 
ATOM     37  C   UNL A   1      41.861  27.722  27.997  1.00  0.00     0.074 A 
ATOM     38  C   UNL A   1      39.943  27.601  29.535  1.00  0.00     0.049 A 
ATOM     39  N   UNL A   1      43.040  27.914  28.476  1.00  0.00    -0.248 NA
ATOM     40  C   UNL A   1      41.706  28.127  26.597  1.00  0.00     0.031 C 
ATOM     41  C   UNL A   1      38.850  27.036  30.330  1.00  0.00     0.029 A 
ATOM     42  N   UNL A   1      39.811  28.939  29.776  1.00  0.00    -0.354 N 
ATOM     43  C   UNL A   1      43.691  28.719  27.567  1.00  0.00     0.074 A 
ATOM     44  C   UNL A   1      42.921  28.630  26.347  1.00  0.00     0.031 C 
ATOM     45  C   UNL A   1      38.058  28.029  30.812  1.00  0.00     0.029 A 
ATOM     46  C   UNL A   1      38.658  29.311  30.468  1.00  0.00     0.049 A 
ATOM     47  H   UNL A   1      40.483  29.595  29.481  1.00  0.00     0.167 HD
ATOM     48  C   UNL A   1      44.645  29.588  27.997  1.00  0.00     0.031 A 
ATOM     49  C   UNL A   1      38.340  30.519  31.017  1.00  0.00     0.031 A 
ATOM     50  C   UNL A   1      44.942  29.384  29.400  1.00  0.00     0.049 A 
ATOM     51  C   UNL A   1      39.645  31.149  31.328  1.00  0.00     0.074 A 
ATOM     52  C   UNL A   1      45.419  28.325  30.151  1.00  0.00     0.029 A 
ATOM     53  N   UNL A   1      44.312  30.228  30.291  1.00  0.00    -0.354 N 
ATOM     54  N   UNL A   1      40.421  30.690  32.269  1.00  0.00    -0.248 NA
ATOM     55  C   UNL A   1      40.308  31.937  30.298  1.00  0.00     0.031 C 
ATOM     56  C   UNL A   1      44.656  28.352  31.356  1.00  0.00     0.029 A 
ATOM     57  C   UNL A   1      43.823  29.471  31.325  1.00  0.00     0.049 A 
ATOM     58  H   UNL A   1      44.230  31.205  30.201  1.00  0.00     0.167 HD
ATOM     59  C   UNL A   1      41.689  30.708  31.710  1.00  0.00     0.074 A 
ATOM     60  C   UNL A   1      41.575  31.579  30.538  1.00  0.00     0.031 C 
ATOM     61  C   UNL A   1      42.641  29.807  32.092  1.00  0.00     0.031 A 
BRANCH  48  62
ATOM     62  C   UNL A   1      45.005  30.871  27.307  1.00  0.00    -0.014 A 
ATOM     63  C   UNL A   1      46.363  31.100  27.011  1.00  0.00     0.010 A 
ATOM     64  C   UNL A   1      44.119  31.956  27.172  1.00  0.00     0.010 A 
ATOM     65  C   UNL A   1      46.825  32.375  26.673  1.00  0.00     0.020 A 
ATOM     66  C   UNL A   1      44.563  33.224  26.796  1.00  0.00     0.020 A 
ATOM     67  C   UNL A   1      45.920  33.432  26.580  1.00  0.00     0.054 A 
BRANCH  67  68
ATOM     68  S   UNL A   1      46.546  35.090  26.232  1.00  0.00     0.124 S 
ATOM     69  O   UNL A   1      47.563  35.250  27.266  1.00  0.00    -0.237 OA
ATOM     70  O   UNL A   1      47.044  34.950  24.867  1.00  0.00    -0.237 OA
ATOM     71  O   UNL A   1      45.364  35.938  26.375  1.00  0.00    -0.744 OA
ENDBRANCH  67  68
ENDBRANCH  48  62
BRANCH  49  72
ATOM     72  C   UNL A   1      37.125  31.342  30.713  1.00  0.00    -0.014 A 
ATOM     73  C   UNL A   1      36.868  32.565  31.366  1.00  0.00     0.010 A 
ATOM     74  C   UNL A   1      36.314  31.041  29.607  1.00  0.00     0.010 A 
ATOM     75  C   UNL A   1      35.886  33.462  30.889  1.00  0.00     0.020 A 
ATOM     76  C   UNL A   1      35.330  31.915  29.127  1.00  0.00     0.020 A 
ATOM     77  C   UNL A   1      35.135  33.139  29.755  1.00  0.00     0.054 A 
BRANCH  77  78
ATOM     78  S   UNL A   1      33.993  34.356  29.032  1.00  0.00     0.124 S 
ATOM     79  O   UNL A   1      33.222  33.546  28.092  1.00  0.00    -0.237 OA
ATOM     80  O   UNL A   1      33.262  34.839  30.199  1.00  0.00    -0.237 OA
ATOM     81  O   UNL A   1      34.884  35.337  28.414  1.00  0.00    -0.744 OA
ENDBRANCH  77  78
ENDBRANCH  49  72
BRANCH  61  82
ATOM     82  C   UNL A   1      42.362  28.951  33.309  1.00  0.00    -0.014 A 
ATOM     83  C   UNL A   1      41.494  27.840  33.311  1.00  0.00     0.010 A 
ATOM     84  C   UNL A   1      43.124  29.202  34.462  1.00  0.00     0.010 A 
ATOM     85  C   UNL A   1      41.378  27.017  34.443  1.00  0.00     0.020 A 
ATOM     86  C   UNL A   1      43.028  28.378  35.585  1.00  0.00     0.020 A 
ATOM     87  C   UNL A   1      42.149  27.294  35.575  1.00  0.00     0.054 A 
BRANCH  87  88
ATOM     88  S   UNL A   1      42.029  26.213  37.029  1.00  0.00     0.124 S 
ATOM     89  O   UNL A   1      42.419  24.913  36.490  1.00  0.00    -0.237 OA
ATOM     90  O   UNL A   1      42.978  26.817  37.962  1.00  0.00    -0.237 OA
ATOM     91  O   UNL A   1      40.627  26.322  37.429  1.00  0.00    -0.744 OA
ENDBRANCH  87  88
ENDBRANCH  61  82
ENDBRANCH  35  36
ENDBRANCH  27  30
ENDBRANCH  25  26
ENDBRANCH   1  25
TORSDOF 16
ENDMDL
