MODEL 1
REMARK VINA RESULT:     -14.0      0.000      0.000
REMARK SMILES Cc1ccc([C@H](C)NC(=O)[C@H]2[C@@H]3CC[C@@H](C3)[C@@H]2C(=O)NCCCNC(=O)c2ccc(-c3c4nc(c(-c5ccc(S(=O)(=O)[O-])cc5)c5ccc([nH]5)c(-c5ccc(S(=O)(=O)[O-])cc5)c5nc(c(-c6ccc(S(=O)(=O)[O-])cc6)c6ccc3[nH]6)C=C5)C=C4)cc2)cc1
REMARK SMILES IDX 22 1 21 2 20 3 18 4 19 5 17 7 11 8 12 9 13 10 16 11 15 12
REMARK SMILES IDX 14 13 9 14 8 15 10 17 6 18 7 19 5 20 1 21 2 22 3 23 88 24
REMARK SMILES IDX 4 25 87 26 23 27 24 28 25 29 26 31 27 32 28 33 86 34 29 35
REMARK SMILES IDX 85 36 30 37 31 38 32 39 79 40 33 41 84 42 78 43 80 44 34 45
REMARK SMILES IDX 83 46 77 47 76 48 35 50 65 51 46 52 64 53 47 54 50 55 63 56
REMARK SMILES IDX 81 57 48 58 49 59 62 61 82 62 51 63 36 64 37 65 45 66 38 67
REMARK SMILES IDX 44 68 39 69 40 70 41 71 42 72 43 73 66 74 67 75 75 76 68 77
REMARK SMILES IDX 74 78 69 79 70 80 71 81 72 82 73 83 52 84 53 85 61 86 54 87
REMARK SMILES IDX 60 88 55 89 56 90 57 91 58 92 59 93
REMARK H PARENT 20 6 8 16 24 30 80 49 50 60
REMARK Flexibility Score: inf
ROOT
ATOM      1  C   UNL A   1      34.228  28.967  26.123  1.00  0.00     0.042 C 
ENDROOT
BRANCH   1   2
ATOM      2  C   UNL A   1      34.041  27.473  25.859  1.00  0.00     0.117 C 
BRANCH   2   3
ATOM      3  N   UNL A   1      32.815  26.931  26.425  1.00  0.00    -0.356 N 
ATOM      4  C   UNL A   1      31.720  26.373  25.841  1.00  0.00     0.224 C 
ATOM      5  O   UNL A   1      30.914  25.807  26.585  1.00  0.00    -0.275 OA
ATOM      6  H   UNL A   1      32.769  26.977  27.408  1.00  0.00     0.163 HD
BRANCH   4   7
ATOM      7  C   UNL A   1      31.547  26.315  24.321  1.00  0.00     0.094 C 
ATOM      8  C   UNL A   1      32.736  26.712  23.440  1.00  0.00     0.094 C 
ATOM      9  C   UNL A   1      32.169  27.803  22.496  1.00  0.00     0.002 C 
ATOM     10  C   UNL A   1      31.998  29.097  23.316  1.00  0.00     0.005 C 
ATOM     11  C   UNL A   1      30.715  27.389  22.312  1.00  0.00     0.009 C 
ATOM     12  C   UNL A   1      30.450  27.314  23.818  1.00  0.00     0.002 C 
ATOM     13  C   UNL A   1      30.794  28.770  24.211  1.00  0.00     0.005 C 
BRANCH   8  14
ATOM     14  C   UNL A   1      33.518  25.639  22.682  1.00  0.00     0.224 C 
ATOM     15  N   UNL A   1      34.168  24.579  23.208  1.00  0.00    -0.349 N 
ATOM     16  H   UNL A   1      34.752  24.134  22.551  1.00  0.00     0.164 HD
ATOM     17  O   UNL A   1      33.556  25.714  21.445  1.00  0.00    -0.275 OA
BRANCH  15  18
ATOM     18  C   UNL A   1      34.213  23.932  24.514  1.00  0.00     0.109 C 
ATOM     19  C   UNL A   1      33.116  22.866  24.589  1.00  0.00     0.036 C 
BRANCH  18  20
ATOM     20  C   UNL A   1      35.572  23.331  24.827  1.00  0.00    -0.026 A 
ATOM     21  C   UNL A   1      39.349  21.583  26.020  1.00  0.00     0.044 C 
ATOM     22  C   UNL A   1      38.046  22.186  25.587  1.00  0.00    -0.051 A 
ATOM     23  C   UNL A   1      37.663  23.436  26.081  1.00  0.00     0.004 A 
ATOM     24  C   UNL A   1      37.202  21.526  24.689  1.00  0.00     0.004 A 
ATOM     25  C   UNL A   1      36.438  23.997  25.710  1.00  0.00     0.006 A 
ATOM     26  C   UNL A   1      35.979  22.093  24.310  1.00  0.00     0.006 A 
ENDBRANCH  18  20
ENDBRANCH  15  18
ENDBRANCH   8  14
ENDBRANCH   4   7
ENDBRANCH   2   3
ENDBRANCH   1   2
BRANCH   1  27
ATOM     27  C   UNL A   1      34.349  29.294  27.606  1.00  0.00     0.118 C 
BRANCH  27  28
ATOM     28  N   UNL A   1      34.938  30.611  27.846  1.00  0.00    -0.352 N 
ATOM     29  C   UNL A   1      36.267  30.905  28.097  1.00  0.00     0.251 C 
ATOM     30  H   UNL A   1      34.319  31.376  27.826  1.00  0.00     0.163 HD
ATOM     31  O   UNL A   1      36.669  32.039  28.292  1.00  0.00    -0.269 OA
BRANCH  29  32
ATOM     32  C   UNL A   1      37.200  29.765  28.066  1.00  0.00     0.039 A 
ATOM     33  C   UNL A   1      37.341  29.000  29.227  1.00  0.00     0.014 A 
ATOM     34  C   UNL A   1      38.117  29.686  27.020  1.00  0.00     0.014 A 
ATOM     35  C   UNL A   1      38.508  28.265  29.413  1.00  0.00     0.010 A 
ATOM     36  C   UNL A   1      39.310  29.029  27.247  1.00  0.00     0.010 A 
ATOM     37  C   UNL A   1      39.523  28.354  28.460  1.00  0.00    -0.014 A 
BRANCH  37  38
ATOM     38  C   UNL A   1      40.869  27.836  28.675  1.00  0.00     0.031 A 
ATOM     39  C   UNL A   1      41.197  26.447  28.281  1.00  0.00     0.074 A 
ATOM     40  C   UNL A   1      41.842  28.618  29.198  1.00  0.00     0.049 A 
ATOM     41  N   UNL A   1      42.119  25.733  28.838  1.00  0.00    -0.248 NA
ATOM     42  C   UNL A   1      40.457  25.730  27.246  1.00  0.00     0.031 C 
ATOM     43  C   UNL A   1      43.274  28.330  29.208  1.00  0.00     0.029 A 
ATOM     44  N   UNL A   1      41.717  29.731  30.031  1.00  0.00    -0.354 N 
ATOM     45  C   UNL A   1      42.295  24.616  28.054  1.00  0.00     0.074 A 
ATOM     46  C   UNL A   1      41.185  24.616  27.130  1.00  0.00     0.031 C 
ATOM     47  C   UNL A   1      43.842  29.011  30.214  1.00  0.00     0.029 A 
ATOM     48  C   UNL A   1      42.771  29.653  30.957  1.00  0.00     0.049 A 
ATOM     49  H   UNL A   1      41.026  30.432  29.981  1.00  0.00     0.167 HD
ATOM     50  C   UNL A   1      43.439  23.882  28.152  1.00  0.00     0.031 A 
ATOM     51  C   UNL A   1      42.615  29.613  32.311  1.00  0.00     0.031 A 
ATOM     52  C   UNL A   1      44.338  24.392  29.182  1.00  0.00     0.049 A 
ATOM     53  C   UNL A   1      43.275  28.414  32.954  1.00  0.00     0.074 A 
ATOM     54  C   UNL A   1      45.474  25.183  29.132  1.00  0.00     0.029 A 
ATOM     55  N   UNL A   1      43.957  24.332  30.516  1.00  0.00    -0.354 N 
ATOM     56  N   UNL A   1      43.689  27.369  32.294  1.00  0.00    -0.248 NA
ATOM     57  C   UNL A   1      43.462  28.268  34.395  1.00  0.00     0.031 C 
ATOM     58  C   UNL A   1      45.755  25.635  30.445  1.00  0.00     0.029 A 
ATOM     59  C   UNL A   1      44.798  25.107  31.293  1.00  0.00     0.049 A 
ATOM     60  H   UNL A   1      43.197  23.812  30.860  1.00  0.00     0.167 HD
ATOM     61  C   UNL A   1      44.155  26.421  33.170  1.00  0.00     0.074 A 
ATOM     62  C   UNL A   1      44.012  27.042  34.473  1.00  0.00     0.031 C 
ATOM     63  C   UNL A   1      44.594  25.203  32.734  1.00  0.00     0.031 A 
BRANCH  50  64
ATOM     64  C   UNL A   1      43.860  22.898  27.085  1.00  0.00    -0.014 A 
ATOM     65  C   UNL A   1      42.960  21.895  26.668  1.00  0.00     0.010 A 
ATOM     66  C   UNL A   1      45.139  22.872  26.501  1.00  0.00     0.010 A 
ATOM     67  C   UNL A   1      43.349  20.858  25.811  1.00  0.00     0.020 A 
ATOM     68  C   UNL A   1      45.556  21.817  25.673  1.00  0.00     0.020 A 
ATOM     69  C   UNL A   1      44.659  20.805  25.344  1.00  0.00     0.054 A 
BRANCH  69  70
ATOM     70  S   UNL A   1      45.170  19.398  24.324  1.00  0.00     0.124 S 
ATOM     71  O   UNL A   1      44.689  18.255  25.096  1.00  0.00    -0.237 OA
ATOM     72  O   UNL A   1      44.469  19.651  23.069  1.00  0.00    -0.237 OA
ATOM     73  O   UNL A   1      46.626  19.527  24.261  1.00  0.00    -0.744 OA
ENDBRANCH  69  70
ENDBRANCH  50  64
BRANCH  51  74
ATOM     74  C   UNL A   1      41.375  30.261  32.810  1.00  0.00    -0.014 A 
ATOM     75  C   UNL A   1      40.298  29.422  33.163  1.00  0.00     0.010 A 
ATOM     76  C   UNL A   1      41.417  31.571  33.316  1.00  0.00     0.010 A 
ATOM     77  C   UNL A   1      39.376  29.822  34.131  1.00  0.00     0.020 A 
ATOM     78  C   UNL A   1      40.489  31.976  34.287  1.00  0.00     0.020 A 
ATOM     79  C   UNL A   1      39.516  31.075  34.729  1.00  0.00     0.054 A 
BRANCH  79  80
ATOM     80  S   UNL A   1      38.547  31.408  36.230  1.00  0.00     0.124 S 
ATOM     81  O   UNL A   1      38.178  30.065  36.665  1.00  0.00    -0.237 OA
ATOM     82  O   UNL A   1      39.526  32.097  37.071  1.00  0.00    -0.237 OA
ATOM     83  O   UNL A   1      37.449  32.238  35.744  1.00  0.00    -0.744 OA
ENDBRANCH  79  80
ENDBRANCH  51  74
BRANCH  63  84
ATOM     84  C   UNL A   1      44.952  24.001  33.585  1.00  0.00    -0.014 A 
ATOM     85  C   UNL A   1      44.134  22.879  33.772  1.00  0.00     0.010 A 
ATOM     86  C   UNL A   1      46.249  23.940  34.159  1.00  0.00     0.010 A 
ATOM     87  C   UNL A   1      44.560  21.779  34.534  1.00  0.00     0.020 A 
ATOM     88  C   UNL A   1      46.700  22.831  34.882  1.00  0.00     0.020 A 
ATOM     89  C   UNL A   1      45.840  21.763  35.087  1.00  0.00     0.054 A 
BRANCH  89  90
ATOM     90  S   UNL A   1      46.401  20.310  36.011  1.00  0.00     0.124 S 
ATOM     91  O   UNL A   1      47.809  20.237  35.632  1.00  0.00    -0.237 OA
ATOM     92  O   UNL A   1      46.147  20.688  37.400  1.00  0.00    -0.237 OA
ATOM     93  O   UNL A   1      45.557  19.233  35.503  1.00  0.00    -0.744 OA
ENDBRANCH  89  90
ENDBRANCH  63  84
ENDBRANCH  37  38
ENDBRANCH  29  32
ENDBRANCH  27  28
ENDBRANCH   1  27
TORSDOF 16
ENDMDL
MODEL 2
REMARK VINA RESULT:     -13.8      1.329      1.858
REMARK SMILES Cc1ccc([C@H](C)NC(=O)[C@H]2[C@@H]3CC[C@@H](C3)[C@@H]2C(=O)NCCCNC(=O)c2ccc(-c3c4nc(c(-c5ccc(S(=O)(=O)[O-])cc5)c5ccc([nH]5)c(-c5ccc(S(=O)(=O)[O-])cc5)c5nc(c(-c6ccc(S(=O)(=O)[O-])cc6)c6ccc3[nH]6)C=C5)C=C4)cc2)cc1
REMARK SMILES IDX 22 1 21 2 20 3 18 4 19 5 17 7 11 8 12 9 13 10 16 11 15 12
REMARK SMILES IDX 14 13 9 14 8 15 10 17 6 18 7 19 5 20 1 21 2 22 3 23 88 24
REMARK SMILES IDX 4 25 87 26 23 27 24 28 25 29 26 31 27 32 28 33 86 34 29 35
REMARK SMILES IDX 85 36 30 37 31 38 32 39 79 40 33 41 84 42 78 43 80 44 34 45
REMARK SMILES IDX 83 46 77 47 76 48 35 50 65 51 46 52 64 53 47 54 50 55 63 56
REMARK SMILES IDX 81 57 48 58 49 59 62 61 82 62 51 63 36 64 37 65 45 66 38 67
REMARK SMILES IDX 44 68 39 69 40 70 41 71 42 72 43 73 66 74 67 75 75 76 68 77
REMARK SMILES IDX 74 78 69 79 70 80 71 81 72 82 73 83 52 84 53 85 61 86 54 87
REMARK SMILES IDX 60 88 55 89 56 90 57 91 58 92 59 93
REMARK H PARENT 20 6 8 16 24 30 80 49 50 60
REMARK Flexibility Score: inf
ROOT
ATOM      1  C   UNL A   1      33.656  29.375  26.728  1.00  0.00     0.042 C 
ENDROOT
BRANCH   1   2
ATOM      2  C   UNL A   1      34.308  28.399  25.748  1.00  0.00     0.117 C 
BRANCH   2   3
ATOM      3  N   UNL A   1      34.282  28.857  24.367  1.00  0.00    -0.356 N 
ATOM      4  C   UNL A   1      33.660  28.362  23.263  1.00  0.00     0.224 C 
ATOM      5  O   UNL A   1      33.643  29.079  22.259  1.00  0.00    -0.275 OA
ATOM      6  H   UNL A   1      34.808  29.673  24.202  1.00  0.00     0.163 HD
BRANCH   4   7
ATOM      7  C   UNL A   1      32.889  27.040  23.285  1.00  0.00     0.094 C 
ATOM      8  C   UNL A   1      32.160  26.604  22.010  1.00  0.00     0.094 C 
ATOM      9  C   UNL A   1      30.701  26.352  22.466  1.00  0.00     0.002 C 
ATOM     10  C   UNL A   1      30.034  27.722  22.701  1.00  0.00     0.005 C 
ATOM     11  C   UNL A   1      30.859  25.863  23.900  1.00  0.00     0.009 C 
ATOM     12  C   UNL A   1      31.708  27.067  24.314  1.00  0.00     0.002 C 
ATOM     13  C   UNL A   1      30.710  28.206  23.993  1.00  0.00     0.005 C 
BRANCH   8  14
ATOM     14  C   UNL A   1      32.712  25.452  21.170  1.00  0.00     0.224 C 
ATOM     15  N   UNL A   1      33.072  24.225  21.604  1.00  0.00    -0.349 N 
ATOM     16  H   UNL A   1      33.571  23.719  20.922  1.00  0.00     0.164 HD
ATOM     17  O   UNL A   1      32.831  25.630  19.948  1.00  0.00    -0.275 OA
BRANCH  15  18
ATOM     18  C   UNL A   1      32.899  23.468  22.838  1.00  0.00     0.109 C 
ATOM     19  C   UNL A   1      32.496  22.030  22.496  1.00  0.00     0.036 C 
BRANCH  18  20
ATOM     20  C   UNL A   1      34.135  23.487  23.720  1.00  0.00    -0.026 A 
ATOM     21  C   UNL A   1      37.814  23.680  25.994  1.00  0.00     0.044 C 
ATOM     22  C   UNL A   1      36.529  23.609  25.223  1.00  0.00    -0.051 A 
ATOM     23  C   UNL A   1      36.440  22.783  24.100  1.00  0.00     0.004 A 
ATOM     24  C   UNL A   1      35.407  24.349  25.609  1.00  0.00     0.004 A 
ATOM     25  C   UNL A   1      35.260  22.730  23.354  1.00  0.00     0.006 A 
ATOM     26  C   UNL A   1      34.221  24.287  24.868  1.00  0.00     0.006 A 
ENDBRANCH  18  20
ENDBRANCH  15  18
ENDBRANCH   8  14
ENDBRANCH   4   7
ENDBRANCH   2   3
ENDBRANCH   1   2
BRANCH   1  27
ATOM     27  C   UNL A   1      34.395  29.459  28.057  1.00  0.00     0.118 C 
BRANCH  27  28
ATOM     28  N   UNL A   1      35.022  30.763  28.271  1.00  0.00    -0.352 N 
ATOM     29  C   UNL A   1      36.365  31.026  28.474  1.00  0.00     0.251 C 
ATOM     30  H   UNL A   1      34.420  31.541  28.272  1.00  0.00     0.163 HD
ATOM     31  O   UNL A   1      36.800  32.151  28.651  1.00  0.00    -0.269 OA
BRANCH  29  32
ATOM     32  C   UNL A   1      37.271  29.866  28.412  1.00  0.00     0.039 A 
ATOM     33  C   UNL A   1      37.418  29.087  29.563  1.00  0.00     0.014 A 
ATOM     34  C   UNL A   1      38.164  29.775  27.347  1.00  0.00     0.014 A 
ATOM     35  C   UNL A   1      38.571  28.322  29.718  1.00  0.00     0.010 A 
ATOM     36  C   UNL A   1      39.344  29.088  27.543  1.00  0.00     0.010 A 
ATOM     37  C   UNL A   1      39.568  28.397  28.744  1.00  0.00    -0.014 A 
BRANCH  37  38
ATOM     38  C   UNL A   1      40.905  27.845  28.926  1.00  0.00     0.031 A 
ATOM     39  C   UNL A   1      41.194  26.456  28.504  1.00  0.00     0.074 A 
ATOM     40  C   UNL A   1      41.904  28.596  29.444  1.00  0.00     0.049 A 
ATOM     41  N   UNL A   1      42.110  25.712  29.031  1.00  0.00    -0.248 NA
ATOM     42  C   UNL A   1      40.420  25.773  27.470  1.00  0.00     0.031 C 
ATOM     43  C   UNL A   1      43.330  28.276  29.423  1.00  0.00     0.029 A 
ATOM     44  N   UNL A   1      41.820  29.697  30.298  1.00  0.00    -0.354 N 
ATOM     45  C   UNL A   1      42.246  24.605  28.226  1.00  0.00     0.074 A 
ATOM     46  C   UNL A   1      41.120  24.646  27.322  1.00  0.00     0.031 C 
ATOM     47  C   UNL A   1      43.931  28.927  30.429  1.00  0.00     0.029 A 
ATOM     48  C   UNL A   1      42.889  29.581  31.203  1.00  0.00     0.049 A 
ATOM     49  H   UNL A   1      41.144  30.414  30.271  1.00  0.00     0.167 HD
ATOM     50  C   UNL A   1      43.375  23.844  28.291  1.00  0.00     0.031 A 
ATOM     51  C   UNL A   1      42.756  29.521  32.558  1.00  0.00     0.031 A 
ATOM     52  C   UNL A   1      44.304  24.316  29.313  1.00  0.00     0.049 A 
ATOM     53  C   UNL A   1      43.401  28.297  33.169  1.00  0.00     0.074 A 
ATOM     54  C   UNL A   1      45.456  25.083  29.254  1.00  0.00     0.029 A 
ATOM     55  N   UNL A   1      43.946  24.243  30.652  1.00  0.00    -0.354 N 
ATOM     56  N   UNL A   1      43.779  27.254  32.485  1.00  0.00    -0.248 NA
ATOM     57  C   UNL A   1      43.610  28.122  34.604  1.00  0.00     0.031 C 
ATOM     58  C   UNL A   1      45.771  25.506  30.569  1.00  0.00     0.029 A 
ATOM     59  C   UNL A   1      44.818  24.985  31.426  1.00  0.00     0.049 A 
ATOM     60  H   UNL A   1      43.180  23.733  31.002  1.00  0.00     0.167 HD
ATOM     61  C   UNL A   1      44.238  26.281  33.336  1.00  0.00     0.074 A 
ATOM     62  C   UNL A   1      44.133  26.884  34.652  1.00  0.00     0.031 C 
ATOM     63  C   UNL A   1      44.643  25.061  32.871  1.00  0.00     0.031 A 
BRANCH  50  64
ATOM     64  C   UNL A   1      43.755  22.869  27.200  1.00  0.00    -0.014 A 
ATOM     65  C   UNL A   1      42.861  21.835  26.848  1.00  0.00     0.010 A 
ATOM     66  C   UNL A   1      44.991  22.881  26.530  1.00  0.00     0.010 A 
ATOM     67  C   UNL A   1      43.225  20.807  25.969  1.00  0.00     0.020 A 
ATOM     68  C   UNL A   1      45.385  21.837  25.678  1.00  0.00     0.020 A 
ATOM     69  C   UNL A   1      44.501  20.795  25.414  1.00  0.00     0.054 A 
BRANCH  69  70
ATOM     70  S   UNL A   1      44.988  19.400  24.365  1.00  0.00     0.124 S 
ATOM     71  O   UNL A   1      44.427  19.770  23.067  1.00  0.00    -0.237 OA
ATOM     72  O   UNL A   1      46.444  19.435  24.455  1.00  0.00    -0.237 OA
ATOM     73  O   UNL A   1      44.352  18.248  25.003  1.00  0.00    -0.744 OA
ENDBRANCH  69  70
ENDBRANCH  50  64
BRANCH  51  74
ATOM     74  C   UNL A   1      41.540  30.188  33.090  1.00  0.00    -0.014 A 
ATOM     75  C   UNL A   1      41.568  31.593  33.212  1.00  0.00     0.010 A 
ATOM     76  C   UNL A   1      40.300  29.528  33.056  1.00  0.00     0.010 A 
ATOM     77  C   UNL A   1      40.389  32.335  33.131  1.00  0.00     0.020 A 
ATOM     78  C   UNL A   1      39.114  30.272  32.978  1.00  0.00     0.020 A 
ATOM     79  C   UNL A   1      39.176  31.668  32.953  1.00  0.00     0.054 A 
BRANCH  79  80
ATOM     80  S   UNL A   1      37.729  32.660  32.475  1.00  0.00     0.124 S 
ATOM     81  O   UNL A   1      36.741  31.635  32.158  1.00  0.00    -0.237 OA
ATOM     82  O   UNL A   1      37.476  33.425  33.696  1.00  0.00    -0.237 OA
ATOM     83  O   UNL A   1      38.217  33.440  31.342  1.00  0.00    -0.744 OA
ENDBRANCH  79  80
ENDBRANCH  51  74
BRANCH  63  84
ATOM     84  C   UNL A   1      44.988  23.838  33.696  1.00  0.00    -0.014 A 
ATOM     85  C   UNL A   1      44.127  22.755  33.925  1.00  0.00     0.010 A 
ATOM     86  C   UNL A   1      46.311  23.709  34.195  1.00  0.00     0.010 A 
ATOM     87  C   UNL A   1      44.541  21.631  34.657  1.00  0.00     0.020 A 
ATOM     88  C   UNL A   1      46.748  22.575  34.887  1.00  0.00     0.020 A 
ATOM     89  C   UNL A   1      45.848  21.548  35.136  1.00  0.00     0.054 A 
BRANCH  89  90
ATOM     90  S   UNL A   1      46.389  20.064  36.021  1.00  0.00     0.124 S 
ATOM     91  O   UNL A   1      45.858  18.998  35.176  1.00  0.00    -0.237 OA
ATOM     92  O   UNL A   1      47.844  20.195  36.020  1.00  0.00    -0.237 OA
ATOM     93  O   UNL A   1      45.761  20.198  37.333  1.00  0.00    -0.744 OA
ENDBRANCH  89  90
ENDBRANCH  63  84
ENDBRANCH  37  38
ENDBRANCH  29  32
ENDBRANCH  27  28
ENDBRANCH   1  27
TORSDOF 16
ENDMDL
MODEL 3
REMARK VINA RESULT:     -13.8      1.441      2.036
REMARK SMILES Cc1ccc([C@H](C)NC(=O)[C@H]2[C@@H]3CC[C@@H](C3)[C@@H]2C(=O)NCCCNC(=O)c2ccc(-c3c4nc(c(-c5ccc(S(=O)(=O)[O-])cc5)c5ccc([nH]5)c(-c5ccc(S(=O)(=O)[O-])cc5)c5nc(c(-c6ccc(S(=O)(=O)[O-])cc6)c6ccc3[nH]6)C=C5)C=C4)cc2)cc1
REMARK SMILES IDX 22 1 21 2 20 3 18 4 19 5 17 7 11 8 12 9 13 10 16 11 15 12
REMARK SMILES IDX 14 13 9 14 8 15 10 17 6 18 7 19 5 20 1 21 2 22 3 23 88 24
REMARK SMILES IDX 4 25 87 26 23 27 24 28 25 29 26 31 27 32 28 33 86 34 29 35
REMARK SMILES IDX 85 36 30 37 31 38 32 39 79 40 33 41 84 42 78 43 80 44 34 45
REMARK SMILES IDX 83 46 77 47 76 48 35 50 65 51 46 52 64 53 47 54 50 55 63 56
REMARK SMILES IDX 81 57 48 58 49 59 62 61 82 62 51 63 36 64 37 65 45 66 38 67
REMARK SMILES IDX 44 68 39 69 40 70 41 71 42 72 43 73 66 74 67 75 75 76 68 77
REMARK SMILES IDX 74 78 69 79 70 80 71 81 72 82 73 83 52 84 53 85 61 86 54 87
REMARK SMILES IDX 60 88 55 89 56 90 57 91 58 92 59 93
REMARK H PARENT 20 6 8 16 24 30 80 49 50 60
REMARK Flexibility Score: inf
ROOT
ATOM      1  C   UNL A   1      32.959  29.708  26.941  1.00  0.00     0.042 C 
ENDROOT
BRANCH   1   2
ATOM      2  C   UNL A   1      32.309  28.331  26.810  1.00  0.00     0.117 C 
BRANCH   2   3
ATOM      3  N   UNL A   1      33.255  27.268  26.509  1.00  0.00    -0.356 N 
ATOM      4  C   UNL A   1      33.289  26.345  25.511  1.00  0.00     0.224 C 
ATOM      5  O   UNL A   1      34.330  25.694  25.382  1.00  0.00    -0.275 OA
ATOM      6  H   UNL A   1      34.008  27.206  27.142  1.00  0.00     0.163 HD
BRANCH   4   7
ATOM      7  C   UNL A   1      32.153  26.200  24.495  1.00  0.00     0.094 C 
ATOM      8  C   UNL A   1      32.283  25.127  23.410  1.00  0.00     0.094 C 
ATOM      9  C   UNL A   1      32.082  25.896  22.079  1.00  0.00     0.002 C 
ATOM     10  C   UNL A   1      33.361  26.711  21.805  1.00  0.00     0.005 C 
ATOM     11  C   UNL A   1      31.112  27.007  22.458  1.00  0.00     0.009 C 
ATOM     12  C   UNL A   1      31.978  27.491  23.624  1.00  0.00     0.002 C 
ATOM     13  C   UNL A   1      33.277  27.830  22.855  1.00  0.00     0.005 C 
BRANCH   8  14
ATOM     14  C   UNL A   1      31.430  23.860  23.481  1.00  0.00     0.224 C 
ATOM     15  N   UNL A   1      31.801  22.653  23.960  1.00  0.00    -0.349 N 
ATOM     16  H   UNL A   1      31.153  21.946  23.733  1.00  0.00     0.164 HD
ATOM     17  O   UNL A   1      30.257  23.927  23.084  1.00  0.00    -0.275 OA
BRANCH  15  18
ATOM     18  C   UNL A   1      32.928  22.143  24.731  1.00  0.00     0.109 C 
ATOM     19  C   UNL A   1      32.673  22.389  26.221  1.00  0.00     0.036 C 
BRANCH  18  20
ATOM     20  C   UNL A   1      33.207  20.674  24.466  1.00  0.00    -0.026 A 
ATOM     21  C   UNL A   1      34.031  16.558  23.404  1.00  0.00     0.044 C 
ATOM     22  C   UNL A   1      33.749  17.979  23.792  1.00  0.00    -0.051 A 
ATOM     23  C   UNL A   1      32.565  18.591  23.371  1.00  0.00     0.004 A 
ATOM     24  C   UNL A   1      34.645  18.711  24.577  1.00  0.00     0.004 A 
ATOM     25  C   UNL A   1      32.303  19.923  23.698  1.00  0.00     0.006 A 
ATOM     26  C   UNL A   1      34.377  20.043  24.914  1.00  0.00     0.006 A 
ENDBRANCH  18  20
ENDBRANCH  15  18
ENDBRANCH   8  14
ENDBRANCH   4   7
ENDBRANCH   2   3
ENDBRANCH   1   2
BRANCH   1  27
ATOM     27  C   UNL A   1      34.470  29.635  27.116  1.00  0.00     0.118 C 
BRANCH  27  28
ATOM     28  N   UNL A   1      35.040  30.885  27.619  1.00  0.00    -0.352 N 
ATOM     29  C   UNL A   1      36.316  31.086  28.116  1.00  0.00     0.251 C 
ATOM     30  H   UNL A   1      34.449  31.671  27.603  1.00  0.00     0.163 HD
ATOM     31  O   UNL A   1      36.706  32.168  28.521  1.00  0.00    -0.269 OA
BRANCH  29  32
ATOM     32  C   UNL A   1      37.217  29.921  28.082  1.00  0.00     0.039 A 
ATOM     33  C   UNL A   1      37.339  29.152  29.243  1.00  0.00     0.014 A 
ATOM     34  C   UNL A   1      38.130  29.817  27.035  1.00  0.00     0.014 A 
ATOM     35  C   UNL A   1      38.485  28.384  29.427  1.00  0.00     0.010 A 
ATOM     36  C   UNL A   1      39.304  29.126  27.260  1.00  0.00     0.010 A 
ATOM     37  C   UNL A   1      39.501  28.445  28.472  1.00  0.00    -0.014 A 
BRANCH  37  38
ATOM     38  C   UNL A   1      40.832  27.890  28.685  1.00  0.00     0.031 A 
ATOM     39  C   UNL A   1      41.118  26.491  28.294  1.00  0.00     0.074 A 
ATOM     40  C   UNL A   1      41.828  28.645  29.203  1.00  0.00     0.049 A 
ATOM     41  N   UNL A   1      42.022  25.752  28.850  1.00  0.00    -0.248 NA
ATOM     42  C   UNL A   1      40.356  25.792  27.263  1.00  0.00     0.031 C 
ATOM     43  C   UNL A   1      43.252  28.316  29.209  1.00  0.00     0.029 A 
ATOM     44  N   UNL A   1      41.737  29.763  30.033  1.00  0.00    -0.354 N 
ATOM     45  C   UNL A   1      42.163  24.628  28.069  1.00  0.00     0.074 A 
ATOM     46  C   UNL A   1      41.051  24.658  27.148  1.00  0.00     0.031 C 
ATOM     47  C   UNL A   1      43.842  28.984  30.212  1.00  0.00     0.029 A 
ATOM     48  C   UNL A   1      42.792  29.658  30.956  1.00  0.00     0.049 A 
ATOM     49  H   UNL A   1      41.066  30.483  29.983  1.00  0.00     0.167 HD
ATOM     50  C   UNL A   1      43.287  23.862  28.166  1.00  0.00     0.031 A 
ATOM     51  C   UNL A   1      42.639  29.626  32.310  1.00  0.00     0.031 A 
ATOM     52  C   UNL A   1      44.203  24.350  29.191  1.00  0.00     0.049 A 
ATOM     53  C   UNL A   1      43.267  28.410  32.955  1.00  0.00     0.074 A 
ATOM     54  C   UNL A   1      45.361  25.108  29.135  1.00  0.00     0.029 A 
ATOM     55  N   UNL A   1      43.825  24.304  30.526  1.00  0.00    -0.354 N 
ATOM     56  N   UNL A   1      43.648  27.352  32.297  1.00  0.00    -0.248 NA
ATOM     57  C   UNL A   1      43.453  28.263  34.396  1.00  0.00     0.031 C 
ATOM     58  C   UNL A   1      45.658  25.555  30.447  1.00  0.00     0.029 A 
ATOM     59  C   UNL A   1      44.690  25.057  31.298  1.00  0.00     0.049 A 
ATOM     60  H   UNL A   1      43.050  23.806  30.874  1.00  0.00     0.167 HD
ATOM     61  C   UNL A   1      44.089  26.394  33.174  1.00  0.00     0.074 A 
ATOM     62  C   UNL A   1      43.968  27.022  34.476  1.00  0.00     0.031 C 
ATOM     63  C   UNL A   1      44.493  25.162  32.740  1.00  0.00     0.031 A 
BRANCH  50  64
ATOM     64  C   UNL A   1      43.676  22.864  27.100  1.00  0.00    -0.014 A 
ATOM     65  C   UNL A   1      42.820  21.779  26.816  1.00  0.00     0.010 A 
ATOM     66  C   UNL A   1      44.890  22.905  26.390  1.00  0.00     0.010 A 
ATOM     67  C   UNL A   1      43.203  20.735  25.963  1.00  0.00     0.020 A 
ATOM     68  C   UNL A   1      45.304  21.847  25.565  1.00  0.00     0.020 A 
ATOM     69  C   UNL A   1      44.460  20.758  25.369  1.00  0.00     0.054 A 
BRANCH  69  70
ATOM     70  S   UNL A   1      44.978  19.347  24.357  1.00  0.00     0.124 S 
ATOM     71  O   UNL A   1      44.527  19.732  23.021  1.00  0.00    -0.237 OA
ATOM     72  O   UNL A   1      46.424  19.335  24.554  1.00  0.00    -0.237 OA
ATOM     73  O   UNL A   1      44.259  18.216  24.944  1.00  0.00    -0.744 OA
ENDBRANCH  69  70
ENDBRANCH  50  64
BRANCH  51  74
ATOM     74  C   UNL A   1      41.419  30.310  32.811  1.00  0.00    -0.014 A 
ATOM     75  C   UNL A   1      40.295  29.510  33.101  1.00  0.00     0.010 A 
ATOM     76  C   UNL A   1      41.511  31.593  33.378  1.00  0.00     0.010 A 
ATOM     77  C   UNL A   1      39.370  29.910  34.066  1.00  0.00     0.020 A 
ATOM     78  C   UNL A   1      40.581  31.998  34.345  1.00  0.00     0.020 A 
ATOM     79  C   UNL A   1      39.555  31.127  34.724  1.00  0.00     0.054 A 
BRANCH  79  80
ATOM     80  S   UNL A   1      38.567  31.438  36.218  1.00  0.00     0.124 S 
ATOM     81  O   UNL A   1      38.184  30.090  36.623  1.00  0.00    -0.237 OA
ATOM     82  O   UNL A   1      39.538  32.106  37.085  1.00  0.00    -0.237 OA
ATOM     83  O   UNL A   1      37.482  32.284  35.731  1.00  0.00    -0.744 OA
ENDBRANCH  79  80
ENDBRANCH  51  74
BRANCH  63  84
ATOM     84  C   UNL A   1      44.819  23.954  33.593  1.00  0.00    -0.014 A 
ATOM     85  C   UNL A   1      43.908  22.944  33.936  1.00  0.00     0.010 A 
ATOM     86  C   UNL A   1      46.164  23.753  33.998  1.00  0.00     0.010 A 
ATOM     87  C   UNL A   1      44.301  21.826  34.688  1.00  0.00     0.020 A 
ATOM     88  C   UNL A   1      46.577  22.621  34.709  1.00  0.00     0.020 A 
ATOM     89  C   UNL A   1      45.633  21.672  35.072  1.00  0.00     0.054 A 
BRANCH  89  90
ATOM     90  S   UNL A   1      46.140  20.192  35.983  1.00  0.00     0.124 S 
ATOM     91  O   UNL A   1      45.774  20.540  37.353  1.00  0.00    -0.237 OA
ATOM     92  O   UNL A   1      45.335  19.138  35.369  1.00  0.00    -0.237 OA
ATOM     93  O   UNL A   1      47.574  20.101  35.720  1.00  0.00    -0.744 OA
ENDBRANCH  89  90
ENDBRANCH  63  84
ENDBRANCH  37  38
ENDBRANCH  29  32
ENDBRANCH  27  28
ENDBRANCH   1  27
TORSDOF 16
ENDMDL
