MODEL 1
REMARK VINA RESULT:     -11.6      0.000      0.000
REMARK SMILES O=C(CSc1nnc(-c2ccncc2)s1)Nc1cccc(C(=O)NCCCNC(=O)c2ccc(-c3c4nc(c(-c5ccc(S(=O)(=O)[O-])cc5)c5ccc([nH]5)c(-c5ccc(S(=O)(=O)[O-])cc5)c5nc(c(-c6ccc(S(=O)(=O)[O-])cc6)c6ccc3[nH]6)C=C5)C=C4)cc2)c1
REMARK SMILES IDX 25 1 24 2 22 3 23 4 21 6 17 7 18 8 91 9 19 10 20 11 16 12
REMARK SMILES IDX 1 13 2 14 3 16 4 17 5 18 6 19 15 20 7 21 8 22 9 23 10 24
REMARK SMILES IDX 14 25 11 26 13 27 12 28 26 29 27 30 28 31 29 32 30 34 31 35
REMARK SMILES IDX 32 36 90 37 33 38 89 39 34 40 35 41 36 42 83 43 37 44 88 45
REMARK SMILES IDX 82 46 84 47 38 48 87 49 81 50 80 51 39 53 69 54 50 55 68 56
REMARK SMILES IDX 51 57 54 58 67 59 85 60 52 61 53 62 66 64 86 65 55 66 40 67
REMARK SMILES IDX 41 68 49 69 42 70 48 71 43 72 44 73 45 74 46 75 47 76 70 77
REMARK SMILES IDX 71 78 79 79 72 80 78 81 73 82 74 83 75 84 76 85 77 86 56 87
REMARK SMILES IDX 57 88 65 89 58 90 64 91 59 92 60 93 61 94 62 95 63 96
REMARK H PARENT 24 5 16 15 28 33 84 52 54 63
REMARK Flexibility Score: inf
ROOT
ATOM      1  C   UNL A   1      36.721  21.501  25.207  1.00  0.00     0.118 C 
ENDROOT
BRANCH   1   2
ATOM      2  N   UNL A   1      35.670  21.140  26.156  1.00  0.00    -0.352 N 
ATOM      3  C   UNL A   1      34.323  20.885  25.997  1.00  0.00     0.251 C 
ATOM      4  O   UNL A   1      33.658  20.600  26.992  1.00  0.00    -0.269 OA
ATOM      5  H   UNL A   1      35.982  21.065  27.087  1.00  0.00     0.163 HD
BRANCH   3   6
ATOM      6  C   UNL A   1      33.632  21.017  24.686  1.00  0.00     0.041 A 
ATOM      7  C   UNL A   1      32.627  22.420  22.992  1.00  0.00     0.041 A 
ATOM      8  C   UNL A   1      31.967  21.306  22.466  1.00  0.00     0.026 A 
ATOM      9  C   UNL A   1      33.567  22.227  24.000  1.00  0.00     0.040 A 
ATOM     10  C   UNL A   1      32.183  20.037  23.014  1.00  0.00     0.003 A 
ATOM     11  C   UNL A   1      32.980  19.901  24.152  1.00  0.00     0.014 A 
BRANCH   7  12
ATOM     12  N   UNL A   1      32.212  23.705  22.576  1.00  0.00    -0.325 N 
ATOM     13  O   UNL A   1      33.352  23.935  20.555  1.00  0.00    -0.274 OA
ATOM     14  C   UNL A   1      32.656  24.401  21.456  1.00  0.00     0.234 C 
ATOM     15  H   UNL A   1      31.540  24.154  23.136  1.00  0.00     0.169 HD
BRANCH  14  16
ATOM     16  C   UNL A   1      32.354  25.894  21.472  1.00  0.00     0.177 C 
BRANCH  16  17
ATOM     17  S   UNL A   1      32.195  26.584  23.139  1.00  0.00    -0.084 SA
BRANCH  17  18
ATOM     18  C   UNL A   1      30.903  27.728  22.884  1.00  0.00     0.175 A 
ATOM     19  N   UNL A   1      29.642  27.459  23.130  1.00  0.00    -0.131 NA
ATOM     20  S   UNL A   1      31.199  29.318  22.337  1.00  0.00    -0.086 S 
ATOM     21  N   UNL A   1      28.828  28.555  22.905  1.00  0.00    -0.137 NA
ATOM     22  C   UNL A   1      29.505  29.596  22.462  1.00  0.00     0.148 A 
BRANCH  22  23
ATOM     23  C   UNL A   1      28.938  30.906  22.149  1.00  0.00     0.015 A 
ATOM     24  C   UNL A   1      29.005  31.967  23.057  1.00  0.00     0.031 A 
ATOM     25  C   UNL A   1      28.316  31.120  20.916  1.00  0.00     0.031 A 
ATOM     26  C   UNL A   1      28.429  33.177  22.708  1.00  0.00     0.111 A 
ATOM     27  C   UNL A   1      27.765  32.364  20.662  1.00  0.00     0.111 A 
ATOM     28  N   UNL A   1      27.804  33.395  21.534  1.00  0.00    -0.265 NA
ENDBRANCH  22  23
ENDBRANCH  17  18
ENDBRANCH  16  17
ENDBRANCH  14  16
ENDBRANCH   7  12
ENDBRANCH   3   6
ENDBRANCH   1   2
BRANCH   1  29
ATOM     29  C   UNL A   1      37.887  20.527  25.151  1.00  0.00     0.042 C 
BRANCH  29  30
ATOM     30  C   UNL A   1      39.087  20.905  26.000  1.00  0.00     0.118 C 
BRANCH  30  31
ATOM     31  N   UNL A   1      40.118  19.876  26.029  1.00  0.00    -0.352 N 
ATOM     32  C   UNL A   1      41.486  19.960  26.146  1.00  0.00     0.251 C 
ATOM     33  H   UNL A   1      39.775  18.958  25.953  1.00  0.00     0.163 HD
ATOM     34  O   UNL A   1      42.159  18.947  25.978  1.00  0.00    -0.269 OA
BRANCH  32  35
ATOM     35  C   UNL A   1      42.160  21.246  26.444  1.00  0.00     0.039 A 
ATOM     36  C   UNL A   1      42.402  22.139  25.395  1.00  0.00     0.014 A 
ATOM     37  C   UNL A   1      42.591  21.568  27.731  1.00  0.00     0.014 A 
ATOM     38  C   UNL A   1      43.000  23.376  25.652  1.00  0.00     0.010 A 
ATOM     39  C   UNL A   1      43.086  22.841  28.005  1.00  0.00     0.010 A 
ATOM     40  C   UNL A   1      43.305  23.759  26.968  1.00  0.00    -0.014 A 
BRANCH  40  41
ATOM     41  C   UNL A   1      43.845  25.109  27.278  1.00  0.00     0.031 A 
ATOM     42  C   UNL A   1      45.308  25.411  27.085  1.00  0.00     0.074 A 
ATOM     43  C   UNL A   1      43.028  26.045  27.803  1.00  0.00     0.049 A 
ATOM     44  N   UNL A   1      45.964  26.513  27.347  1.00  0.00    -0.248 NA
ATOM     45  C   UNL A   1      46.152  24.325  26.558  1.00  0.00     0.031 C 
ATOM     46  C   UNL A   1      41.604  25.860  28.092  1.00  0.00     0.029 A 
ATOM     47  N   UNL A   1      43.278  27.339  28.191  1.00  0.00    -0.354 N 
ATOM     48  C   UNL A   1      47.294  26.247  27.037  1.00  0.00     0.074 A 
ATOM     49  C   UNL A   1      47.360  24.864  26.621  1.00  0.00     0.031 C 
ATOM     50  C   UNL A   1      41.100  27.006  28.576  1.00  0.00     0.029 A 
ATOM     51  C   UNL A   1      42.170  27.992  28.678  1.00  0.00     0.049 A 
ATOM     52  H   UNL A   1      44.166  27.758  28.127  1.00  0.00     0.167 HD
ATOM     53  C   UNL A   1      48.360  27.082  27.075  1.00  0.00     0.031 A 
ATOM     54  C   UNL A   1      42.028  29.243  29.159  1.00  0.00     0.031 A 
ATOM     55  C   UNL A   1      48.286  28.461  27.481  1.00  0.00     0.049 A 
ATOM     56  C   UNL A   1      43.224  30.154  29.188  1.00  0.00     0.074 A 
ATOM     57  C   UNL A   1      49.294  29.410  27.490  1.00  0.00     0.029 A 
ATOM     58  N   UNL A   1      47.143  29.088  27.952  1.00  0.00    -0.354 N 
ATOM     59  N   UNL A   1      44.456  29.907  28.815  1.00  0.00    -0.248 NA
ATOM     60  C   UNL A   1      43.005  31.517  29.689  1.00  0.00     0.031 C 
ATOM     61  C   UNL A   1      48.774  30.594  28.023  1.00  0.00     0.029 A 
ATOM     62  C   UNL A   1      47.427  30.403  28.284  1.00  0.00     0.049 A 
ATOM     63  H   UNL A   1      46.260  28.663  28.039  1.00  0.00     0.167 HD
ATOM     64  C   UNL A   1      45.158  31.090  29.016  1.00  0.00     0.074 A 
ATOM     65  C   UNL A   1      44.205  32.057  29.525  1.00  0.00     0.031 C 
ATOM     66  C   UNL A   1      46.471  31.351  28.800  1.00  0.00     0.031 A 
BRANCH  53  67
ATOM     67  C   UNL A   1      49.702  26.519  26.679  1.00  0.00    -0.014 A 
ATOM     68  C   UNL A   1      50.592  26.006  27.640  1.00  0.00     0.010 A 
ATOM     69  C   UNL A   1      50.066  26.472  25.320  1.00  0.00     0.010 A 
ATOM     70  C   UNL A   1      51.839  25.504  27.257  1.00  0.00     0.020 A 
ATOM     71  C   UNL A   1      51.299  25.942  24.930  1.00  0.00     0.020 A 
ATOM     72  C   UNL A   1      52.186  25.480  25.903  1.00  0.00     0.054 A 
BRANCH  72  73
ATOM     73  S   UNL A   1      53.805  24.809  25.434  1.00  0.00     0.124 S 
ATOM     74  O   UNL A   1      54.539  24.884  26.696  1.00  0.00    -0.237 OA
ATOM     75  O   UNL A   1      53.475  23.461  24.979  1.00  0.00    -0.237 OA
ATOM     76  O   UNL A   1      54.269  25.720  24.390  1.00  0.00    -0.744 OA
ENDBRANCH  72  73
ENDBRANCH  53  67
BRANCH  54  77
ATOM     77  C   UNL A   1      40.694  29.705  29.634  1.00  0.00    -0.014 A 
ATOM     78  C   UNL A   1      40.502  30.077  30.975  1.00  0.00     0.010 A 
ATOM     79  C   UNL A   1      39.616  29.807  28.736  1.00  0.00     0.010 A 
ATOM     80  C   UNL A   1      39.254  30.534  31.413  1.00  0.00     0.020 A 
ATOM     81  C   UNL A   1      38.376  30.290  29.161  1.00  0.00     0.020 A 
ATOM     82  C   UNL A   1      38.201  30.643  30.500  1.00  0.00     0.054 A 
BRANCH  82  83
ATOM     83  S   UNL A   1      36.611  31.305  31.074  1.00  0.00     0.124 S 
ATOM     84  O   UNL A   1      36.116  31.985  29.882  1.00  0.00    -0.237 OA
ATOM     85  O   UNL A   1      35.888  30.097  31.462  1.00  0.00    -0.237 OA
ATOM     86  O   UNL A   1      36.986  32.179  32.185  1.00  0.00    -0.744 OA
ENDBRANCH  82  83
ENDBRANCH  54  77
BRANCH  66  87
ATOM     87  C   UNL A   1      46.954  32.748  29.089  1.00  0.00    -0.014 A 
ATOM     88  C   UNL A   1      47.475  33.094  30.349  1.00  0.00     0.010 A 
ATOM     89  C   UNL A   1      46.930  33.716  28.068  1.00  0.00     0.010 A 
ATOM     90  C   UNL A   1      47.929  34.393  30.592  1.00  0.00     0.020 A 
ATOM     91  C   UNL A   1      47.412  35.007  28.298  1.00  0.00     0.020 A 
ATOM     92  C   UNL A   1      47.895  35.341  29.565  1.00  0.00     0.054 A 
BRANCH  92  93
ATOM     93  S   UNL A   1      48.525  37.009  29.895  1.00  0.00     0.124 S 
ATOM     94  O   UNL A   1      49.875  36.734  30.379  1.00  0.00    -0.237 OA
ATOM     95  O   UNL A   1      48.446  37.647  28.583  1.00  0.00    -0.237 OA
ATOM     96  O   UNL A   1      47.601  37.538  30.895  1.00  0.00    -0.744 OA
ENDBRANCH  92  93
ENDBRANCH  66  87
ENDBRANCH  40  41
ENDBRANCH  32  35
ENDBRANCH  30  31
ENDBRANCH  29  30
ENDBRANCH   1  29
TORSDOF 18
ENDMDL
MODEL 2
REMARK VINA RESULT:     -11.6      6.234      9.690
REMARK SMILES O=C(CSc1nnc(-c2ccncc2)s1)Nc1cccc(C(=O)NCCCNC(=O)c2ccc(-c3c4nc(c(-c5ccc(S(=O)(=O)[O-])cc5)c5ccc([nH]5)c(-c5ccc(S(=O)(=O)[O-])cc5)c5nc(c(-c6ccc(S(=O)(=O)[O-])cc6)c6ccc3[nH]6)C=C5)C=C4)cc2)c1
REMARK SMILES IDX 25 1 24 2 22 3 23 4 21 6 17 7 18 8 91 9 19 10 20 11 16 12
REMARK SMILES IDX 1 13 2 14 3 16 4 17 5 18 6 19 15 20 7 21 8 22 9 23 10 24
REMARK SMILES IDX 14 25 11 26 13 27 12 28 26 29 27 30 28 31 29 32 30 34 31 35
REMARK SMILES IDX 32 36 90 37 33 38 89 39 34 40 35 41 36 42 83 43 37 44 88 45
REMARK SMILES IDX 82 46 84 47 38 48 87 49 81 50 80 51 39 53 69 54 50 55 68 56
REMARK SMILES IDX 51 57 54 58 67 59 85 60 52 61 53 62 66 64 86 65 55 66 40 67
REMARK SMILES IDX 41 68 49 69 42 70 48 71 43 72 44 73 45 74 46 75 47 76 70 77
REMARK SMILES IDX 71 78 79 79 72 80 78 81 73 82 74 83 75 84 76 85 77 86 56 87
REMARK SMILES IDX 57 88 65 89 58 90 64 91 59 92 60 93 61 94 62 95 63 96
REMARK H PARENT 24 5 16 15 28 33 84 52 54 63
REMARK Flexibility Score: inf
ROOT
ATOM      1  C   UNL A   1      44.882  22.937  26.400  1.00  0.00     0.118 C 
ENDROOT
BRANCH   1   2
ATOM      2  N   UNL A   1      44.241  23.052  27.708  1.00  0.00    -0.352 N 
ATOM      3  C   UNL A   1      43.036  22.589  28.196  1.00  0.00     0.251 C 
ATOM      4  O   UNL A   1      42.740  22.839  29.364  1.00  0.00    -0.269 OA
ATOM      5  H   UNL A   1      44.770  23.556  28.368  1.00  0.00     0.163 HD
BRANCH   3   6
ATOM      6  C   UNL A   1      42.050  21.869  27.344  1.00  0.00     0.041 A 
ATOM      7  C   UNL A   1      39.983  21.876  26.091  1.00  0.00     0.041 A 
ATOM      8  C   UNL A   1      39.966  20.479  26.118  1.00  0.00     0.026 A 
ATOM      9  C   UNL A   1      41.105  22.541  26.574  1.00  0.00     0.040 A 
ATOM     10  C   UNL A   1      41.020  19.774  26.708  1.00  0.00     0.003 A 
ATOM     11  C   UNL A   1      42.039  20.471  27.361  1.00  0.00     0.014 A 
BRANCH   7  12
ATOM     12  N   UNL A   1      38.805  22.554  25.703  1.00  0.00    -0.325 N 
ATOM     13  O   UNL A   1      38.633  24.183  27.363  1.00  0.00    -0.274 OA
ATOM     14  C   UNL A   1      38.171  23.583  26.394  1.00  0.00     0.234 C 
ATOM     15  H   UNL A   1      38.390  22.269  24.858  1.00  0.00     0.169 HD
BRANCH  14  16
ATOM     16  C   UNL A   1      36.733  23.844  25.967  1.00  0.00     0.177 C 
BRANCH  16  17
ATOM     17  S   UNL A   1      36.426  23.518  24.212  1.00  0.00    -0.084 SA
BRANCH  17  18
ATOM     18  C   UNL A   1      35.348  22.152  24.330  1.00  0.00     0.175 A 
ATOM     19  N   UNL A   1      34.086  22.195  23.971  1.00  0.00    -0.131 NA
ATOM     20  S   UNL A   1      35.880  20.626  24.881  1.00  0.00    -0.086 S 
ATOM     21  N   UNL A   1      33.469  20.965  24.103  1.00  0.00    -0.137 NA
ATOM     22  C   UNL A   1      34.282  20.050  24.594  1.00  0.00     0.148 A 
BRANCH  22  23
ATOM     23  C   UNL A   1      33.939  18.650  24.835  1.00  0.00     0.015 A 
ATOM     24  C   UNL A   1      34.768  17.610  24.405  1.00  0.00     0.031 A 
ATOM     25  C   UNL A   1      32.761  18.329  25.514  1.00  0.00     0.031 A 
ATOM     26  C   UNL A   1      34.374  16.305  24.646  1.00  0.00     0.111 A 
ATOM     27  C   UNL A   1      32.451  16.993  25.701  1.00  0.00     0.111 A 
ATOM     28  N   UNL A   1      33.229  15.975  25.277  1.00  0.00    -0.265 NA
ENDBRANCH  22  23
ENDBRANCH  17  18
ENDBRANCH  16  17
ENDBRANCH  14  16
ENDBRANCH   7  12
ENDBRANCH   3   6
ENDBRANCH   1   2
BRANCH   1  29
ATOM     29  C   UNL A   1      45.832  24.073  26.056  1.00  0.00     0.042 C 
BRANCH  29  30
ATOM     30  C   UNL A   1      45.193  25.448  25.980  1.00  0.00     0.118 C 
BRANCH  30  31
ATOM     31  N   UNL A   1      43.902  25.446  25.305  1.00  0.00    -0.352 N 
ATOM     32  C   UNL A   1      42.661  25.878  25.710  1.00  0.00     0.251 C 
ATOM     33  H   UNL A   1      43.922  25.070  24.396  1.00  0.00     0.163 HD
ATOM     34  O   UNL A   1      41.684  25.615  25.014  1.00  0.00    -0.269 OA
BRANCH  32  35
ATOM     35  C   UNL A   1      42.477  26.628  26.976  1.00  0.00     0.039 A 
ATOM     36  C   UNL A   1      43.028  27.909  27.085  1.00  0.00     0.014 A 
ATOM     37  C   UNL A   1      41.806  26.075  28.067  1.00  0.00     0.014 A 
ATOM     38  C   UNL A   1      42.836  28.656  28.251  1.00  0.00     0.010 A 
ATOM     39  C   UNL A   1      41.524  26.857  29.184  1.00  0.00     0.010 A 
ATOM     40  C   UNL A   1      42.042  28.155  29.294  1.00  0.00    -0.014 A 
BRANCH  40  41
ATOM     41  C   UNL A   1      41.738  28.972  30.500  1.00  0.00     0.031 A 
ATOM     42  C   UNL A   1      42.559  28.819  31.753  1.00  0.00     0.074 A 
ATOM     43  C   UNL A   1      40.675  29.802  30.488  1.00  0.00     0.049 A 
ATOM     44  N   UNL A   1      42.412  29.410  32.912  1.00  0.00    -0.248 NA
ATOM     45  C   UNL A   1      43.673  27.856  31.712  1.00  0.00     0.031 C 
ATOM     46  C   UNL A   1      39.767  29.998  29.355  1.00  0.00     0.029 A 
ATOM     47  N   UNL A   1      40.175  30.633  31.459  1.00  0.00    -0.354 N 
ATOM     48  C   UNL A   1      43.396  28.877  33.739  1.00  0.00     0.074 A 
ATOM     49  C   UNL A   1      44.098  27.876  32.966  1.00  0.00     0.031 C 
ATOM     50  C   UNL A   1      38.844  30.916  29.684  1.00  0.00     0.029 A 
ATOM     51  C   UNL A   1      39.064  31.340  31.062  1.00  0.00     0.049 A 
ATOM     52  H   UNL A   1      40.574  30.715  32.355  1.00  0.00     0.167 HD
ATOM     53  C   UNL A   1      43.701  29.204  35.018  1.00  0.00     0.031 A 
ATOM     54  C   UNL A   1      38.301  32.227  31.731  1.00  0.00     0.031 A 
ATOM     55  C   UNL A   1      43.006  30.208  35.779  1.00  0.00     0.049 A 
ATOM     56  C   UNL A   1      38.662  32.578  33.148  1.00  0.00     0.074 A 
ATOM     57  C   UNL A   1      43.280  30.662  37.057  1.00  0.00     0.029 A 
ATOM     58  N   UNL A   1      41.896  30.911  35.335  1.00  0.00    -0.354 N 
ATOM     59  N   UNL A   1      39.645  32.120  33.885  1.00  0.00    -0.248 NA
ATOM     60  C   UNL A   1      37.817  33.576  33.818  1.00  0.00     0.031 C 
ATOM     61  C   UNL A   1      42.300  31.597  37.408  1.00  0.00     0.029 A 
ATOM     62  C   UNL A   1      41.455  31.774  36.325  1.00  0.00     0.049 A 
ATOM     63  H   UNL A   1      41.482  30.813  34.448  1.00  0.00     0.167 HD
ATOM     64  C   UNL A   1      39.552  32.790  35.100  1.00  0.00     0.074 A 
ATOM     65  C   UNL A   1      38.427  33.698  34.989  1.00  0.00     0.031 C 
ATOM     66  C   UNL A   1      40.327  32.664  36.205  1.00  0.00     0.031 A 
BRANCH  53  67
ATOM     67  C   UNL A   1      44.832  28.456  35.678  1.00  0.00    -0.014 A 
ATOM     68  C   UNL A   1      44.647  27.162  36.199  1.00  0.00     0.010 A 
ATOM     69  C   UNL A   1      46.110  29.041  35.749  1.00  0.00     0.010 A 
ATOM     70  C   UNL A   1      45.702  26.490  36.823  1.00  0.00     0.020 A 
ATOM     71  C   UNL A   1      47.176  28.360  36.343  1.00  0.00     0.020 A 
ATOM     72  C   UNL A   1      46.960  27.096  36.895  1.00  0.00     0.054 A 
BRANCH  72  73
ATOM     73  S   UNL A   1      48.313  26.195  37.698  1.00  0.00     0.124 S 
ATOM     74  O   UNL A   1      48.282  24.915  36.992  1.00  0.00    -0.237 OA
ATOM     75  O   UNL A   1      49.472  27.039  37.418  1.00  0.00    -0.237 OA
ATOM     76  O   UNL A   1      47.910  26.141  39.101  1.00  0.00    -0.744 OA
ENDBRANCH  72  73
ENDBRANCH  53  67
BRANCH  54  77
ATOM     77  C   UNL A   1      37.132  32.854  31.054  1.00  0.00    -0.014 A 
ATOM     78  C   UNL A   1      37.320  33.781  30.015  1.00  0.00     0.010 A 
ATOM     79  C   UNL A   1      35.822  32.500  31.425  1.00  0.00     0.010 A 
ATOM     80  C   UNL A   1      36.220  34.350  29.364  1.00  0.00     0.020 A 
ATOM     81  C   UNL A   1      34.720  33.042  30.758  1.00  0.00     0.020 A 
ATOM     82  C   UNL A   1      34.927  33.971  29.737  1.00  0.00     0.054 A 
BRANCH  82  83
ATOM     83  S   UNL A   1      33.516  34.667  28.831  1.00  0.00     0.124 S 
ATOM     84  O   UNL A   1      32.540  34.869  29.897  1.00  0.00    -0.237 OA
ATOM     85  O   UNL A   1      34.083  35.883  28.251  1.00  0.00    -0.237 OA
ATOM     86  O   UNL A   1      33.182  33.624  27.864  1.00  0.00    -0.744 OA
ENDBRANCH  82  83
ENDBRANCH  54  77
BRANCH  66  87
ATOM     87  C   UNL A   1      40.002  33.547  37.381  1.00  0.00    -0.014 A 
ATOM     88  C   UNL A   1      40.371  34.904  37.399  1.00  0.00     0.010 A 
ATOM     89  C   UNL A   1      39.273  33.021  38.463  1.00  0.00     0.010 A 
ATOM     90  C   UNL A   1      40.047  35.709  38.494  1.00  0.00     0.020 A 
ATOM     91  C   UNL A   1      38.921  33.831  39.546  1.00  0.00     0.020 A 
ATOM     92  C   UNL A   1      39.324  35.167  39.561  1.00  0.00     0.054 A 
BRANCH  92  93
ATOM     93  S   UNL A   1      38.886  36.242  40.954  1.00  0.00     0.124 S 
ATOM     94  O   UNL A   1      40.124  36.258  41.727  1.00  0.00    -0.237 OA
ATOM     95  O   UNL A   1      38.542  37.499  40.293  1.00  0.00    -0.237 OA
ATOM     96  O   UNL A   1      37.765  35.551  41.587  1.00  0.00    -0.744 OA
ENDBRANCH  92  93
ENDBRANCH  66  87
ENDBRANCH  40  41
ENDBRANCH  32  35
ENDBRANCH  30  31
ENDBRANCH  29  30
ENDBRANCH   1  29
TORSDOF 18
ENDMDL
MODEL 3
REMARK VINA RESULT:     -11.6      0.697      7.970
REMARK SMILES O=C(CSc1nnc(-c2ccncc2)s1)Nc1cccc(C(=O)NCCCNC(=O)c2ccc(-c3c4nc(c(-c5ccc(S(=O)(=O)[O-])cc5)c5ccc([nH]5)c(-c5ccc(S(=O)(=O)[O-])cc5)c5nc(c(-c6ccc(S(=O)(=O)[O-])cc6)c6ccc3[nH]6)C=C5)C=C4)cc2)c1
REMARK SMILES IDX 25 1 24 2 22 3 23 4 21 6 17 7 18 8 91 9 19 10 20 11 16 12
REMARK SMILES IDX 1 13 2 14 3 16 4 17 5 18 6 19 15 20 7 21 8 22 9 23 10 24
REMARK SMILES IDX 14 25 11 26 13 27 12 28 26 29 27 30 28 31 29 32 30 34 31 35
REMARK SMILES IDX 32 36 90 37 33 38 89 39 34 40 35 41 36 42 83 43 37 44 88 45
REMARK SMILES IDX 82 46 84 47 38 48 87 49 81 50 80 51 39 53 69 54 50 55 68 56
REMARK SMILES IDX 51 57 54 58 67 59 85 60 52 61 53 62 66 64 86 65 55 66 40 67
REMARK SMILES IDX 41 68 49 69 42 70 48 71 43 72 44 73 45 74 46 75 47 76 70 77
REMARK SMILES IDX 71 78 79 79 72 80 78 81 73 82 74 83 75 84 76 85 77 86 56 87
REMARK SMILES IDX 57 88 65 89 58 90 64 91 59 92 60 93 61 94 62 95 63 96
REMARK H PARENT 24 5 16 15 28 33 84 52 54 63
REMARK Flexibility Score: inf
ROOT
ATOM      1  C   UNL A   1      36.939  21.682  25.310  1.00  0.00     0.118 C 
ENDROOT
BRANCH   1   2
ATOM      2  N   UNL A   1      35.918  21.450  26.329  1.00  0.00    -0.352 N 
ATOM      3  C   UNL A   1      34.563  21.203  26.247  1.00  0.00     0.251 C 
ATOM      4  O   UNL A   1      33.930  21.044  27.291  1.00  0.00    -0.269 OA
ATOM      5  H   UNL A   1      36.263  21.473  27.251  1.00  0.00     0.163 HD
BRANCH   3   6
ATOM      6  C   UNL A   1      33.826  21.201  24.955  1.00  0.00     0.041 A 
ATOM      7  C   UNL A   1      32.611  22.407  23.247  1.00  0.00     0.041 A 
ATOM      8  C   UNL A   1      32.079  21.202  22.780  1.00  0.00     0.026 A 
ATOM      9  C   UNL A   1      33.594  22.368  24.231  1.00  0.00     0.040 A 
ATOM     10  C   UNL A   1      32.464  19.990  23.363  1.00  0.00     0.003 A 
ATOM     11  C   UNL A   1      33.301  19.995  24.480  1.00  0.00     0.014 A 
BRANCH   7  12
ATOM     12  N   UNL A   1      32.030  23.615  22.800  1.00  0.00    -0.325 N 
ATOM     13  O   UNL A   1      33.357  24.119  20.951  1.00  0.00    -0.274 OA
ATOM     14  C   UNL A   1      32.481  24.421  21.760  1.00  0.00     0.234 C 
ATOM     15  H   UNL A   1      31.223  23.918  23.275  1.00  0.00     0.169 HD
BRANCH  14  16
ATOM     16  C   UNL A   1      31.918  25.836  21.760  1.00  0.00     0.177 C 
BRANCH  16  17
ATOM     17  S   UNL A   1      31.610  26.494  23.419  1.00  0.00    -0.084 SA
BRANCH  17  18
ATOM     18  C   UNL A   1      30.407  27.705  23.059  1.00  0.00     0.175 A 
ATOM     19  N   UNL A   1      29.122  27.530  23.267  1.00  0.00    -0.131 NA
ATOM     20  S   UNL A   1      30.827  29.243  22.450  1.00  0.00    -0.086 S 
ATOM     21  N   UNL A   1      28.392  28.663  22.959  1.00  0.00    -0.137 NA
ATOM     22  C   UNL A   1      29.151  29.635  22.494  1.00  0.00     0.148 A 
BRANCH  22  23
ATOM     23  C   UNL A   1      28.684  30.962  22.097  1.00  0.00     0.015 A 
ATOM     24  C   UNL A   1      28.682  32.034  22.994  1.00  0.00     0.031 A 
ATOM     25  C   UNL A   1      28.230  31.179  20.794  1.00  0.00     0.031 A 
ATOM     26  C   UNL A   1      28.206  33.260  22.561  1.00  0.00     0.111 A 
ATOM     27  C   UNL A   1      27.769  32.440  20.458  1.00  0.00     0.111 A 
ATOM     28  N   UNL A   1      27.742  33.483  21.315  1.00  0.00    -0.265 NA
ENDBRANCH  22  23
ENDBRANCH  17  18
ENDBRANCH  16  17
ENDBRANCH  14  16
ENDBRANCH   7  12
ENDBRANCH   3   6
ENDBRANCH   1   2
BRANCH   1  29
ATOM     29  C   UNL A   1      38.039  20.635  25.263  1.00  0.00     0.042 C 
BRANCH  29  30
ATOM     30  C   UNL A   1      39.285  20.969  26.064  1.00  0.00     0.118 C 
BRANCH  30  31
ATOM     31  N   UNL A   1      40.308  19.935  25.994  1.00  0.00    -0.352 N 
ATOM     32  C   UNL A   1      41.681  20.006  26.040  1.00  0.00     0.251 C 
ATOM     33  H   UNL A   1      39.954  19.022  25.898  1.00  0.00     0.163 HD
ATOM     34  O   UNL A   1      42.336  18.997  25.794  1.00  0.00    -0.269 OA
BRANCH  32  35
ATOM     35  C   UNL A   1      42.380  21.274  26.356  1.00  0.00     0.039 A 
ATOM     36  C   UNL A   1      42.583  22.204  25.330  1.00  0.00     0.014 A 
ATOM     37  C   UNL A   1      42.871  21.545  27.633  1.00  0.00     0.014 A 
ATOM     38  C   UNL A   1      43.203  23.426  25.607  1.00  0.00     0.010 A 
ATOM     39  C   UNL A   1      43.391  22.802  27.932  1.00  0.00     0.010 A 
ATOM     40  C   UNL A   1      43.571  23.757  26.921  1.00  0.00    -0.014 A 
BRANCH  40  41
ATOM     41  C   UNL A   1      44.137  25.090  27.256  1.00  0.00     0.031 A 
ATOM     42  C   UNL A   1      43.291  26.128  27.947  1.00  0.00     0.074 A 
ATOM     43  C   UNL A   1      45.394  25.393  26.874  1.00  0.00     0.049 A 
ATOM     44  N   UNL A   1      43.599  27.357  28.275  1.00  0.00    -0.248 NA
ATOM     45  C   UNL A   1      41.910  25.747  28.289  1.00  0.00     0.031 C 
ATOM     46  C   UNL A   1      46.297  24.495  26.148  1.00  0.00     0.029 A 
ATOM     47  N   UNL A   1      46.131  26.539  27.038  1.00  0.00    -0.354 N 
ATOM     48  C   UNL A   1      42.449  27.900  28.840  1.00  0.00     0.074 A 
ATOM     49  C   UNL A   1      41.422  26.886  28.759  1.00  0.00     0.031 C 
ATOM     50  C   UNL A   1      47.474  25.111  25.961  1.00  0.00     0.029 A 
ATOM     51  C   UNL A   1      47.398  26.461  26.510  1.00  0.00     0.049 A 
ATOM     52  H   UNL A   1      45.784  27.342  27.490  1.00  0.00     0.167 HD
ATOM     53  C   UNL A   1      42.269  29.123  29.393  1.00  0.00     0.031 A 
ATOM     54  C   UNL A   1      48.390  27.373  26.466  1.00  0.00     0.031 A 
ATOM     55  C   UNL A   1      43.298  30.126  29.480  1.00  0.00     0.049 A 
ATOM     56  C   UNL A   1      48.170  28.722  27.090  1.00  0.00     0.074 A 
ATOM     57  C   UNL A   1      43.237  31.371  30.081  1.00  0.00     0.029 A 
ATOM     58  N   UNL A   1      44.572  30.002  28.947  1.00  0.00    -0.354 N 
ATOM     59  N   UNL A   1      47.100  29.187  27.690  1.00  0.00    -0.248 NA
ATOM     60  C   UNL A   1      49.295  29.665  27.044  1.00  0.00     0.031 C 
ATOM     61  C   UNL A   1      44.455  32.022  29.860  1.00  0.00     0.029 A 
ATOM     62  C   UNL A   1      45.297  31.159  29.179  1.00  0.00     0.049 A 
ATOM     63  H   UNL A   1      44.912  29.208  28.473  1.00  0.00     0.167 HD
ATOM     64  C   UNL A   1      47.429  30.470  28.112  1.00  0.00     0.074 A 
ATOM     65  C   UNL A   1      48.805  30.698  27.716  1.00  0.00     0.031 C 
ATOM     66  C   UNL A   1      46.662  31.376  28.768  1.00  0.00     0.031 A 
BRANCH  53  67
ATOM     67  C   UNL A   1      40.900  29.448  29.937  1.00  0.00    -0.014 A 
ATOM     68  C   UNL A   1      39.929  30.082  29.140  1.00  0.00     0.010 A 
ATOM     69  C   UNL A   1      40.568  29.085  31.255  1.00  0.00     0.010 A 
ATOM     70  C   UNL A   1      38.671  30.391  29.666  1.00  0.00     0.020 A 
ATOM     71  C   UNL A   1      39.301  29.364  31.775  1.00  0.00     0.020 A 
ATOM     72  C   UNL A   1      38.367  30.034  30.983  1.00  0.00     0.054 A 
BRANCH  72  73
ATOM     73  S   UNL A   1      36.722  30.435  31.633  1.00  0.00     0.124 S 
ATOM     74  O   UNL A   1      36.880  30.137  33.055  1.00  0.00    -0.237 OA
ATOM     75  O   UNL A   1      36.582  31.851  31.301  1.00  0.00    -0.237 OA
ATOM     76  O   UNL A   1      35.831  29.536  30.904  1.00  0.00    -0.744 OA
ENDBRANCH  72  73
ENDBRANCH  53  67
BRANCH  54  77
ATOM     77  C   UNL A   1      49.686  27.024  25.820  1.00  0.00    -0.014 A 
ATOM     78  C   UNL A   1      49.929  27.362  24.477  1.00  0.00     0.010 A 
ATOM     79  C   UNL A   1      50.697  26.381  26.556  1.00  0.00     0.010 A 
ATOM     80  C   UNL A   1      51.156  27.054  23.880  1.00  0.00     0.020 A 
ATOM     81  C   UNL A   1      51.935  26.098  25.973  1.00  0.00     0.020 A 
ATOM     82  C   UNL A   1      52.153  26.430  24.634  1.00  0.00     0.054 A 
BRANCH  82  83
ATOM     83  S   UNL A   1      53.763  26.105  23.860  1.00  0.00     0.124 S 
ATOM     84  O   UNL A   1      54.211  24.916  24.576  1.00  0.00    -0.237 OA
ATOM     85  O   UNL A   1      53.402  25.904  22.458  1.00  0.00    -0.237 OA
ATOM     86  O   UNL A   1      54.523  27.324  24.129  1.00  0.00    -0.744 OA
ENDBRANCH  82  83
ENDBRANCH  54  77
BRANCH  66  87
ATOM     87  C   UNL A   1      47.301  32.693  29.123  1.00  0.00    -0.014 A 
ATOM     88  C   UNL A   1      47.182  33.812  28.279  1.00  0.00     0.010 A 
ATOM     89  C   UNL A   1      47.989  32.824  30.343  1.00  0.00     0.010 A 
ATOM     90  C   UNL A   1      47.772  35.029  28.634  1.00  0.00     0.020 A 
ATOM     91  C   UNL A   1      48.553  34.048  30.715  1.00  0.00     0.020 A 
ATOM     92  C   UNL A   1      48.453  35.139  29.849  1.00  0.00     0.054 A 
BRANCH  92  93
ATOM     93  S   UNL A   1      49.178  36.738  30.303  1.00  0.00     0.124 S 
ATOM     94  O   UNL A   1      49.938  36.398  31.502  1.00  0.00    -0.237 OA
ATOM     95  O   UNL A   1      49.977  37.073  29.126  1.00  0.00    -0.237 OA
ATOM     96  O   UNL A   1      48.016  37.596  30.523  1.00  0.00    -0.744 OA
ENDBRANCH  92  93
ENDBRANCH  66  87
ENDBRANCH  40  41
ENDBRANCH  32  35
ENDBRANCH  30  31
ENDBRANCH  29  30
ENDBRANCH   1  29
TORSDOF 18
ENDMDL
