MODEL 1
REMARK VINA RESULT:     -12.1      0.000      0.000
REMARK SMILES COc1ccc(/C=C2/C(=O)N(c3ccccc3)C(=O)[NH+]=C2NCCCNC(=O)c2ccc(-c3c4nc(c(-c5ccc(S(=O)(=O)[O-])cc5)c5ccc([nH]5)c(-c5ccc(S(=O)(=O)[O-])cc5)c5nc(c(-c6ccc(S(=O)(=O)[O-])cc6)c6ccc3[nH]6)C=C5)C=C4)cc2)cc1C(=O)[O-]
REMARK SMILES IDX 25 1 24 2 23 3 22 4 7 5 8 6 9 7 21 8 10 9 11 10 20 11 18 12
REMARK SMILES IDX 19 15 6 16 3 17 4 18 90 19 5 20 89 21 2 22 1 23 91 24 92 25
REMARK SMILES IDX 93 26 12 27 13 28 17 29 14 30 16 31 15 32 26 33 27 34 28 36
REMARK SMILES IDX 29 37 30 38 88 39 31 40 87 41 32 42 33 43 34 44 81 45 35 46
REMARK SMILES IDX 86 47 80 48 82 49 36 50 85 51 79 52 78 53 37 55 67 56 48 57
REMARK SMILES IDX 66 58 49 59 52 60 65 61 83 62 50 63 51 64 64 66 84 67 53 68
REMARK SMILES IDX 38 69 39 70 47 71 40 72 46 73 41 74 42 75 43 76 44 77 45 78
REMARK SMILES IDX 68 79 69 80 77 81 70 82 76 83 71 84 72 85 73 86 74 87 75 88
REMARK SMILES IDX 54 89 55 90 63 91 56 92 62 93 57 94 58 95 59 96 60 97 61 98
REMARK H PARENT 20 13 22 14 26 35 82 54 52 65
REMARK Flexibility Score: inf
ROOT
ATOM      1  C   UNL A   1      34.314  27.713  26.249  1.00  0.00     0.119 C 
ENDROOT
BRANCH   1   2
ATOM      2  C   UNL A   1      33.367  26.552  26.515  1.00  0.00     0.059 C 
BRANCH   2   3
ATOM      3  C   UNL A   1      33.278  25.555  25.383  1.00  0.00     0.195 C 
BRANCH   3   4
ATOM      4  N   UNL A   1      34.029  24.355  25.594  1.00  0.00    -0.305 N 
ATOM      5  C   UNL A   1      32.208  23.306  23.043  1.00  0.00     0.030 C 
ATOM      6  C   UNL A   1      32.927  22.635  23.977  1.00  0.00     0.129 C 
ATOM      7  C   UNL A   1      32.699  21.143  23.954  1.00  0.00     0.328 C 
ATOM      8  C   UNL A   1      33.879  23.111  25.036  1.00  0.00     0.236 C 
ATOM      9  O   UNL A   1      31.718  20.680  23.367  1.00  0.00    -0.249 OA
ATOM     10  N   UNL A   1      33.629  20.376  24.645  1.00  0.00    -0.155 N 
ATOM     11  N   UNL A   1      34.698  22.271  25.603  1.00  0.00    -0.209 N 
ATOM     12  C   UNL A   1      34.732  20.947  25.278  1.00  0.00     0.448 C 
ATOM     13  H   UNL A   1      35.316  22.605  26.293  1.00  0.00     0.270 HD
ATOM     14  H   UNL A   1      34.768  24.434  26.239  1.00  0.00     0.256 HD
ATOM     15  O   UNL A   1      35.747  20.302  25.540  1.00  0.00    -0.212 OA
BRANCH   5  16
ATOM     16  C   UNL A   1      32.094  24.730  22.690  1.00  0.00    -0.024 A 
ATOM     17  C   UNL A   1      31.942  27.524  22.367  1.00  0.00     0.127 A 
ATOM     18  C   UNL A   1      33.018  26.802  21.835  1.00  0.00     0.048 A 
ATOM     19  C   UNL A   1      30.848  26.832  22.892  1.00  0.00     0.040 A 
ATOM     20  C   UNL A   1      33.079  25.406  21.967  1.00  0.00     0.012 A 
ATOM     21  C   UNL A   1      30.947  25.440  23.087  1.00  0.00     0.022 A 
BRANCH  17  22
ATOM     22  O   UNL A   1      32.066  28.887  22.325  1.00  0.00    -0.496 OA
ATOM     23  C   UNL A   1      32.916  29.400  23.357  1.00  0.00     0.278 C 
ENDBRANCH  17  22
BRANCH  19  24
ATOM     24  C   UNL A   1      29.563  27.473  23.247  1.00  0.00     0.075 C 
ATOM     25  O   UNL A   1      29.307  28.656  23.110  1.00  0.00    -0.545 OA
ATOM     26  O   UNL A   1      28.708  26.633  23.851  1.00  0.00    -0.545 OA
ENDBRANCH  19  24
ENDBRANCH   5  16
BRANCH  10  27
ATOM     27  C   UNL A   1      33.537  18.939  24.623  1.00  0.00     0.111 A 
ATOM     28  C   UNL A   1      32.889  18.257  25.669  1.00  0.00     0.044 A 
ATOM     29  C   UNL A   1      34.097  18.182  23.586  1.00  0.00     0.044 A 
ATOM     30  C   UNL A   1      32.811  16.861  25.678  1.00  0.00     0.004 A 
ATOM     31  C   UNL A   1      34.041  16.784  23.609  1.00  0.00     0.004 A 
ATOM     32  C   UNL A   1      33.396  16.124  24.653  1.00  0.00     0.000 A 
ENDBRANCH  10  27
ENDBRANCH   3   4
ENDBRANCH   2   3
ENDBRANCH   1   2
BRANCH   1  33
ATOM     33  N   UNL A   1      33.856  29.013  26.750  1.00  0.00    -0.352 N 
ATOM     34  C   UNL A   1      34.450  29.981  27.532  1.00  0.00     0.251 C 
ATOM     35  H   UNL A   1      32.940  29.241  26.473  1.00  0.00     0.163 HD
ATOM     36  O   UNL A   1      33.791  30.957  27.881  1.00  0.00    -0.269 OA
BRANCH  34  37
ATOM     37  C   UNL A   1      35.844  29.830  28.001  1.00  0.00     0.039 A 
ATOM     38  C   UNL A   1      36.099  29.414  29.313  1.00  0.00     0.014 A 
ATOM     39  C   UNL A   1      36.907  30.067  27.140  1.00  0.00     0.014 A 
ATOM     40  C   UNL A   1      37.403  29.096  29.702  1.00  0.00     0.010 A 
ATOM     41  C   UNL A   1      38.171  29.611  27.470  1.00  0.00     0.010 A 
ATOM     42  C   UNL A   1      38.440  29.134  28.760  1.00  0.00    -0.014 A 
BRANCH  42  43
ATOM     43  C   UNL A   1      39.838  28.761  29.082  1.00  0.00     0.031 A 
ATOM     44  C   UNL A   1      40.745  29.803  29.682  1.00  0.00     0.074 A 
ATOM     45  C   UNL A   1      40.319  27.554  28.723  1.00  0.00     0.049 A 
ATOM     46  N   UNL A   1      42.038  29.771  29.862  1.00  0.00    -0.248 NA
ATOM     47  C   UNL A   1      40.117  31.078  30.079  1.00  0.00     0.031 C 
ATOM     48  C   UNL A   1      39.550  26.481  28.086  1.00  0.00     0.029 A 
ATOM     49  N   UNL A   1      41.585  27.035  28.825  1.00  0.00    -0.354 N 
ATOM     50  C   UNL A   1      42.379  31.028  30.346  1.00  0.00     0.074 A 
ATOM     51  C   UNL A   1      41.173  31.823  30.363  1.00  0.00     0.031 C 
ATOM     52  C   UNL A   1      40.354  25.425  27.881  1.00  0.00     0.029 A 
ATOM     53  C   UNL A   1      41.702  25.759  28.327  1.00  0.00     0.049 A 
ATOM     54  H   UNL A   1      42.339  27.530  29.220  1.00  0.00     0.167 HD
ATOM     55  C   UNL A   1      43.584  31.475  30.771  1.00  0.00     0.031 A 
ATOM     56  C   UNL A   1      42.780  24.956  28.235  1.00  0.00     0.031 A 
ATOM     57  C   UNL A   1      44.765  30.660  30.797  1.00  0.00     0.049 A 
ATOM     58  C   UNL A   1      44.105  25.461  28.742  1.00  0.00     0.074 A 
ATOM     59  C   UNL A   1      46.021  30.980  31.276  1.00  0.00     0.029 A 
ATOM     60  N   UNL A   1      44.829  29.355  30.334  1.00  0.00    -0.354 N 
ATOM     61  N   UNL A   1      44.398  26.634  29.253  1.00  0.00    -0.248 NA
ATOM     62  C   UNL A   1      45.239  24.531  28.672  1.00  0.00     0.031 C 
ATOM     63  C   UNL A   1      46.858  29.879  31.064  1.00  0.00     0.029 A 
ATOM     64  C   UNL A   1      46.107  28.857  30.503  1.00  0.00     0.049 A 
ATOM     65  H   UNL A   1      44.075  28.856  29.942  1.00  0.00     0.167 HD
ATOM     66  C   UNL A   1      45.744  26.572  29.595  1.00  0.00     0.074 A 
ATOM     67  C   UNL A   1      46.202  25.243  29.244  1.00  0.00     0.031 C 
ATOM     68  C   UNL A   1      46.532  27.525  30.151  1.00  0.00     0.031 A 
BRANCH  55  69
ATOM     69  C   UNL A   1      43.664  32.900  31.251  1.00  0.00    -0.014 A 
ATOM     70  C   UNL A   1      44.015  33.944  30.374  1.00  0.00     0.010 A 
ATOM     71  C   UNL A   1      43.381  33.203  32.595  1.00  0.00     0.010 A 
ATOM     72  C   UNL A   1      44.135  35.253  30.844  1.00  0.00     0.020 A 
ATOM     73  C   UNL A   1      43.466  34.519  33.061  1.00  0.00     0.020 A 
ATOM     74  C   UNL A   1      43.863  35.532  32.186  1.00  0.00     0.054 A 
BRANCH  74  75
ATOM     75  S   UNL A   1      44.012  37.245  32.763  1.00  0.00     0.124 S 
ATOM     76  O   UNL A   1      45.349  37.247  33.355  1.00  0.00    -0.237 OA
ATOM     77  O   UNL A   1      43.872  38.012  31.528  1.00  0.00    -0.237 OA
ATOM     78  O   UNL A   1      42.911  37.388  33.712  1.00  0.00    -0.744 OA
ENDBRANCH  74  75
ENDBRANCH  55  69
BRANCH  56  79
ATOM     79  C   UNL A   1      42.645  23.582  27.674  1.00  0.00    -0.014 A 
ATOM     80  C   UNL A   1      42.260  22.514  28.505  1.00  0.00     0.010 A 
ATOM     81  C   UNL A   1      42.885  23.333  26.312  1.00  0.00     0.010 A 
ATOM     82  C   UNL A   1      42.138  21.220  27.987  1.00  0.00     0.020 A 
ATOM     83  C   UNL A   1      42.737  22.045  25.784  1.00  0.00     0.020 A 
ATOM     84  C   UNL A   1      42.375  20.995  26.629  1.00  0.00     0.054 A 
BRANCH  84  85
ATOM     85  S   UNL A   1      42.159  19.316  25.973  1.00  0.00     0.124 S 
ATOM     86  O   UNL A   1      40.720  19.265  25.737  1.00  0.00    -0.237 OA
ATOM     87  O   UNL A   1      42.997  19.337  24.776  1.00  0.00    -0.237 OA
ATOM     88  O   UNL A   1      42.649  18.463  27.052  1.00  0.00    -0.744 OA
ENDBRANCH  84  85
ENDBRANCH  56  79
BRANCH  68  89
ATOM     89  C   UNL A   1      47.957  27.155  30.452  1.00  0.00    -0.014 A 
ATOM     90  C   UNL A   1      48.982  27.379  29.517  1.00  0.00     0.010 A 
ATOM     91  C   UNL A   1      48.281  26.641  31.721  1.00  0.00     0.010 A 
ATOM     92  C   UNL A   1      50.306  27.068  29.838  1.00  0.00     0.020 A 
ATOM     93  C   UNL A   1      49.607  26.356  32.055  1.00  0.00     0.020 A 
ATOM     94  C   UNL A   1      50.609  26.560  31.104  1.00  0.00     0.054 A 
BRANCH  94  95
ATOM     95  S   UNL A   1      52.341  26.214  31.513  1.00  0.00     0.124 S 
ATOM     96  O   UNL A   1      52.981  26.286  30.202  1.00  0.00    -0.237 OA
ATOM     97  O   UNL A   1      52.675  27.297  32.435  1.00  0.00    -0.237 OA
ATOM     98  O   UNL A   1      52.297  24.883  32.113  1.00  0.00    -0.744 OA
ENDBRANCH  94  95
ENDBRANCH  68  89
ENDBRANCH  42  43
ENDBRANCH  34  37
ENDBRANCH   1  33
TORSDOF 16
ENDMDL
MODEL 2
REMARK VINA RESULT:     -11.6      2.828      9.701
REMARK SMILES COc1ccc(/C=C2/C(=O)N(c3ccccc3)C(=O)[NH+]=C2NCCCNC(=O)c2ccc(-c3c4nc(c(-c5ccc(S(=O)(=O)[O-])cc5)c5ccc([nH]5)c(-c5ccc(S(=O)(=O)[O-])cc5)c5nc(c(-c6ccc(S(=O)(=O)[O-])cc6)c6ccc3[nH]6)C=C5)C=C4)cc2)cc1C(=O)[O-]
REMARK SMILES IDX 25 1 24 2 23 3 22 4 7 5 8 6 9 7 21 8 10 9 11 10 20 11 18 12
REMARK SMILES IDX 19 15 6 16 3 17 4 18 90 19 5 20 89 21 2 22 1 23 91 24 92 25
REMARK SMILES IDX 93 26 12 27 13 28 17 29 14 30 16 31 15 32 26 33 27 34 28 36
REMARK SMILES IDX 29 37 30 38 88 39 31 40 87 41 32 42 33 43 34 44 81 45 35 46
REMARK SMILES IDX 86 47 80 48 82 49 36 50 85 51 79 52 78 53 37 55 67 56 48 57
REMARK SMILES IDX 66 58 49 59 52 60 65 61 83 62 50 63 51 64 64 66 84 67 53 68
REMARK SMILES IDX 38 69 39 70 47 71 40 72 46 73 41 74 42 75 43 76 44 77 45 78
REMARK SMILES IDX 68 79 69 80 77 81 70 82 76 83 71 84 72 85 73 86 74 87 75 88
REMARK SMILES IDX 54 89 55 90 63 91 56 92 62 93 57 94 58 95 59 96 60 97 61 98
REMARK H PARENT 20 13 22 14 26 35 82 54 52 65
REMARK Flexibility Score: inf
ROOT
ATOM      1  C   UNL A   1      36.315  24.547  25.277  1.00  0.00     0.119 C 
ENDROOT
BRANCH   1   2
ATOM      2  C   UNL A   1      34.841  24.378  25.615  1.00  0.00     0.059 C 
BRANCH   2   3
ATOM      3  C   UNL A   1      33.901  24.918  24.563  1.00  0.00     0.195 C 
BRANCH   3   4
ATOM      4  N   UNL A   1      33.613  26.314  24.689  1.00  0.00    -0.305 N 
ATOM      5  C   UNL A   1      30.510  25.248  24.290  1.00  0.00     0.030 C 
ATOM      6  C   UNL A   1      31.067  26.478  24.164  1.00  0.00     0.129 C 
ATOM      7  C   UNL A   1      30.138  27.498  23.551  1.00  0.00     0.328 C 
ATOM      8  C   UNL A   1      32.437  26.994  24.496  1.00  0.00     0.236 C 
ATOM      9  O   UNL A   1      29.128  27.127  22.948  1.00  0.00    -0.249 OA
ATOM     10  N   UNL A   1      30.517  28.827  23.693  1.00  0.00    -0.155 N 
ATOM     11  N   UNL A   1      32.647  28.276  24.594  1.00  0.00    -0.209 N 
ATOM     12  C   UNL A   1      31.660  29.197  24.401  1.00  0.00     0.448 C 
ATOM     13  H   UNL A   1      33.553  28.591  24.816  1.00  0.00     0.270 HD
ATOM     14  H   UNL A   1      34.377  26.875  24.955  1.00  0.00     0.256 HD
ATOM     15  O   UNL A   1      31.805  30.324  24.873  1.00  0.00    -0.212 OA
BRANCH   5  16
ATOM     16  C   UNL A   1      31.008  23.965  24.812  1.00  0.00    -0.024 A 
ATOM     17  C   UNL A   1      32.292  21.618  25.693  1.00  0.00     0.127 A 
ATOM     18  C   UNL A   1      31.806  22.553  26.614  1.00  0.00     0.048 A 
ATOM     19  C   UNL A   1      31.968  21.759  24.341  1.00  0.00     0.040 A 
ATOM     20  C   UNL A   1      31.137  23.709  26.178  1.00  0.00     0.012 A 
ATOM     21  C   UNL A   1      31.363  22.952  23.902  1.00  0.00     0.022 A 
BRANCH  17  22
ATOM     22  O   UNL A   1      33.067  20.618  26.218  1.00  0.00    -0.496 OA
ATOM     23  C   UNL A   1      33.946  21.081  27.250  1.00  0.00     0.278 C 
ENDBRANCH  17  22
BRANCH  19  24
ATOM     24  C   UNL A   1      32.209  20.711  23.325  1.00  0.00     0.075 C 
ATOM     25  O   UNL A   1      32.543  19.564  23.564  1.00  0.00    -0.545 OA
ATOM     26  O   UNL A   1      32.127  21.173  22.067  1.00  0.00    -0.545 OA
ENDBRANCH  19  24
ENDBRANCH   5  16
BRANCH  10  27
ATOM     27  C   UNL A   1      29.662  29.877  23.204  1.00  0.00     0.111 A 
ATOM     28  C   UNL A   1      29.663  30.211  21.837  1.00  0.00     0.044 A 
ATOM     29  C   UNL A   1      28.825  30.604  24.061  1.00  0.00     0.044 A 
ATOM     30  C   UNL A   1      28.857  31.243  21.347  1.00  0.00     0.004 A 
ATOM     31  C   UNL A   1      28.039  31.654  23.575  1.00  0.00     0.004 A 
ATOM     32  C   UNL A   1      28.054  31.972  22.218  1.00  0.00     0.000 A 
ENDBRANCH  10  27
ENDBRANCH   3   4
ENDBRANCH   2   3
ENDBRANCH   1   2
BRANCH   1  33
ATOM     33  N   UNL A   1      37.142  23.357  25.504  1.00  0.00    -0.352 N 
ATOM     34  C   UNL A   1      38.339  23.155  26.159  1.00  0.00     0.251 C 
ATOM     35  H   UNL A   1      36.768  22.536  25.110  1.00  0.00     0.163 HD
ATOM     36  O   UNL A   1      38.864  22.045  26.121  1.00  0.00    -0.269 OA
BRANCH  34  37
ATOM     37  C   UNL A   1      39.023  24.267  26.854  1.00  0.00     0.039 A 
ATOM     38  C   UNL A   1      39.845  25.141  26.133  1.00  0.00     0.014 A 
ATOM     39  C   UNL A   1      38.832  24.473  28.213  1.00  0.00     0.014 A 
ATOM     40  C   UNL A   1      40.344  26.294  26.747  1.00  0.00     0.010 A 
ATOM     41  C   UNL A   1      39.194  25.682  28.781  1.00  0.00     0.010 A 
ATOM     42  C   UNL A   1      39.967  26.601  28.061  1.00  0.00    -0.014 A 
BRANCH  42  43
ATOM     43  C   UNL A   1      40.412  27.830  28.761  1.00  0.00     0.031 A 
ATOM     44  C   UNL A   1      41.762  27.834  29.430  1.00  0.00     0.074 A 
ATOM     45  C   UNL A   1      39.570  28.872  28.906  1.00  0.00     0.049 A 
ATOM     46  N   UNL A   1      42.274  28.706  30.256  1.00  0.00    -0.248 NA
ATOM     47  C   UNL A   1      42.627  26.665  29.180  1.00  0.00     0.031 C 
ATOM     48  C   UNL A   1      38.217  28.963  28.348  1.00  0.00     0.029 A 
ATOM     49  N   UNL A   1      39.724  30.052  29.589  1.00  0.00    -0.354 N 
ATOM     50  C   UNL A   1      43.494  28.170  30.655  1.00  0.00     0.074 A 
ATOM     51  C   UNL A   1      43.612  26.868  30.041  1.00  0.00     0.031 C 
ATOM     52  C   UNL A   1      37.678  30.145  28.689  1.00  0.00     0.029 A 
ATOM     53  C   UNL A   1      38.625  30.876  29.526  1.00  0.00     0.049 A 
ATOM     54  H   UNL A   1      40.546  30.288  30.078  1.00  0.00     0.167 HD
ATOM     55  C   UNL A   1      44.448  28.725  31.438  1.00  0.00     0.031 A 
ATOM     56  C   UNL A   1      38.406  32.081  30.088  1.00  0.00     0.031 A 
ATOM     57  C   UNL A   1      44.341  30.041  32.002  1.00  0.00     0.049 A 
ATOM     58  C   UNL A   1      39.493  32.695  30.930  1.00  0.00     0.074 A 
ATOM     59  C   UNL A   1      45.275  30.736  32.747  1.00  0.00     0.029 A 
ATOM     60  N   UNL A   1      43.234  30.865  31.869  1.00  0.00    -0.354 N 
ATOM     61  N   UNL A   1      40.666  32.199  31.249  1.00  0.00    -0.248 NA
ATOM     62  C   UNL A   1      39.232  34.032  31.477  1.00  0.00     0.031 C 
ATOM     63  C   UNL A   1      44.714  31.968  33.100  1.00  0.00     0.029 A 
ATOM     64  C   UNL A   1      43.454  32.059  32.529  1.00  0.00     0.049 A 
ATOM     65  H   UNL A   1      42.412  30.633  31.378  1.00  0.00     0.167 HD
ATOM     66  C   UNL A   1      41.296  33.179  32.008  1.00  0.00     0.074 A 
ATOM     67  C   UNL A   1      40.380  34.298  32.088  1.00  0.00     0.031 C 
ATOM     68  C   UNL A   1      42.524  33.159  32.585  1.00  0.00     0.031 A 
BRANCH  55  69
ATOM     69  C   UNL A   1      45.684  27.909  31.707  1.00  0.00    -0.014 A 
ATOM     70  C   UNL A   1      45.749  27.028  32.804  1.00  0.00     0.010 A 
ATOM     71  C   UNL A   1      46.795  28.018  30.852  1.00  0.00     0.010 A 
ATOM     72  C   UNL A   1      46.919  26.315  33.071  1.00  0.00     0.020 A 
ATOM     73  C   UNL A   1      47.957  27.279  31.097  1.00  0.00     0.020 A 
ATOM     74  C   UNL A   1      48.018  26.448  32.218  1.00  0.00     0.054 A 
BRANCH  74  75
ATOM     75  S   UNL A   1      49.519  25.497  32.582  1.00  0.00     0.124 S 
ATOM     76  O   UNL A   1      49.028  24.521  33.553  1.00  0.00    -0.237 OA
ATOM     77  O   UNL A   1      49.879  24.954  31.274  1.00  0.00    -0.237 OA
ATOM     78  O   UNL A   1      50.441  26.496  33.115  1.00  0.00    -0.744 OA
ENDBRANCH  74  75
ENDBRANCH  55  69
BRANCH  56  79
ATOM     79  C   UNL A   1      37.125  32.800  29.844  1.00  0.00    -0.014 A 
ATOM     80  C   UNL A   1      36.079  32.722  30.782  1.00  0.00     0.010 A 
ATOM     81  C   UNL A   1      36.944  33.575  28.685  1.00  0.00     0.010 A 
ATOM     82  C   UNL A   1      34.871  33.389  30.556  1.00  0.00     0.020 A 
ATOM     83  C   UNL A   1      35.746  34.267  28.468  1.00  0.00     0.020 A 
ATOM     84  C   UNL A   1      34.713  34.159  29.401  1.00  0.00     0.054 A 
BRANCH  84  85
ATOM     85  S   UNL A   1      33.154  35.056  29.156  1.00  0.00     0.124 S 
ATOM     86  O   UNL A   1      32.499  34.252  28.130  1.00  0.00    -0.237 OA
ATOM     87  O   UNL A   1      32.550  35.003  30.485  1.00  0.00    -0.237 OA
ATOM     88  O   UNL A   1      33.588  36.384  28.730  1.00  0.00    -0.744 OA
ENDBRANCH  84  85
ENDBRANCH  56  79
BRANCH  68  89
ATOM     89  C   UNL A   1      42.963  34.395  33.319  1.00  0.00    -0.014 A 
ATOM     90  C   UNL A   1      42.799  34.515  34.709  1.00  0.00     0.010 A 
ATOM     91  C   UNL A   1      43.615  35.421  32.610  1.00  0.00     0.010 A 
ATOM     92  C   UNL A   1      43.257  35.655  35.375  1.00  0.00     0.020 A 
ATOM     93  C   UNL A   1      44.099  36.549  33.277  1.00  0.00     0.020 A 
ATOM     94  C   UNL A   1      43.904  36.663  34.655  1.00  0.00     0.054 A 
BRANCH  94  95
ATOM     95  S   UNL A   1      44.534  38.107  35.551  1.00  0.00     0.124 S 
ATOM     96  O   UNL A   1      45.970  37.842  35.581  1.00  0.00    -0.237 OA
ATOM     97  O   UNL A   1      44.118  39.220  34.701  1.00  0.00    -0.237 OA
ATOM     98  O   UNL A   1      43.860  38.033  36.845  1.00  0.00    -0.744 OA
ENDBRANCH  94  95
ENDBRANCH  68  89
ENDBRANCH  42  43
ENDBRANCH  34  37
ENDBRANCH   1  33
TORSDOF 16
ENDMDL
MODEL 3
REMARK VINA RESULT:     -11.3      0.719      7.940
REMARK SMILES COc1ccc(/C=C2/C(=O)N(c3ccccc3)C(=O)[NH+]=C2NCCCNC(=O)c2ccc(-c3c4nc(c(-c5ccc(S(=O)(=O)[O-])cc5)c5ccc([nH]5)c(-c5ccc(S(=O)(=O)[O-])cc5)c5nc(c(-c6ccc(S(=O)(=O)[O-])cc6)c6ccc3[nH]6)C=C5)C=C4)cc2)cc1C(=O)[O-]
REMARK SMILES IDX 25 1 24 2 23 3 22 4 7 5 8 6 9 7 21 8 10 9 11 10 20 11 18 12
REMARK SMILES IDX 19 15 6 16 3 17 4 18 90 19 5 20 89 21 2 22 1 23 91 24 92 25
REMARK SMILES IDX 93 26 12 27 13 28 17 29 14 30 16 31 15 32 26 33 27 34 28 36
REMARK SMILES IDX 29 37 30 38 88 39 31 40 87 41 32 42 33 43 34 44 81 45 35 46
REMARK SMILES IDX 86 47 80 48 82 49 36 50 85 51 79 52 78 53 37 55 67 56 48 57
REMARK SMILES IDX 66 58 49 59 52 60 65 61 83 62 50 63 51 64 64 66 84 67 53 68
REMARK SMILES IDX 38 69 39 70 47 71 40 72 46 73 41 74 42 75 43 76 44 77 45 78
REMARK SMILES IDX 68 79 69 80 77 81 70 82 76 83 71 84 72 85 73 86 74 87 75 88
REMARK SMILES IDX 54 89 55 90 63 91 56 92 62 93 57 94 58 95 59 96 60 97 61 98
REMARK H PARENT 20 13 22 14 26 35 82 54 52 65
REMARK Flexibility Score: inf
ROOT
ATOM      1  C   UNL A   1      34.466  27.348  26.449  1.00  0.00     0.119 C 
ENDROOT
BRANCH   1   2
ATOM      2  C   UNL A   1      33.473  26.197  26.380  1.00  0.00     0.059 C 
BRANCH   2   3
ATOM      3  C   UNL A   1      33.586  25.359  25.128  1.00  0.00     0.195 C 
BRANCH   3   4
ATOM      4  N   UNL A   1      34.337  24.151  25.292  1.00  0.00    -0.305 N 
ATOM      5  C   UNL A   1      32.179  23.039  23.049  1.00  0.00     0.030 C 
ATOM      6  C   UNL A   1      33.003  22.392  23.910  1.00  0.00     0.129 C 
ATOM      7  C   UNL A   1      32.749  20.906  23.984  1.00  0.00     0.328 C 
ATOM      8  C   UNL A   1      34.094  22.889  24.814  1.00  0.00     0.236 C 
ATOM      9  O   UNL A   1      31.691  20.441  23.550  1.00  0.00    -0.249 OA
ATOM     10  N   UNL A   1      33.748  20.147  24.580  1.00  0.00    -0.155 N 
ATOM     11  N   UNL A   1      34.966  22.055  25.306  1.00  0.00    -0.209 N 
ATOM     12  C   UNL A   1      34.934  20.719  25.038  1.00  0.00     0.448 C 
ATOM     13  H   UNL A   1      35.674  22.404  25.894  1.00  0.00     0.270 HD
ATOM     14  H   UNL A   1      35.156  24.240  25.831  1.00  0.00     0.256 HD
ATOM     15  O   UNL A   1      35.963  20.061  25.194  1.00  0.00    -0.212 OA
BRANCH   5  16
ATOM     16  C   UNL A   1      32.045  24.450  22.651  1.00  0.00    -0.024 A 
ATOM     17  C   UNL A   1      31.889  27.230  22.231  1.00  0.00     0.127 A 
ATOM     18  C   UNL A   1      32.896  26.472  21.621  1.00  0.00     0.048 A 
ATOM     19  C   UNL A   1      30.848  26.576  22.895  1.00  0.00     0.040 A 
ATOM     20  C   UNL A   1      32.956  25.081  21.803  1.00  0.00     0.012 A 
ATOM     21  C   UNL A   1      30.952  25.192  23.136  1.00  0.00     0.022 A 
BRANCH  17  22
ATOM     22  O   UNL A   1      32.023  28.589  22.120  1.00  0.00    -0.496 OA
ATOM     23  C   UNL A   1      33.034  29.121  22.984  1.00  0.00     0.278 C 
ENDBRANCH  17  22
BRANCH  19  24
ATOM     24  C   UNL A   1      29.614  27.250  23.354  1.00  0.00     0.075 C 
ATOM     25  O   UNL A   1      29.453  28.456  23.414  1.00  0.00    -0.545 OA
ATOM     26  O   UNL A   1      28.689  26.392  23.813  1.00  0.00    -0.545 OA
ENDBRANCH  19  24
ENDBRANCH   5  16
BRANCH  10  27
ATOM     27  C   UNL A   1      33.629  18.713  24.634  1.00  0.00     0.111 A 
ATOM     28  C   UNL A   1      34.203  17.917  23.627  1.00  0.00     0.044 A 
ATOM     29  C   UNL A   1      32.930  18.072  25.666  1.00  0.00     0.044 A 
ATOM     30  C   UNL A   1      34.077  16.525  23.650  1.00  0.00     0.004 A 
ATOM     31  C   UNL A   1      32.781  16.681  25.674  1.00  0.00     0.004 A 
ATOM     32  C   UNL A   1      33.356  15.908  24.668  1.00  0.00     0.000 A 
ENDBRANCH  10  27
ENDBRANCH   3   4
ENDBRANCH   2   3
ENDBRANCH   1   2
BRANCH   1  33
ATOM     33  N   UNL A   1      33.886  28.644  26.819  1.00  0.00    -0.352 N 
ATOM     34  C   UNL A   1      34.382  29.735  27.502  1.00  0.00     0.251 C 
ATOM     35  H   UNL A   1      32.956  28.759  26.520  1.00  0.00     0.163 HD
ATOM     36  O   UNL A   1      33.633  30.676  27.753  1.00  0.00    -0.269 OA
BRANCH  34  37
ATOM     37  C   UNL A   1      35.779  29.759  27.985  1.00  0.00     0.039 A 
ATOM     38  C   UNL A   1      36.072  29.372  29.298  1.00  0.00     0.014 A 
ATOM     39  C   UNL A   1      36.812  30.133  27.136  1.00  0.00     0.014 A 
ATOM     40  C   UNL A   1      37.403  29.219  29.698  1.00  0.00     0.010 A 
ATOM     41  C   UNL A   1      38.120  29.839  27.477  1.00  0.00     0.010 A 
ATOM     42  C   UNL A   1      38.435  29.393  28.767  1.00  0.00    -0.014 A 
BRANCH  42  43
ATOM     43  C   UNL A   1      39.866  29.198  29.101  1.00  0.00     0.031 A 
ATOM     44  C   UNL A   1      40.517  27.883  28.759  1.00  0.00     0.074 A 
ATOM     45  C   UNL A   1      40.530  30.130  29.812  1.00  0.00     0.049 A 
ATOM     46  N   UNL A   1      41.679  27.415  29.125  1.00  0.00    -0.248 NA
ATOM     47  C   UNL A   1      39.723  26.944  27.944  1.00  0.00     0.031 C 
ATOM     48  C   UNL A   1      39.990  31.421  30.248  1.00  0.00     0.029 A 
ATOM     49  N   UNL A   1      41.808  30.123  30.315  1.00  0.00    -0.354 N 
ATOM     50  C   UNL A   1      41.734  26.120  28.624  1.00  0.00     0.074 A 
ATOM     51  C   UNL A   1      40.463  25.849  27.994  1.00  0.00     0.031 C 
ATOM     52  C   UNL A   1      40.937  32.090  30.927  1.00  0.00     0.029 A 
ATOM     53  C   UNL A   1      42.134  31.260  31.016  1.00  0.00     0.049 A 
ATOM     54  H   UNL A   1      42.433  29.373  30.184  1.00  0.00     0.167 HD
ATOM     55  C   UNL A   1      42.763  25.241  28.655  1.00  0.00     0.031 A 
ATOM     56  C   UNL A   1      43.268  31.588  31.664  1.00  0.00     0.031 A 
ATOM     57  C   UNL A   1      44.040  25.540  29.240  1.00  0.00     0.049 A 
ATOM     58  C   UNL A   1      44.413  30.609  31.660  1.00  0.00     0.074 A 
ATOM     59  C   UNL A   1      45.179  24.758  29.265  1.00  0.00     0.029 A 
ATOM     60  N   UNL A   1      44.347  26.724  29.893  1.00  0.00    -0.354 N 
ATOM     61  N   UNL A   1      44.469  29.410  31.130  1.00  0.00    -0.248 NA
ATOM     62  C   UNL A   1      45.649  31.032  32.331  1.00  0.00     0.031 C 
ATOM     63  C   UNL A   1      46.166  25.455  29.971  1.00  0.00     0.029 A 
ATOM     64  C   UNL A   1      45.656  26.691  30.336  1.00  0.00     0.049 A 
ATOM     65  H   UNL A   1      43.725  27.477  30.022  1.00  0.00     0.167 HD
ATOM     66  C   UNL A   1      45.757  28.948  31.375  1.00  0.00     0.074 A 
ATOM     67  C   UNL A   1      46.448  30.001  32.090  1.00  0.00     0.031 C 
ATOM     68  C   UNL A   1      46.320  27.760  31.039  1.00  0.00     0.031 A 
BRANCH  55  69
ATOM     69  C   UNL A   1      42.541  23.891  28.026  1.00  0.00    -0.014 A 
ATOM     70  C   UNL A   1      42.029  22.815  28.776  1.00  0.00     0.010 A 
ATOM     71  C   UNL A   1      42.843  23.694  26.667  1.00  0.00     0.010 A 
ATOM     72  C   UNL A   1      41.876  21.556  28.194  1.00  0.00     0.020 A 
ATOM     73  C   UNL A   1      42.658  22.442  26.072  1.00  0.00     0.020 A 
ATOM     74  C   UNL A   1      42.195  21.376  26.845  1.00  0.00     0.054 A 
BRANCH  74  75
ATOM     75  S   UNL A   1      41.971  19.732  26.113  1.00  0.00     0.124 S 
ATOM     76  O   UNL A   1      42.884  19.784  24.973  1.00  0.00    -0.237 OA
ATOM     77  O   UNL A   1      42.372  18.841  27.198  1.00  0.00    -0.237 OA
ATOM     78  O   UNL A   1      40.551  19.696  25.771  1.00  0.00    -0.744 OA
ENDBRANCH  74  75
ENDBRANCH  55  69
BRANCH  56  79
ATOM     79  C   UNL A   1      43.392  32.912  32.334  1.00  0.00    -0.014 A 
ATOM     80  C   UNL A   1      43.036  33.056  33.688  1.00  0.00     0.010 A 
ATOM     81  C   UNL A   1      43.876  34.031  31.635  1.00  0.00     0.010 A 
ATOM     82  C   UNL A   1      43.142  34.298  34.322  1.00  0.00     0.020 A 
ATOM     83  C   UNL A   1      44.011  35.269  32.274  1.00  0.00     0.020 A 
ATOM     84  C   UNL A   1      43.631  35.397  33.611  1.00  0.00     0.054 A 
BRANCH  84  85
ATOM     85  S   UNL A   1      43.808  36.985  34.472  1.00  0.00     0.124 S 
ATOM     86  O   UNL A   1      45.102  37.452  33.983  1.00  0.00    -0.237 OA
ATOM     87  O   UNL A   1      42.645  37.730  33.999  1.00  0.00    -0.237 OA
ATOM     88  O   UNL A   1      43.768  36.613  35.884  1.00  0.00    -0.744 OA
ENDBRANCH  84  85
ENDBRANCH  56  79
BRANCH  68  89
ATOM     89  C   UNL A   1      47.764  27.552  31.403  1.00  0.00    -0.014 A 
ATOM     90  C   UNL A   1      48.129  26.823  32.546  1.00  0.00     0.010 A 
ATOM     91  C   UNL A   1      48.767  28.037  30.543  1.00  0.00     0.010 A 
ATOM     92  C   UNL A   1      49.478  26.604  32.839  1.00  0.00     0.020 A 
ATOM     93  C   UNL A   1      50.114  27.796  30.818  1.00  0.00     0.020 A 
ATOM     94  C   UNL A   1      50.461  27.092  31.972  1.00  0.00     0.054 A 
BRANCH  94  95
ATOM     95  S   UNL A   1      52.201  26.749  32.347  1.00  0.00     0.124 S 
ATOM     96  O   UNL A   1      52.751  28.094  32.485  1.00  0.00    -0.237 OA
ATOM     97  O   UNL A   1      52.117  25.975  33.583  1.00  0.00    -0.237 OA
ATOM     98  O   UNL A   1      52.667  26.002  31.181  1.00  0.00    -0.744 OA
ENDBRANCH  94  95
ENDBRANCH  68  89
ENDBRANCH  42  43
ENDBRANCH  34  37
ENDBRANCH   1  33
TORSDOF 16
ENDMDL
