MODEL 1
REMARK VINA RESULT:     -12.2      0.000      0.000
REMARK SMILES CC(C)(C)OC(=O)N1CCN(C(=O)c2ccc3c(c2)OCO3)[C@H](C(=O)NCCCNC(=O)c2ccc(-c3c4nc(c(-c5ccc(S(=O)(=O)[O-])cc5)c5ccc([nH]5)c(-c5ccc(S(=O)(=O)[O-])cc5)c5nc(c(-c6ccc(S(=O)(=O)[O-])cc6)c6ccc3[nH]6)C=C5)C=C4)cc2)C1
REMARK SMILES IDX 28 1 27 2 26 3 24 4 25 5 23 7 8 8 9 9 93 10 10 11 11 12 6 13
REMARK SMILES IDX 7 14 5 15 2 16 1 17 3 18 4 19 12 20 13 21 14 22 15 23 19 24
REMARK SMILES IDX 16 25 18 26 17 27 20 28 22 29 21 30 29 31 30 32 31 33 32 35
REMARK SMILES IDX 33 36 34 37 92 38 35 39 91 40 36 41 37 42 38 43 85 44 39 45
REMARK SMILES IDX 90 46 84 47 86 48 40 49 89 50 83 51 82 52 41 54 71 55 52 56
REMARK SMILES IDX 70 57 53 58 56 59 69 60 87 61 54 62 55 63 68 65 88 66 57 67
REMARK SMILES IDX 42 68 43 69 51 70 44 71 50 72 45 73 46 74 47 75 48 76 49 77
REMARK SMILES IDX 72 78 73 79 81 80 74 81 80 82 75 83 76 84 77 85 78 86 79 87
REMARK SMILES IDX 58 88 59 89 67 90 60 91 66 92 61 93 62 94 63 95 64 96 65 97
REMARK H PARENT 26 6 30 34 86 53 56 64
REMARK Flexibility Score: inf
ROOT
ATOM      1  C   UNL A   1      34.200  30.718  27.415  1.00  0.00     0.042 C 
ENDROOT
BRANCH   1   2
ATOM      2  C   UNL A   1      34.082  29.367  26.699  1.00  0.00     0.117 C 
BRANCH   2   3
ATOM      3  N   UNL A   1      33.341  28.408  27.499  1.00  0.00    -0.354 N 
ATOM      4  C   UNL A   1      32.188  27.766  27.146  1.00  0.00     0.244 C 
ATOM      5  O   UNL A   1      31.299  27.774  27.993  1.00  0.00    -0.273 OA
ATOM      6  H   UNL A   1      33.708  28.199  28.389  1.00  0.00     0.163 HD
BRANCH   4   7
ATOM      7  C   UNL A   1      32.039  27.188  25.725  1.00  0.00     0.194 C 
ATOM      8  N   UNL A   1      30.790  27.678  23.620  1.00  0.00    -0.304 N 
ATOM      9  C   UNL A   1      30.664  26.262  23.290  1.00  0.00     0.144 C 
ATOM     10  C   UNL A   1      30.893  27.979  25.050  1.00  0.00     0.158 C 
ATOM     11  C   UNL A   1      31.799  25.465  23.948  1.00  0.00     0.142 C 
ATOM     12  N   UNL A   1      31.870  25.721  25.400  1.00  0.00    -0.323 N 
BRANCH   8  13
ATOM     13  C   UNL A   1      30.762  28.623  22.618  1.00  0.00     0.410 C 
ATOM     14  O   UNL A   1      31.726  29.329  22.348  1.00  0.00    -0.224 OA
BRANCH  13  15
ATOM     15  O   UNL A   1      29.542  28.720  22.028  1.00  0.00    -0.444 OA
BRANCH  15  16
ATOM     16  C   UNL A   1      28.577  29.724  22.450  1.00  0.00     0.106 C 
ATOM     17  C   UNL A   1      27.442  28.934  23.123  1.00  0.00     0.056 C 
ATOM     18  C   UNL A   1      28.029  30.440  21.215  1.00  0.00     0.056 C 
ATOM     19  C   UNL A   1      29.120  30.721  23.486  1.00  0.00     0.056 C 
ENDBRANCH  15  16
ENDBRANCH  13  15
ENDBRANCH   8  13
BRANCH  12  20
ATOM     20  C   UNL A   1      31.823  24.592  26.215  1.00  0.00     0.254 C 
ATOM     21  O   UNL A   1      31.151  24.536  27.246  1.00  0.00    -0.269 OA
BRANCH  20  22
ATOM     22  C   UNL A   1      32.583  23.379  25.914  1.00  0.00     0.044 A 
ATOM     23  C   UNL A   1      33.989  23.394  26.030  1.00  0.00     0.018 A 
ATOM     24  C   UNL A   1      31.887  22.203  25.614  1.00  0.00     0.064 A 
ATOM     25  C   UNL A   1      34.726  22.245  25.720  1.00  0.00     0.051 A 
ATOM     26  C   UNL A   1      32.644  21.091  25.319  1.00  0.00     0.166 A 
ATOM     27  C   UNL A   1      34.022  21.116  25.350  1.00  0.00     0.165 A 
ATOM     28  O   UNL A   1      32.157  19.876  24.952  1.00  0.00    -0.454 OA
ATOM     29  O   UNL A   1      34.568  19.929  24.974  1.00  0.00    -0.454 OA
ATOM     30  C   UNL A   1      33.383  19.176  24.649  1.00  0.00     0.468 C 
ENDBRANCH  20  22
ENDBRANCH  12  20
ENDBRANCH   4   7
ENDBRANCH   2   3
ENDBRANCH   1   2
BRANCH   1  31
ATOM     31  C   UNL A   1      35.541  30.969  28.107  1.00  0.00     0.118 C 
BRANCH  31  32
ATOM     32  N   UNL A   1      35.450  30.878  29.555  1.00  0.00    -0.352 N 
ATOM     33  C   UNL A   1      36.331  30.358  30.468  1.00  0.00     0.251 C 
ATOM     34  H   UNL A   1      34.624  31.250  29.943  1.00  0.00     0.163 HD
ATOM     35  O   UNL A   1      35.969  30.211  31.632  1.00  0.00    -0.269 OA
BRANCH  33  36
ATOM     36  C   UNL A   1      37.692  29.953  30.056  1.00  0.00     0.039 A 
ATOM     37  C   UNL A   1      38.028  30.032  28.702  1.00  0.00     0.014 A 
ATOM     38  C   UNL A   1      38.623  29.471  30.980  1.00  0.00     0.014 A 
ATOM     39  C   UNL A   1      39.313  29.679  28.286  1.00  0.00     0.010 A 
ATOM     40  C   UNL A   1      39.930  29.200  30.575  1.00  0.00     0.010 A 
ATOM     41  C   UNL A   1      40.288  29.293  29.222  1.00  0.00    -0.014 A 
BRANCH  41  42
ATOM     42  C   UNL A   1      41.677  28.988  28.786  1.00  0.00     0.031 A 
ATOM     43  C   UNL A   1      42.053  27.600  28.337  1.00  0.00     0.074 A 
ATOM     44  C   UNL A   1      42.608  29.964  28.810  1.00  0.00     0.049 A 
ATOM     45  N   UNL A   1      43.208  27.158  27.909  1.00  0.00    -0.248 NA
ATOM     46  C   UNL A   1      41.003  26.569  28.395  1.00  0.00     0.031 C 
ATOM     47  C   UNL A   1      42.384  31.337  29.268  1.00  0.00     0.029 A 
ATOM     48  N   UNL A   1      43.928  29.954  28.432  1.00  0.00    -0.354 N 
ATOM     49  C   UNL A   1      43.023  25.806  27.642  1.00  0.00     0.074 A 
ATOM     50  C   UNL A   1      41.667  25.483  28.025  1.00  0.00     0.031 C 
ATOM     51  C   UNL A   1      43.514  32.046  29.108  1.00  0.00     0.029 A 
ATOM     52  C   UNL A   1      44.553  31.171  28.577  1.00  0.00     0.049 A 
ATOM     53  H   UNL A   1      44.385  29.151  28.090  1.00  0.00     0.167 HD
ATOM     54  C   UNL A   1      43.892  24.919  27.098  1.00  0.00     0.031 A 
ATOM     55  C   UNL A   1      45.822  31.542  28.315  1.00  0.00     0.031 A 
ATOM     56  C   UNL A   1      45.244  25.239  26.724  1.00  0.00     0.049 A 
ATOM     57  C   UNL A   1      46.775  30.530  27.738  1.00  0.00     0.074 A 
ATOM     58  C   UNL A   1      46.195  24.417  26.143  1.00  0.00     0.029 A 
ATOM     59  N   UNL A   1      45.840  26.480  26.891  1.00  0.00    -0.354 N 
ATOM     60  N   UNL A   1      46.559  29.271  27.436  1.00  0.00    -0.248 NA
ATOM     61  C   UNL A   1      48.137  30.995  27.447  1.00  0.00     0.031 C 
ATOM     62  C   UNL A   1      47.381  25.145  26.009  1.00  0.00     0.029 A 
ATOM     63  C   UNL A   1      47.150  26.441  26.441  1.00  0.00     0.049 A 
ATOM     64  H   UNL A   1      45.398  27.272  27.274  1.00  0.00     0.167 HD
ATOM     65  C   UNL A   1      47.750  28.804  26.890  1.00  0.00     0.074 A 
ATOM     66  C   UNL A   1      48.671  29.923  26.879  1.00  0.00     0.031 C 
ATOM     67  C   UNL A   1      48.056  27.562  26.439  1.00  0.00     0.031 A 
BRANCH  54  68
ATOM     68  C   UNL A   1      43.396  23.514  26.864  1.00  0.00    -0.014 A 
ATOM     69  C   UNL A   1      43.238  23.013  25.558  1.00  0.00     0.010 A 
ATOM     70  C   UNL A   1      43.133  22.665  27.955  1.00  0.00     0.010 A 
ATOM     71  C   UNL A   1      42.793  21.706  25.347  1.00  0.00     0.020 A 
ATOM     72  C   UNL A   1      42.717  21.345  27.748  1.00  0.00     0.020 A 
ATOM     73  C   UNL A   1      42.536  20.880  26.444  1.00  0.00     0.054 A 
BRANCH  73  74
ATOM     74  S   UNL A   1      41.994  19.176  26.136  1.00  0.00     0.124 S 
ATOM     75  O   UNL A   1      40.584  19.365  25.803  1.00  0.00    -0.237 OA
ATOM     76  O   UNL A   1      42.850  18.765  25.028  1.00  0.00    -0.237 OA
ATOM     77  O   UNL A   1      42.247  18.496  27.403  1.00  0.00    -0.744 OA
ENDBRANCH  73  74
ENDBRANCH  54  68
BRANCH  55  78
ATOM     78  C   UNL A   1      46.268  32.937  28.592  1.00  0.00    -0.014 A 
ATOM     79  C   UNL A   1      46.804  33.290  29.843  1.00  0.00     0.010 A 
ATOM     80  C   UNL A   1      46.135  33.930  27.605  1.00  0.00     0.010 A 
ATOM     81  C   UNL A   1      47.161  34.615  30.116  1.00  0.00     0.020 A 
ATOM     82  C   UNL A   1      46.525  35.248  27.859  1.00  0.00     0.020 A 
ATOM     83  C   UNL A   1      47.016  35.586  29.120  1.00  0.00     0.054 A 
BRANCH  83  84
ATOM     84  S   UNL A   1      47.502  37.295  29.486  1.00  0.00     0.124 S 
ATOM     85  O   UNL A   1      48.265  37.136  30.720  1.00  0.00    -0.237 OA
ATOM     86  O   UNL A   1      48.277  37.662  28.303  1.00  0.00    -0.237 OA
ATOM     87  O   UNL A   1      46.225  37.991  29.624  1.00  0.00    -0.744 OA
ENDBRANCH  83  84
ENDBRANCH  55  78
BRANCH  67  88
ATOM     88  C   UNL A   1      49.432  27.361  25.854  1.00  0.00    -0.014 A 
ATOM     89  C   UNL A   1      50.520  26.968  26.652  1.00  0.00     0.010 A 
ATOM     90  C   UNL A   1      49.631  27.556  24.474  1.00  0.00     0.010 A 
ATOM     91  C   UNL A   1      51.793  26.828  26.093  1.00  0.00     0.020 A 
ATOM     92  C   UNL A   1      50.895  27.382  23.904  1.00  0.00     0.020 A 
ATOM     93  C   UNL A   1      51.973  27.042  24.722  1.00  0.00     0.054 A 
BRANCH  93  94
ATOM     94  S   UNL A   1      53.633  26.846  24.019  1.00  0.00     0.124 S 
ATOM     95  O   UNL A   1      54.436  26.579  25.209  1.00  0.00    -0.237 OA
ATOM     96  O   UNL A   1      53.464  25.718  23.107  1.00  0.00    -0.237 OA
ATOM     97  O   UNL A   1      53.889  28.131  23.372  1.00  0.00    -0.744 OA
ENDBRANCH  93  94
ENDBRANCH  67  88
ENDBRANCH  41  42
ENDBRANCH  33  36
ENDBRANCH  31  32
ENDBRANCH   1  31
TORSDOF 18
ENDMDL
MODEL 2
REMARK VINA RESULT:     -11.9      1.109      7.937
REMARK SMILES CC(C)(C)OC(=O)N1CCN(C(=O)c2ccc3c(c2)OCO3)[C@H](C(=O)NCCCNC(=O)c2ccc(-c3c4nc(c(-c5ccc(S(=O)(=O)[O-])cc5)c5ccc([nH]5)c(-c5ccc(S(=O)(=O)[O-])cc5)c5nc(c(-c6ccc(S(=O)(=O)[O-])cc6)c6ccc3[nH]6)C=C5)C=C4)cc2)C1
REMARK SMILES IDX 28 1 27 2 26 3 24 4 25 5 23 7 8 8 9 9 93 10 10 11 11 12 6 13
REMARK SMILES IDX 7 14 5 15 2 16 1 17 3 18 4 19 12 20 13 21 14 22 15 23 19 24
REMARK SMILES IDX 16 25 18 26 17 27 20 28 22 29 21 30 29 31 30 32 31 33 32 35
REMARK SMILES IDX 33 36 34 37 92 38 35 39 91 40 36 41 37 42 38 43 85 44 39 45
REMARK SMILES IDX 90 46 84 47 86 48 40 49 89 50 83 51 82 52 41 54 71 55 52 56
REMARK SMILES IDX 70 57 53 58 56 59 69 60 87 61 54 62 55 63 68 65 88 66 57 67
REMARK SMILES IDX 42 68 43 69 51 70 44 71 50 72 45 73 46 74 47 75 48 76 49 77
REMARK SMILES IDX 72 78 73 79 81 80 74 81 80 82 75 83 76 84 77 85 78 86 79 87
REMARK SMILES IDX 58 88 59 89 67 90 60 91 66 92 61 93 62 94 63 95 64 96 65 97
REMARK H PARENT 26 6 30 34 86 53 56 64
REMARK Flexibility Score: inf
ROOT
ATOM      1  C   UNL A   1      34.666  30.461  27.495  1.00  0.00     0.042 C 
ENDROOT
BRANCH   1   2
ATOM      2  C   UNL A   1      33.891  29.440  26.651  1.00  0.00     0.117 C 
BRANCH   2   3
ATOM      3  N   UNL A   1      33.188  28.486  27.491  1.00  0.00    -0.354 N 
ATOM      4  C   UNL A   1      32.022  27.838  27.193  1.00  0.00     0.244 C 
ATOM      5  O   UNL A   1      31.171  27.851  28.077  1.00  0.00    -0.273 OA
ATOM      6  H   UNL A   1      33.594  28.285  28.365  1.00  0.00     0.163 HD
BRANCH   4   7
ATOM      7  C   UNL A   1      31.813  27.248  25.784  1.00  0.00     0.194 C 
ATOM      8  N   UNL A   1      30.317  27.577  23.813  1.00  0.00    -0.304 N 
ATOM      9  C   UNL A   1      30.342  26.157  23.477  1.00  0.00     0.144 C 
ATOM     10  C   UNL A   1      30.516  27.887  25.231  1.00  0.00     0.158 C 
ATOM     11  C   UNL A   1      31.627  25.511  24.015  1.00  0.00     0.142 C 
ATOM     12  N   UNL A   1      31.802  25.773  25.456  1.00  0.00    -0.323 N 
BRANCH   8  13
ATOM     13  C   UNL A   1      30.073  28.513  22.832  1.00  0.00     0.410 C 
ATOM     14  O   UNL A   1      30.414  28.352  21.666  1.00  0.00    -0.224 OA
BRANCH  13  15
ATOM     15  O   UNL A   1      29.484  29.636  23.318  1.00  0.00    -0.444 OA
BRANCH  15  16
ATOM     16  C   UNL A   1      28.164  30.052  22.865  1.00  0.00     0.106 C 
ATOM     17  C   UNL A   1      27.266  28.818  23.052  1.00  0.00     0.056 C 
ATOM     18  C   UNL A   1      28.237  30.401  21.377  1.00  0.00     0.056 C 
ATOM     19  C   UNL A   1      27.551  31.197  23.684  1.00  0.00     0.056 C 
ENDBRANCH  15  16
ENDBRANCH  13  15
ENDBRANCH   8  13
BRANCH  12  20
ATOM     20  C   UNL A   1      31.978  24.645  26.256  1.00  0.00     0.254 C 
ATOM     21  O   UNL A   1      31.270  24.400  27.236  1.00  0.00    -0.269 OA
BRANCH  20  22
ATOM     22  C   UNL A   1      33.031  23.662  26.002  1.00  0.00     0.044 A 
ATOM     23  C   UNL A   1      34.383  24.051  26.107  1.00  0.00     0.018 A 
ATOM     24  C   UNL A   1      32.670  22.334  25.759  1.00  0.00     0.064 A 
ATOM     25  C   UNL A   1      35.397  23.124  25.840  1.00  0.00     0.051 A 
ATOM     26  C   UNL A   1      33.693  21.447  25.507  1.00  0.00     0.166 A 
ATOM     27  C   UNL A   1      35.016  21.835  25.525  1.00  0.00     0.165 A 
ATOM     28  O   UNL A   1      33.544  20.132  25.195  1.00  0.00    -0.454 OA
ATOM     29  O   UNL A   1      35.857  20.818  25.196  1.00  0.00    -0.454 OA
ATOM     30  C   UNL A   1      34.912  19.766  24.914  1.00  0.00     0.468 C 
ENDBRANCH  20  22
ENDBRANCH  12  20
ENDBRANCH   4   7
ENDBRANCH   2   3
ENDBRANCH   1   2
BRANCH   1  31
ATOM     31  C   UNL A   1      36.031  29.985  27.992  1.00  0.00     0.118 C 
BRANCH  31  32
ATOM     32  N   UNL A   1      36.039  29.696  29.416  1.00  0.00    -0.352 N 
ATOM     33  C   UNL A   1      37.058  29.265  30.227  1.00  0.00     0.251 C 
ATOM     34  H   UNL A   1      35.177  29.830  29.872  1.00  0.00     0.163 HD
ATOM     35  O   UNL A   1      36.798  28.898  31.370  1.00  0.00    -0.269 OA
BRANCH  33  36
ATOM     36  C   UNL A   1      38.449  29.216  29.729  1.00  0.00     0.039 A 
ATOM     37  C   UNL A   1      39.468  28.899  30.630  1.00  0.00     0.014 A 
ATOM     38  C   UNL A   1      38.760  29.505  28.397  1.00  0.00     0.014 A 
ATOM     39  C   UNL A   1      40.788  28.821  30.185  1.00  0.00     0.010 A 
ATOM     40  C   UNL A   1      40.066  29.344  27.936  1.00  0.00     0.010 A 
ATOM     41  C   UNL A   1      41.097  29.008  28.826  1.00  0.00    -0.014 A 
BRANCH  41  42
ATOM     42  C   UNL A   1      42.494  28.852  28.340  1.00  0.00     0.031 A 
ATOM     43  C   UNL A   1      43.471  29.996  28.434  1.00  0.00     0.074 A 
ATOM     44  C   UNL A   1      42.879  27.681  27.794  1.00  0.00     0.049 A 
ATOM     45  N   UNL A   1      44.729  30.034  28.076  1.00  0.00    -0.248 NA
ATOM     46  C   UNL A   1      42.967  31.265  28.984  1.00  0.00     0.031 C 
ATOM     47  C   UNL A   1      42.016  26.512  27.600  1.00  0.00     0.029 A 
ATOM     48  N   UNL A   1      44.098  27.273  27.310  1.00  0.00    -0.354 N 
ATOM     49  C   UNL A   1      45.167  31.323  28.361  1.00  0.00     0.074 A 
ATOM     50  C   UNL A   1      44.022  32.057  28.852  1.00  0.00     0.031 C 
ATOM     51  C   UNL A   1      42.740  25.510  27.077  1.00  0.00     0.029 A 
ATOM     52  C   UNL A   1      44.106  25.974  26.857  1.00  0.00     0.049 A 
ATOM     53  H   UNL A   1      44.891  27.856  27.289  1.00  0.00     0.167 HD
ATOM     54  C   UNL A   1      46.414  31.842  28.253  1.00  0.00     0.031 A 
ATOM     55  C   UNL A   1      45.100  25.238  26.322  1.00  0.00     0.031 A 
ATOM     56  C   UNL A   1      47.552  31.114  27.758  1.00  0.00     0.049 A 
ATOM     57  C   UNL A   1      46.469  25.848  26.188  1.00  0.00     0.074 A 
ATOM     58  C   UNL A   1      48.863  31.543  27.632  1.00  0.00     0.029 A 
ATOM     59  N   UNL A   1      47.518  29.803  27.305  1.00  0.00    -0.354 N 
ATOM     60  N   UNL A   1      46.874  27.051  26.522  1.00  0.00    -0.248 NA
ATOM     61  C   UNL A   1      47.521  24.992  25.623  1.00  0.00     0.031 C 
ATOM     62  C   UNL A   1      49.609  30.511  27.055  1.00  0.00     0.029 A 
ATOM     63  C   UNL A   1      48.780  29.414  26.885  1.00  0.00     0.049 A 
ATOM     64  H   UNL A   1      46.715  29.233  27.284  1.00  0.00     0.167 HD
ATOM     65  C   UNL A   1      48.234  27.084  26.236  1.00  0.00     0.074 A 
ATOM     66  C   UNL A   1      48.587  25.773  25.730  1.00  0.00     0.031 C 
ATOM     67  C   UNL A   1      49.115  28.107  26.379  1.00  0.00     0.031 A 
BRANCH  54  68
ATOM     68  C   UNL A   1      46.615  33.270  28.695  1.00  0.00    -0.014 A 
ATOM     69  C   UNL A   1      46.503  34.332  27.779  1.00  0.00     0.010 A 
ATOM     70  C   UNL A   1      46.867  33.563  30.049  1.00  0.00     0.010 A 
ATOM     71  C   UNL A   1      46.675  35.654  28.197  1.00  0.00     0.020 A 
ATOM     72  C   UNL A   1      47.009  34.887  30.477  1.00  0.00     0.020 A 
ATOM     73  C   UNL A   1      46.926  35.923  29.545  1.00  0.00     0.054 A 
BRANCH  73  74
ATOM     74  S   UNL A   1      47.109  37.651  30.063  1.00  0.00     0.124 S 
ATOM     75  O   UNL A   1      46.670  37.596  31.456  1.00  0.00    -0.237 OA
ATOM     76  O   UNL A   1      48.535  37.895  29.865  1.00  0.00    -0.237 OA
ATOM     77  O   UNL A   1      46.222  38.381  29.161  1.00  0.00    -0.744 OA
ENDBRANCH  73  74
ENDBRANCH  54  68
BRANCH  55  78
ATOM     78  C   UNL A   1      44.841  23.840  25.875  1.00  0.00    -0.014 A 
ATOM     79  C   UNL A   1      44.443  22.849  26.792  1.00  0.00     0.010 A 
ATOM     80  C   UNL A   1      45.016  23.486  24.525  1.00  0.00     0.010 A 
ATOM     81  C   UNL A   1      44.265  21.526  26.375  1.00  0.00     0.020 A 
ATOM     82  C   UNL A   1      44.803  22.173  24.096  1.00  0.00     0.020 A 
ATOM     83  C   UNL A   1      44.449  21.197  25.028  1.00  0.00     0.054 A 
BRANCH  83  84
ATOM     84  S   UNL A   1      44.194  19.479  24.503  1.00  0.00     0.124 S 
ATOM     85  O   UNL A   1      42.827  19.226  24.946  1.00  0.00    -0.237 OA
ATOM     86  O   UNL A   1      44.390  19.560  23.057  1.00  0.00    -0.237 OA
ATOM     87  O   UNL A   1      45.232  18.745  25.224  1.00  0.00    -0.744 OA
ENDBRANCH  83  84
ENDBRANCH  55  78
BRANCH  67  88
ATOM     88  C   UNL A   1      50.554  27.831  26.023  1.00  0.00    -0.014 A 
ATOM     89  C   UNL A   1      51.044  28.046  24.722  1.00  0.00     0.010 A 
ATOM     90  C   UNL A   1      51.435  27.364  27.016  1.00  0.00     0.010 A 
ATOM     91  C   UNL A   1      52.372  27.744  24.409  1.00  0.00     0.020 A 
ATOM     92  C   UNL A   1      52.773  27.096  26.716  1.00  0.00     0.020 A 
ATOM     93  C   UNL A   1      53.226  27.266  25.407  1.00  0.00     0.054 A 
BRANCH  93  94
ATOM     94  S   UNL A   1      54.948  26.890  24.976  1.00  0.00     0.124 S 
ATOM     95  O   UNL A   1      55.605  28.174  25.205  1.00  0.00    -0.237 OA
ATOM     96  O   UNL A   1      55.290  25.830  25.921  1.00  0.00    -0.237 OA
ATOM     97  O   UNL A   1      54.872  26.471  23.578  1.00  0.00    -0.744 OA
ENDBRANCH  93  94
ENDBRANCH  67  88
ENDBRANCH  41  42
ENDBRANCH  33  36
ENDBRANCH  31  32
ENDBRANCH   1  31
TORSDOF 18
ENDMDL
MODEL 3
REMARK VINA RESULT:     -11.4      2.107      8.294
REMARK SMILES CC(C)(C)OC(=O)N1CCN(C(=O)c2ccc3c(c2)OCO3)[C@H](C(=O)NCCCNC(=O)c2ccc(-c3c4nc(c(-c5ccc(S(=O)(=O)[O-])cc5)c5ccc([nH]5)c(-c5ccc(S(=O)(=O)[O-])cc5)c5nc(c(-c6ccc(S(=O)(=O)[O-])cc6)c6ccc3[nH]6)C=C5)C=C4)cc2)C1
REMARK SMILES IDX 28 1 27 2 26 3 24 4 25 5 23 7 8 8 9 9 93 10 10 11 11 12 6 13
REMARK SMILES IDX 7 14 5 15 2 16 1 17 3 18 4 19 12 20 13 21 14 22 15 23 19 24
REMARK SMILES IDX 16 25 18 26 17 27 20 28 22 29 21 30 29 31 30 32 31 33 32 35
REMARK SMILES IDX 33 36 34 37 92 38 35 39 91 40 36 41 37 42 38 43 85 44 39 45
REMARK SMILES IDX 90 46 84 47 86 48 40 49 89 50 83 51 82 52 41 54 71 55 52 56
REMARK SMILES IDX 70 57 53 58 56 59 69 60 87 61 54 62 55 63 68 65 88 66 57 67
REMARK SMILES IDX 42 68 43 69 51 70 44 71 50 72 45 73 46 74 47 75 48 76 49 77
REMARK SMILES IDX 72 78 73 79 81 80 74 81 80 82 75 83 76 84 77 85 78 86 79 87
REMARK SMILES IDX 58 88 59 89 67 90 60 91 66 92 61 93 62 94 63 95 64 96 65 97
REMARK H PARENT 26 6 30 34 86 53 56 64
REMARK Flexibility Score: inf
ROOT
ATOM      1  C   UNL A   1      32.955  31.281  27.377  1.00  0.00     0.042 C 
ENDROOT
BRANCH   1   2
ATOM      2  C   UNL A   1      33.263  29.969  26.646  1.00  0.00     0.117 C 
BRANCH   2   3
ATOM      3  N   UNL A   1      32.877  28.817  27.442  1.00  0.00    -0.354 N 
ATOM      4  C   UNL A   1      31.946  27.871  27.115  1.00  0.00     0.244 C 
ATOM      5  O   UNL A   1      31.138  27.598  27.997  1.00  0.00    -0.273 OA
ATOM      6  H   UNL A   1      33.333  28.707  28.308  1.00  0.00     0.163 HD
BRANCH   4   7
ATOM      7  C   UNL A   1      31.903  27.305  25.682  1.00  0.00     0.194 C 
ATOM      8  N   UNL A   1      30.787  27.792  23.503  1.00  0.00    -0.304 N 
ATOM      9  C   UNL A   1      30.711  26.378  23.153  1.00  0.00     0.144 C 
ATOM     10  C   UNL A   1      30.789  28.081  24.940  1.00  0.00     0.158 C 
ATOM     11  C   UNL A   1      31.816  25.596  23.878  1.00  0.00     0.142 C 
ATOM     12  N   UNL A   1      31.785  25.839  25.333  1.00  0.00    -0.323 N 
BRANCH   8  13
ATOM     13  C   UNL A   1      30.807  28.747  22.510  1.00  0.00     0.410 C 
ATOM     14  O   UNL A   1      31.790  29.440  22.279  1.00  0.00    -0.224 OA
BRANCH  13  15
ATOM     15  O   UNL A   1      29.609  28.868  21.880  1.00  0.00    -0.444 OA
BRANCH  15  16
ATOM     16  C   UNL A   1      28.582  29.771  22.380  1.00  0.00     0.106 C 
ATOM     17  C   UNL A   1      28.051  30.504  21.136  1.00  0.00     0.056 C 
ATOM     18  C   UNL A   1      29.227  30.784  23.325  1.00  0.00     0.056 C 
ATOM     19  C   UNL A   1      27.390  29.062  23.040  1.00  0.00     0.056 C 
ENDBRANCH  15  16
ENDBRANCH  13  15
ENDBRANCH   8  13
BRANCH  12  20
ATOM     20  C   UNL A   1      31.707  24.700  26.133  1.00  0.00     0.254 C 
ATOM     21  O   UNL A   1      30.976  24.624  27.123  1.00  0.00    -0.269 OA
BRANCH  20  22
ATOM     22  C   UNL A   1      32.501  23.501  25.865  1.00  0.00     0.044 A 
ATOM     23  C   UNL A   1      33.901  23.544  26.030  1.00  0.00     0.018 A 
ATOM     24  C   UNL A   1      31.839  22.310  25.549  1.00  0.00     0.064 A 
ATOM     25  C   UNL A   1      34.671  22.409  25.752  1.00  0.00     0.051 A 
ATOM     26  C   UNL A   1      32.627  21.212  25.286  1.00  0.00     0.166 A 
ATOM     27  C   UNL A   1      34.003  21.265  25.365  1.00  0.00     0.165 A 
ATOM     28  O   UNL A   1      32.177  19.985  24.909  1.00  0.00    -0.454 OA
ATOM     29  O   UNL A   1      34.585  20.087  25.015  1.00  0.00    -0.454 OA
ATOM     30  C   UNL A   1      33.426  19.308  24.653  1.00  0.00     0.468 C 
ENDBRANCH  20  22
ENDBRANCH  12  20
ENDBRANCH   4   7
ENDBRANCH   2   3
ENDBRANCH   1   2
BRANCH   1  31
ATOM     31  C   UNL A   1      34.175  32.005  27.948  1.00  0.00     0.118 C 
BRANCH  31  32
ATOM     32  N   UNL A   1      33.983  32.428  29.325  1.00  0.00    -0.352 N 
ATOM     33  C   UNL A   1      34.802  32.289  30.416  1.00  0.00     0.251 C 
ATOM     34  H   UNL A   1      33.130  32.886  29.503  1.00  0.00     0.163 HD
ATOM     35  O   UNL A   1      34.360  32.550  31.532  1.00  0.00    -0.269 OA
BRANCH  33  36
ATOM     36  C   UNL A   1      36.191  31.807  30.261  1.00  0.00     0.039 A 
ATOM     37  C   UNL A   1      36.890  32.154  29.103  1.00  0.00     0.014 A 
ATOM     38  C   UNL A   1      36.797  30.998  31.226  1.00  0.00     0.014 A 
ATOM     39  C   UNL A   1      38.211  31.734  28.938  1.00  0.00     0.010 A 
ATOM     40  C   UNL A   1      38.142  30.651  31.099  1.00  0.00     0.010 A 
ATOM     41  C   UNL A   1      38.862  31.008  29.951  1.00  0.00    -0.014 A 
BRANCH  41  42
ATOM     42  C   UNL A   1      40.291  30.625  29.806  1.00  0.00     0.031 A 
ATOM     43  C   UNL A   1      41.386  31.616  30.106  1.00  0.00     0.074 A 
ATOM     44  C   UNL A   1      40.606  29.382  29.386  1.00  0.00     0.049 A 
ATOM     45  N   UNL A   1      42.683  31.452  30.051  1.00  0.00    -0.248 NA
ATOM     46  C   UNL A   1      40.971  32.973  30.501  1.00  0.00     0.031 C 
ATOM     47  C   UNL A   1      39.640  28.344  29.016  1.00  0.00     0.029 A 
ATOM     48  N   UNL A   1      41.825  28.776  29.206  1.00  0.00    -0.354 N 
ATOM     49  C   UNL A   1      43.237  32.676  30.407  1.00  0.00     0.074 A 
ATOM     50  C   UNL A   1      42.138  33.594  30.606  1.00  0.00     0.031 C 
ATOM     51  C   UNL A   1      40.301  27.221  28.694  1.00  0.00     0.029 A 
ATOM     52  C   UNL A   1      41.736  27.468  28.790  1.00  0.00     0.049 A 
ATOM     53  H   UNL A   1      42.682  29.236  29.361  1.00  0.00     0.167 HD
ATOM     54  C   UNL A   1      44.541  33.002  30.585  1.00  0.00     0.031 A 
ATOM     55  C   UNL A   1      42.700  26.568  28.515  1.00  0.00     0.031 A 
ATOM     56  C   UNL A   1      45.636  32.090  30.381  1.00  0.00     0.049 A 
ATOM     57  C   UNL A   1      44.141  26.964  28.693  1.00  0.00     0.074 A 
ATOM     58  C   UNL A   1      46.990  32.316  30.557  1.00  0.00     0.029 A 
ATOM     59  N   UNL A   1      45.504  30.777  29.955  1.00  0.00    -0.354 N 
ATOM     60  N   UNL A   1      44.639  28.111  29.091  1.00  0.00    -0.248 NA
ATOM     61  C   UNL A   1      45.150  25.935  28.404  1.00  0.00     0.031 C 
ATOM     62  C   UNL A   1      47.680  31.158  30.188  1.00  0.00     0.029 A 
ATOM     63  C   UNL A   1      46.753  30.186  29.847  1.00  0.00     0.049 A 
ATOM     64  H   UNL A   1      44.649  30.329  29.758  1.00  0.00     0.167 HD
ATOM     65  C   UNL A   1      46.018  27.930  29.130  1.00  0.00     0.074 A 
ATOM     66  C   UNL A   1      46.270  26.557  28.742  1.00  0.00     0.031 C 
ATOM     67  C   UNL A   1      46.989  28.819  29.456  1.00  0.00     0.031 A 
BRANCH  54  68
ATOM     68  C   UNL A   1      44.853  34.407  31.037  1.00  0.00    -0.014 A 
ATOM     69  C   UNL A   1      44.957  34.718  32.405  1.00  0.00     0.010 A 
ATOM     70  C   UNL A   1      45.094  35.418  30.088  1.00  0.00     0.010 A 
ATOM     71  C   UNL A   1      45.261  36.018  32.818  1.00  0.00     0.020 A 
ATOM     72  C   UNL A   1      45.429  36.713  30.496  1.00  0.00     0.020 A 
ATOM     73  C   UNL A   1      45.496  37.008  31.860  1.00  0.00     0.054 A 
BRANCH  73  74
ATOM     74  S   UNL A   1      45.923  38.677  32.427  1.00  0.00     0.124 S 
ATOM     75  O   UNL A   1      44.605  39.287  32.585  1.00  0.00    -0.237 OA
ATOM     76  O   UNL A   1      46.646  38.416  33.668  1.00  0.00    -0.237 OA
ATOM     77  O   UNL A   1      46.732  39.218  31.338  1.00  0.00    -0.744 OA
ENDBRANCH  73  74
ENDBRANCH  54  68
BRANCH  55  78
ATOM     78  C   UNL A   1      42.338  25.201  28.044  1.00  0.00    -0.014 A 
ATOM     79  C   UNL A   1      42.340  24.107  28.928  1.00  0.00     0.010 A 
ATOM     80  C   UNL A   1      42.009  24.983  26.694  1.00  0.00     0.010 A 
ATOM     81  C   UNL A   1      42.062  22.817  28.464  1.00  0.00     0.020 A 
ATOM     82  C   UNL A   1      41.693  23.702  26.232  1.00  0.00     0.020 A 
ATOM     83  C   UNL A   1      41.742  22.624  27.117  1.00  0.00     0.054 A 
BRANCH  83  84
ATOM     84  S   UNL A   1      41.364  20.946  26.537  1.00  0.00     0.124 S 
ATOM     85  O   UNL A   1      39.986  21.087  26.078  1.00  0.00    -0.237 OA
ATOM     86  O   UNL A   1      42.365  20.742  25.492  1.00  0.00    -0.237 OA
ATOM     87  O   UNL A   1      41.547  20.124  27.732  1.00  0.00    -0.744 OA
ENDBRANCH  83  84
ENDBRANCH  55  78
BRANCH  67  88
ATOM     88  C   UNL A   1      48.412  28.319  29.451  1.00  0.00    -0.014 A 
ATOM     89  C   UNL A   1      48.940  27.593  30.533  1.00  0.00     0.010 A 
ATOM     90  C   UNL A   1      49.228  28.567  28.331  1.00  0.00     0.010 A 
ATOM     91  C   UNL A   1      50.274  27.175  30.520  1.00  0.00     0.020 A 
ATOM     92  C   UNL A   1      50.551  28.119  28.299  1.00  0.00     0.020 A 
ATOM     93  C   UNL A   1      51.072  27.446  29.404  1.00  0.00     0.054 A 
BRANCH  93  94
ATOM     94  S   UNL A   1      52.797  26.886  29.409  1.00  0.00     0.124 S 
ATOM     95  O   UNL A   1      52.853  26.069  28.199  1.00  0.00    -0.237 OA
ATOM     96  O   UNL A   1      53.541  28.141  29.356  1.00  0.00    -0.237 OA
ATOM     97  O   UNL A   1      52.918  26.147  30.664  1.00  0.00    -0.744 OA
ENDBRANCH  93  94
ENDBRANCH  67  88
ENDBRANCH  41  42
ENDBRANCH  33  36
ENDBRANCH  31  32
ENDBRANCH   1  31
TORSDOF 18
ENDMDL
