MODEL 1
REMARK VINA RESULT:     -12.6      0.000      0.000
REMARK SMILES O=C(NCCCNC(=O)c1ccc(-c2c3nc(c(-c4ccc(S(=O)(=O)[O-])cc4)c4ccc([nH]4)c(-c4ccc(S(=O)(=O)[O-])cc4)c4nc(c(-c5ccc(S(=O)(=O)[O-])cc5)c5ccc2[nH]5)C=C4)C=C3)cc1)C1=Cc2cc(S(F)(F)(F)(F)F)ccc2O[C@@H]1C(F)(F)F
REMARK SMILES IDX 6 1 5 2 4 3 3 4 1 5 2 6 70 8 71 9 85 10 72 11 84 12 73 13
REMARK SMILES IDX 83 14 74 15 82 16 81 17 86 18 87 19 88 20 89 21 75 22 76 23
REMARK SMILES IDX 77 24 78 25 79 26 80 27 7 28 8 29 9 31 10 32 11 33 69 34
REMARK SMILES IDX 12 35 68 36 13 37 14 38 15 39 62 40 16 41 67 42 61 43 63 44
REMARK SMILES IDX 17 45 66 46 60 47 59 48 18 50 48 51 29 52 47 53 30 54 33 55
REMARK SMILES IDX 46 56 64 57 31 58 32 59 45 61 65 62 34 63 19 64 20 65 28 66
REMARK SMILES IDX 21 67 27 68 22 69 23 70 24 71 25 72 26 73 49 74 50 75 58 76
REMARK SMILES IDX 51 77 57 78 52 79 53 80 54 81 55 82 56 83 35 84 36 85 44 86
REMARK SMILES IDX 37 87 43 88 38 89 39 90 40 91 41 92 42 93
REMARK H PARENT 3 7 7 30 63 49 33 60
REMARK Flexibility Score: inf
ROOT
ATOM      1  C   UNL A   1      34.355  28.277  26.508  1.00  0.00     0.118 C 
ENDROOT
BRANCH   1   2
ATOM      2  C   UNL A   1      33.488  27.567  25.481  1.00  0.00     0.042 C 
BRANCH   2   3
ATOM      3  C   UNL A   1      33.513  26.070  25.745  1.00  0.00     0.118 C 
BRANCH   3   4
ATOM      4  N   UNL A   1      33.983  25.368  24.542  1.00  0.00    -0.352 N 
ATOM      5  O   UNL A   1      33.603  23.651  22.944  1.00  0.00    -0.270 OA
ATOM      6  C   UNL A   1      33.196  24.258  23.984  1.00  0.00     0.251 C 
ATOM      7  H   UNL A   1      34.824  25.641  24.110  1.00  0.00     0.163 HD
BRANCH   6   8
ATOM      8  C   UNL A   1      31.897  23.837  24.651  1.00  0.00     0.067 C 
ATOM      9  C   UNL A   1      31.766  22.577  25.150  1.00  0.00     0.025 C 
ATOM     10  C   UNL A   1      30.744  24.822  24.760  1.00  0.00     0.314 C 
ATOM     11  C   UNL A   1      32.918  21.592  25.041  1.00  0.00     0.019 A 
ATOM     12  O   UNL A   1      34.500  23.241  25.696  1.00  0.00    -0.475 OA
ATOM     13  C   UNL A   1      32.588  20.352  24.520  1.00  0.00     0.036 A 
ATOM     14  C   UNL A   1      34.177  21.911  25.316  1.00  0.00     0.128 A 
ATOM     15  C   UNL A   1      33.634  19.403  24.594  1.00  0.00     0.107 A 
ATOM     16  C   UNL A   1      35.171  20.966  25.237  1.00  0.00     0.048 A 
ATOM     17  C   UNL A   1      34.906  19.702  24.785  1.00  0.00     0.028 A 
BRANCH  10  18
ATOM     18  C   UNL A   1      30.402  25.041  26.224  1.00  0.00     0.429 C 
ATOM     19  F   UNL A   1      29.270  24.406  26.515  1.00  0.00    -0.167 F 
ATOM     20  F   UNL A   1      31.385  24.568  26.985  1.00  0.00    -0.167 F 
ATOM     21  F   UNL A   1      30.251  26.343  26.454  1.00  0.00    -0.167 F 
ENDBRANCH  10  18
BRANCH  15  22
ATOM     22  S   UNL A   1      33.199  17.655  24.412  1.00  0.00     0.310 S 
ATOM     23  F   UNL A   1      34.695  17.205  24.686  1.00  0.00    -0.094 F 
ATOM     24  F   UNL A   1      33.576  17.735  22.883  1.00  0.00    -0.094 F 
ATOM     25  F   UNL A   1      32.837  16.150  24.272  1.00  0.00    -0.094 F 
ATOM     26  F   UNL A   1      32.961  17.561  25.970  1.00  0.00    -0.094 F 
ATOM     27  F   UNL A   1      33.672  19.154  24.589  1.00  0.00    -0.094 F 
ENDBRANCH  15  22
ENDBRANCH   6   8
ENDBRANCH   3   4
ENDBRANCH   2   3
ENDBRANCH   1   2
BRANCH   1  28
ATOM     28  N   UNL A   1      33.719  29.544  26.895  1.00  0.00    -0.352 N 
ATOM     29  C   UNL A   1      34.453  30.513  27.721  1.00  0.00     0.251 C 
ATOM     30  H   UNL A   1      32.801  29.743  26.601  1.00  0.00     0.163 HD
ATOM     31  O   UNL A   1      33.903  31.609  28.056  1.00  0.00    -0.269 OA
BRANCH  29  32
ATOM     32  C   UNL A   1      35.870  30.205  28.175  1.00  0.00     0.039 A 
ATOM     33  C   UNL A   1      36.908  30.394  27.276  1.00  0.00     0.014 A 
ATOM     34  C   UNL A   1      36.081  29.654  29.364  1.00  0.00     0.014 A 
ATOM     35  C   UNL A   1      38.093  29.700  27.616  1.00  0.00     0.010 A 
ATOM     36  C   UNL A   1      37.305  29.116  29.679  1.00  0.00     0.010 A 
ATOM     37  C   UNL A   1      38.360  29.214  28.815  1.00  0.00    -0.014 A 
BRANCH  37  38
ATOM     38  C   UNL A   1      39.764  28.787  29.211  1.00  0.00     0.031 A 
ATOM     39  C   UNL A   1      40.258  27.532  28.849  1.00  0.00     0.074 A 
ATOM     40  C   UNL A   1      40.511  29.756  29.857  1.00  0.00     0.049 A 
ATOM     41  N   UNL A   1      41.496  27.067  29.017  1.00  0.00    -0.248 NA
ATOM     42  C   UNL A   1      39.456  26.488  28.195  1.00  0.00     0.031 C 
ATOM     43  C   UNL A   1      40.022  31.027  30.218  1.00  0.00     0.029 A 
ATOM     44  N   UNL A   1      41.827  29.680  30.260  1.00  0.00    -0.354 N 
ATOM     45  C   UNL A   1      41.595  25.830  28.525  1.00  0.00     0.074 A 
ATOM     46  C   UNL A   1      40.282  25.437  27.995  1.00  0.00     0.031 C 
ATOM     47  C   UNL A   1      41.024  31.702  30.840  1.00  0.00     0.029 A 
ATOM     48  C   UNL A   1      42.156  30.867  30.877  1.00  0.00     0.049 A 
ATOM     49  H   UNL A   1      42.427  28.912  30.129  1.00  0.00     0.167 HD
ATOM     50  C   UNL A   1      42.727  25.014  28.497  1.00  0.00     0.031 A 
ATOM     51  C   UNL A   1      43.369  31.218  31.448  1.00  0.00     0.031 A 
ATOM     52  C   UNL A   1      43.953  25.383  29.029  1.00  0.00     0.049 A 
ATOM     53  C   UNL A   1      44.486  30.380  31.472  1.00  0.00     0.074 A 
ATOM     54  C   UNL A   1      45.106  24.576  29.002  1.00  0.00     0.029 A 
ATOM     55  N   UNL A   1      44.275  26.559  29.668  1.00  0.00    -0.354 N 
ATOM     56  N   UNL A   1      44.596  29.159  30.945  1.00  0.00    -0.248 NA
ATOM     57  C   UNL A   1      45.767  30.727  32.102  1.00  0.00     0.031 C 
ATOM     58  C   UNL A   1      46.109  25.252  29.624  1.00  0.00     0.029 A 
ATOM     59  C   UNL A   1      45.596  26.492  30.051  1.00  0.00     0.049 A 
ATOM     60  H   UNL A   1      43.666  27.317  29.825  1.00  0.00     0.167 HD
ATOM     61  C   UNL A   1      45.823  28.677  31.150  1.00  0.00     0.074 A 
ATOM     62  C   UNL A   1      46.592  29.676  31.904  1.00  0.00     0.031 C 
ATOM     63  C   UNL A   1      46.334  27.446  30.735  1.00  0.00     0.031 A 
BRANCH  50  64
ATOM     64  C   UNL A   1      42.610  23.646  27.844  1.00  0.00    -0.014 A 
ATOM     65  C   UNL A   1      42.868  23.479  26.494  1.00  0.00     0.010 A 
ATOM     66  C   UNL A   1      42.298  22.615  28.619  1.00  0.00     0.010 A 
ATOM     67  C   UNL A   1      42.487  22.212  25.990  1.00  0.00     0.020 A 
ATOM     68  C   UNL A   1      42.071  21.374  28.075  1.00  0.00     0.020 A 
ATOM     69  C   UNL A   1      42.250  21.150  26.738  1.00  0.00     0.054 A 
BRANCH  69  70
ATOM     70  S   UNL A   1      42.166  19.485  26.031  1.00  0.00     0.124 S 
ATOM     71  O   UNL A   1      40.713  19.149  25.689  1.00  0.00    -0.237 OA
ATOM     72  O   UNL A   1      43.015  19.428  24.759  1.00  0.00    -0.237 OA
ATOM     73  O   UNL A   1      42.763  18.354  27.165  1.00  0.00    -0.744 OA
ENDBRANCH  69  70
ENDBRANCH  50  64
BRANCH  51  74
ATOM     74  C   UNL A   1      43.491  32.592  32.085  1.00  0.00    -0.014 A 
ATOM     75  C   UNL A   1      43.932  33.678  31.347  1.00  0.00     0.010 A 
ATOM     76  C   UNL A   1      43.207  32.708  33.378  1.00  0.00     0.010 A 
ATOM     77  C   UNL A   1      44.320  34.788  32.134  1.00  0.00     0.020 A 
ATOM     78  C   UNL A   1      43.488  33.871  34.054  1.00  0.00     0.020 A 
ATOM     79  C   UNL A   1      43.982  34.963  33.398  1.00  0.00     0.054 A 
BRANCH  79  80
ATOM     80  S   UNL A   1      44.161  36.567  34.218  1.00  0.00     0.124 S 
ATOM     81  O   UNL A   1      45.645  36.935  34.301  1.00  0.00    -0.237 OA
ATOM     82  O   UNL A   1      43.414  37.637  33.417  1.00  0.00    -0.237 OA
ATOM     83  O   UNL A   1      43.507  36.477  35.796  1.00  0.00    -0.744 OA
ENDBRANCH  79  80
ENDBRANCH  51  74
BRANCH  63  84
ATOM     84  C   UNL A   1      47.787  27.132  31.054  1.00  0.00    -0.014 A 
ATOM     85  C   UNL A   1      48.750  27.537  30.145  1.00  0.00     0.010 A 
ATOM     86  C   UNL A   1      48.111  26.434  32.136  1.00  0.00     0.010 A 
ATOM     87  C   UNL A   1      50.004  26.905  30.319  1.00  0.00     0.020 A 
ATOM     88  C   UNL A   1      49.389  25.963  32.307  1.00  0.00     0.020 A 
ATOM     89  C   UNL A   1      50.379  26.276  31.417  1.00  0.00     0.054 A 
BRANCH  89  90
ATOM     90  S   UNL A   1      52.111  25.848  31.727  1.00  0.00     0.124 S 
ATOM     91  O   UNL A   1      52.203  24.389  32.179  1.00  0.00    -0.237 OA
ATOM     92  O   UNL A   1      52.920  26.038  30.442  1.00  0.00    -0.237 OA
ATOM     93  O   UNL A   1      52.738  26.865  32.951  1.00  0.00    -0.744 OA
ENDBRANCH  89  90
ENDBRANCH  63  84
ENDBRANCH  37  38
ENDBRANCH  29  32
ENDBRANCH   1  28
TORSDOF 15
ENDMDL
MODEL 2
REMARK VINA RESULT:     -12.3      4.331     10.150
REMARK SMILES O=C(NCCCNC(=O)c1ccc(-c2c3nc(c(-c4ccc(S(=O)(=O)[O-])cc4)c4ccc([nH]4)c(-c4ccc(S(=O)(=O)[O-])cc4)c4nc(c(-c5ccc(S(=O)(=O)[O-])cc5)c5ccc2[nH]5)C=C4)C=C3)cc1)C1=Cc2cc(S(F)(F)(F)(F)F)ccc2O[C@@H]1C(F)(F)F
REMARK SMILES IDX 6 1 5 2 4 3 3 4 1 5 2 6 70 8 71 9 85 10 72 11 84 12 73 13
REMARK SMILES IDX 83 14 74 15 82 16 81 17 86 18 87 19 88 20 89 21 75 22 76 23
REMARK SMILES IDX 77 24 78 25 79 26 80 27 7 28 8 29 9 31 10 32 11 33 69 34
REMARK SMILES IDX 12 35 68 36 13 37 14 38 15 39 62 40 16 41 67 42 61 43 63 44
REMARK SMILES IDX 17 45 66 46 60 47 59 48 18 50 48 51 29 52 47 53 30 54 33 55
REMARK SMILES IDX 46 56 64 57 31 58 32 59 45 61 65 62 34 63 19 64 20 65 28 66
REMARK SMILES IDX 21 67 27 68 22 69 23 70 24 71 25 72 26 73 49 74 50 75 58 76
REMARK SMILES IDX 51 77 57 78 52 79 53 80 54 81 55 82 56 83 35 84 36 85 44 86
REMARK SMILES IDX 37 87 43 88 38 89 39 90 40 91 41 92 42 93
REMARK H PARENT 3 7 7 30 63 49 33 60
REMARK Flexibility Score: inf
ROOT
ATOM      1  C   UNL A   1      39.315  23.755  26.951  1.00  0.00     0.118 C 
ENDROOT
BRANCH   1   2
ATOM      2  C   UNL A   1      38.213  22.935  26.302  1.00  0.00     0.042 C 
BRANCH   2   3
ATOM      3  C   UNL A   1      37.123  23.864  25.794  1.00  0.00     0.118 C 
BRANCH   3   4
ATOM      4  N   UNL A   1      36.998  23.721  24.336  1.00  0.00    -0.352 N 
ATOM      5  O   UNL A   1      35.776  22.826  22.505  1.00  0.00    -0.270 OA
ATOM      6  C   UNL A   1      35.884  22.949  23.766  1.00  0.00     0.251 C 
ATOM      7  H   UNL A   1      37.660  24.142  23.742  1.00  0.00     0.163 HD
BRANCH   6   8
ATOM      8  C   UNL A   1      34.861  22.300  24.683  1.00  0.00     0.067 C 
ATOM      9  C   UNL A   1      33.835  23.037  25.189  1.00  0.00     0.025 C 
ATOM     10  C   UNL A   1      34.984  20.826  25.036  1.00  0.00     0.314 C 
ATOM     11  C   UNL A   1      33.712  24.510  24.837  1.00  0.00     0.019 A 
ATOM     12  O   UNL A   1      34.186  24.088  22.546  1.00  0.00    -0.475 OA
ATOM     13  C   UNL A   1      33.547  25.364  25.915  1.00  0.00     0.036 A 
ATOM     14  C   UNL A   1      33.860  24.979  23.603  1.00  0.00     0.128 A 
ATOM     15  C   UNL A   1      33.259  26.700  25.549  1.00  0.00     0.107 A 
ATOM     16  C   UNL A   1      33.697  26.317  23.340  1.00  0.00     0.048 A 
ATOM     17  C   UNL A   1      33.473  27.211  24.351  1.00  0.00     0.028 A 
BRANCH  10  18
ATOM     18  C   UNL A   1      33.739  20.088  24.573  1.00  0.00     0.429 C 
ATOM     19  F   UNL A   1      33.205  20.727  23.536  1.00  0.00    -0.167 F 
ATOM     20  F   UNL A   1      34.065  18.851  24.212  1.00  0.00    -0.167 F 
ATOM     21  F   UNL A   1      32.856  20.042  25.567  1.00  0.00    -0.167 F 
ENDBRANCH  10  18
BRANCH  15  22
ATOM     22  S   UNL A   1      32.550  27.784  26.813  1.00  0.00     0.310 S 
ATOM     23  F   UNL A   1      32.553  29.021  25.820  1.00  0.00    -0.094 F 
ATOM     24  F   UNL A   1      34.005  28.214  27.241  1.00  0.00    -0.094 F 
ATOM     25  F   UNL A   1      31.927  28.724  27.884  1.00  0.00    -0.094 F 
ATOM     26  F   UNL A   1      31.103  27.449  26.277  1.00  0.00    -0.094 F 
ATOM     27  F   UNL A   1      33.168  26.913  25.647  1.00  0.00    -0.094 F 
ENDBRANCH  15  22
ENDBRANCH   6   8
ENDBRANCH   3   4
ENDBRANCH   2   3
ENDBRANCH   1   2
BRANCH   1  28
ATOM     28  N   UNL A   1      40.488  23.787  26.066  1.00  0.00    -0.352 N 
ATOM     29  C   UNL A   1      41.585  24.728  26.333  1.00  0.00     0.251 C 
ATOM     30  H   UNL A   1      40.539  23.178  25.294  1.00  0.00     0.163 HD
ATOM     31  O   UNL A   1      42.600  24.756  25.567  1.00  0.00    -0.269 OA
BRANCH  29  32
ATOM     32  C   UNL A   1      41.508  25.668  27.524  1.00  0.00     0.039 A 
ATOM     33  C   UNL A   1      40.474  25.501  28.432  1.00  0.00     0.014 A 
ATOM     34  C   UNL A   1      42.345  26.694  27.616  1.00  0.00     0.014 A 
ATOM     35  C   UNL A   1      40.230  26.638  29.238  1.00  0.00     0.010 A 
ATOM     36  C   UNL A   1      42.119  27.703  28.519  1.00  0.00     0.010 A 
ATOM     37  C   UNL A   1      41.081  27.634  29.408  1.00  0.00    -0.014 A 
BRANCH  37  38
ATOM     38  C   UNL A   1      40.917  28.645  30.529  1.00  0.00     0.031 A 
ATOM     39  C   UNL A   1      39.920  29.621  30.471  1.00  0.00     0.074 A 
ATOM     40  C   UNL A   1      41.754  28.458  31.616  1.00  0.00     0.049 A 
ATOM     41  N   UNL A   1      39.577  30.491  31.422  1.00  0.00    -0.248 NA
ATOM     42  C   UNL A   1      39.053  29.845  29.304  1.00  0.00     0.031 C 
ATOM     43  C   UNL A   1      42.756  27.471  31.686  1.00  0.00     0.029 A 
ATOM     44  N   UNL A   1      41.775  29.165  32.798  1.00  0.00    -0.354 N 
ATOM     45  C   UNL A   1      38.563  31.253  31.005  1.00  0.00     0.074 A 
ATOM     46  C   UNL A   1      38.216  30.853  29.635  1.00  0.00     0.031 C 
ATOM     47  C   UNL A   1      43.381  27.590  32.886  1.00  0.00     0.029 A 
ATOM     48  C   UNL A   1      42.779  28.650  33.589  1.00  0.00     0.049 A 
ATOM     49  H   UNL A   1      41.177  29.909  33.037  1.00  0.00     0.167 HD
ATOM     50  C   UNL A   1      37.914  32.265  31.715  1.00  0.00     0.031 A 
ATOM     51  C   UNL A   1      43.164  29.071  34.852  1.00  0.00     0.031 A 
ATOM     52  C   UNL A   1      38.271  32.656  32.995  1.00  0.00     0.049 A 
ATOM     53  C   UNL A   1      42.553  30.122  35.539  1.00  0.00     0.074 A 
ATOM     54  C   UNL A   1      37.623  33.669  33.727  1.00  0.00     0.029 A 
ATOM     55  N   UNL A   1      39.291  32.159  33.776  1.00  0.00    -0.354 N 
ATOM     56  N   UNL A   1      41.515  30.858  35.138  1.00  0.00    -0.248 NA
ATOM     57  C   UNL A   1      42.973  30.598  36.863  1.00  0.00     0.031 C 
ATOM     58  C   UNL A   1      38.248  33.787  34.930  1.00  0.00     0.029 A 
ATOM     59  C   UNL A   1      39.298  32.851  34.966  1.00  0.00     0.049 A 
ATOM     60  H   UNL A   1      39.909  31.434  33.525  1.00  0.00     0.167 HD
ATOM     61  C   UNL A   1      41.198  31.756  36.072  1.00  0.00     0.074 A 
ATOM     62  C   UNL A   1      42.137  31.607  37.193  1.00  0.00     0.031 C 
ATOM     63  C   UNL A   1      40.163  32.692  36.038  1.00  0.00     0.031 A 
BRANCH  50  64
ATOM     64  C   UNL A   1      36.750  32.977  31.046  1.00  0.00    -0.014 A 
ATOM     65  C   UNL A   1      35.454  32.803  31.501  1.00  0.00     0.010 A 
ATOM     66  C   UNL A   1      37.022  33.803  30.042  1.00  0.00     0.010 A 
ATOM     67  C   UNL A   1      34.466  33.333  30.638  1.00  0.00     0.020 A 
ATOM     68  C   UNL A   1      36.008  34.392  29.326  1.00  0.00     0.020 A 
ATOM     69  C   UNL A   1      34.700  34.217  29.685  1.00  0.00     0.054 A 
BRANCH  69  70
ATOM     70  S   UNL A   1      33.363  35.147  28.896  1.00  0.00     0.124 S 
ATOM     71  O   UNL A   1      32.442  35.729  29.972  1.00  0.00    -0.237 OA
ATOM     72  O   UNL A   1      33.956  36.285  28.062  1.00  0.00    -0.237 OA
ATOM     73  O   UNL A   1      32.465  34.105  27.881  1.00  0.00    -0.744 OA
ENDBRANCH  69  70
ENDBRANCH  50  64
BRANCH  51  74
ATOM     74  C   UNL A   1      44.318  28.348  35.527  1.00  0.00    -0.014 A 
ATOM     75  C   UNL A   1      44.085  27.260  36.352  1.00  0.00     0.010 A 
ATOM     76  C   UNL A   1      45.545  28.819  35.340  1.00  0.00     0.010 A 
ATOM     77  C   UNL A   1      45.186  26.912  37.168  1.00  0.00     0.020 A 
ATOM     78  C   UNL A   1      46.599  28.338  36.078  1.00  0.00     0.020 A 
ATOM     79  C   UNL A   1      46.429  27.303  36.955  1.00  0.00     0.054 A 
BRANCH  79  80
ATOM     80  S   UNL A   1      47.833  26.511  37.780  1.00  0.00     0.124 S 
ATOM     81  O   UNL A   1      48.558  25.599  36.788  1.00  0.00    -0.237 OA
ATOM     82  O   UNL A   1      48.800  27.585  38.287  1.00  0.00    -0.237 OA
ATOM     83  O   UNL A   1      47.268  25.583  39.100  1.00  0.00    -0.744 OA
ENDBRANCH  79  80
ENDBRANCH  51  74
BRANCH  63  84
ATOM     84  C   UNL A   1      39.973  33.591  37.249  1.00  0.00    -0.014 A 
ATOM     85  C   UNL A   1      39.150  33.139  38.267  1.00  0.00     0.010 A 
ATOM     86  C   UNL A   1      40.526  34.797  37.294  1.00  0.00     0.010 A 
ATOM     87  C   UNL A   1      38.737  34.152  39.163  1.00  0.00     0.020 A 
ATOM     88  C   UNL A   1      40.177  35.690  38.278  1.00  0.00     0.020 A 
ATOM     89  C   UNL A   1      39.323  35.329  39.284  1.00  0.00     0.054 A 
BRANCH  89  90
ATOM     90  S   UNL A   1      39.011  36.409  40.704  1.00  0.00     0.124 S 
ATOM     91  O   UNL A   1      40.315  36.623  41.477  1.00  0.00    -0.237 OA
ATOM     92  O   UNL A   1      38.482  37.757  40.212  1.00  0.00    -0.237 OA
ATOM     93  O   UNL A   1      37.853  35.680  41.730  1.00  0.00    -0.744 OA
ENDBRANCH  89  90
ENDBRANCH  63  84
ENDBRANCH  37  38
ENDBRANCH  29  32
ENDBRANCH   1  28
TORSDOF 15
ENDMDL
MODEL 3
REMARK VINA RESULT:     -12.3      2.277      4.423
REMARK SMILES O=C(NCCCNC(=O)c1ccc(-c2c3nc(c(-c4ccc(S(=O)(=O)[O-])cc4)c4ccc([nH]4)c(-c4ccc(S(=O)(=O)[O-])cc4)c4nc(c(-c5ccc(S(=O)(=O)[O-])cc5)c5ccc2[nH]5)C=C4)C=C3)cc1)C1=Cc2cc(S(F)(F)(F)(F)F)ccc2O[C@@H]1C(F)(F)F
REMARK SMILES IDX 6 1 5 2 4 3 3 4 1 5 2 6 70 8 71 9 85 10 72 11 84 12 73 13
REMARK SMILES IDX 83 14 74 15 82 16 81 17 86 18 87 19 88 20 89 21 75 22 76 23
REMARK SMILES IDX 77 24 78 25 79 26 80 27 7 28 8 29 9 31 10 32 11 33 69 34
REMARK SMILES IDX 12 35 68 36 13 37 14 38 15 39 62 40 16 41 67 42 61 43 63 44
REMARK SMILES IDX 17 45 66 46 60 47 59 48 18 50 48 51 29 52 47 53 30 54 33 55
REMARK SMILES IDX 46 56 64 57 31 58 32 59 45 61 65 62 34 63 19 64 20 65 28 66
REMARK SMILES IDX 21 67 27 68 22 69 23 70 24 71 25 72 26 73 49 74 50 75 58 76
REMARK SMILES IDX 51 77 57 78 52 79 53 80 54 81 55 82 56 83 35 84 36 85 44 86
REMARK SMILES IDX 37 87 43 88 38 89 39 90 40 91 41 92 42 93
REMARK H PARENT 3 7 7 30 63 49 33 60
REMARK Flexibility Score: inf
ROOT
ATOM      1  C   UNL A   1      33.883  28.216  26.933  1.00  0.00     0.118 C 
ENDROOT
BRANCH   1   2
ATOM      2  C   UNL A   1      32.669  27.555  26.301  1.00  0.00     0.042 C 
BRANCH   2   3
ATOM      3  C   UNL A   1      32.918  26.061  26.166  1.00  0.00     0.118 C 
BRANCH   3   4
ATOM      4  N   UNL A   1      34.071  25.834  25.283  1.00  0.00    -0.352 N 
ATOM      5  O   UNL A   1      34.944  24.730  23.369  1.00  0.00    -0.270 OA
ATOM      6  C   UNL A   1      33.948  24.927  24.133  1.00  0.00     0.251 C 
ATOM      7  H   UNL A   1      34.925  26.289  25.462  1.00  0.00     0.163 HD
BRANCH   6   8
ATOM      8  C   UNL A   1      32.629  24.224  23.857  1.00  0.00     0.067 C 
ATOM      9  C   UNL A   1      31.583  24.920  23.332  1.00  0.00     0.025 C 
ATOM     10  C   UNL A   1      32.476  22.744  24.167  1.00  0.00     0.314 C 
ATOM     11  C   UNL A   1      31.735  26.400  23.022  1.00  0.00     0.019 A 
ATOM     12  O   UNL A   1      33.874  26.061  22.042  1.00  0.00    -0.475 OA
ATOM     13  C   UNL A   1      30.737  27.216  23.529  1.00  0.00     0.036 A 
ATOM     14  C   UNL A   1      32.796  26.911  22.407  1.00  0.00     0.128 A 
ATOM     15  C   UNL A   1      30.808  28.556  23.078  1.00  0.00     0.107 A 
ATOM     16  C   UNL A   1      32.858  28.252  22.118  1.00  0.00     0.048 A 
ATOM     17  C   UNL A   1      31.878  29.109  22.537  1.00  0.00     0.028 A 
BRANCH  10  18
ATOM     18  C   UNL A   1      32.137  21.991  22.891  1.00  0.00     0.429 C 
ATOM     19  F   UNL A   1      32.352  20.691  23.074  1.00  0.00    -0.167 F 
ATOM     20  F   UNL A   1      30.859  22.190  22.585  1.00  0.00    -0.167 F 
ATOM     21  F   UNL A   1      32.906  22.431  21.899  1.00  0.00    -0.167 F 
ENDBRANCH  10  18
BRANCH  15  22
ATOM     22  S   UNL A   1      29.329  29.583  23.258  1.00  0.00     0.310 S 
ATOM     23  F   UNL A   1      29.853  30.611  22.171  1.00  0.00    -0.094 F 
ATOM     24  F   UNL A   1      30.079  30.451  24.339  1.00  0.00    -0.094 F 
ATOM     25  F   UNL A   1      28.057  30.467  23.392  1.00  0.00    -0.094 F 
ATOM     26  F   UNL A   1      28.645  28.790  22.076  1.00  0.00    -0.094 F 
ATOM     27  F   UNL A   1      30.653  28.748  23.033  1.00  0.00    -0.094 F 
ENDBRANCH  15  22
ENDBRANCH   6   8
ENDBRANCH   3   4
ENDBRANCH   2   3
ENDBRANCH   1   2
BRANCH   1  28
ATOM     28  N   UNL A   1      33.519  29.559  27.406  1.00  0.00    -0.352 N 
ATOM     29  C   UNL A   1      34.515  30.391  28.094  1.00  0.00     0.251 C 
ATOM     30  H   UNL A   1      32.607  29.901  27.262  1.00  0.00     0.163 HD
ATOM     31  O   UNL A   1      34.201  31.553  28.503  1.00  0.00    -0.269 OA
BRANCH  29  32
ATOM     32  C   UNL A   1      35.923  29.864  28.316  1.00  0.00     0.039 A 
ATOM     33  C   UNL A   1      36.260  29.385  29.573  1.00  0.00     0.014 A 
ATOM     34  C   UNL A   1      36.834  29.977  27.357  1.00  0.00     0.014 A 
ATOM     35  C   UNL A   1      37.654  29.322  29.807  1.00  0.00     0.010 A 
ATOM     36  C   UNL A   1      38.164  29.768  27.626  1.00  0.00     0.010 A 
ATOM     37  C   UNL A   1      38.576  29.351  28.861  1.00  0.00    -0.014 A 
BRANCH  37  38
ATOM     38  C   UNL A   1      40.014  28.944  29.132  1.00  0.00     0.031 A 
ATOM     39  C   UNL A   1      40.477  27.676  28.773  1.00  0.00     0.074 A 
ATOM     40  C   UNL A   1      40.816  29.939  29.661  1.00  0.00     0.049 A 
ATOM     41  N   UNL A   1      41.729  27.220  28.834  1.00  0.00    -0.248 NA
ATOM     42  C   UNL A   1      39.620  26.605  28.243  1.00  0.00     0.031 C 
ATOM     43  C   UNL A   1      40.358  31.223  30.019  1.00  0.00     0.029 A 
ATOM     44  N   UNL A   1      42.166  29.883  29.933  1.00  0.00    -0.354 N 
ATOM     45  C   UNL A   1      41.785  25.965  28.384  1.00  0.00     0.074 A 
ATOM     46  C   UNL A   1      40.428  25.549  28.004  1.00  0.00     0.031 C 
ATOM     47  C   UNL A   1      41.413  31.925  30.510  1.00  0.00     0.029 A 
ATOM     48  C   UNL A   1      42.548  31.094  30.466  1.00  0.00     0.049 A 
ATOM     49  H   UNL A   1      42.755  29.110  29.774  1.00  0.00     0.167 HD
ATOM     50  C   UNL A   1      42.914  25.151  28.275  1.00  0.00     0.031 A 
ATOM     51  C   UNL A   1      43.810  31.469  30.899  1.00  0.00     0.031 A 
ATOM     52  C   UNL A   1      44.184  25.543  28.667  1.00  0.00     0.049 A 
ATOM     53  C   UNL A   1      44.929  30.635  30.844  1.00  0.00     0.074 A 
ATOM     54  C   UNL A   1      45.334  24.738  28.557  1.00  0.00     0.029 A 
ATOM     55  N   UNL A   1      44.562  26.744  29.224  1.00  0.00    -0.354 N 
ATOM     56  N   UNL A   1      44.993  29.395  30.358  1.00  0.00    -0.248 NA
ATOM     57  C   UNL A   1      46.264  31.010  31.329  1.00  0.00     0.031 C 
ATOM     58  C   UNL A   1      46.390  25.441  29.048  1.00  0.00     0.029 A 
ATOM     59  C   UNL A   1      45.915  26.696  29.475  1.00  0.00     0.049 A 
ATOM     60  H   UNL A   1      43.967  27.507  29.411  1.00  0.00     0.167 HD
ATOM     61  C   UNL A   1      46.237  28.923  30.458  1.00  0.00     0.074 A 
ATOM     62  C   UNL A   1      47.071  29.954  31.091  1.00  0.00     0.031 C 
ATOM     63  C   UNL A   1      46.711  27.678  30.044  1.00  0.00     0.031 A 
BRANCH  50  64
ATOM     64  C   UNL A   1      42.741  23.758  27.692  1.00  0.00    -0.014 A 
ATOM     65  C   UNL A   1      42.887  23.533  26.334  1.00  0.00     0.010 A 
ATOM     66  C   UNL A   1      42.490  22.762  28.533  1.00  0.00     0.010 A 
ATOM     67  C   UNL A   1      42.463  22.249  25.917  1.00  0.00     0.020 A 
ATOM     68  C   UNL A   1      42.216  21.500  28.061  1.00  0.00     0.020 A 
ATOM     69  C   UNL A   1      42.285  21.220  26.725  1.00  0.00     0.054 A 
BRANCH  69  70
ATOM     70  S   UNL A   1      42.140  19.528  26.098  1.00  0.00     0.124 S 
ATOM     71  O   UNL A   1      43.014  19.369  24.851  1.00  0.00    -0.237 OA
ATOM     72  O   UNL A   1      42.602  18.544  27.174  1.00  0.00    -0.237 OA
ATOM     73  O   UNL A   1      40.510  19.207  25.695  1.00  0.00    -0.744 OA
ENDBRANCH  69  70
ENDBRANCH  50  64
BRANCH  51  74
ATOM     74  C   UNL A   1      43.986  32.869  31.466  1.00  0.00    -0.014 A 
ATOM     75  C   UNL A   1      43.665  33.143  32.785  1.00  0.00     0.010 A 
ATOM     76  C   UNL A   1      44.410  33.825  30.647  1.00  0.00     0.010 A 
ATOM     77  C   UNL A   1      43.549  34.524  33.072  1.00  0.00     0.020 A 
ATOM     78  C   UNL A   1      44.396  35.140  31.043  1.00  0.00     0.020 A 
ATOM     79  C   UNL A   1      44.033  35.489  32.313  1.00  0.00     0.054 A 
BRANCH  79  80
ATOM     80  S   UNL A   1      44.209  37.184  32.924  1.00  0.00     0.124 S 
ATOM     81  O   UNL A   1      45.625  37.387  33.466  1.00  0.00    -0.237 OA
ATOM     82  O   UNL A   1      43.955  38.169  31.779  1.00  0.00    -0.237 OA
ATOM     83  O   UNL A   1      43.074  37.460  34.173  1.00  0.00    -0.744 OA
ENDBRANCH  79  80
ENDBRANCH  51  74
BRANCH  63  84
ATOM     84  C   UNL A   1      48.190  27.380  30.228  1.00  0.00    -0.014 A 
ATOM     85  C   UNL A   1      48.569  26.658  31.347  1.00  0.00     0.010 A 
ATOM     86  C   UNL A   1      49.092  27.856  29.377  1.00  0.00     0.010 A 
ATOM     87  C   UNL A   1      49.951  26.736  31.639  1.00  0.00     0.020 A 
ATOM     88  C   UNL A   1      50.433  27.776  29.663  1.00  0.00     0.020 A 
ATOM     89  C   UNL A   1      50.877  27.127  30.782  1.00  0.00     0.054 A 
BRANCH  89  90
ATOM     90  S   UNL A   1      52.638  26.823  31.074  1.00  0.00     0.124 S 
ATOM     91  O   UNL A   1      53.336  28.145  31.400  1.00  0.00    -0.237 OA
ATOM     92  O   UNL A   1      52.799  25.856  32.248  1.00  0.00    -0.237 OA
ATOM     93  O   UNL A   1      53.337  26.140  29.671  1.00  0.00    -0.744 OA
ENDBRANCH  89  90
ENDBRANCH  63  84
ENDBRANCH  37  38
ENDBRANCH  29  32
ENDBRANCH   1  28
TORSDOF 15
ENDMDL
