MODEL 1
REMARK VINA RESULT:     -11.0      0.000      0.000
REMARK SMILES CCOC(=O)C1=NN(c2ccc(F)cc2F)[C@@H](C(=O)NCCCNC(=O)c2ccc(-c3c4nc(c(-c5ccc(S(=O)(=O)[O-])cc5)c5ccc([nH]5)c(-c5ccc(S(=O)(=O)[O-])cc5)c5nc(c(-c6ccc(S(=O)(=O)[O-])cc6)c6ccc3[nH]6)C=C5)C=C4)cc2)C1
REMARK SMILES IDX 22 1 21 2 20 3 18 4 19 5 17 7 6 8 7 9 87 10 8 11 4 12 5 13
REMARK SMILES IDX 3 14 2 15 1 16 9 17 10 18 15 19 11 20 14 21 16 22 12 23
REMARK SMILES IDX 13 24 23 25 24 26 25 27 26 29 27 30 28 31 86 32 29 33 85 34
REMARK SMILES IDX 30 35 31 36 32 37 79 38 33 39 84 40 78 41 80 42 34 43 83 44
REMARK SMILES IDX 77 45 76 46 35 48 65 49 46 50 64 51 47 52 50 53 63 54 81 55
REMARK SMILES IDX 48 56 49 57 62 59 82 60 51 61 36 62 37 63 45 64 38 65 44 66
REMARK SMILES IDX 39 67 40 68 41 69 42 70 43 71 66 72 67 73 75 74 68 75 74 76
REMARK SMILES IDX 69 77 70 78 71 79 72 80 73 81 52 82 53 83 61 84 54 85 60 86
REMARK SMILES IDX 55 87 56 88 57 89 58 90 59 91
REMARK H PARENT 20 6 24 28 80 47 50 58
REMARK Flexibility Score: inf
ROOT
ATOM      1  C   UNL A   1      35.780  23.464  24.370  1.00  0.00     0.042 C 
ENDROOT
BRANCH   1   2
ATOM      2  C   UNL A   1      34.333  23.951  24.384  1.00  0.00     0.117 C 
BRANCH   2   3
ATOM      3  N   UNL A   1      34.152  25.133  23.556  1.00  0.00    -0.354 N 
ATOM      4  C   UNL A   1      33.158  26.066  23.520  1.00  0.00     0.245 C 
ATOM      5  O   UNL A   1      33.288  26.987  22.704  1.00  0.00    -0.273 OA
ATOM      6  H   UNL A   1      34.876  25.288  22.907  1.00  0.00     0.163 HD
BRANCH   4   7
ATOM      7  C   UNL A   1      31.912  26.018  24.418  1.00  0.00     0.203 C 
ATOM      8  C   UNL A   1      31.374  24.555  26.111  1.00  0.00     0.148 C 
ATOM      9  N   UNL A   1      31.854  25.583  26.744  1.00  0.00    -0.169 NA
ATOM     10  C   UNL A   1      31.331  24.627  24.621  1.00  0.00     0.103 C 
ATOM     11  N   UNL A   1      32.193  26.478  25.778  1.00  0.00    -0.249 N 
BRANCH   8  12
ATOM     12  C   UNL A   1      30.893  23.313  26.796  1.00  0.00     0.354 C 
ATOM     13  O   UNL A   1      29.790  23.227  27.301  1.00  0.00    -0.245 OA
BRANCH  12  14
ATOM     14  O   UNL A   1      31.851  22.371  26.679  1.00  0.00    -0.461 OA
BRANCH  14  15
ATOM     15  C   UNL A   1      32.815  22.336  27.742  1.00  0.00     0.230 C 
ATOM     16  C   UNL A   1      34.043  21.558  27.309  1.00  0.00     0.049 C 
ENDBRANCH  14  15
ENDBRANCH  12  14
ENDBRANCH   8  12
BRANCH  11  17
ATOM     17  C   UNL A   1      32.723  27.724  26.087  1.00  0.00     0.096 A 
ATOM     18  C   UNL A   1      33.969  27.834  26.728  1.00  0.00     0.034 A 
ATOM     19  C   UNL A   1      32.037  28.916  25.793  1.00  0.00     0.151 A 
ATOM     20  C   UNL A   1      34.506  29.084  27.050  1.00  0.00     0.041 A 
ATOM     21  C   UNL A   1      32.552  30.164  26.132  1.00  0.00     0.080 A 
ATOM     22  F   UNL A   1      30.813  28.873  25.241  1.00  0.00    -0.205 F 
ATOM     23  C   UNL A   1      33.789  30.236  26.752  1.00  0.00     0.126 A 
ATOM     24  F   UNL A   1      34.298  31.431  27.077  1.00  0.00    -0.207 F 
ENDBRANCH  11  17
ENDBRANCH   4   7
ENDBRANCH   2   3
ENDBRANCH   1   2
BRANCH   1  25
ATOM     25  C   UNL A   1      36.513  23.679  25.690  1.00  0.00     0.118 C 
BRANCH  25  26
ATOM     26  N   UNL A   1      37.608  22.738  25.874  1.00  0.00    -0.352 N 
ATOM     27  C   UNL A   1      38.886  22.952  26.330  1.00  0.00     0.251 C 
ATOM     28  H   UNL A   1      37.401  21.806  25.635  1.00  0.00     0.163 HD
ATOM     29  O   UNL A   1      39.718  22.054  26.233  1.00  0.00    -0.269 OA
BRANCH  27  30
ATOM     30  C   UNL A   1      39.272  24.256  26.917  1.00  0.00     0.039 A 
ATOM     31  C   UNL A   1      38.913  24.530  28.240  1.00  0.00     0.014 A 
ATOM     32  C   UNL A   1      39.948  25.221  26.165  1.00  0.00     0.014 A 
ATOM     33  C   UNL A   1      39.278  25.745  28.824  1.00  0.00     0.010 A 
ATOM     34  C   UNL A   1      40.370  26.403  26.768  1.00  0.00     0.010 A 
ATOM     35  C   UNL A   1      40.036  26.681  28.102  1.00  0.00    -0.014 A 
BRANCH  35  36
ATOM     36  C   UNL A   1      40.478  27.957  28.719  1.00  0.00     0.031 A 
ATOM     37  C   UNL A   1      41.884  28.103  29.234  1.00  0.00     0.074 A 
ATOM     38  C   UNL A   1      39.599  28.967  28.869  1.00  0.00     0.049 A 
ATOM     39  N   UNL A   1      42.435  29.117  29.852  1.00  0.00    -0.248 NA
ATOM     40  C   UNL A   1      42.778  26.950  29.052  1.00  0.00     0.031 C 
ATOM     41  C   UNL A   1      38.201  28.945  28.433  1.00  0.00     0.029 A 
ATOM     42  N   UNL A   1      39.753  30.208  29.431  1.00  0.00    -0.354 N 
ATOM     43  C   UNL A   1      43.733  28.717  30.149  1.00  0.00     0.074 A 
ATOM     44  C   UNL A   1      43.869  27.353  29.686  1.00  0.00     0.031 C 
ATOM     45  C   UNL A   1      37.637  30.131  28.713  1.00  0.00     0.029 A 
ATOM     46  C   UNL A   1      38.617  30.981  29.382  1.00  0.00     0.049 A 
ATOM     47  H   UNL A   1      40.598  30.518  29.832  1.00  0.00     0.167 HD
ATOM     48  C   UNL A   1      44.727  29.424  30.741  1.00  0.00     0.031 A 
ATOM     49  C   UNL A   1      38.389  32.233  29.823  1.00  0.00     0.031 A 
ATOM     50  C   UNL A   1      44.594  30.781  31.198  1.00  0.00     0.049 A 
ATOM     51  C   UNL A   1      39.498  32.992  30.493  1.00  0.00     0.074 A 
ATOM     52  C   UNL A   1      45.555  31.599  31.766  1.00  0.00     0.029 A 
ATOM     53  N   UNL A   1      43.422  31.522  31.139  1.00  0.00    -0.354 N 
ATOM     54  N   UNL A   1      40.731  32.614  30.726  1.00  0.00    -0.248 NA
ATOM     55  C   UNL A   1      39.184  34.353  30.951  1.00  0.00     0.031 C 
ATOM     56  C   UNL A   1      44.953  32.821  32.090  1.00  0.00     0.029 A 
ATOM     57  C   UNL A   1      43.629  32.780  31.681  1.00  0.00     0.049 A 
ATOM     58  H   UNL A   1      42.570  31.201  30.769  1.00  0.00     0.167 HD
ATOM     59  C   UNL A   1      41.350  33.697  31.340  1.00  0.00     0.074 A 
ATOM     60  C   UNL A   1      40.356  34.748  31.434  1.00  0.00     0.031 C 
ATOM     61  C   UNL A   1      42.627  33.812  31.778  1.00  0.00     0.031 A 
BRANCH  48  62
ATOM     62  C   UNL A   1      46.041  28.714  30.940  1.00  0.00    -0.014 A 
ATOM     63  C   UNL A   1      47.048  28.758  29.957  1.00  0.00     0.010 A 
ATOM     64  C   UNL A   1      46.263  27.973  32.114  1.00  0.00     0.010 A 
ATOM     65  C   UNL A   1      48.220  28.015  30.111  1.00  0.00     0.020 A 
ATOM     66  C   UNL A   1      47.449  27.251  32.285  1.00  0.00     0.020 A 
ATOM     67  C   UNL A   1      48.406  27.253  31.268  1.00  0.00     0.054 A 
BRANCH  67  68
ATOM     68  S   UNL A   1      49.919  26.265  31.432  1.00  0.00     0.124 S 
ATOM     69  O   UNL A   1      50.953  27.296  31.390  1.00  0.00    -0.237 OA
ATOM     70  O   UNL A   1      49.740  25.608  32.723  1.00  0.00    -0.237 OA
ATOM     71  O   UNL A   1      49.877  25.377  30.274  1.00  0.00    -0.744 OA
ENDBRANCH  67  68
ENDBRANCH  48  62
BRANCH  49  72
ATOM     72  C   UNL A   1      37.057  32.854  29.600  1.00  0.00    -0.014 A 
ATOM     73  C   UNL A   1      36.108  32.871  30.636  1.00  0.00     0.010 A 
ATOM     74  C   UNL A   1      36.751  33.477  28.377  1.00  0.00     0.010 A 
ATOM     75  C   UNL A   1      34.876  33.507  30.456  1.00  0.00     0.020 A 
ATOM     76  C   UNL A   1      35.529  34.132  28.201  1.00  0.00     0.020 A 
ATOM     77  C   UNL A   1      34.598  34.140  29.242  1.00  0.00     0.054 A 
BRANCH  77  78
ATOM     78  S   UNL A   1      33.033  35.041  29.065  1.00  0.00     0.124 S 
ATOM     79  O   UNL A   1      33.485  36.346  28.595  1.00  0.00    -0.237 OA
ATOM     80  O   UNL A   1      32.309  34.231  28.088  1.00  0.00    -0.237 OA
ATOM     81  O   UNL A   1      32.473  35.019  30.415  1.00  0.00    -0.744 OA
ENDBRANCH  77  78
ENDBRANCH  49  72
BRANCH  61  82
ATOM     82  C   UNL A   1      43.033  35.130  32.379  1.00  0.00    -0.014 A 
ATOM     83  C   UNL A   1      43.705  36.101  31.615  1.00  0.00     0.010 A 
ATOM     84  C   UNL A   1      42.691  35.420  33.713  1.00  0.00     0.010 A 
ATOM     85  C   UNL A   1      44.055  37.328  32.185  1.00  0.00     0.020 A 
ATOM     86  C   UNL A   1      43.019  36.655  34.278  1.00  0.00     0.020 A 
ATOM     87  C   UNL A   1      43.712  37.597  33.514  1.00  0.00     0.054 A 
BRANCH  87  88
ATOM     88  S   UNL A   1      44.135  39.213  34.219  1.00  0.00     0.124 S 
ATOM     89  O   UNL A   1      45.410  39.504  33.568  1.00  0.00    -0.237 OA
ATOM     90  O   UNL A   1      43.012  40.050  33.803  1.00  0.00    -0.237 OA
ATOM     91  O   UNL A   1      44.212  38.954  35.654  1.00  0.00    -0.744 OA
ENDBRANCH  87  88
ENDBRANCH  61  82
ENDBRANCH  35  36
ENDBRANCH  27  30
ENDBRANCH  25  26
ENDBRANCH   1  25
TORSDOF 17
ENDMDL
MODEL 2
REMARK VINA RESULT:     -10.9      2.927      9.451
REMARK SMILES CCOC(=O)C1=NN(c2ccc(F)cc2F)[C@@H](C(=O)NCCCNC(=O)c2ccc(-c3c4nc(c(-c5ccc(S(=O)(=O)[O-])cc5)c5ccc([nH]5)c(-c5ccc(S(=O)(=O)[O-])cc5)c5nc(c(-c6ccc(S(=O)(=O)[O-])cc6)c6ccc3[nH]6)C=C5)C=C4)cc2)C1
REMARK SMILES IDX 22 1 21 2 20 3 18 4 19 5 17 7 6 8 7 9 87 10 8 11 4 12 5 13
REMARK SMILES IDX 3 14 2 15 1 16 9 17 10 18 15 19 11 20 14 21 16 22 12 23
REMARK SMILES IDX 13 24 23 25 24 26 25 27 26 29 27 30 28 31 86 32 29 33 85 34
REMARK SMILES IDX 30 35 31 36 32 37 79 38 33 39 84 40 78 41 80 42 34 43 83 44
REMARK SMILES IDX 77 45 76 46 35 48 65 49 46 50 64 51 47 52 50 53 63 54 81 55
REMARK SMILES IDX 48 56 49 57 62 59 82 60 51 61 36 62 37 63 45 64 38 65 44 66
REMARK SMILES IDX 39 67 40 68 41 69 42 70 43 71 66 72 67 73 75 74 68 75 74 76
REMARK SMILES IDX 69 77 70 78 71 79 72 80 73 81 52 82 53 83 61 84 54 85 60 86
REMARK SMILES IDX 55 87 56 88 57 89 58 90 59 91
REMARK H PARENT 20 6 24 28 80 47 50 58
REMARK Flexibility Score: inf
ROOT
ATOM      1  C   UNL A   1      33.252  27.652  26.703  1.00  0.00     0.042 C 
ENDROOT
BRANCH   1   2
ATOM      2  C   UNL A   1      31.795  27.543  26.264  1.00  0.00     0.117 C 
BRANCH   2   3
ATOM      3  N   UNL A   1      31.192  26.292  26.695  1.00  0.00    -0.354 N 
ATOM      4  C   UNL A   1      30.447  25.370  26.021  1.00  0.00     0.245 C 
ATOM      5  O   UNL A   1      30.079  24.376  26.661  1.00  0.00    -0.273 OA
ATOM      6  H   UNL A   1      31.349  26.071  27.641  1.00  0.00     0.163 HD
BRANCH   4   7
ATOM      7  C   UNL A   1      30.047  25.512  24.544  1.00  0.00     0.203 C 
ATOM      8  C   UNL A   1      30.038  27.377  23.196  1.00  0.00     0.148 C 
ATOM      9  N   UNL A   1      31.157  26.792  22.890  1.00  0.00    -0.169 NA
ATOM     10  C   UNL A   1      29.187  26.727  24.236  1.00  0.00     0.103 C 
ATOM     11  N   UNL A   1      31.209  25.679  23.671  1.00  0.00    -0.249 N 
BRANCH   8  12
ATOM     12  C   UNL A   1      29.584  28.666  22.581  1.00  0.00     0.354 C 
ATOM     13  O   UNL A   1      30.129  29.157  21.611  1.00  0.00    -0.245 OA
BRANCH  12  14
ATOM     14  O   UNL A   1      28.489  29.086  23.246  1.00  0.00    -0.461 OA
BRANCH  14  15
ATOM     15  C   UNL A   1      27.676  30.044  22.552  1.00  0.00     0.230 C 
ATOM     16  C   UNL A   1      27.671  31.364  23.299  1.00  0.00     0.049 C 
ENDBRANCH  14  15
ENDBRANCH  12  14
ENDBRANCH   8  12
BRANCH  11  17
ATOM     17  C   UNL A   1      32.267  24.783  23.599  1.00  0.00     0.096 A 
ATOM     18  C   UNL A   1      32.031  23.400  23.517  1.00  0.00     0.034 A 
ATOM     19  C   UNL A   1      33.606  25.213  23.623  1.00  0.00     0.151 A 
ATOM     20  C   UNL A   1      33.091  22.490  23.451  1.00  0.00     0.041 A 
ATOM     21  C   UNL A   1      34.668  24.313  23.583  1.00  0.00     0.080 A 
ATOM     22  F   UNL A   1      33.896  26.516  23.767  1.00  0.00    -0.205 F 
ATOM     23  C   UNL A   1      34.399  22.957  23.490  1.00  0.00     0.126 A 
ATOM     24  F   UNL A   1      35.411  22.082  23.444  1.00  0.00    -0.207 F 
ENDBRANCH  11  17
ENDBRANCH   4   7
ENDBRANCH   2   3
ENDBRANCH   1   2
BRANCH   1  25
ATOM     25  C   UNL A   1      34.009  28.800  26.041  1.00  0.00     0.118 C 
BRANCH  25  26
ATOM     26  N   UNL A   1      33.769  30.073  26.702  1.00  0.00    -0.352 N 
ATOM     27  C   UNL A   1      34.489  30.704  27.688  1.00  0.00     0.251 C 
ATOM     28  H   UNL A   1      32.970  30.558  26.394  1.00  0.00     0.163 HD
ATOM     29  O   UNL A   1      34.012  31.689  28.244  1.00  0.00    -0.269 OA
BRANCH  27  30
ATOM     30  C   UNL A   1      35.817  30.195  28.099  1.00  0.00     0.039 A 
ATOM     31  C   UNL A   1      36.878  30.277  27.191  1.00  0.00     0.014 A 
ATOM     32  C   UNL A   1      36.016  29.605  29.350  1.00  0.00     0.014 A 
ATOM     33  C   UNL A   1      38.146  29.819  27.558  1.00  0.00     0.010 A 
ATOM     34  C   UNL A   1      37.295  29.212  29.739  1.00  0.00     0.010 A 
ATOM     35  C   UNL A   1      38.372  29.309  28.846  1.00  0.00    -0.014 A 
BRANCH  35  36
ATOM     36  C   UNL A   1      39.723  28.864  29.274  1.00  0.00     0.031 A 
ATOM     37  C   UNL A   1      40.600  29.778  30.085  1.00  0.00     0.074 A 
ATOM     38  C   UNL A   1      40.184  27.661  28.884  1.00  0.00     0.049 A 
ATOM     39  N   UNL A   1      41.827  29.588  30.503  1.00  0.00    -0.248 NA
ATOM     40  C   UNL A   1      40.034  31.084  30.455  1.00  0.00     0.031 C 
ATOM     41  C   UNL A   1      39.443  26.689  28.077  1.00  0.00     0.029 A 
ATOM     42  N   UNL A   1      41.390  27.049  29.115  1.00  0.00    -0.354 N 
ATOM     43  C   UNL A   1      42.184  30.755  31.166  1.00  0.00     0.074 A 
ATOM     44  C   UNL A   1      41.063  31.664  31.053  1.00  0.00     0.031 C 
ATOM     45  C   UNL A   1      40.197  25.590  27.911  1.00  0.00     0.029 A 
ATOM     46  C   UNL A   1      41.487  25.794  28.563  1.00  0.00     0.049 A 
ATOM     47  H   UNL A   1      42.119  27.469  29.629  1.00  0.00     0.167 HD
ATOM     48  C   UNL A   1      43.335  31.044  31.822  1.00  0.00     0.031 A 
ATOM     49  C   UNL A   1      42.498  24.904  28.580  1.00  0.00     0.031 A 
ATOM     50  C   UNL A   1      44.448  30.141  31.938  1.00  0.00     0.049 A 
ATOM     51  C   UNL A   1      43.772  25.250  29.296  1.00  0.00     0.074 A 
ATOM     52  C   UNL A   1      45.638  30.321  32.622  1.00  0.00     0.029 A 
ATOM     53  N   UNL A   1      44.509  28.884  31.353  1.00  0.00    -0.354 N 
ATOM     54  N   UNL A   1      44.076  26.342  29.955  1.00  0.00    -0.248 NA
ATOM     55  C   UNL A   1      44.837  24.237  29.278  1.00  0.00     0.031 C 
ATOM     56  C   UNL A   1      46.436  29.189  32.415  1.00  0.00     0.029 A 
ATOM     57  C   UNL A   1      45.725  28.285  31.641  1.00  0.00     0.049 A 
ATOM     58  H   UNL A   1      43.795  28.478  30.813  1.00  0.00     0.167 HD
ATOM     59  C   UNL A   1      45.360  26.141  30.449  1.00  0.00     0.074 A 
ATOM     60  C   UNL A   1      45.771  24.819  30.019  1.00  0.00     0.031 C 
ATOM     61  C   UNL A   1      46.124  26.973  31.197  1.00  0.00     0.031 A 
BRANCH  48  62
ATOM     62  C   UNL A   1      43.439  32.412  32.444  1.00  0.00    -0.014 A 
ATOM     63  C   UNL A   1      42.922  32.667  33.729  1.00  0.00     0.010 A 
ATOM     64  C   UNL A   1      44.040  33.462  31.727  1.00  0.00     0.010 A 
ATOM     65  C   UNL A   1      42.937  33.962  34.253  1.00  0.00     0.020 A 
ATOM     66  C   UNL A   1      44.082  34.754  32.260  1.00  0.00     0.020 A 
ATOM     67  C   UNL A   1      43.504  35.001  33.507  1.00  0.00     0.054 A 
BRANCH  67  68
ATOM     68  S   UNL A   1      43.478  36.682  34.189  1.00  0.00     0.124 S 
ATOM     69  O   UNL A   1      42.294  36.638  35.044  1.00  0.00    -0.237 OA
ATOM     70  O   UNL A   1      44.756  36.767  34.892  1.00  0.00    -0.237 OA
ATOM     71  O   UNL A   1      43.363  37.531  33.007  1.00  0.00    -0.744 OA
ENDBRANCH  67  68
ENDBRANCH  48  62
BRANCH  49  72
ATOM     72  C   UNL A   1      42.318  23.581  27.927  1.00  0.00    -0.014 A 
ATOM     73  C   UNL A   1      42.846  23.354  26.644  1.00  0.00     0.010 A 
ATOM     74  C   UNL A   1      41.670  22.530  28.600  1.00  0.00     0.010 A 
ATOM     75  C   UNL A   1      42.736  22.095  26.047  1.00  0.00     0.020 A 
ATOM     76  C   UNL A   1      41.576  21.265  28.014  1.00  0.00     0.020 A 
ATOM     77  C   UNL A   1      42.108  21.056  26.740  1.00  0.00     0.054 A 
BRANCH  77  78
ATOM     78  S   UNL A   1      42.062  19.406  25.986  1.00  0.00     0.124 S 
ATOM     79  O   UNL A   1      42.928  19.578  24.824  1.00  0.00    -0.237 OA
ATOM     80  O   UNL A   1      42.591  18.557  27.050  1.00  0.00    -0.237 OA
ATOM     81  O   UNL A   1      40.645  19.207  25.690  1.00  0.00    -0.744 OA
ENDBRANCH  77  78
ENDBRANCH  49  72
BRANCH  61  82
ATOM     82  C   UNL A   1      47.477  26.470  31.621  1.00  0.00    -0.014 A 
ATOM     83  C   UNL A   1      47.621  25.619  32.732  1.00  0.00     0.010 A 
ATOM     84  C   UNL A   1      48.614  26.815  30.867  1.00  0.00     0.010 A 
ATOM     85  C   UNL A   1      48.883  25.145  33.098  1.00  0.00     0.020 A 
ATOM     86  C   UNL A   1      49.874  26.323  31.217  1.00  0.00     0.020 A 
ATOM     87  C   UNL A   1      50.003  25.502  32.339  1.00  0.00     0.054 A 
BRANCH  87  88
ATOM     88  S   UNL A   1      51.625  24.838  32.806  1.00  0.00     0.124 S 
ATOM     89  O   UNL A   1      51.314  23.437  33.077  1.00  0.00    -0.237 OA
ATOM     90  O   UNL A   1      52.428  25.083  31.610  1.00  0.00    -0.237 OA
ATOM     91  O   UNL A   1      52.000  25.632  33.973  1.00  0.00    -0.744 OA
ENDBRANCH  87  88
ENDBRANCH  61  82
ENDBRANCH  35  36
ENDBRANCH  27  30
ENDBRANCH  25  26
ENDBRANCH   1  25
TORSDOF 17
ENDMDL
MODEL 3
REMARK VINA RESULT:     -10.3      1.818      3.286
REMARK SMILES CCOC(=O)C1=NN(c2ccc(F)cc2F)[C@@H](C(=O)NCCCNC(=O)c2ccc(-c3c4nc(c(-c5ccc(S(=O)(=O)[O-])cc5)c5ccc([nH]5)c(-c5ccc(S(=O)(=O)[O-])cc5)c5nc(c(-c6ccc(S(=O)(=O)[O-])cc6)c6ccc3[nH]6)C=C5)C=C4)cc2)C1
REMARK SMILES IDX 22 1 21 2 20 3 18 4 19 5 17 7 6 8 7 9 87 10 8 11 4 12 5 13
REMARK SMILES IDX 3 14 2 15 1 16 9 17 10 18 15 19 11 20 14 21 16 22 12 23
REMARK SMILES IDX 13 24 23 25 24 26 25 27 26 29 27 30 28 31 86 32 29 33 85 34
REMARK SMILES IDX 30 35 31 36 32 37 79 38 33 39 84 40 78 41 80 42 34 43 83 44
REMARK SMILES IDX 77 45 76 46 35 48 65 49 46 50 64 51 47 52 50 53 63 54 81 55
REMARK SMILES IDX 48 56 49 57 62 59 82 60 51 61 36 62 37 63 45 64 38 65 44 66
REMARK SMILES IDX 39 67 40 68 41 69 42 70 43 71 66 72 67 73 75 74 68 75 74 76
REMARK SMILES IDX 69 77 70 78 71 79 72 80 73 81 52 82 53 83 61 84 54 85 60 86
REMARK SMILES IDX 55 87 56 88 57 89 58 90 59 91
REMARK H PARENT 20 6 24 28 80 47 50 58
REMARK Flexibility Score: inf
ROOT
ATOM      1  C   UNL A   1      35.574  23.475  25.121  1.00  0.00     0.042 C 
ENDROOT
BRANCH   1   2
ATOM      2  C   UNL A   1      34.795  24.753  25.420  1.00  0.00     0.117 C 
BRANCH   2   3
ATOM      3  N   UNL A   1      34.580  25.549  24.222  1.00  0.00    -0.354 N 
ATOM      4  C   UNL A   1      33.512  26.291  23.811  1.00  0.00     0.245 C 
ATOM      5  O   UNL A   1      33.629  26.883  22.731  1.00  0.00    -0.273 OA
ATOM      6  H   UNL A   1      35.340  25.552  23.596  1.00  0.00     0.163 HD
BRANCH   4   7
ATOM      7  C   UNL A   1      32.203  26.412  24.606  1.00  0.00     0.203 C 
ATOM      8  C   UNL A   1      30.131  27.147  23.925  1.00  0.00     0.148 C 
ATOM      9  N   UNL A   1      30.028  25.854  23.853  1.00  0.00    -0.169 NA
ATOM     10  C   UNL A   1      31.440  27.706  24.375  1.00  0.00     0.103 C 
ATOM     11  N   UNL A   1      31.239  25.372  24.244  1.00  0.00    -0.249 N 
BRANCH   8  12
ATOM     12  C   UNL A   1      29.023  28.086  23.559  1.00  0.00     0.354 C 
ATOM     13  O   UNL A   1      27.924  27.699  23.208  1.00  0.00    -0.245 OA
BRANCH  12  14
ATOM     14  O   UNL A   1      29.459  29.347  23.753  1.00  0.00    -0.461 OA
BRANCH  14  15
ATOM     15  C   UNL A   1      28.920  30.330  22.856  1.00  0.00     0.230 C 
ATOM     16  C   UNL A   1      29.617  30.250  21.511  1.00  0.00     0.049 C 
ENDBRANCH  14  15
ENDBRANCH  12  14
ENDBRANCH   8  12
BRANCH  11  17
ATOM     17  C   UNL A   1      31.496  24.009  24.316  1.00  0.00     0.096 A 
ATOM     18  C   UNL A   1      31.799  23.273  23.158  1.00  0.00     0.034 A 
ATOM     19  C   UNL A   1      31.446  23.309  25.535  1.00  0.00     0.151 A 
ATOM     20  C   UNL A   1      32.051  21.900  23.221  1.00  0.00     0.041 A 
ATOM     21  C   UNL A   1      31.671  21.937  25.605  1.00  0.00     0.080 A 
ATOM     22  F   UNL A   1      31.097  23.944  26.666  1.00  0.00    -0.205 F 
ATOM     23  C   UNL A   1      31.979  21.245  24.444  1.00  0.00     0.126 A 
ATOM     24  F   UNL A   1      32.204  19.926  24.499  1.00  0.00    -0.207 F 
ENDBRANCH  11  17
ENDBRANCH   4   7
ENDBRANCH   2   3
ENDBRANCH   1   2
BRANCH   1  25
ATOM     25  C   UNL A   1      37.061  23.707  24.870  1.00  0.00     0.118 C 
BRANCH  25  26
ATOM     26  N   UNL A   1      37.891  22.681  25.482  1.00  0.00    -0.352 N 
ATOM     27  C   UNL A   1      38.988  22.807  26.300  1.00  0.00     0.251 C 
ATOM     28  H   UNL A   1      37.626  21.755  25.281  1.00  0.00     0.163 HD
ATOM     29  O   UNL A   1      39.663  21.815  26.559  1.00  0.00    -0.269 OA
BRANCH  27  30
ATOM     30  C   UNL A   1      39.373  24.126  26.852  1.00  0.00     0.039 A 
ATOM     31  C   UNL A   1      38.994  24.444  28.159  1.00  0.00     0.014 A 
ATOM     32  C   UNL A   1      40.068  25.063  26.081  1.00  0.00     0.014 A 
ATOM     33  C   UNL A   1      39.358  25.675  28.711  1.00  0.00     0.010 A 
ATOM     34  C   UNL A   1      40.488  26.261  26.653  1.00  0.00     0.010 A 
ATOM     35  C   UNL A   1      40.133  26.583  27.972  1.00  0.00    -0.014 A 
BRANCH  35  36
ATOM     36  C   UNL A   1      40.574  27.876  28.556  1.00  0.00     0.031 A 
ATOM     37  C   UNL A   1      41.991  28.049  29.031  1.00  0.00     0.074 A 
ATOM     38  C   UNL A   1      39.686  28.875  28.714  1.00  0.00     0.049 A 
ATOM     39  N   UNL A   1      42.545  29.081  29.616  1.00  0.00    -0.248 NA
ATOM     40  C   UNL A   1      42.897  26.905  28.843  1.00  0.00     0.031 C 
ATOM     41  C   UNL A   1      38.276  28.827  28.316  1.00  0.00     0.029 A 
ATOM     42  N   UNL A   1      39.837  30.128  29.251  1.00  0.00    -0.354 N 
ATOM     43  C   UNL A   1      43.855  28.704  29.885  1.00  0.00     0.074 A 
ATOM     44  C   UNL A   1      43.998  27.334  29.440  1.00  0.00     0.031 C 
ATOM     45  C   UNL A   1      37.703  30.010  28.592  1.00  0.00     0.029 A 
ATOM     46  C   UNL A   1      38.689  30.884  29.220  1.00  0.00     0.049 A 
ATOM     47  H   UNL A   1      40.688  30.456  29.624  1.00  0.00     0.167 HD
ATOM     48  C   UNL A   1      44.855  29.434  30.438  1.00  0.00     0.031 A 
ATOM     49  C   UNL A   1      38.455  32.140  29.647  1.00  0.00     0.031 A 
ATOM     50  C   UNL A   1      44.715  30.797  30.875  1.00  0.00     0.049 A 
ATOM     51  C   UNL A   1      39.571  32.926  30.273  1.00  0.00     0.074 A 
ATOM     52  C   UNL A   1      45.679  31.637  31.404  1.00  0.00     0.029 A 
ATOM     53  N   UNL A   1      43.532  31.520  30.837  1.00  0.00    -0.354 N 
ATOM     54  N   UNL A   1      40.815  32.568  30.479  1.00  0.00    -0.248 NA
ATOM     55  C   UNL A   1      39.250  34.289  30.718  1.00  0.00     0.031 C 
ATOM     56  C   UNL A   1      45.069  32.856  31.724  1.00  0.00     0.029 A 
ATOM     57  C   UNL A   1      43.735  32.790  31.352  1.00  0.00     0.049 A 
ATOM     58  H   UNL A   1      42.674  31.181  30.495  1.00  0.00     0.167 HD
ATOM     59  C   UNL A   1      41.435  33.670  31.058  1.00  0.00     0.074 A 
ATOM     60  C   UNL A   1      40.429  34.708  31.162  1.00  0.00     0.031 C 
ATOM     61  C   UNL A   1      42.722  33.810  31.460  1.00  0.00     0.031 A 
BRANCH  48  62
ATOM     62  C   UNL A   1      46.183  28.746  30.612  1.00  0.00    -0.014 A 
ATOM     63  C   UNL A   1      47.153  28.765  29.591  1.00  0.00     0.010 A 
ATOM     64  C   UNL A   1      46.458  28.050  31.803  1.00  0.00     0.010 A 
ATOM     65  C   UNL A   1      48.339  28.041  29.728  1.00  0.00     0.020 A 
ATOM     66  C   UNL A   1      47.658  27.346  31.955  1.00  0.00     0.020 A 
ATOM     67  C   UNL A   1      48.577  27.322  30.904  1.00  0.00     0.054 A 
BRANCH  67  68
ATOM     68  S   UNL A   1      50.106  26.357  31.045  1.00  0.00     0.124 S 
ATOM     69  O   UNL A   1      50.591  26.365  29.667  1.00  0.00    -0.237 OA
ATOM     70  O   UNL A   1      50.896  27.137  31.994  1.00  0.00    -0.237 OA
ATOM     71  O   UNL A   1      49.650  25.060  31.538  1.00  0.00    -0.744 OA
ENDBRANCH  67  68
ENDBRANCH  48  62
BRANCH  49  72
ATOM     72  C   UNL A   1      37.109  32.739  29.449  1.00  0.00    -0.014 A 
ATOM     73  C   UNL A   1      36.223  32.848  30.535  1.00  0.00     0.010 A 
ATOM     74  C   UNL A   1      36.728  33.251  28.196  1.00  0.00     0.010 A 
ATOM     75  C   UNL A   1      34.980  33.466  30.374  1.00  0.00     0.020 A 
ATOM     76  C   UNL A   1      35.494  33.887  28.037  1.00  0.00     0.020 A 
ATOM     77  C   UNL A   1      34.626  33.988  29.127  1.00  0.00     0.054 A 
BRANCH  77  78
ATOM     78  S   UNL A   1      33.049  34.871  28.965  1.00  0.00     0.124 S 
ATOM     79  O   UNL A   1      32.523  34.805  30.325  1.00  0.00    -0.237 OA
ATOM     80  O   UNL A   1      33.471  36.193  28.512  1.00  0.00    -0.237 OA
ATOM     81  O   UNL A   1      32.320  34.085  27.971  1.00  0.00    -0.744 OA
ENDBRANCH  77  78
ENDBRANCH  49  72
BRANCH  61  82
ATOM     82  C   UNL A   1      43.124  35.143  32.027  1.00  0.00    -0.014 A 
ATOM     83  C   UNL A   1      43.769  36.107  31.232  1.00  0.00     0.010 A 
ATOM     84  C   UNL A   1      42.808  35.453  33.363  1.00  0.00     0.010 A 
ATOM     85  C   UNL A   1      44.117  37.348  31.771  1.00  0.00     0.020 A 
ATOM     86  C   UNL A   1      43.134  36.702  33.899  1.00  0.00     0.020 A 
ATOM     87  C   UNL A   1      43.799  37.638  33.102  1.00  0.00     0.054 A 
BRANCH  87  88
ATOM     88  S   UNL A   1      44.219  39.271  33.769  1.00  0.00     0.124 S 
ATOM     89  O   UNL A   1      45.148  39.780  32.764  1.00  0.00    -0.237 OA
ATOM     90  O   UNL A   1      42.921  39.941  33.820  1.00  0.00    -0.237 OA
ATOM     91  O   UNL A   1      44.809  38.971  35.070  1.00  0.00    -0.744 OA
ENDBRANCH  87  88
ENDBRANCH  61  82
ENDBRANCH  35  36
ENDBRANCH  27  30
ENDBRANCH  25  26
ENDBRANCH   1  25
TORSDOF 17
ENDMDL
