MODEL 1
REMARK VINA RESULT:      -8.7      0.000      0.000
REMARK SMILES Cc1cc([C@@H]([NH3+])C[C@H](C)CC(=O)NCCCNC(=O)c2ccc(-c3c4nc(c(-c5ccc(S(=O)(=O)[O-])cc5)c5ccc([nH]5)c(-c5ccc(S(=O)(=O)[O-])cc5)c5nc(c(-c6ccc(S(=O)(=O)[O-])cc6)c6ccc3[nH]6)C=C5)C=C4)cc2)ccc1F
REMARK SMILES IDX 14 1 13 2 11 3 12 4 10 6 8 7 9 8 7 9 5 10 4 11 1 12 2 13
REMARK SMILES IDX 3 14 82 15 81 16 83 17 80 18 6 19 15 23 16 24 17 25 18 26
REMARK SMILES IDX 19 28 20 29 21 30 79 31 22 32 78 33 23 34 24 35 25 36 72 37
REMARK SMILES IDX 26 38 77 39 71 40 73 41 27 42 76 43 70 44 69 45 28 47 58 48
REMARK SMILES IDX 39 49 57 50 40 51 43 52 56 53 74 54 41 55 42 56 55 58 75 59
REMARK SMILES IDX 44 60 29 61 30 62 38 63 31 64 37 65 32 66 33 67 34 68 35 69
REMARK SMILES IDX 36 70 59 71 60 72 68 73 61 74 67 75 62 76 63 77 64 78 65 79
REMARK SMILES IDX 66 80 45 81 46 82 54 83 47 84 53 85 48 86 49 87 50 88 51 89
REMARK SMILES IDX 52 90
REMARK H PARENT 13 5 6 20 6 21 6 22 17 27 73 46 43 57
REMARK Flexibility Score: inf
ROOT
ATOM      1  C   UNL A   1      35.970  33.705  30.195  1.00  0.00     0.117 C 
ENDROOT
BRANCH   1   2
ATOM      2  N   UNL A   1      35.877  34.628  31.315  1.00  0.00    -0.356 N 
ATOM      3  C   UNL A   1      35.962  34.390  32.656  1.00  0.00     0.220 C 
ATOM      4  O   UNL A   1      35.855  35.344  33.427  1.00  0.00    -0.275 OA
ATOM      5  H   UNL A   1      35.731  35.570  31.067  1.00  0.00     0.163 HD
BRANCH   3   6
ATOM      6  C   UNL A   1      36.197  32.980  33.185  1.00  0.00     0.103 C 
BRANCH   6   7
ATOM      7  C   UNL A   1      37.670  32.539  33.055  1.00  0.00     0.001 C 
ATOM      8  C   UNL A   1      38.618  33.739  33.266  1.00  0.00     0.008 C 
BRANCH   7   9
ATOM      9  C   UNL A   1      38.042  31.382  34.023  1.00  0.00     0.074 C 
BRANCH   9  10
ATOM     10  C   UNL A   1      38.662  30.130  33.339  1.00  0.00     0.212 C 
BRANCH  10  11
ATOM     11  C   UNL A   1      40.098  29.839  33.739  1.00  0.00     0.010 A 
ATOM     12  C   UNL A   1      42.827  27.340  32.762  1.00  0.00     0.047 C 
ATOM     13  C   UNL A   1      42.116  28.494  33.402  1.00  0.00    -0.015 A 
ATOM     14  C   UNL A   1      40.749  28.714  33.192  1.00  0.00     0.016 A 
ATOM     15  C   UNL A   1      42.818  29.387  34.211  1.00  0.00     0.126 A 
ATOM     16  C   UNL A   1      42.186  30.476  34.803  1.00  0.00     0.040 A 
ATOM     17  F   UNL A   1      44.134  29.216  34.403  1.00  0.00    -0.207 F 
ATOM     18  C   UNL A   1      40.829  30.705  34.566  1.00  0.00     0.013 A 
ENDBRANCH  10  11
BRANCH  10  19
ATOM     19  N   UNL A   1      37.792  28.973  33.586  1.00  0.00    -0.351 N 
ATOM     20  H   UNL A   1      38.043  28.543  34.475  1.00  0.00     0.345 HD
ATOM     21  H   UNL A   1      37.910  28.294  32.834  1.00  0.00     0.345 HD
ATOM     22  H   UNL A   1      36.820  29.280  33.617  1.00  0.00     0.345 HD
ENDBRANCH  10  19
ENDBRANCH   9  10
ENDBRANCH   7   9
ENDBRANCH   6   7
ENDBRANCH   3   6
ENDBRANCH   1   2
BRANCH   1  23
ATOM     23  C   UNL A   1      34.604  33.164  29.774  1.00  0.00     0.042 C 
BRANCH  23  24
ATOM     24  C   UNL A   1      34.471  32.914  28.275  1.00  0.00     0.118 C 
BRANCH  24  25
ATOM     25  N   UNL A   1      33.779  31.667  27.991  1.00  0.00    -0.352 N 
ATOM     26  C   UNL A   1      34.261  30.389  27.835  1.00  0.00     0.251 C 
ATOM     27  H   UNL A   1      32.802  31.752  27.894  1.00  0.00     0.163 HD
ATOM     28  O   UNL A   1      33.513  29.529  27.375  1.00  0.00    -0.269 OA
BRANCH  26  29
ATOM     29  C   UNL A   1      35.655  30.031  28.199  1.00  0.00     0.039 A 
ATOM     30  C   UNL A   1      36.636  30.061  27.202  1.00  0.00     0.014 A 
ATOM     31  C   UNL A   1      35.997  29.595  29.483  1.00  0.00     0.014 A 
ATOM     32  C   UNL A   1      37.956  29.703  27.499  1.00  0.00     0.010 A 
ATOM     33  C   UNL A   1      37.326  29.309  29.797  1.00  0.00     0.010 A 
ATOM     34  C   UNL A   1      38.320  29.347  28.807  1.00  0.00    -0.014 A 
BRANCH  34  35
ATOM     35  C   UNL A   1      39.724  28.997  29.154  1.00  0.00     0.031 A 
ATOM     36  C   UNL A   1      40.620  30.011  29.821  1.00  0.00     0.074 A 
ATOM     37  C   UNL A   1      40.216  27.789  28.818  1.00  0.00     0.049 A 
ATOM     38  N   UNL A   1      41.888  29.917  30.127  1.00  0.00    -0.248 NA
ATOM     39  C   UNL A   1      40.015  31.308  30.166  1.00  0.00     0.031 C 
ATOM     40  C   UNL A   1      39.468  26.725  28.144  1.00  0.00     0.029 A 
ATOM     41  N   UNL A   1      41.468  27.252  28.993  1.00  0.00    -0.354 N 
ATOM     42  C   UNL A   1      42.240  31.145  30.677  1.00  0.00     0.074 A 
ATOM     43  C   UNL A   1      41.060  31.981  30.624  1.00  0.00     0.031 C 
ATOM     44  C   UNL A   1      40.267  25.657  27.983  1.00  0.00     0.029 A 
ATOM     45  C   UNL A   1      41.594  25.972  28.505  1.00  0.00     0.049 A 
ATOM     46  H   UNL A   1      42.206  27.737  29.427  1.00  0.00     0.167 HD
ATOM     47  C   UNL A   1      43.429  31.539  31.192  1.00  0.00     0.031 A 
ATOM     48  C   UNL A   1      42.657  25.145  28.472  1.00  0.00     0.031 A 
ATOM     49  C   UNL A   1      44.598  30.702  31.264  1.00  0.00     0.049 A 
ATOM     50  C   UNL A   1      43.968  25.603  29.050  1.00  0.00     0.074 A 
ATOM     51  C   UNL A   1      45.833  30.993  31.818  1.00  0.00     0.029 A 
ATOM     52  N   UNL A   1      44.677  29.409  30.770  1.00  0.00    -0.354 N 
ATOM     53  N   UNL A   1      44.264  26.752  29.610  1.00  0.00    -0.248 NA
ATOM     54  C   UNL A   1      45.086  24.651  28.999  1.00  0.00     0.031 C 
ATOM     55  C   UNL A   1      46.672  29.891  31.621  1.00  0.00     0.029 A 
ATOM     56  C   UNL A   1      45.944  28.896  30.989  1.00  0.00     0.049 A 
ATOM     57  H   UNL A   1      43.941  28.926  30.329  1.00  0.00     0.167 HD
ATOM     58  C   UNL A   1      45.596  26.652  29.997  1.00  0.00     0.074 A 
ATOM     59  C   UNL A   1      46.043  25.326  29.622  1.00  0.00     0.031 C 
ATOM     60  C   UNL A   1      46.377  27.574  30.610  1.00  0.00     0.031 A 
BRANCH  47  61
ATOM     61  C   UNL A   1      43.530  32.948  31.715  1.00  0.00    -0.014 A 
ATOM     62  C   UNL A   1      44.120  33.969  30.947  1.00  0.00     0.010 A 
ATOM     63  C   UNL A   1      42.997  33.266  32.979  1.00  0.00     0.010 A 
ATOM     64  C   UNL A   1      44.217  35.269  31.451  1.00  0.00     0.020 A 
ATOM     65  C   UNL A   1      43.068  34.571  33.474  1.00  0.00     0.020 A 
ATOM     66  C   UNL A   1      43.696  35.560  32.715  1.00  0.00     0.054 A 
BRANCH  66  67
ATOM     67  S   UNL A   1      43.825  37.259  33.340  1.00  0.00     0.124 S 
ATOM     68  O   UNL A   1      43.849  38.033  32.102  1.00  0.00    -0.237 OA
ATOM     69  O   UNL A   1      42.613  37.399  34.144  1.00  0.00    -0.237 OA
ATOM     70  O   UNL A   1      45.074  37.255  34.098  1.00  0.00    -0.744 OA
ENDBRANCH  66  67
ENDBRANCH  47  61
BRANCH  48  71
ATOM     71  C   UNL A   1      42.521  23.786  27.877  1.00  0.00    -0.014 A 
ATOM     72  C   UNL A   1      42.858  23.561  26.532  1.00  0.00     0.010 A 
ATOM     73  C   UNL A   1      42.072  22.708  28.660  1.00  0.00     0.010 A 
ATOM     74  C   UNL A   1      42.733  22.286  25.973  1.00  0.00     0.020 A 
ATOM     75  C   UNL A   1      41.970  21.425  28.113  1.00  0.00     0.020 A 
ATOM     76  C   UNL A   1      42.291  21.225  26.768  1.00  0.00     0.054 A 
BRANCH  76  77
ATOM     77  S   UNL A   1      42.186  19.567  26.038  1.00  0.00     0.124 S 
ATOM     78  O   UNL A   1      42.608  18.719  27.148  1.00  0.00    -0.237 OA
ATOM     79  O   UNL A   1      40.776  19.471  25.668  1.00  0.00    -0.237 OA
ATOM     80  O   UNL A   1      43.114  19.631  24.911  1.00  0.00    -0.744 OA
ENDBRANCH  76  77
ENDBRANCH  48  71
BRANCH  60  81
ATOM     81  C   UNL A   1      47.790  27.178  30.941  1.00  0.00    -0.014 A 
ATOM     82  C   UNL A   1      48.855  27.495  30.081  1.00  0.00     0.010 A 
ATOM     83  C   UNL A   1      48.062  26.532  32.161  1.00  0.00     0.010 A 
ATOM     84  C   UNL A   1      50.165  27.149  30.422  1.00  0.00     0.020 A 
ATOM     85  C   UNL A   1      49.373  26.207  32.517  1.00  0.00     0.020 A 
ATOM     86  C   UNL A   1      50.417  26.507  31.639  1.00  0.00     0.054 A 
BRANCH  86  87
ATOM     87  S   UNL A   1      52.131  26.114  32.084  1.00  0.00     0.124 S 
ATOM     88  O   UNL A   1      52.515  27.281  32.872  1.00  0.00    -0.237 OA
ATOM     89  O   UNL A   1      51.992  24.866  32.832  1.00  0.00    -0.237 OA
ATOM     90  O   UNL A   1      52.802  25.986  30.792  1.00  0.00    -0.744 OA
ENDBRANCH  86  87
ENDBRANCH  60  81
ENDBRANCH  34  35
ENDBRANCH  26  29
ENDBRANCH  24  25
ENDBRANCH  23  24
ENDBRANCH   1  23
TORSDOF 18
ENDMDL
MODEL 2
REMARK VINA RESULT:      -8.6      1.711      2.741
REMARK SMILES Cc1cc([C@@H]([NH3+])C[C@H](C)CC(=O)NCCCNC(=O)c2ccc(-c3c4nc(c(-c5ccc(S(=O)(=O)[O-])cc5)c5ccc([nH]5)c(-c5ccc(S(=O)(=O)[O-])cc5)c5nc(c(-c6ccc(S(=O)(=O)[O-])cc6)c6ccc3[nH]6)C=C5)C=C4)cc2)ccc1F
REMARK SMILES IDX 14 1 13 2 11 3 12 4 10 6 8 7 9 8 7 9 5 10 4 11 1 12 2 13
REMARK SMILES IDX 3 14 82 15 81 16 83 17 80 18 6 19 15 23 16 24 17 25 18 26
REMARK SMILES IDX 19 28 20 29 21 30 79 31 22 32 78 33 23 34 24 35 25 36 72 37
REMARK SMILES IDX 26 38 77 39 71 40 73 41 27 42 76 43 70 44 69 45 28 47 58 48
REMARK SMILES IDX 39 49 57 50 40 51 43 52 56 53 74 54 41 55 42 56 55 58 75 59
REMARK SMILES IDX 44 60 29 61 30 62 38 63 31 64 37 65 32 66 33 67 34 68 35 69
REMARK SMILES IDX 36 70 59 71 60 72 68 73 61 74 67 75 62 76 63 77 64 78 65 79
REMARK SMILES IDX 66 80 45 81 46 82 54 83 47 84 53 85 48 86 49 87 50 88 51 89
REMARK SMILES IDX 52 90
REMARK H PARENT 13 5 6 20 6 21 6 22 17 27 73 46 43 57
REMARK Flexibility Score: inf
ROOT
ATOM      1  C   UNL A   1      34.746  35.100  28.898  1.00  0.00     0.117 C 
ENDROOT
BRANCH   1   2
ATOM      2  N   UNL A   1      33.840  36.150  29.338  1.00  0.00    -0.356 N 
ATOM      3  C   UNL A   1      33.270  36.358  30.561  1.00  0.00     0.220 C 
ATOM      4  O   UNL A   1      32.527  37.331  30.701  1.00  0.00    -0.275 OA
ATOM      5  H   UNL A   1      33.601  36.810  28.649  1.00  0.00     0.163 HD
BRANCH   3   6
ATOM      6  C   UNL A   1      33.557  35.420  31.726  1.00  0.00     0.103 C 
BRANCH   6   7
ATOM      7  C   UNL A   1      34.493  36.053  32.777  1.00  0.00     0.001 C 
ATOM      8  C   UNL A   1      33.687  36.906  33.780  1.00  0.00     0.008 C 
BRANCH   7   9
ATOM      9  C   UNL A   1      35.353  35.003  33.532  1.00  0.00     0.074 C 
BRANCH   9  10
ATOM     10  C   UNL A   1      35.919  33.858  32.643  1.00  0.00     0.212 C 
BRANCH  10  11
ATOM     11  C   UNL A   1      37.385  34.012  32.276  1.00  0.00     0.010 A 
ATOM     12  C   UNL A   1      39.423  34.694  29.109  1.00  0.00     0.047 C 
ATOM     13  C   UNL A   1      39.056  34.464  30.544  1.00  0.00    -0.015 A 
ATOM     14  C   UNL A   1      37.742  34.160  30.920  1.00  0.00     0.016 A 
ATOM     15  C   UNL A   1      40.026  34.569  31.541  1.00  0.00     0.126 A 
ATOM     16  C   UNL A   1      39.709  34.377  32.882  1.00  0.00     0.040 A 
ATOM     17  F   UNL A   1      41.285  34.889  31.211  1.00  0.00    -0.207 F 
ATOM     18  C   UNL A   1      38.391  34.102  33.251  1.00  0.00     0.013 A 
ENDBRANCH  10  11
BRANCH  10  19
ATOM     19  N   UNL A   1      35.663  32.573  33.303  1.00  0.00    -0.351 N 
ATOM     20  H   UNL A   1      34.669  32.487  33.506  1.00  0.00     0.345 HD
ATOM     21  H   UNL A   1      36.193  32.527  34.173  1.00  0.00     0.345 HD
ATOM     22  H   UNL A   1      35.953  31.812  32.688  1.00  0.00     0.345 HD
ENDBRANCH  10  19
ENDBRANCH   9  10
ENDBRANCH   7   9
ENDBRANCH   6   7
ENDBRANCH   3   6
ENDBRANCH   1   2
BRANCH   1  23
ATOM     23  C   UNL A   1      34.003  33.834  28.472  1.00  0.00     0.042 C 
BRANCH  23  24
ATOM     24  C   UNL A   1      34.629  32.544  28.992  1.00  0.00     0.118 C 
BRANCH  24  25
ATOM     25  N   UNL A   1      34.009  31.364  28.410  1.00  0.00    -0.352 N 
ATOM     26  C   UNL A   1      34.561  30.177  27.989  1.00  0.00     0.251 C 
ATOM     27  H   UNL A   1      33.032  31.425  28.298  1.00  0.00     0.163 HD
ATOM     28  O   UNL A   1      33.872  29.411  27.321  1.00  0.00    -0.269 OA
BRANCH  26  29
ATOM     29  C   UNL A   1      35.962  29.809  28.315  1.00  0.00     0.039 A 
ATOM     30  C   UNL A   1      36.932  29.907  27.310  1.00  0.00     0.014 A 
ATOM     31  C   UNL A   1      36.322  29.299  29.566  1.00  0.00     0.014 A 
ATOM     32  C   UNL A   1      38.257  29.542  27.571  1.00  0.00     0.010 A 
ATOM     33  C   UNL A   1      37.657  29.005  29.848  1.00  0.00     0.010 A 
ATOM     34  C   UNL A   1      38.639  29.111  28.851  1.00  0.00    -0.014 A 
BRANCH  34  35
ATOM     35  C   UNL A   1      40.049  28.752  29.160  1.00  0.00     0.031 A 
ATOM     36  C   UNL A   1      40.966  29.757  29.811  1.00  0.00     0.074 A 
ATOM     37  C   UNL A   1      40.527  27.543  28.804  1.00  0.00     0.049 A 
ATOM     38  N   UNL A   1      42.242  29.655  30.084  1.00  0.00    -0.248 NA
ATOM     39  C   UNL A   1      40.377  31.054  30.179  1.00  0.00     0.031 C 
ATOM     40  C   UNL A   1      39.756  26.487  28.143  1.00  0.00     0.029 A 
ATOM     41  N   UNL A   1      41.780  26.999  28.944  1.00  0.00    -0.354 N 
ATOM     42  C   UNL A   1      42.613  30.877  30.633  1.00  0.00     0.074 A 
ATOM     43  C   UNL A   1      41.437  31.719  30.616  1.00  0.00     0.031 C 
ATOM     44  C   UNL A   1      40.546  25.417  27.955  1.00  0.00     0.029 A 
ATOM     45  C   UNL A   1      41.887  25.721  28.445  1.00  0.00     0.049 A 
ATOM     46  H   UNL A   1      42.531  27.477  29.363  1.00  0.00     0.167 HD
ATOM     47  C   UNL A   1      43.817  31.262  31.121  1.00  0.00     0.031 A 
ATOM     48  C   UNL A   1      42.945  24.890  28.380  1.00  0.00     0.031 A 
ATOM     49  C   UNL A   1      44.984  30.419  31.158  1.00  0.00     0.049 A 
ATOM     50  C   UNL A   1      44.272  25.337  28.928  1.00  0.00     0.074 A 
ATOM     51  C   UNL A   1      46.233  30.700  31.683  1.00  0.00     0.029 A 
ATOM     52  N   UNL A   1      45.043  29.128  30.655  1.00  0.00    -0.354 N 
ATOM     53  N   UNL A   1      44.588  26.481  29.487  1.00  0.00    -0.248 NA
ATOM     54  C   UNL A   1      45.383  24.380  28.843  1.00  0.00     0.031 C 
ATOM     55  C   UNL A   1      47.062  29.595  31.458  1.00  0.00     0.029 A 
ATOM     56  C   UNL A   1      46.313  28.607  30.838  1.00  0.00     0.049 A 
ATOM     57  H   UNL A   1      44.294  28.652  30.229  1.00  0.00     0.167 HD
ATOM     58  C   UNL A   1      45.928  26.372  29.841  1.00  0.00     0.074 A 
ATOM     59  C   UNL A   1      46.359  25.047  29.446  1.00  0.00     0.031 C 
ATOM     60  C   UNL A   1      46.729  27.286  30.440  1.00  0.00     0.031 A 
BRANCH  47  61
ATOM     61  C   UNL A   1      43.938  32.667  31.651  1.00  0.00    -0.014 A 
ATOM     62  C   UNL A   1      43.570  32.980  32.973  1.00  0.00     0.010 A 
ATOM     63  C   UNL A   1      44.459  33.684  30.829  1.00  0.00     0.010 A 
ATOM     64  C   UNL A   1      43.676  34.290  33.447  1.00  0.00     0.020 A 
ATOM     65  C   UNL A   1      44.592  34.990  31.309  1.00  0.00     0.020 A 
ATOM     66  C   UNL A   1      44.181  35.288  32.609  1.00  0.00     0.054 A 
BRANCH  66  67
ATOM     67  S   UNL A   1      44.319  36.979  33.253  1.00  0.00     0.124 S 
ATOM     68  O   UNL A   1      43.018  37.163  33.891  1.00  0.00    -0.237 OA
ATOM     69  O   UNL A   1      45.457  36.884  34.165  1.00  0.00    -0.237 OA
ATOM     70  O   UNL A   1      44.548  37.788  32.059  1.00  0.00    -0.744 OA
ENDBRANCH  66  67
ENDBRANCH  47  61
BRANCH  48  71
ATOM     71  C   UNL A   1      42.787  23.536  27.780  1.00  0.00    -0.014 A 
ATOM     72  C   UNL A   1      42.406  22.444  28.579  1.00  0.00     0.010 A 
ATOM     73  C   UNL A   1      43.000  23.336  26.405  1.00  0.00     0.010 A 
ATOM     74  C   UNL A   1      42.255  21.173  28.017  1.00  0.00     0.020 A 
ATOM     75  C   UNL A   1      42.825  22.072  25.834  1.00  0.00     0.020 A 
ATOM     76  C   UNL A   1      42.465  20.995  26.646  1.00  0.00     0.054 A 
BRANCH  76  77
ATOM     77  S   UNL A   1      42.212  19.347  25.928  1.00  0.00     0.124 S 
ATOM     78  O   UNL A   1      40.768  19.325  25.722  1.00  0.00    -0.237 OA
ATOM     79  O   UNL A   1      43.024  19.402  24.714  1.00  0.00    -0.237 OA
ATOM     80  O   UNL A   1      42.712  18.444  26.962  1.00  0.00    -0.744 OA
ENDBRANCH  76  77
ENDBRANCH  48  71
BRANCH  60  81
ATOM     81  C   UNL A   1      48.148  26.881  30.733  1.00  0.00    -0.014 A 
ATOM     82  C   UNL A   1      49.194  27.206  29.852  1.00  0.00     0.010 A 
ATOM     83  C   UNL A   1      48.446  26.217  31.938  1.00  0.00     0.010 A 
ATOM     84  C   UNL A   1      50.511  26.851  30.159  1.00  0.00     0.020 A 
ATOM     85  C   UNL A   1      49.764  25.883  32.259  1.00  0.00     0.020 A 
ATOM     86  C   UNL A   1      50.788  26.192  31.361  1.00  0.00     0.054 A 
BRANCH  86  87
ATOM     87  S   UNL A   1      52.510  25.787  31.761  1.00  0.00     0.124 S 
ATOM     88  O   UNL A   1      52.802  26.729  32.837  1.00  0.00    -0.237 OA
ATOM     89  O   UNL A   1      52.428  24.383  32.159  1.00  0.00    -0.237 OA
ATOM     90  O   UNL A   1      53.222  26.032  30.508  1.00  0.00    -0.744 OA
ENDBRANCH  86  87
ENDBRANCH  60  81
ENDBRANCH  34  35
ENDBRANCH  26  29
ENDBRANCH  24  25
ENDBRANCH  23  24
ENDBRANCH   1  23
TORSDOF 18
ENDMDL
MODEL 3
REMARK VINA RESULT:      -8.5      3.514      6.163
REMARK SMILES Cc1cc([C@@H]([NH3+])C[C@H](C)CC(=O)NCCCNC(=O)c2ccc(-c3c4nc(c(-c5ccc(S(=O)(=O)[O-])cc5)c5ccc([nH]5)c(-c5ccc(S(=O)(=O)[O-])cc5)c5nc(c(-c6ccc(S(=O)(=O)[O-])cc6)c6ccc3[nH]6)C=C5)C=C4)cc2)ccc1F
REMARK SMILES IDX 14 1 13 2 11 3 12 4 10 6 8 7 9 8 7 9 5 10 4 11 1 12 2 13
REMARK SMILES IDX 3 14 82 15 81 16 83 17 80 18 6 19 15 23 16 24 17 25 18 26
REMARK SMILES IDX 19 28 20 29 21 30 79 31 22 32 78 33 23 34 24 35 25 36 72 37
REMARK SMILES IDX 26 38 77 39 71 40 73 41 27 42 76 43 70 44 69 45 28 47 58 48
REMARK SMILES IDX 39 49 57 50 40 51 43 52 56 53 74 54 41 55 42 56 55 58 75 59
REMARK SMILES IDX 44 60 29 61 30 62 38 63 31 64 37 65 32 66 33 67 34 68 35 69
REMARK SMILES IDX 36 70 59 71 60 72 68 73 61 74 67 75 62 76 63 77 64 78 65 79
REMARK SMILES IDX 66 80 45 81 46 82 54 83 47 84 53 85 48 86 49 87 50 88 51 89
REMARK SMILES IDX 52 90
REMARK H PARENT 13 5 6 20 6 21 6 22 17 27 73 46 43 57
REMARK Flexibility Score: inf
ROOT
ATOM      1  C   UNL A   1      33.633  28.270  24.644  1.00  0.00     0.117 C 
ENDROOT
BRANCH   1   2
ATOM      2  N   UNL A   1      33.974  27.540  23.433  1.00  0.00    -0.356 N 
ATOM      3  C   UNL A   1      33.177  26.821  22.590  1.00  0.00     0.220 C 
ATOM      4  O   UNL A   1      33.697  26.284  21.611  1.00  0.00    -0.275 OA
ATOM      5  H   UNL A   1      34.926  27.569  23.184  1.00  0.00     0.163 HD
BRANCH   3   6
ATOM      6  C   UNL A   1      31.681  26.697  22.847  1.00  0.00     0.103 C 
BRANCH   6   7
ATOM      7  C   UNL A   1      31.360  25.748  24.020  1.00  0.00     0.001 C 
ATOM      8  C   UNL A   1      30.359  26.406  24.994  1.00  0.00     0.008 C 
BRANCH   7   9
ATOM      9  C   UNL A   1      30.825  24.366  23.552  1.00  0.00     0.074 C 
BRANCH   9  10
ATOM     10  C   UNL A   1      31.399  23.145  24.326  1.00  0.00     0.212 C 
BRANCH  10  11
ATOM     11  C   UNL A   1      32.856  23.283  24.731  1.00  0.00     0.010 A 
ATOM     12  C   UNL A   1      36.270  23.100  23.011  1.00  0.00     0.047 C 
ATOM     13  C   UNL A   1      35.208  23.298  24.050  1.00  0.00    -0.015 A 
ATOM     14  C   UNL A   1      33.862  23.030  23.775  1.00  0.00     0.016 A 
ATOM     15  C   UNL A   1      35.547  23.775  25.316  1.00  0.00     0.126 A 
ATOM     16  C   UNL A   1      34.579  23.985  26.293  1.00  0.00     0.040 A 
ATOM     17  F   UNL A   1      36.825  24.069  25.595  1.00  0.00    -0.207 F 
ATOM     18  C   UNL A   1      33.235  23.742  26.002  1.00  0.00     0.013 A 
ENDBRANCH  10  11
BRANCH  10  19
ATOM     19  N   UNL A   1      30.543  22.874  25.487  1.00  0.00    -0.351 N 
ATOM     20  H   UNL A   1      31.081  22.378  26.197  1.00  0.00     0.345 HD
ATOM     21  H   UNL A   1      29.751  22.300  25.199  1.00  0.00     0.345 HD
ATOM     22  H   UNL A   1      30.203  23.755  25.871  1.00  0.00     0.345 HD
ENDBRANCH  10  19
ENDBRANCH   9  10
ENDBRANCH   7   9
ENDBRANCH   6   7
ENDBRANCH   3   6
ENDBRANCH   1   2
BRANCH   1  23
ATOM     23  C   UNL A   1      34.075  27.535  25.909  1.00  0.00     0.042 C 
BRANCH  23  24
ATOM     24  C   UNL A   1      33.412  28.044  27.185  1.00  0.00     0.118 C 
BRANCH  24  25
ATOM     25  N   UNL A   1      33.342  29.496  27.220  1.00  0.00    -0.352 N 
ATOM     26  C   UNL A   1      34.234  30.424  27.702  1.00  0.00     0.251 C 
ATOM     27  H   UNL A   1      32.519  29.877  26.835  1.00  0.00     0.163 HD
ATOM     28  O   UNL A   1      33.861  31.589  27.830  1.00  0.00    -0.269 OA
BRANCH  26  29
ATOM     29  C   UNL A   1      35.622  30.053  28.076  1.00  0.00     0.039 A 
ATOM     30  C   UNL A   1      36.604  30.042  27.079  1.00  0.00     0.014 A 
ATOM     31  C   UNL A   1      35.955  29.642  29.370  1.00  0.00     0.014 A 
ATOM     32  C   UNL A   1      37.917  29.670  27.387  1.00  0.00     0.010 A 
ATOM     33  C   UNL A   1      37.280  29.342  29.693  1.00  0.00     0.010 A 
ATOM     34  C   UNL A   1      38.274  29.341  28.703  1.00  0.00    -0.014 A 
BRANCH  34  35
ATOM     35  C   UNL A   1      39.672  28.976  29.060  1.00  0.00     0.031 A 
ATOM     36  C   UNL A   1      40.579  29.985  29.719  1.00  0.00     0.074 A 
ATOM     37  C   UNL A   1      40.150  27.757  28.740  1.00  0.00     0.049 A 
ATOM     38  N   UNL A   1      41.845  29.878  30.032  1.00  0.00    -0.248 NA
ATOM     39  C   UNL A   1      39.990  31.293  30.047  1.00  0.00     0.031 C 
ATOM     40  C   UNL A   1      39.391  26.696  28.075  1.00  0.00     0.029 A 
ATOM     41  N   UNL A   1      41.394  27.206  28.926  1.00  0.00    -0.354 N 
ATOM     42  C   UNL A   1      42.210  31.108  30.570  1.00  0.00     0.074 A 
ATOM     43  C   UNL A   1      41.041  31.958  30.503  1.00  0.00     0.031 C 
ATOM     44  C   UNL A   1      40.176  25.616  27.929  1.00  0.00     0.029 A 
ATOM     45  C   UNL A   1      41.505  25.919  28.453  1.00  0.00     0.049 A 
ATOM     46  H   UNL A   1      42.137  27.687  29.357  1.00  0.00     0.167 HD
ATOM     47  C   UNL A   1      43.402  31.492  31.085  1.00  0.00     0.031 A 
ATOM     48  C   UNL A   1      42.558  25.078  28.433  1.00  0.00     0.031 A 
ATOM     49  C   UNL A   1      44.560  30.640  31.172  1.00  0.00     0.049 A 
ATOM     50  C   UNL A   1      43.872  25.526  29.012  1.00  0.00     0.074 A 
ATOM     51  C   UNL A   1      45.796  30.922  31.728  1.00  0.00     0.029 A 
ATOM     52  N   UNL A   1      44.624  29.341  30.693  1.00  0.00    -0.354 N 
ATOM     53  N   UNL A   1      44.181  26.676  29.560  1.00  0.00    -0.248 NA
ATOM     54  C   UNL A   1      44.978  24.558  28.976  1.00  0.00     0.031 C 
ATOM     55  C   UNL A   1      46.622  29.806  31.547  1.00  0.00     0.029 A 
ATOM     56  C   UNL A   1      45.883  28.814  30.923  1.00  0.00     0.049 A 
ATOM     57  H   UNL A   1      43.883  28.863  30.254  1.00  0.00     0.167 HD
ATOM     58  C   UNL A   1      45.510  26.563  29.955  1.00  0.00     0.074 A 
ATOM     59  C   UNL A   1      45.941  25.228  29.596  1.00  0.00     0.031 C 
ATOM     60  C   UNL A   1      46.300  27.483  30.561  1.00  0.00     0.031 A 
BRANCH  47  61
ATOM     61  C   UNL A   1      43.519  32.905  31.594  1.00  0.00    -0.014 A 
ATOM     62  C   UNL A   1      43.192  33.229  32.924  1.00  0.00     0.010 A 
ATOM     63  C   UNL A   1      43.995  33.919  30.742  1.00  0.00     0.010 A 
ATOM     64  C   UNL A   1      43.294  34.546  33.378  1.00  0.00     0.020 A 
ATOM     65  C   UNL A   1      44.124  35.234  31.201  1.00  0.00     0.020 A 
ATOM     66  C   UNL A   1      43.753  35.542  32.511  1.00  0.00     0.054 A 
BRANCH  66  67
ATOM     67  S   UNL A   1      43.887  37.243  33.129  1.00  0.00     0.124 S 
ATOM     68  O   UNL A   1      45.174  37.209  33.821  1.00  0.00    -0.237 OA
ATOM     69  O   UNL A   1      43.855  38.035  31.903  1.00  0.00    -0.237 OA
ATOM     70  O   UNL A   1      42.719  37.390  33.994  1.00  0.00    -0.744 OA
ENDBRANCH  66  67
ENDBRANCH  47  61
BRANCH  48  71
ATOM     71  C   UNL A   1      42.406  23.715  27.854  1.00  0.00    -0.014 A 
ATOM     72  C   UNL A   1      41.951  22.650  28.649  1.00  0.00     0.010 A 
ATOM     73  C   UNL A   1      42.699  23.480  26.498  1.00  0.00     0.010 A 
ATOM     74  C   UNL A   1      41.807  21.370  28.106  1.00  0.00     0.020 A 
ATOM     75  C   UNL A   1      42.532  22.208  25.944  1.00  0.00     0.020 A 
ATOM     76  C   UNL A   1      42.097  21.157  26.755  1.00  0.00     0.054 A 
BRANCH  76  77
ATOM     77  S   UNL A   1      41.852  19.500  26.057  1.00  0.00     0.124 S 
ATOM     78  O   UNL A   1      40.415  19.487  25.805  1.00  0.00    -0.237 OA
ATOM     79  O   UNL A   1      42.702  19.527  24.869  1.00  0.00    -0.237 OA
ATOM     80  O   UNL A   1      42.310  18.610  27.121  1.00  0.00    -0.744 OA
ENDBRANCH  76  77
ENDBRANCH  48  71
BRANCH  60  81
ATOM     81  C   UNL A   1      47.707  27.072  30.902  1.00  0.00    -0.014 A 
ATOM     82  C   UNL A   1      48.772  27.322  30.021  1.00  0.00     0.010 A 
ATOM     83  C   UNL A   1      47.973  26.480  32.150  1.00  0.00     0.010 A 
ATOM     84  C   UNL A   1      50.077  26.964  30.371  1.00  0.00     0.020 A 
ATOM     85  C   UNL A   1      49.279  26.143  32.514  1.00  0.00     0.020 A 
ATOM     86  C   UNL A   1      50.323  26.377  31.616  1.00  0.00     0.054 A 
BRANCH  86  87
ATOM     87  S   UNL A   1      52.031  25.969  32.069  1.00  0.00     0.124 S 
ATOM     88  O   UNL A   1      52.281  26.888  33.174  1.00  0.00    -0.237 OA
ATOM     89  O   UNL A   1      51.939  24.556  32.434  1.00  0.00    -0.237 OA
ATOM     90  O   UNL A   1      52.786  26.241  30.848  1.00  0.00    -0.744 OA
ENDBRANCH  86  87
ENDBRANCH  60  81
ENDBRANCH  34  35
ENDBRANCH  26  29
ENDBRANCH  24  25
ENDBRANCH  23  24
ENDBRANCH   1  23
TORSDOF 18
ENDMDL
