MODEL 1
REMARK VINA RESULT:     -11.4      0.000      0.000
REMARK SMILES O=C(NCCCNC(=O)c1ccc(S(=O)(=O)N[C@@H]2CC[N@@H+]3CCC[C@H]23)cc1)c1ccc(-c2c3nc(c(-c4ccc(S(=O)(=O)[O-])cc4)c4ccc([nH]4)c(-c4ccc(S(=O)(=O)[O-])cc4)c4nc(c(-c5ccc(S(=O)(=O)[O-])cc5)c5ccc2[nH]5)C=C4)C=C3)cc1
REMARK SMILES IDX 5 1 4 2 3 3 1 4 2 5 28 7 29 8 87 9 30 10 86 11 31 12 32 13
REMARK SMILES IDX 33 14 80 15 34 16 85 17 79 18 81 19 35 20 84 21 78 22 77 23
REMARK SMILES IDX 36 25 66 26 47 27 65 28 48 29 51 30 64 31 82 32 49 33 50 34
REMARK SMILES IDX 63 36 83 37 52 38 37 39 38 40 46 41 39 42 45 43 40 44 41 45
REMARK SMILES IDX 42 46 43 47 44 48 67 49 68 50 76 51 69 52 75 53 70 54 71 55
REMARK SMILES IDX 72 56 73 57 74 58 53 59 54 60 62 61 55 62 61 63 56 64 57 65
REMARK SMILES IDX 58 66 59 67 60 68 6 69 7 70 8 71 9 73 10 74 11 75 27 76
REMARK SMILES IDX 12 77 26 78 13 79 14 80 15 81 16 82 17 83 18 85 19 86 25 87
REMARK SMILES IDX 20 88 21 89 24 90 22 91 23 93
REMARK H PARENT 3 6 81 24 51 35 7 72 17 84 21 92
REMARK Flexibility Score: inf
ROOT
ATOM      1  C   UNL A   1      33.248  28.575  25.611  1.00  0.00     0.042 C 
ENDROOT
BRANCH   1   2
ATOM      2  C   UNL A   1      33.840  28.677  27.008  1.00  0.00     0.118 C 
BRANCH   2   3
ATOM      3  N   UNL A   1      33.781  30.041  27.511  1.00  0.00    -0.352 N 
ATOM      4  O   UNL A   1      34.358  31.758  28.841  1.00  0.00    -0.269 OA
ATOM      5  C   UNL A   1      34.690  30.710  28.294  1.00  0.00     0.251 C 
ATOM      6  H   UNL A   1      32.981  30.554  27.254  1.00  0.00     0.163 HD
BRANCH   5   7
ATOM      7  C   UNL A   1      36.057  30.170  28.481  1.00  0.00     0.039 A 
ATOM      8  C   UNL A   1      37.015  30.284  27.470  1.00  0.00     0.014 A 
ATOM      9  C   UNL A   1      36.405  29.598  29.709  1.00  0.00     0.014 A 
ATOM     10  C   UNL A   1      38.282  29.743  27.647  1.00  0.00     0.010 A 
ATOM     11  C   UNL A   1      37.706  29.130  29.918  1.00  0.00     0.010 A 
ATOM     12  C   UNL A   1      38.654  29.197  28.886  1.00  0.00    -0.014 A 
BRANCH  12  13
ATOM     13  C   UNL A   1      40.076  28.842  29.116  1.00  0.00     0.031 A 
ATOM     14  C   UNL A   1      40.638  27.519  28.684  1.00  0.00     0.074 A 
ATOM     15  C   UNL A   1      40.862  29.757  29.720  1.00  0.00     0.049 A 
ATOM     16  N   UNL A   1      41.864  27.076  28.801  1.00  0.00    -0.248 NA
ATOM     17  C   UNL A   1      39.715  26.567  28.048  1.00  0.00     0.031 C 
ATOM     18  C   UNL A   1      40.411  31.067  30.205  1.00  0.00     0.029 A 
ATOM     19  N   UNL A   1      42.200  29.739  30.019  1.00  0.00    -0.354 N 
ATOM     20  C   UNL A   1      41.857  25.789  28.277  1.00  0.00     0.074 A 
ATOM     21  C   UNL A   1      40.503  25.517  27.846  1.00  0.00     0.031 C 
ATOM     22  C   UNL A   1      41.460  31.741  30.698  1.00  0.00     0.029 A 
ATOM     23  C   UNL A   1      42.641  30.892  30.626  1.00  0.00     0.049 A 
ATOM     24  H   UNL A   1      42.788  28.976  29.817  1.00  0.00     0.167 HD
ATOM     25  C   UNL A   1      42.891  24.920  28.169  1.00  0.00     0.031 A 
ATOM     26  C   UNL A   1      43.857  31.224  31.100  1.00  0.00     0.031 A 
ATOM     27  C   UNL A   1      44.238  25.210  28.590  1.00  0.00     0.049 A 
ATOM     28  C   UNL A   1      44.975  30.232  30.977  1.00  0.00     0.074 A 
ATOM     29  C   UNL A   1      45.366  24.417  28.462  1.00  0.00     0.029 A 
ATOM     30  N   UNL A   1      44.639  26.374  29.226  1.00  0.00    -0.354 N 
ATOM     31  N   UNL A   1      44.959  29.044  30.420  1.00  0.00    -0.248 NA
ATOM     32  C   UNL A   1      46.269  30.618  31.552  1.00  0.00     0.031 C 
ATOM     33  C   UNL A   1      46.438  25.080  29.069  1.00  0.00     0.029 A 
ATOM     34  C   UNL A   1      45.988  26.305  29.533  1.00  0.00     0.049 A 
ATOM     35  H   UNL A   1      44.052  27.137  29.431  1.00  0.00     0.167 HD
ATOM     36  C   UNL A   1      46.242  28.537  30.584  1.00  0.00     0.074 A 
ATOM     37  C   UNL A   1      47.014  29.562  31.259  1.00  0.00     0.031 C 
ATOM     38  C   UNL A   1      46.732  27.328  30.220  1.00  0.00     0.031 A 
BRANCH  25  39
ATOM     39  C   UNL A   1      42.617  23.556  27.595  1.00  0.00    -0.014 A 
ATOM     40  C   UNL A   1      42.928  23.253  26.259  1.00  0.00     0.010 A 
ATOM     41  C   UNL A   1      42.139  22.535  28.438  1.00  0.00     0.010 A 
ATOM     42  C   UNL A   1      42.755  21.954  25.771  1.00  0.00     0.020 A 
ATOM     43  C   UNL A   1      41.982  21.231  27.959  1.00  0.00     0.020 A 
ATOM     44  C   UNL A   1      42.284  20.950  26.625  1.00  0.00     0.054 A 
BRANCH  44  45
ATOM     45  S   UNL A   1      42.130  19.259  25.984  1.00  0.00     0.124 S 
ATOM     46  O   UNL A   1      40.689  19.153  25.762  1.00  0.00    -0.237 OA
ATOM     47  O   UNL A   1      42.948  19.298  24.774  1.00  0.00    -0.237 OA
ATOM     48  O   UNL A   1      42.656  18.428  27.062  1.00  0.00    -0.744 OA
ENDBRANCH  44  45
ENDBRANCH  25  39
BRANCH  26  49
ATOM     49  C   UNL A   1      44.057  32.530  31.780  1.00  0.00    -0.014 A 
ATOM     50  C   UNL A   1      44.491  33.658  31.064  1.00  0.00     0.010 A 
ATOM     51  C   UNL A   1      43.800  32.650  33.159  1.00  0.00     0.010 A 
ATOM     52  C   UNL A   1      44.686  34.878  31.719  1.00  0.00     0.020 A 
ATOM     53  C   UNL A   1      43.965  33.873  33.811  1.00  0.00     0.020 A 
ATOM     54  C   UNL A   1      44.424  34.976  33.089  1.00  0.00     0.054 A 
BRANCH  54  55
ATOM     55  S   UNL A   1      44.643  36.575  33.920  1.00  0.00     0.124 S 
ATOM     56  O   UNL A   1      46.093  36.635  34.080  1.00  0.00    -0.237 OA
ATOM     57  O   UNL A   1      44.072  37.516  32.959  1.00  0.00    -0.237 OA
ATOM     58  O   UNL A   1      43.881  36.422  35.156  1.00  0.00    -0.744 OA
ENDBRANCH  54  55
ENDBRANCH  26  49
BRANCH  38  59
ATOM     59  C   UNL A   1      48.170  27.052  30.553  1.00  0.00    -0.014 A 
ATOM     60  C   UNL A   1      49.194  27.413  29.659  1.00  0.00     0.010 A 
ATOM     61  C   UNL A   1      48.504  26.458  31.782  1.00  0.00     0.010 A 
ATOM     62  C   UNL A   1      50.528  27.156  29.977  1.00  0.00     0.020 A 
ATOM     63  C   UNL A   1      49.840  26.223  32.114  1.00  0.00     0.020 A 
ATOM     64  C   UNL A   1      50.843  26.560  31.203  1.00  0.00     0.054 A 
BRANCH  64  65
ATOM     65  S   UNL A   1      52.586  26.272  31.612  1.00  0.00     0.124 S 
ATOM     66  O   UNL A   1      52.875  27.386  32.510  1.00  0.00    -0.237 OA
ATOM     67  O   UNL A   1      52.556  24.951  32.236  1.00  0.00    -0.237 OA
ATOM     68  O   UNL A   1      53.257  26.325  30.315  1.00  0.00    -0.744 OA
ENDBRANCH  64  65
ENDBRANCH  38  59
ENDBRANCH  12  13
ENDBRANCH   5   7
ENDBRANCH   2   3
ENDBRANCH   1   2
BRANCH   1  69
ATOM     69  C   UNL A   1      31.723  28.512  25.624  1.00  0.00     0.118 C 
BRANCH  69  70
ATOM     70  N   UNL A   1      31.190  28.836  24.312  1.00  0.00    -0.352 N 
ATOM     71  C   UNL A   1      31.068  28.102  23.160  1.00  0.00     0.251 C 
ATOM     72  H   UNL A   1      30.851  29.757  24.236  1.00  0.00     0.163 HD
ATOM     73  O   UNL A   1      30.581  28.658  22.175  1.00  0.00    -0.269 OA
BRANCH  71  74
ATOM     74  C   UNL A   1      31.398  26.652  23.082  1.00  0.00     0.039 A 
ATOM     75  C   UNL A   1      30.423  25.762  23.563  1.00  0.00     0.015 A 
ATOM     76  C   UNL A   1      32.604  26.132  22.601  1.00  0.00     0.015 A 
ATOM     77  C   UNL A   1      30.704  24.401  23.701  1.00  0.00     0.022 A 
ATOM     78  C   UNL A   1      32.897  24.774  22.741  1.00  0.00     0.022 A 
ATOM     79  C   UNL A   1      31.967  23.929  23.347  1.00  0.00     0.082 A 
BRANCH  79  80
ATOM     80  S   UNL A   1      32.435  22.258  23.703  1.00  0.00     0.241 S 
ATOM     81  O   UNL A   1      31.642  21.806  24.824  1.00  0.00    -0.207 OA
ATOM     82  O   UNL A   1      32.431  21.557  22.443  1.00  0.00    -0.207 OA
BRANCH  80  83
ATOM     83  N   UNL A   1      34.053  22.412  24.128  1.00  0.00    -0.202 NA
ATOM     84  H   UNL A   1      34.409  23.135  23.504  1.00  0.00     0.141 HD
BRANCH  83  85
ATOM     85  C   UNL A   1      34.658  22.734  25.441  1.00  0.00     0.133 C 
ATOM     86  C   UNL A   1      35.352  24.073  25.613  1.00  0.00     0.087 C 
ATOM     87  C   UNL A   1      35.741  21.739  25.932  1.00  0.00     0.202 C 
ATOM     88  C   UNL A   1      36.794  23.754  25.270  1.00  0.00     0.264 C 
ATOM     89  N   UNL A   1      37.013  22.500  25.998  1.00  0.00    -0.331 N 
ATOM     90  C   UNL A   1      36.024  20.449  25.177  1.00  0.00     0.072 C 
ATOM     91  C   UNL A   1      38.082  21.673  25.443  1.00  0.00     0.262 C 
ATOM     92  H   UNL A   1      37.298  22.731  26.949  1.00  0.00     0.348 HD
ATOM     93  C   UNL A   1      37.407  20.627  24.580  1.00  0.00     0.068 C 
ENDBRANCH  83  85
ENDBRANCH  80  83
ENDBRANCH  79  80
ENDBRANCH  71  74
ENDBRANCH  69  70
ENDBRANCH   1  69
TORSDOF 16
ENDMDL
MODEL 2
REMARK VINA RESULT:     -11.4      1.727      2.643
REMARK SMILES O=C(NCCCNC(=O)c1ccc(S(=O)(=O)N[C@@H]2CC[N@@H+]3CCC[C@H]23)cc1)c1ccc(-c2c3nc(c(-c4ccc(S(=O)(=O)[O-])cc4)c4ccc([nH]4)c(-c4ccc(S(=O)(=O)[O-])cc4)c4nc(c(-c5ccc(S(=O)(=O)[O-])cc5)c5ccc2[nH]5)C=C4)C=C3)cc1
REMARK SMILES IDX 5 1 4 2 3 3 1 4 2 5 28 7 29 8 87 9 30 10 86 11 31 12 32 13
REMARK SMILES IDX 33 14 80 15 34 16 85 17 79 18 81 19 35 20 84 21 78 22 77 23
REMARK SMILES IDX 36 25 66 26 47 27 65 28 48 29 51 30 64 31 82 32 49 33 50 34
REMARK SMILES IDX 63 36 83 37 52 38 37 39 38 40 46 41 39 42 45 43 40 44 41 45
REMARK SMILES IDX 42 46 43 47 44 48 67 49 68 50 76 51 69 52 75 53 70 54 71 55
REMARK SMILES IDX 72 56 73 57 74 58 53 59 54 60 62 61 55 62 61 63 56 64 57 65
REMARK SMILES IDX 58 66 59 67 60 68 6 69 7 70 8 71 9 73 10 74 11 75 27 76
REMARK SMILES IDX 12 77 26 78 13 79 14 80 15 81 16 82 17 83 18 85 19 86 25 87
REMARK SMILES IDX 20 88 21 89 24 90 22 91 23 93
REMARK H PARENT 3 6 81 24 51 35 7 72 17 84 21 92
REMARK Flexibility Score: inf
ROOT
ATOM      1  C   UNL A   1      32.139  27.961  27.361  1.00  0.00     0.042 C 
ENDROOT
BRANCH   1   2
ATOM      2  C   UNL A   1      33.538  28.551  27.269  1.00  0.00     0.118 C 
BRANCH   2   3
ATOM      3  N   UNL A   1      33.528  29.983  27.519  1.00  0.00    -0.352 N 
ATOM      4  O   UNL A   1      34.197  31.895  28.491  1.00  0.00    -0.269 OA
ATOM      5  C   UNL A   1      34.484  30.758  28.130  1.00  0.00     0.251 C 
ATOM      6  H   UNL A   1      32.727  30.463  27.207  1.00  0.00     0.163 HD
BRANCH   5   7
ATOM      7  C   UNL A   1      35.848  30.224  28.354  1.00  0.00     0.039 A 
ATOM      8  C   UNL A   1      36.819  30.299  27.352  1.00  0.00     0.014 A 
ATOM      9  C   UNL A   1      36.180  29.698  29.607  1.00  0.00     0.014 A 
ATOM     10  C   UNL A   1      38.083  29.764  27.565  1.00  0.00     0.010 A 
ATOM     11  C   UNL A   1      37.478  29.237  29.849  1.00  0.00     0.010 A 
ATOM     12  C   UNL A   1      38.438  29.264  28.828  1.00  0.00    -0.014 A 
BRANCH  12  13
ATOM     13  C   UNL A   1      39.857  28.917  29.089  1.00  0.00     0.031 A 
ATOM     14  C   UNL A   1      40.435  27.596  28.672  1.00  0.00     0.074 A 
ATOM     15  C   UNL A   1      40.626  29.837  29.708  1.00  0.00     0.049 A 
ATOM     16  N   UNL A   1      41.660  27.160  28.817  1.00  0.00    -0.248 NA
ATOM     17  C   UNL A   1      39.530  26.638  28.019  1.00  0.00     0.031 C 
ATOM     18  C   UNL A   1      40.158  31.146  30.179  1.00  0.00     0.029 A 
ATOM     19  N   UNL A   1      41.957  29.827  30.035  1.00  0.00    -0.354 N 
ATOM     20  C   UNL A   1      41.671  25.871  28.296  1.00  0.00     0.074 A 
ATOM     21  C   UNL A   1      40.328  25.591  27.837  1.00  0.00     0.031 C 
ATOM     22  C   UNL A   1      41.193  31.826  30.694  1.00  0.00     0.029 A 
ATOM     23  C   UNL A   1      42.379  30.983  30.649  1.00  0.00     0.049 A 
ATOM     24  H   UNL A   1      42.553  29.066  29.848  1.00  0.00     0.167 HD
ATOM     25  C   UNL A   1      42.711  25.007  28.212  1.00  0.00     0.031 A 
ATOM     26  C   UNL A   1      43.583  31.322  31.148  1.00  0.00     0.031 A 
ATOM     27  C   UNL A   1      44.047  25.305  28.660  1.00  0.00     0.049 A 
ATOM     28  C   UNL A   1      44.708  30.335  31.051  1.00  0.00     0.074 A 
ATOM     29  C   UNL A   1      45.182  24.517  28.559  1.00  0.00     0.029 A 
ATOM     30  N   UNL A   1      44.429  26.472  29.303  1.00  0.00    -0.354 N 
ATOM     31  N   UNL A   1      44.710  29.147  30.497  1.00  0.00    -0.248 NA
ATOM     32  C   UNL A   1      45.987  30.729  31.652  1.00  0.00     0.031 C 
ATOM     33  C   UNL A   1      46.237  25.186  29.186  1.00  0.00     0.029 A 
ATOM     34  C   UNL A   1      45.771  26.411  29.639  1.00  0.00     0.049 A 
ATOM     35  H   UNL A   1      43.833  27.233  29.493  1.00  0.00     0.167 HD
ATOM     36  C   UNL A   1      45.991  28.646  30.689  1.00  0.00     0.074 A 
ATOM     37  C   UNL A   1      46.744  29.676  31.378  1.00  0.00     0.031 C 
ATOM     38  C   UNL A   1      46.496  27.439  30.338  1.00  0.00     0.031 A 
BRANCH  25  39
ATOM     39  C   UNL A   1      42.456  23.641  27.635  1.00  0.00    -0.014 A 
ATOM     40  C   UNL A   1      42.740  23.354  26.289  1.00  0.00     0.010 A 
ATOM     41  C   UNL A   1      42.025  22.602  28.482  1.00  0.00     0.010 A 
ATOM     42  C   UNL A   1      42.587  22.054  25.797  1.00  0.00     0.020 A 
ATOM     43  C   UNL A   1      41.887  21.298  27.998  1.00  0.00     0.020 A 
ATOM     44  C   UNL A   1      42.163  21.033  26.655  1.00  0.00     0.054 A 
BRANCH  44  45
ATOM     45  S   UNL A   1      42.034  19.343  26.006  1.00  0.00     0.124 S 
ATOM     46  O   UNL A   1      40.601  19.233  25.740  1.00  0.00    -0.237 OA
ATOM     47  O   UNL A   1      42.889  19.387  24.823  1.00  0.00    -0.237 OA
ATOM     48  O   UNL A   1      42.529  18.512  27.099  1.00  0.00    -0.744 OA
ENDBRANCH  44  45
ENDBRANCH  25  39
BRANCH  26  49
ATOM     49  C   UNL A   1      43.762  32.631  31.829  1.00  0.00    -0.014 A 
ATOM     50  C   UNL A   1      43.520  32.769  33.205  1.00  0.00     0.010 A 
ATOM     51  C   UNL A   1      44.191  33.751  31.092  1.00  0.00     0.010 A 
ATOM     52  C   UNL A   1      43.682  34.009  33.830  1.00  0.00     0.020 A 
ATOM     53  C   UNL A   1      44.382  34.985  31.718  1.00  0.00     0.020 A 
ATOM     54  C   UNL A   1      44.109  35.110  33.081  1.00  0.00     0.054 A 
BRANCH  54  55
ATOM     55  S   UNL A   1      44.354  36.705  33.911  1.00  0.00     0.124 S 
ATOM     56  O   UNL A   1      43.291  37.515  33.325  1.00  0.00    -0.237 OA
ATOM     57  O   UNL A   1      44.183  36.361  35.321  1.00  0.00    -0.237 OA
ATOM     58  O   UNL A   1      45.713  37.080  33.531  1.00  0.00    -0.744 OA
ENDBRANCH  54  55
ENDBRANCH  26  49
BRANCH  38  59
ATOM     59  C   UNL A   1      47.927  27.170  30.703  1.00  0.00    -0.014 A 
ATOM     60  C   UNL A   1      48.250  26.549  31.922  1.00  0.00     0.010 A 
ATOM     61  C   UNL A   1      48.955  27.509  29.806  1.00  0.00     0.010 A 
ATOM     62  C   UNL A   1      49.583  26.298  32.252  1.00  0.00     0.020 A 
ATOM     63  C   UNL A   1      50.288  27.237  30.123  1.00  0.00     0.020 A 
ATOM     64  C   UNL A   1      50.594  26.646  31.351  1.00  0.00     0.054 A 
BRANCH  64  65
ATOM     65  S   UNL A   1      52.316  26.276  31.784  1.00  0.00     0.124 S 
ATOM     66  O   UNL A   1      52.615  27.322  32.757  1.00  0.00    -0.237 OA
ATOM     67  O   UNL A   1      52.228  24.921  32.323  1.00  0.00    -0.237 OA
ATOM     68  O   UNL A   1      53.022  26.387  30.509  1.00  0.00    -0.744 OA
ENDBRANCH  64  65
ENDBRANCH  38  59
ENDBRANCH  12  13
ENDBRANCH   5   7
ENDBRANCH   2   3
ENDBRANCH   1   2
BRANCH   1  69
ATOM     69  C   UNL A   1      31.815  27.036  26.191  1.00  0.00     0.118 C 
BRANCH  69  70
ATOM     70  N   UNL A   1      30.961  25.945  26.627  1.00  0.00    -0.352 N 
ATOM     71  C   UNL A   1      31.155  24.589  26.686  1.00  0.00     0.251 C 
ATOM     72  H   UNL A   1      30.072  26.235  26.938  1.00  0.00     0.163 HD
ATOM     73  O   UNL A   1      30.224  23.893  27.092  1.00  0.00    -0.269 OA
BRANCH  71  74
ATOM     74  C   UNL A   1      32.463  23.943  26.385  1.00  0.00     0.039 A 
ATOM     75  C   UNL A   1      32.925  24.053  25.062  1.00  0.00     0.015 A 
ATOM     76  C   UNL A   1      33.229  23.222  27.306  1.00  0.00     0.015 A 
ATOM     77  C   UNL A   1      34.044  23.335  24.634  1.00  0.00     0.022 A 
ATOM     78  C   UNL A   1      34.346  22.496  26.887  1.00  0.00     0.022 A 
ATOM     79  C   UNL A   1      34.707  22.509  25.540  1.00  0.00     0.082 A 
BRANCH  79  80
ATOM     80  S   UNL A   1      35.995  21.424  24.989  1.00  0.00     0.241 S 
ATOM     81  O   UNL A   1      36.333  21.790  23.632  1.00  0.00    -0.207 OA
ATOM     82  O   UNL A   1      36.986  21.404  26.036  1.00  0.00    -0.207 OA
BRANCH  80  83
ATOM     83  N   UNL A   1      35.253  19.917  25.043  1.00  0.00    -0.202 NA
ATOM     84  H   UNL A   1      35.172  19.713  26.039  1.00  0.00     0.141 HD
BRANCH  83  85
ATOM     85  C   UNL A   1      33.956  19.482  24.475  1.00  0.00     0.133 C 
ATOM     86  C   UNL A   1      32.703  19.644  25.316  1.00  0.00     0.087 C 
ATOM     87  C   UNL A   1      33.882  17.989  24.062  1.00  0.00     0.202 C 
ATOM     88  C   UNL A   1      32.595  18.307  26.024  1.00  0.00     0.264 C 
ATOM     89  N   UNL A   1      32.862  17.360  24.936  1.00  0.00    -0.331 N 
ATOM     90  C   UNL A   1      35.117  17.102  24.098  1.00  0.00     0.072 C 
ATOM     91  C   UNL A   1      33.365  16.066  25.389  1.00  0.00     0.262 C 
ATOM     92  H   UNL A   1      31.981  17.170  24.459  1.00  0.00     0.348 HD
ATOM     93  C   UNL A   1      34.871  16.114  25.223  1.00  0.00     0.068 C 
ENDBRANCH  83  85
ENDBRANCH  80  83
ENDBRANCH  79  80
ENDBRANCH  71  74
ENDBRANCH  69  70
ENDBRANCH   1  69
TORSDOF 16
ENDMDL
MODEL 3
REMARK VINA RESULT:     -11.3      0.660      8.158
REMARK SMILES O=C(NCCCNC(=O)c1ccc(S(=O)(=O)N[C@@H]2CC[N@@H+]3CCC[C@H]23)cc1)c1ccc(-c2c3nc(c(-c4ccc(S(=O)(=O)[O-])cc4)c4ccc([nH]4)c(-c4ccc(S(=O)(=O)[O-])cc4)c4nc(c(-c5ccc(S(=O)(=O)[O-])cc5)c5ccc2[nH]5)C=C4)C=C3)cc1
REMARK SMILES IDX 5 1 4 2 3 3 1 4 2 5 28 7 29 8 87 9 30 10 86 11 31 12 32 13
REMARK SMILES IDX 33 14 80 15 34 16 85 17 79 18 81 19 35 20 84 21 78 22 77 23
REMARK SMILES IDX 36 25 66 26 47 27 65 28 48 29 51 30 64 31 82 32 49 33 50 34
REMARK SMILES IDX 63 36 83 37 52 38 37 39 38 40 46 41 39 42 45 43 40 44 41 45
REMARK SMILES IDX 42 46 43 47 44 48 67 49 68 50 76 51 69 52 75 53 70 54 71 55
REMARK SMILES IDX 72 56 73 57 74 58 53 59 54 60 62 61 55 62 61 63 56 64 57 65
REMARK SMILES IDX 58 66 59 67 60 68 6 69 7 70 8 71 9 73 10 74 11 75 27 76
REMARK SMILES IDX 12 77 26 78 13 79 14 80 15 81 16 82 17 83 18 85 19 86 25 87
REMARK SMILES IDX 20 88 21 89 24 90 22 91 23 93
REMARK H PARENT 3 6 81 24 51 35 7 72 17 84 21 92
REMARK Flexibility Score: inf
ROOT
ATOM      1  C   UNL A   1      32.742  28.283  25.540  1.00  0.00     0.042 C 
ENDROOT
BRANCH   1   2
ATOM      2  C   UNL A   1      33.778  28.614  26.603  1.00  0.00     0.118 C 
BRANCH   2   3
ATOM      3  N   UNL A   1      33.628  29.979  27.084  1.00  0.00    -0.352 N 
ATOM      4  O   UNL A   1      34.026  31.725  28.440  1.00  0.00    -0.269 OA
ATOM      5  C   UNL A   1      34.441  30.686  27.936  1.00  0.00     0.251 C 
ATOM      6  H   UNL A   1      32.836  30.461  26.754  1.00  0.00     0.163 HD
BRANCH   5   7
ATOM      7  C   UNL A   1      35.805  30.197  28.245  1.00  0.00     0.039 A 
ATOM      8  C   UNL A   1      36.846  30.352  27.326  1.00  0.00     0.014 A 
ATOM      9  C   UNL A   1      36.062  29.632  29.499  1.00  0.00     0.014 A 
ATOM     10  C   UNL A   1      38.112  29.858  27.616  1.00  0.00     0.010 A 
ATOM     11  C   UNL A   1      37.356  29.213  29.825  1.00  0.00     0.010 A 
ATOM     12  C   UNL A   1      38.390  29.321  28.883  1.00  0.00    -0.014 A 
BRANCH  12  13
ATOM     13  C   UNL A   1      39.798  29.019  29.241  1.00  0.00     0.031 A 
ATOM     14  C   UNL A   1      40.661  30.017  29.956  1.00  0.00     0.074 A 
ATOM     15  C   UNL A   1      40.283  27.803  28.913  1.00  0.00     0.049 A 
ATOM     16  N   UNL A   1      41.902  29.888  30.349  1.00  0.00    -0.248 NA
ATOM     17  C   UNL A   1      40.067  31.327  30.263  1.00  0.00     0.031 C 
ATOM     18  C   UNL A   1      39.537  26.764  28.193  1.00  0.00     0.029 A 
ATOM     19  N   UNL A   1      41.503  27.226  29.149  1.00  0.00    -0.354 N 
ATOM     20  C   UNL A   1      42.248  31.103  30.929  1.00  0.00     0.074 A 
ATOM     21  C   UNL A   1      41.087  31.962  30.831  1.00  0.00     0.031 C 
ATOM     22  C   UNL A   1      40.299  25.666  28.086  1.00  0.00     0.029 A 
ATOM     23  C   UNL A   1      41.605  25.941  28.668  1.00  0.00     0.049 A 
ATOM     24  H   UNL A   1      42.236  27.686  29.618  1.00  0.00     0.167 HD
ATOM     25  C   UNL A   1      43.428  31.462  31.490  1.00  0.00     0.031 A 
ATOM     26  C   UNL A   1      42.642  25.083  28.669  1.00  0.00     0.031 A 
ATOM     27  C   UNL A   1      44.570  30.591  31.593  1.00  0.00     0.049 A 
ATOM     28  C   UNL A   1      43.938  25.519  29.286  1.00  0.00     0.074 A 
ATOM     29  C   UNL A   1      45.789  30.844  32.203  1.00  0.00     0.029 A 
ATOM     30  N   UNL A   1      44.645  29.310  31.070  1.00  0.00    -0.354 N 
ATOM     31  N   UNL A   1      44.221  26.651  29.884  1.00  0.00    -0.248 NA
ATOM     32  C   UNL A   1      45.055  24.569  29.219  1.00  0.00     0.031 C 
ATOM     33  C   UNL A   1      46.617  29.735  32.001  1.00  0.00     0.029 A 
ATOM     34  C   UNL A   1      45.900  28.774  31.306  1.00  0.00     0.049 A 
ATOM     35  H   UNL A   1      43.914  28.850  30.598  1.00  0.00     0.167 HD
ATOM     36  C   UNL A   1      45.554  26.551  30.262  1.00  0.00     0.074 A 
ATOM     37  C   UNL A   1      46.008  25.236  29.855  1.00  0.00     0.031 C 
ATOM     38  C   UNL A   1      46.335  27.470  30.878  1.00  0.00     0.031 A 
BRANCH  25  39
ATOM     39  C   UNL A   1      43.567  32.863  32.020  1.00  0.00    -0.014 A 
ATOM     40  C   UNL A   1      43.865  33.938  31.167  1.00  0.00     0.010 A 
ATOM     41  C   UNL A   1      43.291  33.119  33.377  1.00  0.00     0.010 A 
ATOM     42  C   UNL A   1      43.895  35.246  31.663  1.00  0.00     0.020 A 
ATOM     43  C   UNL A   1      43.303  34.426  33.872  1.00  0.00     0.020 A 
ATOM     44  C   UNL A   1      43.613  35.482  33.013  1.00  0.00     0.054 A 
BRANCH  44  45
ATOM     45  S   UNL A   1      43.597  37.193  33.616  1.00  0.00     0.124 S 
ATOM     46  O   UNL A   1      44.736  37.199  34.532  1.00  0.00    -0.237 OA
ATOM     47  O   UNL A   1      43.775  37.968  32.390  1.00  0.00    -0.237 OA
ATOM     48  O   UNL A   1      42.288  37.328  34.249  1.00  0.00    -0.744 OA
ENDBRANCH  44  45
ENDBRANCH  25  39
BRANCH  26  49
ATOM     49  C   UNL A   1      42.507  23.754  28.018  1.00  0.00    -0.014 A 
ATOM     50  C   UNL A   1      42.846  23.573  26.667  1.00  0.00     0.010 A 
ATOM     51  C   UNL A   1      42.042  22.653  28.762  1.00  0.00     0.010 A 
ATOM     52  C   UNL A   1      42.703  22.320  26.065  1.00  0.00     0.020 A 
ATOM     53  C   UNL A   1      41.925  21.393  28.172  1.00  0.00     0.020 A 
ATOM     54  C   UNL A   1      42.241  21.238  26.821  1.00  0.00     0.054 A 
BRANCH  54  55
ATOM     55  S   UNL A   1      42.096  19.608  26.038  1.00  0.00     0.124 S 
ATOM     56  O   UNL A   1      42.555  18.721  27.103  1.00  0.00    -0.237 OA
ATOM     57  O   UNL A   1      40.672  19.531  25.719  1.00  0.00    -0.237 OA
ATOM     58  O   UNL A   1      42.979  19.708  24.880  1.00  0.00    -0.744 OA
ENDBRANCH  54  55
ENDBRANCH  26  49
BRANCH  38  59
ATOM     59  C   UNL A   1      47.761  27.082  31.141  1.00  0.00    -0.014 A 
ATOM     60  C   UNL A   1      48.146  26.577  32.396  1.00  0.00     0.010 A 
ATOM     61  C   UNL A   1      48.717  27.187  30.116  1.00  0.00     0.010 A 
ATOM     62  C   UNL A   1      49.472  26.213  32.631  1.00  0.00     0.020 A 
ATOM     63  C   UNL A   1      50.041  26.802  30.342  1.00  0.00     0.020 A 
ATOM     64  C   UNL A   1      50.413  26.330  31.603  1.00  0.00     0.054 A 
BRANCH  64  65
ATOM     65  S   UNL A   1      52.123  25.815  31.919  1.00  0.00     0.124 S 
ATOM     66  O   UNL A   1      52.824  26.364  30.762  1.00  0.00    -0.237 OA
ATOM     67  O   UNL A   1      52.421  26.457  33.198  1.00  0.00    -0.237 OA
ATOM     68  O   UNL A   1      52.040  24.357  31.966  1.00  0.00    -0.744 OA
ENDBRANCH  64  65
ENDBRANCH  38  59
ENDBRANCH  12  13
ENDBRANCH   5   7
ENDBRANCH   2   3
ENDBRANCH   1   2
BRANCH   1  69
ATOM     69  C   UNL A   1      33.137  28.796  24.158  1.00  0.00     0.118 C 
BRANCH  69  70
ATOM     70  N   UNL A   1      31.961  28.968  23.323  1.00  0.00    -0.352 N 
ATOM     71  C   UNL A   1      31.203  28.081  22.603  1.00  0.00     0.251 C 
ATOM     72  H   UNL A   1      31.648  29.900  23.264  1.00  0.00     0.163 HD
ATOM     73  O   UNL A   1      30.251  28.527  21.962  1.00  0.00    -0.269 OA
BRANCH  71  74
ATOM     74  C   UNL A   1      31.416  26.607  22.649  1.00  0.00     0.039 A 
ATOM     75  C   UNL A   1      30.562  25.877  23.493  1.00  0.00     0.015 A 
ATOM     76  C   UNL A   1      32.412  25.922  21.946  1.00  0.00     0.015 A 
ATOM     77  C   UNL A   1      30.793  24.523  23.745  1.00  0.00     0.022 A 
ATOM     78  C   UNL A   1      32.655  24.570  22.196  1.00  0.00     0.022 A 
ATOM     79  C   UNL A   1      31.881  23.896  23.141  1.00  0.00     0.082 A 
BRANCH  79  80
ATOM     80  S   UNL A   1      32.334  22.245  23.596  1.00  0.00     0.241 S 
ATOM     81  O   UNL A   1      31.476  21.835  24.684  1.00  0.00    -0.207 OA
ATOM     82  O   UNL A   1      32.410  21.491  22.368  1.00  0.00    -0.207 OA
BRANCH  80  83
ATOM     83  N   UNL A   1      33.923  22.428  24.110  1.00  0.00    -0.202 NA
ATOM     84  H   UNL A   1      34.293  23.173  23.522  1.00  0.00     0.141 HD
BRANCH  83  85
ATOM     85  C   UNL A   1      34.447  22.735  25.461  1.00  0.00     0.133 C 
ATOM     86  C   UNL A   1      35.055  24.103  25.711  1.00  0.00     0.087 C 
ATOM     87  C   UNL A   1      35.563  21.784  25.969  1.00  0.00     0.202 C 
ATOM     88  C   UNL A   1      36.528  23.878  25.426  1.00  0.00     0.264 C 
ATOM     89  N   UNL A   1      36.785  22.612  26.120  1.00  0.00    -0.331 N 
ATOM     90  C   UNL A   1      35.952  20.541  25.185  1.00  0.00     0.072 C 
ATOM     91  C   UNL A   1      37.923  21.867  25.590  1.00  0.00     0.262 C 
ATOM     92  H   UNL A   1      37.013  22.824  27.092  1.00  0.00     0.348 HD
ATOM     93  C   UNL A   1      37.349  20.816  24.660  1.00  0.00     0.068 C 
ENDBRANCH  83  85
ENDBRANCH  80  83
ENDBRANCH  79  80
ENDBRANCH  71  74
ENDBRANCH  69  70
ENDBRANCH   1  69
TORSDOF 16
ENDMDL
