MODEL 1
REMARK VINA RESULT:     -10.6      0.000      0.000
REMARK SMILES COc1cc(/C=C/C(=O)NCCCNC(=O)c2ccc(-c3c4nc(c(-c5ccc(S(=O)(=O)[O-])cc5)c5ccc([nH]5)c(-c5ccc(S(=O)(=O)[O-])cc5)c5nc(c(-c6ccc(S(=O)(=O)[O-])cc6)c6ccc3[nH]6)C=C5)C=C4)cc2)cc(OC)c1O
REMARK SMILES IDX 12 1 11 2 10 3 8 4 9 5 7 7 6 8 5 9 3 10 4 11 81 12 78 13
REMARK SMILES IDX 77 14 2 15 1 16 82 17 79 19 80 20 13 21 14 22 15 23 16 25
REMARK SMILES IDX 17 26 18 27 76 28 19 29 75 30 20 31 21 32 22 33 69 34 23 35
REMARK SMILES IDX 74 36 68 37 70 38 24 39 73 40 67 41 66 42 25 44 55 45 36 46
REMARK SMILES IDX 54 47 37 48 40 49 53 50 71 51 38 52 39 53 52 55 72 56 41 57
REMARK SMILES IDX 26 58 27 59 35 60 28 61 34 62 29 63 30 64 31 65 32 66 33 67
REMARK SMILES IDX 56 68 57 69 65 70 58 71 64 72 59 73 60 74 61 75 62 76 63 77
REMARK SMILES IDX 42 78 43 79 51 80 44 81 50 82 45 83 46 84 47 85 48 86 49 87
REMARK H PARENT 10 6 82 18 14 24 70 43 40 54
REMARK Flexibility Score: inf
ROOT
ATOM      1  C   UNL A   1      33.967  28.071  25.261  1.00  0.00     0.042 C 
ENDROOT
BRANCH   1   2
ATOM      2  C   UNL A   1      32.931  27.147  24.622  1.00  0.00     0.118 C 
BRANCH   2   3
ATOM      3  N   UNL A   1      33.149  26.997  23.192  1.00  0.00    -0.352 N 
ATOM      4  C   UNL A   1      33.522  25.920  22.451  1.00  0.00     0.244 C 
ATOM      5  O   UNL A   1      33.502  25.995  21.224  1.00  0.00    -0.270 OA
ATOM      6  H   UNL A   1      33.002  27.819  22.669  1.00  0.00     0.163 HD
BRANCH   4   7
ATOM      7  C   UNL A   1      33.873  24.626  23.082  1.00  0.00     0.072 C 
ATOM      8  C   UNL A   1      33.128  23.515  22.995  1.00  0.00     0.014 C 
BRANCH   8   9
ATOM      9  C   UNL A   1      33.445  22.249  23.670  1.00  0.00    -0.018 A 
ATOM     10  C   UNL A   1      33.036  19.912  24.139  1.00  0.00     0.165 A 
ATOM     11  C   UNL A   1      32.613  21.127  23.595  1.00  0.00     0.058 A 
ATOM     12  C   UNL A   1      34.306  19.793  24.727  1.00  0.00     0.200 A 
ATOM     13  C   UNL A   1      35.126  20.915  24.854  1.00  0.00     0.165 A 
ATOM     14  C   UNL A   1      34.683  22.133  24.318  1.00  0.00     0.058 A 
BRANCH  10  15
ATOM     15  O   UNL A   1      32.236  18.810  23.947  1.00  0.00    -0.493 OA
ATOM     16  C   UNL A   1      32.381  18.266  22.633  1.00  0.00     0.278 C 
ENDBRANCH  10  15
BRANCH  12  17
ATOM     17  O   UNL A   1      34.733  18.546  25.095  1.00  0.00    -0.502 OA
ATOM     18  H   UNL A   1      34.171  17.805  24.979  1.00  0.00     0.293 HD
ENDBRANCH  12  17
BRANCH  13  19
ATOM     19  O   UNL A   1      36.373  21.002  25.410  1.00  0.00    -0.493 OA
ATOM     20  C   UNL A   1      37.258  22.001  24.925  1.00  0.00     0.278 C 
ENDBRANCH  13  19
ENDBRANCH   8   9
ENDBRANCH   4   7
ENDBRANCH   2   3
ENDBRANCH   1   2
BRANCH   1  21
ATOM     21  C   UNL A   1      33.787  28.255  26.768  1.00  0.00     0.118 C 
BRANCH  21  22
ATOM     22  N   UNL A   1      33.659  29.657  27.142  1.00  0.00    -0.352 N 
ATOM     23  C   UNL A   1      34.505  30.461  27.863  1.00  0.00     0.251 C 
ATOM     24  H   UNL A   1      32.836  30.097  26.829  1.00  0.00     0.163 HD
ATOM     25  O   UNL A   1      34.100  31.561  28.250  1.00  0.00    -0.269 OA
BRANCH  23  26
ATOM     26  C   UNL A   1      35.881  30.031  28.188  1.00  0.00     0.039 A 
ATOM     27  C   UNL A   1      36.868  30.118  27.200  1.00  0.00     0.014 A 
ATOM     28  C   UNL A   1      36.197  29.491  29.439  1.00  0.00     0.014 A 
ATOM     29  C   UNL A   1      38.177  29.715  27.482  1.00  0.00     0.010 A 
ATOM     30  C   UNL A   1      37.515  29.148  29.739  1.00  0.00     0.010 A 
ATOM     31  C   UNL A   1      38.518  29.252  28.763  1.00  0.00    -0.014 A 
BRANCH  31  32
ATOM     32  C   UNL A   1      39.915  28.874  29.099  1.00  0.00     0.031 A 
ATOM     33  C   UNL A   1      40.843  29.876  29.732  1.00  0.00     0.074 A 
ATOM     34  C   UNL A   1      40.368  27.645  28.778  1.00  0.00     0.049 A 
ATOM     35  N   UNL A   1      42.113  29.754  30.026  1.00  0.00    -0.248 NA
ATOM     36  C   UNL A   1      40.277  31.195  30.054  1.00  0.00     0.031 C 
ATOM     37  C   UNL A   1      39.578  26.596  28.128  1.00  0.00     0.029 A 
ATOM     38  N   UNL A   1      41.605  27.076  28.941  1.00  0.00    -0.354 N 
ATOM     39  C   UNL A   1      42.500  30.981  30.551  1.00  0.00     0.074 A 
ATOM     40  C   UNL A   1      41.344  31.849  30.493  1.00  0.00     0.031 C 
ATOM     41  C   UNL A   1      40.347  25.507  27.963  1.00  0.00     0.029 A 
ATOM     42  C   UNL A   1      41.689  25.791  28.458  1.00  0.00     0.049 A 
ATOM     43  H   UNL A   1      42.362  27.543  29.364  1.00  0.00     0.167 HD
ATOM     44  C   UNL A   1      43.704  31.349  31.052  1.00  0.00     0.031 A 
ATOM     45  C   UNL A   1      42.732  24.939  28.409  1.00  0.00     0.031 A 
ATOM     46  C   UNL A   1      44.852  30.482  31.116  1.00  0.00     0.049 A 
ATOM     47  C   UNL A   1      44.059  25.368  28.970  1.00  0.00     0.074 A 
ATOM     48  C   UNL A   1      46.103  30.748  31.645  1.00  0.00     0.029 A 
ATOM     49  N   UNL A   1      44.888  29.182  30.638  1.00  0.00    -0.354 N 
ATOM     50  N   UNL A   1      44.391  26.518  29.510  1.00  0.00    -0.248 NA
ATOM     51  C   UNL A   1      45.149  24.384  28.927  1.00  0.00     0.031 C 
ATOM     52  C   UNL A   1      46.908  29.620  31.450  1.00  0.00     0.029 A 
ATOM     53  C   UNL A   1      46.143  28.635  30.845  1.00  0.00     0.049 A 
ATOM     54  H   UNL A   1      44.132  28.714  30.213  1.00  0.00     0.167 HD
ATOM     55  C   UNL A   1      45.721  26.385  29.892  1.00  0.00     0.074 A 
ATOM     56  C   UNL A   1      46.127  25.041  29.536  1.00  0.00     0.031 C 
ATOM     57  C   UNL A   1      46.533  27.295  30.485  1.00  0.00     0.031 A 
BRANCH  44  58
ATOM     58  C   UNL A   1      43.841  32.759  31.567  1.00  0.00    -0.014 A 
ATOM     59  C   UNL A   1      44.353  33.783  30.750  1.00  0.00     0.010 A 
ATOM     60  C   UNL A   1      43.422  33.072  32.873  1.00  0.00     0.010 A 
ATOM     61  C   UNL A   1      44.487  35.083  31.243  1.00  0.00     0.020 A 
ATOM     62  C   UNL A   1      43.529  34.379  33.361  1.00  0.00     0.020 A 
ATOM     63  C   UNL A   1      44.078  35.372  32.547  1.00  0.00     0.054 A 
BRANCH  63  64
ATOM     64  S   UNL A   1      44.251  37.072  33.157  1.00  0.00     0.124 S 
ATOM     65  O   UNL A   1      45.700  37.197  33.293  1.00  0.00    -0.237 OA
ATOM     66  O   UNL A   1      43.651  37.861  32.083  1.00  0.00    -0.237 OA
ATOM     67  O   UNL A   1      43.506  37.068  34.413  1.00  0.00    -0.744 OA
ENDBRANCH  63  64
ENDBRANCH  44  58
BRANCH  45  68
ATOM     68  C   UNL A   1      42.554  23.586  27.815  1.00  0.00    -0.014 A 
ATOM     69  C   UNL A   1      42.815  23.365  26.452  1.00  0.00     0.010 A 
ATOM     70  C   UNL A   1      42.142  22.505  28.617  1.00  0.00     0.010 A 
ATOM     71  C   UNL A   1      42.654  22.092  25.897  1.00  0.00     0.020 A 
ATOM     72  C   UNL A   1      42.005  21.226  28.072  1.00  0.00     0.020 A 
ATOM     73  C   UNL A   1      42.250  21.029  26.712  1.00  0.00     0.054 A 
BRANCH  73  74
ATOM     74  S   UNL A   1      42.102  19.373  25.984  1.00  0.00     0.124 S 
ATOM     75  O   UNL A   1      40.667  19.279  25.737  1.00  0.00    -0.237 OA
ATOM     76  O   UNL A   1      42.945  19.473  24.795  1.00  0.00    -0.237 OA
ATOM     77  O   UNL A   1      42.619  18.494  27.031  1.00  0.00    -0.744 OA
ENDBRANCH  73  74
ENDBRANCH  45  68
BRANCH  57  78
ATOM     78  C   UNL A   1      47.934  26.860  30.815  1.00  0.00    -0.014 A 
ATOM     79  C   UNL A   1      48.991  27.056  29.909  1.00  0.00     0.010 A 
ATOM     80  C   UNL A   1      48.205  26.294  32.075  1.00  0.00     0.010 A 
ATOM     81  C   UNL A   1      50.290  26.666  30.246  1.00  0.00     0.020 A 
ATOM     82  C   UNL A   1      49.507  25.926  32.425  1.00  0.00     0.020 A 
ATOM     83  C   UNL A   1      50.539  26.103  31.501  1.00  0.00     0.054 A 
BRANCH  83  84
ATOM     84  S   UNL A   1      52.242  25.647  31.933  1.00  0.00     0.124 S 
ATOM     85  O   UNL A   1      52.959  25.950  30.697  1.00  0.00    -0.237 OA
ATOM     86  O   UNL A   1      52.535  26.527  33.061  1.00  0.00    -0.237 OA
ATOM     87  O   UNL A   1      52.146  24.228  32.266  1.00  0.00    -0.744 OA
ENDBRANCH  83  84
ENDBRANCH  57  78
ENDBRANCH  31  32
ENDBRANCH  23  26
ENDBRANCH  21  22
ENDBRANCH   1  21
TORSDOF 17
ENDMDL
MODEL 2
REMARK VINA RESULT:     -10.3      3.091      9.678
REMARK SMILES COc1cc(/C=C/C(=O)NCCCNC(=O)c2ccc(-c3c4nc(c(-c5ccc(S(=O)(=O)[O-])cc5)c5ccc([nH]5)c(-c5ccc(S(=O)(=O)[O-])cc5)c5nc(c(-c6ccc(S(=O)(=O)[O-])cc6)c6ccc3[nH]6)C=C5)C=C4)cc2)cc(OC)c1O
REMARK SMILES IDX 12 1 11 2 10 3 8 4 9 5 7 7 6 8 5 9 3 10 4 11 81 12 78 13
REMARK SMILES IDX 77 14 2 15 1 16 82 17 79 19 80 20 13 21 14 22 15 23 16 25
REMARK SMILES IDX 17 26 18 27 76 28 19 29 75 30 20 31 21 32 22 33 69 34 23 35
REMARK SMILES IDX 74 36 68 37 70 38 24 39 73 40 67 41 66 42 25 44 55 45 36 46
REMARK SMILES IDX 54 47 37 48 40 49 53 50 71 51 38 52 39 53 52 55 72 56 41 57
REMARK SMILES IDX 26 58 27 59 35 60 28 61 34 62 29 63 30 64 31 65 32 66 33 67
REMARK SMILES IDX 56 68 57 69 65 70 58 71 64 72 59 73 60 74 61 75 62 76 63 77
REMARK SMILES IDX 42 78 43 79 51 80 44 81 50 82 45 83 46 84 47 85 48 86 49 87
REMARK H PARENT 10 6 82 18 14 24 70 43 40 54
REMARK Flexibility Score: inf
ROOT
ATOM      1  C   UNL A   1      35.196  23.123  26.653  1.00  0.00     0.042 C 
ENDROOT
BRANCH   1   2
ATOM      2  C   UNL A   1      33.915  23.023  25.825  1.00  0.00     0.118 C 
BRANCH   2   3
ATOM      3  N   UNL A   1      32.729  23.241  26.636  1.00  0.00    -0.352 N 
ATOM      4  C   UNL A   1      31.665  24.069  26.463  1.00  0.00     0.244 C 
ATOM      5  O   UNL A   1      30.698  23.975  27.216  1.00  0.00    -0.270 OA
ATOM      6  H   UNL A   1      32.688  22.693  27.454  1.00  0.00     0.163 HD
BRANCH   4   7
ATOM      7  C   UNL A   1      31.602  25.029  25.335  1.00  0.00     0.072 C 
ATOM      8  C   UNL A   1      30.889  26.163  25.347  1.00  0.00     0.014 C 
BRANCH   8   9
ATOM      9  C   UNL A   1      30.778  27.085  24.208  1.00  0.00    -0.018 A 
ATOM     10  C   UNL A   1      29.496  28.413  22.645  1.00  0.00     0.165 A 
ATOM     11  C   UNL A   1      29.550  27.425  23.631  1.00  0.00     0.058 A 
ATOM     12  C   UNL A   1      30.657  29.098  22.253  1.00  0.00     0.200 A 
ATOM     13  C   UNL A   1      31.897  28.736  22.782  1.00  0.00     0.165 A 
ATOM     14  C   UNL A   1      31.939  27.730  23.760  1.00  0.00     0.058 A 
BRANCH  10  15
ATOM     15  O   UNL A   1      28.258  28.792  22.184  1.00  0.00    -0.493 OA
ATOM     16  C   UNL A   1      27.614  29.711  23.072  1.00  0.00     0.278 C 
ENDBRANCH  10  15
BRANCH  12  17
ATOM     17  O   UNL A   1      30.523  30.165  21.406  1.00  0.00    -0.502 OA
ATOM     18  H   UNL A   1      29.674  30.523  21.234  1.00  0.00     0.293 HD
ENDBRANCH  12  17
BRANCH  13  19
ATOM     19  O   UNL A   1      33.129  29.266  22.512  1.00  0.00    -0.493 OA
ATOM     20  C   UNL A   1      34.250  28.394  22.507  1.00  0.00     0.278 C 
ENDBRANCH  13  19
ENDBRANCH   8   9
ENDBRANCH   4   7
ENDBRANCH   2   3
ENDBRANCH   1   2
BRANCH   1  21
ATOM     21  C   UNL A   1      36.409  23.612  25.860  1.00  0.00     0.118 C 
BRANCH  21  22
ATOM     22  N   UNL A   1      37.531  22.684  25.940  1.00  0.00    -0.352 N 
ATOM     23  C   UNL A   1      38.837  22.905  26.293  1.00  0.00     0.251 C 
ATOM     24  H   UNL A   1      37.317  21.753  25.701  1.00  0.00     0.163 HD
ATOM     25  O   UNL A   1      39.671  22.020  26.082  1.00  0.00    -0.269 OA
BRANCH  23  26
ATOM     26  C   UNL A   1      39.260  24.180  26.911  1.00  0.00     0.039 A 
ATOM     27  C   UNL A   1      38.893  24.444  28.235  1.00  0.00     0.014 A 
ATOM     28  C   UNL A   1      39.968  25.140  26.182  1.00  0.00     0.014 A 
ATOM     29  C   UNL A   1      39.278  25.643  28.841  1.00  0.00     0.010 A 
ATOM     30  C   UNL A   1      40.405  26.308  26.807  1.00  0.00     0.010 A 
ATOM     31  C   UNL A   1      40.062  26.574  28.141  1.00  0.00    -0.014 A 
BRANCH  31  32
ATOM     32  C   UNL A   1      40.531  27.828  28.786  1.00  0.00     0.031 A 
ATOM     33  C   UNL A   1      41.911  27.906  29.382  1.00  0.00     0.074 A 
ATOM     34  C   UNL A   1      39.690  28.877  28.891  1.00  0.00     0.049 A 
ATOM     35  N   UNL A   1      42.466  28.886  30.050  1.00  0.00    -0.248 NA
ATOM     36  C   UNL A   1      42.770  26.722  29.227  1.00  0.00     0.031 C 
ATOM     37  C   UNL A   1      38.315  28.912  28.388  1.00  0.00     0.029 A 
ATOM     38  N   UNL A   1      39.864  30.109  29.467  1.00  0.00    -0.354 N 
ATOM     39  C   UNL A   1      43.730  28.431  30.409  1.00  0.00     0.074 A 
ATOM     40  C   UNL A   1      43.842  27.072  29.924  1.00  0.00     0.031 C 
ATOM     41  C   UNL A   1      37.777  30.112  28.664  1.00  0.00     0.029 A 
ATOM     42  C   UNL A   1      38.752  30.915  29.395  1.00  0.00     0.049 A 
ATOM     43  H   UNL A   1      40.707  30.391  29.893  1.00  0.00     0.167 HD
ATOM     44  C   UNL A   1      44.715  29.089  31.067  1.00  0.00     0.031 A 
ATOM     45  C   UNL A   1      38.535  32.156  29.871  1.00  0.00     0.031 A 
ATOM     46  C   UNL A   1      44.603  30.443  31.542  1.00  0.00     0.049 A 
ATOM     47  C   UNL A   1      39.642  32.867  30.599  1.00  0.00     0.074 A 
ATOM     48  C   UNL A   1      45.561  31.213  32.181  1.00  0.00     0.029 A 
ATOM     49  N   UNL A   1      43.469  31.231  31.427  1.00  0.00    -0.354 N 
ATOM     50  N   UNL A   1      40.849  32.437  30.883  1.00  0.00    -0.248 NA
ATOM     51  C   UNL A   1      39.363  34.234  31.061  1.00  0.00     0.031 C 
ATOM     52  C   UNL A   1      44.990  32.453  32.489  1.00  0.00     0.029 A 
ATOM     53  C   UNL A   1      43.695  32.473  31.997  1.00  0.00     0.049 A 
ATOM     54  H   UNL A   1      42.626  30.949  31.003  1.00  0.00     0.167 HD
ATOM     55  C   UNL A   1      41.480  33.491  31.536  1.00  0.00     0.074 A 
ATOM     56  C   UNL A   1      40.528  34.581  31.590  1.00  0.00     0.031 C 
ATOM     57  C   UNL A   1      42.736  33.549  32.043  1.00  0.00     0.031 A 
BRANCH  44  58
ATOM     58  C   UNL A   1      46.001  28.345  31.317  1.00  0.00    -0.014 A 
ATOM     59  C   UNL A   1      47.060  28.399  30.393  1.00  0.00     0.010 A 
ATOM     60  C   UNL A   1      46.168  27.610  32.504  1.00  0.00     0.010 A 
ATOM     61  C   UNL A   1      48.243  27.695  30.628  1.00  0.00     0.020 A 
ATOM     62  C   UNL A   1      47.362  26.926  32.758  1.00  0.00     0.020 A 
ATOM     63  C   UNL A   1      48.386  26.959  31.808  1.00  0.00     0.054 A 
BRANCH  63  64
ATOM     64  S   UNL A   1      49.938  26.065  32.095  1.00  0.00     0.124 S 
ATOM     65  O   UNL A   1      50.428  25.869  30.733  1.00  0.00    -0.237 OA
ATOM     66  O   UNL A   1      50.704  27.006  32.908  1.00  0.00    -0.237 OA
ATOM     67  O   UNL A   1      49.516  24.850  32.786  1.00  0.00    -0.744 OA
ENDBRANCH  63  64
ENDBRANCH  44  58
BRANCH  45  68
ATOM     68  C   UNL A   1      37.214  32.809  29.661  1.00  0.00    -0.014 A 
ATOM     69  C   UNL A   1      36.284  32.894  30.711  1.00  0.00     0.010 A 
ATOM     70  C   UNL A   1      36.888  33.368  28.412  1.00  0.00     0.010 A 
ATOM     71  C   UNL A   1      35.046  33.513  30.514  1.00  0.00     0.020 A 
ATOM     72  C   UNL A   1      35.663  34.011  28.217  1.00  0.00     0.020 A 
ATOM     73  C   UNL A   1      34.744  34.069  29.267  1.00  0.00     0.054 A 
BRANCH  73  74
ATOM     74  S   UNL A   1      33.155  34.919  29.048  1.00  0.00     0.124 S 
ATOM     75  O   UNL A   1      33.578  36.235  28.580  1.00  0.00    -0.237 OA
ATOM     76  O   UNL A   1      32.482  34.081  28.059  1.00  0.00    -0.237 OA
ATOM     77  O   UNL A   1      32.565  34.887  30.385  1.00  0.00    -0.744 OA
ENDBRANCH  73  74
ENDBRANCH  45  68
BRANCH  57  78
ATOM     78  C   UNL A   1      43.167  34.844  32.676  1.00  0.00    -0.014 A 
ATOM     79  C   UNL A   1      43.747  35.871  31.912  1.00  0.00     0.010 A 
ATOM     80  C   UNL A   1      42.939  35.054  34.049  1.00  0.00     0.010 A 
ATOM     81  C   UNL A   1      44.118  37.076  32.515  1.00  0.00     0.020 A 
ATOM     82  C   UNL A   1      43.285  36.266  34.651  1.00  0.00     0.020 A 
ATOM     83  C   UNL A   1      43.885  37.265  33.881  1.00  0.00     0.054 A 
BRANCH  83  84
ATOM     84  S   UNL A   1      44.334  38.854  34.633  1.00  0.00     0.124 S 
ATOM     85  O   UNL A   1      43.336  39.754  34.059  1.00  0.00    -0.237 OA
ATOM     86  O   UNL A   1      44.190  38.587  36.062  1.00  0.00    -0.237 OA
ATOM     87  O   UNL A   1      45.705  39.076  34.181  1.00  0.00    -0.744 OA
ENDBRANCH  83  84
ENDBRANCH  57  78
ENDBRANCH  31  32
ENDBRANCH  23  26
ENDBRANCH  21  22
ENDBRANCH   1  21
TORSDOF 17
ENDMDL
MODEL 3
REMARK VINA RESULT:     -10.3      0.761      1.846
REMARK SMILES COc1cc(/C=C/C(=O)NCCCNC(=O)c2ccc(-c3c4nc(c(-c5ccc(S(=O)(=O)[O-])cc5)c5ccc([nH]5)c(-c5ccc(S(=O)(=O)[O-])cc5)c5nc(c(-c6ccc(S(=O)(=O)[O-])cc6)c6ccc3[nH]6)C=C5)C=C4)cc2)cc(OC)c1O
REMARK SMILES IDX 12 1 11 2 10 3 8 4 9 5 7 7 6 8 5 9 3 10 4 11 81 12 78 13
REMARK SMILES IDX 77 14 2 15 1 16 82 17 79 19 80 20 13 21 14 22 15 23 16 25
REMARK SMILES IDX 17 26 18 27 76 28 19 29 75 30 20 31 21 32 22 33 69 34 23 35
REMARK SMILES IDX 74 36 68 37 70 38 24 39 73 40 67 41 66 42 25 44 55 45 36 46
REMARK SMILES IDX 54 47 37 48 40 49 53 50 71 51 38 52 39 53 52 55 72 56 41 57
REMARK SMILES IDX 26 58 27 59 35 60 28 61 34 62 29 63 30 64 31 65 32 66 33 67
REMARK SMILES IDX 56 68 57 69 65 70 58 71 64 72 59 73 60 74 61 75 62 76 63 77
REMARK SMILES IDX 42 78 43 79 51 80 44 81 50 82 45 83 46 84 47 85 48 86 49 87
REMARK H PARENT 10 6 82 18 14 24 70 43 40 54
REMARK Flexibility Score: inf
ROOT
ATOM      1  C   UNL A   1      33.888  28.162  25.325  1.00  0.00     0.042 C 
ENDROOT
BRANCH   1   2
ATOM      2  C   UNL A   1      32.830  27.265  24.684  1.00  0.00     0.118 C 
BRANCH   2   3
ATOM      3  N   UNL A   1      33.141  26.970  23.294  1.00  0.00    -0.352 N 
ATOM      4  C   UNL A   1      33.478  25.806  22.679  1.00  0.00     0.244 C 
ATOM      5  O   UNL A   1      33.556  25.771  21.453  1.00  0.00    -0.270 OA
ATOM      6  H   UNL A   1      33.101  27.750  22.694  1.00  0.00     0.163 HD
BRANCH   4   7
ATOM      7  C   UNL A   1      33.674  24.551  23.443  1.00  0.00     0.072 C 
ATOM      8  C   UNL A   1      32.958  23.434  23.258  1.00  0.00     0.014 C 
BRANCH   8   9
ATOM      9  C   UNL A   1      33.111  22.209  24.056  1.00  0.00    -0.018 A 
ATOM     10  C   UNL A   1      33.535  21.046  26.134  1.00  0.00     0.165 A 
ATOM     11  C   UNL A   1      33.545  22.226  25.386  1.00  0.00     0.058 A 
ATOM     12  C   UNL A   1      33.056  19.849  25.578  1.00  0.00     0.200 A 
ATOM     13  C   UNL A   1      32.667  19.805  24.239  1.00  0.00     0.165 A 
ATOM     14  C   UNL A   1      32.697  20.994  23.493  1.00  0.00     0.058 A 
BRANCH  10  15
ATOM     15  O   UNL A   1      33.866  21.129  27.466  1.00  0.00    -0.493 OA
ATOM     16  C   UNL A   1      34.005  22.485  27.900  1.00  0.00     0.278 C 
ENDBRANCH  10  15
BRANCH  12  17
ATOM     17  O   UNL A   1      32.915  18.765  26.402  1.00  0.00    -0.502 OA
ATOM     18  H   UNL A   1      32.695  18.889  27.305  1.00  0.00     0.293 HD
ENDBRANCH  12  17
BRANCH  13  19
ATOM     19  O   UNL A   1      32.198  18.739  23.520  1.00  0.00    -0.493 OA
ATOM     20  C   UNL A   1      32.948  17.534  23.538  1.00  0.00     0.278 C 
ENDBRANCH  13  19
ENDBRANCH   8   9
ENDBRANCH   4   7
ENDBRANCH   2   3
ENDBRANCH   1   2
BRANCH   1  21
ATOM     21  C   UNL A   1      33.747  28.300  26.842  1.00  0.00     0.118 C 
BRANCH  21  22
ATOM     22  N   UNL A   1      33.573  29.686  27.256  1.00  0.00    -0.352 N 
ATOM     23  C   UNL A   1      34.389  30.494  28.004  1.00  0.00     0.251 C 
ATOM     24  H   UNL A   1      32.737  30.108  26.953  1.00  0.00     0.163 HD
ATOM     25  O   UNL A   1      33.947  31.568  28.422  1.00  0.00    -0.269 OA
BRANCH  23  26
ATOM     26  C   UNL A   1      35.778  30.099  28.323  1.00  0.00     0.039 A 
ATOM     27  C   UNL A   1      36.741  30.137  27.308  1.00  0.00     0.014 A 
ATOM     28  C   UNL A   1      36.128  29.639  29.596  1.00  0.00     0.014 A 
ATOM     29  C   UNL A   1      38.060  29.765  27.583  1.00  0.00     0.010 A 
ATOM     30  C   UNL A   1      37.457  29.329  29.885  1.00  0.00     0.010 A 
ATOM     31  C   UNL A   1      38.436  29.385  28.882  1.00  0.00    -0.014 A 
BRANCH  31  32
ATOM     32  C   UNL A   1      39.845  29.042  29.208  1.00  0.00     0.031 A 
ATOM     33  C   UNL A   1      40.752  30.069  29.830  1.00  0.00     0.074 A 
ATOM     34  C   UNL A   1      40.325  27.824  28.886  1.00  0.00     0.049 A 
ATOM     35  N   UNL A   1      42.027  29.979  30.114  1.00  0.00    -0.248 NA
ATOM     36  C   UNL A   1      40.156  31.375  30.152  1.00  0.00     0.031 C 
ATOM     37  C   UNL A   1      39.556  26.754  28.246  1.00  0.00     0.029 A 
ATOM     38  N   UNL A   1      41.577  27.286  29.041  1.00  0.00    -0.354 N 
ATOM     39  C   UNL A   1      42.389  31.218  30.631  1.00  0.00     0.074 A 
ATOM     40  C   UNL A   1      41.210  32.056  30.580  1.00  0.00     0.031 C 
ATOM     41  C   UNL A   1      40.351  25.683  28.079  1.00  0.00     0.029 A 
ATOM     42  C   UNL A   1      41.689  26.002  28.562  1.00  0.00     0.049 A 
ATOM     43  H   UNL A   1      42.326  27.773  29.456  1.00  0.00     0.167 HD
ATOM     44  C   UNL A   1      43.587  31.617  31.121  1.00  0.00     0.031 A 
ATOM     45  C   UNL A   1      42.752  25.175  28.507  1.00  0.00     0.031 A 
ATOM     46  C   UNL A   1      44.756  30.779  31.178  1.00  0.00     0.049 A 
ATOM     47  C   UNL A   1      44.073  25.640  29.056  1.00  0.00     0.074 A 
ATOM     48  C   UNL A   1      46.005  31.077  31.696  1.00  0.00     0.029 A 
ATOM     49  N   UNL A   1      44.821  29.478  30.704  1.00  0.00    -0.354 N 
ATOM     50  N   UNL A   1      44.380  26.799  29.589  1.00  0.00    -0.248 NA
ATOM     51  C   UNL A   1      45.187  24.682  29.007  1.00  0.00     0.031 C 
ATOM     52  C   UNL A   1      46.836  29.969  31.498  1.00  0.00     0.029 A 
ATOM     53  C   UNL A   1      46.091  28.964  30.903  1.00  0.00     0.049 A 
ATOM     54  H   UNL A   1      44.073  28.991  30.287  1.00  0.00     0.167 HD
ATOM     55  C   UNL A   1      45.717  26.700  29.960  1.00  0.00     0.074 A 
ATOM     56  C   UNL A   1      46.153  25.365  29.605  1.00  0.00     0.031 C 
ATOM     57  C   UNL A   1      46.510  27.632  30.543  1.00  0.00     0.031 A 
BRANCH  44  58
ATOM     58  C   UNL A   1      43.693  33.031  31.631  1.00  0.00    -0.014 A 
ATOM     59  C   UNL A   1      44.096  34.079  30.783  1.00  0.00     0.010 A 
ATOM     60  C   UNL A   1      43.355  33.324  32.964  1.00  0.00     0.010 A 
ATOM     61  C   UNL A   1      44.203  35.384  31.270  1.00  0.00     0.020 A 
ATOM     62  C   UNL A   1      43.433  34.634  33.449  1.00  0.00     0.020 A 
ATOM     63  C   UNL A   1      43.875  35.653  32.601  1.00  0.00     0.054 A 
BRANCH  63  64
ATOM     64  S   UNL A   1      44.010  37.359  33.204  1.00  0.00     0.124 S 
ATOM     65  O   UNL A   1      42.916  37.424  34.169  1.00  0.00    -0.237 OA
ATOM     66  O   UNL A   1      45.354  37.392  33.775  1.00  0.00    -0.237 OA
ATOM     67  O   UNL A   1      43.829  38.167  32.001  1.00  0.00    -0.744 OA
ENDBRANCH  63  64
ENDBRANCH  44  58
BRANCH  45  68
ATOM     68  C   UNL A   1      42.603  23.817  27.918  1.00  0.00    -0.014 A 
ATOM     69  C   UNL A   1      42.241  22.724  28.725  1.00  0.00     0.010 A 
ATOM     70  C   UNL A   1      42.802  23.613  26.540  1.00  0.00     0.010 A 
ATOM     71  C   UNL A   1      42.095  21.450  28.169  1.00  0.00     0.020 A 
ATOM     72  C   UNL A   1      42.632  22.347  25.976  1.00  0.00     0.020 A 
ATOM     73  C   UNL A   1      42.290  21.270  26.796  1.00  0.00     0.054 A 
BRANCH  73  74
ATOM     74  S   UNL A   1      42.040  19.619  26.084  1.00  0.00     0.124 S 
ATOM     75  O   UNL A   1      42.952  19.639  24.945  1.00  0.00    -0.237 OA
ATOM     76  O   UNL A   1      42.420  18.738  27.186  1.00  0.00    -0.237 OA
ATOM     77  O   UNL A   1      40.617  19.604  25.750  1.00  0.00    -0.744 OA
ENDBRANCH  73  74
ENDBRANCH  45  68
BRANCH  57  78
ATOM     78  C   UNL A   1      47.925  27.233  30.864  1.00  0.00    -0.014 A 
ATOM     79  C   UNL A   1      48.248  26.607  32.080  1.00  0.00     0.010 A 
ATOM     80  C   UNL A   1      48.937  27.442  29.909  1.00  0.00     0.010 A 
ATOM     81  C   UNL A   1      49.565  26.222  32.348  1.00  0.00     0.020 A 
ATOM     82  C   UNL A   1      50.250  27.036  30.162  1.00  0.00     0.020 A 
ATOM     83  C   UNL A   1      50.557  26.440  31.387  1.00  0.00     0.054 A 
BRANCH  83  84
ATOM     84  S   UNL A   1      52.250  25.891  31.738  1.00  0.00     0.124 S 
ATOM     85  O   UNL A   1      52.045  24.493  32.108  1.00  0.00    -0.237 OA
ATOM     86  O   UNL A   1      52.931  26.110  30.465  1.00  0.00    -0.237 OA
ATOM     87  O   UNL A   1      52.679  26.767  32.825  1.00  0.00    -0.744 OA
ENDBRANCH  83  84
ENDBRANCH  57  78
ENDBRANCH  31  32
ENDBRANCH  23  26
ENDBRANCH  21  22
ENDBRANCH   1  21
TORSDOF 17
ENDMDL
