MODEL 1
REMARK VINA RESULT:      -9.5      0.000      0.000
REMARK SMILES CCCc1nnsc1C(=O)NC[C@@H]1CC[C@@H](C(=O)NCCCNC(=O)c2ccc(-c3c4nc(c(-c5ccc(S(=O)(=O)[O-])cc5)c5ccc([nH]5)c(-c5ccc(S(=O)(=O)[O-])cc5)c5nc(c(-c6ccc(S(=O)(=O)[O-])cc6)c6ccc3[nH]6)C=C5)C=C4)cc2)O1
REMARK SMILES IDX 20 1 19 2 17 3 18 4 16 6 13 7 14 8 86 9 15 10 12 11 11 12
REMARK SMILES IDX 9 13 10 14 8 16 4 17 5 18 6 19 7 20 3 21 2 22 1 23 21 24
REMARK SMILES IDX 22 25 23 26 24 27 25 29 26 30 27 31 85 32 28 33 84 34 29 35
REMARK SMILES IDX 30 36 31 37 78 38 32 39 83 40 77 41 79 42 33 43 82 44 76 45
REMARK SMILES IDX 75 46 34 48 64 49 45 50 63 51 46 52 49 53 62 54 80 55 47 56
REMARK SMILES IDX 48 57 61 59 81 60 50 61 35 62 36 63 44 64 37 65 43 66 38 67
REMARK SMILES IDX 39 68 40 69 41 70 42 71 65 72 66 73 74 74 67 75 73 76 68 77
REMARK SMILES IDX 69 78 70 79 71 80 72 81 51 82 52 83 60 84 53 85 59 86 54 87
REMARK SMILES IDX 55 88 56 89 57 90 58 91
REMARK H PARENT 19 5 11 15 23 28 79 47 49 58
REMARK Flexibility Score: inf
ROOT
ATOM      1  C   UNL A   1      34.746  34.234  29.221  1.00  0.00     0.117 C 
ENDROOT
BRANCH   1   2
ATOM      2  N   UNL A   1      33.920  35.085  30.069  1.00  0.00    -0.354 N 
ATOM      3  C   UNL A   1      34.010  35.287  31.425  1.00  0.00     0.249 C 
ATOM      4  O   UNL A   1      33.262  36.106  31.959  1.00  0.00    -0.272 OA
ATOM      5  H   UNL A   1      33.204  35.582  29.610  1.00  0.00     0.163 HD
BRANCH   3   6
ATOM      6  C   UNL A   1      34.988  34.423  32.223  1.00  0.00     0.207 C 
ATOM      7  C   UNL A   1      36.377  34.595  34.093  1.00  0.00     0.138 C 
ATOM      8  C   UNL A   1      35.542  33.332  34.238  1.00  0.00     0.037 C 
ATOM      9  O   UNL A   1      35.915  35.254  32.917  1.00  0.00    -0.363 OA
ATOM     10  C   UNL A   1      34.362  33.582  33.317  1.00  0.00     0.045 C 
BRANCH   7  11
ATOM     11  C   UNL A   1      37.888  34.338  33.930  1.00  0.00     0.148 C 
BRANCH  11  12
ATOM     12  N   UNL A   1      38.620  34.616  35.156  1.00  0.00    -0.349 N 
ATOM     13  C   UNL A   1      38.837  34.036  36.372  1.00  0.00     0.265 C 
ATOM     14  O   UNL A   1      39.547  34.741  37.101  1.00  0.00    -0.268 OA
ATOM     15  H   UNL A   1      39.100  35.474  35.088  1.00  0.00     0.163 HD
BRANCH  13  16
ATOM     16  C   UNL A   1      38.336  32.747  36.808  1.00  0.00     0.136 A 
ATOM     17  C   UNL A   1      38.164  31.448  36.328  1.00  0.00     0.088 A 
ATOM     18  N   UNL A   1      37.609  30.550  37.243  1.00  0.00    -0.142 NA
ATOM     19  N   UNL A   1      37.305  31.115  38.390  1.00  0.00    -0.090 NA
ATOM     20  S   UNL A   1      37.698  32.725  38.433  1.00  0.00    -0.006 S 
BRANCH  17  21
ATOM     21  C   UNL A   1      38.500  30.871  34.999  1.00  0.00     0.060 C 
BRANCH  21  22
ATOM     22  C   UNL A   1      39.965  30.897  34.571  1.00  0.00     0.003 C 
ATOM     23  C   UNL A   1      40.325  29.766  33.615  1.00  0.00     0.004 C 
ENDBRANCH  21  22
ENDBRANCH  17  21
ENDBRANCH  13  16
ENDBRANCH  11  12
ENDBRANCH   7  11
ENDBRANCH   3   6
ENDBRANCH   1   2
BRANCH   1  24
ATOM     24  C   UNL A   1      34.251  32.804  29.145  1.00  0.00     0.042 C 
BRANCH  24  25
ATOM     25  C   UNL A   1      34.137  32.266  27.734  1.00  0.00     0.118 C 
BRANCH  25  26
ATOM     26  N   UNL A   1      33.642  30.898  27.685  1.00  0.00    -0.352 N 
ATOM     27  C   UNL A   1      34.321  29.708  27.821  1.00  0.00     0.251 C 
ATOM     28  H   UNL A   1      32.673  30.809  27.532  1.00  0.00     0.163 HD
ATOM     29  O   UNL A   1      33.746  28.650  27.604  1.00  0.00    -0.269 OA
BRANCH  27  30
ATOM     30  C   UNL A   1      35.754  29.716  28.194  1.00  0.00     0.039 A 
ATOM     31  C   UNL A   1      36.110  29.395  29.505  1.00  0.00     0.014 A 
ATOM     32  C   UNL A   1      36.744  30.009  27.252  1.00  0.00     0.014 A 
ATOM     33  C   UNL A   1      37.460  29.279  29.846  1.00  0.00     0.010 A 
ATOM     34  C   UNL A   1      38.081  29.793  27.565  1.00  0.00     0.010 A 
ATOM     35  C   UNL A   1      38.455  29.423  28.864  1.00  0.00    -0.014 A 
BRANCH  35  36
ATOM     36  C   UNL A   1      39.886  29.167  29.171  1.00  0.00     0.031 A 
ATOM     37  C   UNL A   1      40.510  27.841  28.827  1.00  0.00     0.074 A 
ATOM     38  C   UNL A   1      40.604  30.103  29.823  1.00  0.00     0.049 A 
ATOM     39  N   UNL A   1      41.723  27.415  29.073  1.00  0.00    -0.248 NA
ATOM     40  C   UNL A   1      39.657  26.856  28.140  1.00  0.00     0.031 C 
ATOM     41  C   UNL A   1      40.100  31.412  30.253  1.00  0.00     0.029 A 
ATOM     42  N   UNL A   1      41.910  30.100  30.245  1.00  0.00    -0.354 N 
ATOM     43  C   UNL A   1      41.775  26.116  28.581  1.00  0.00     0.074 A 
ATOM     44  C   UNL A   1      40.457  25.802  28.074  1.00  0.00     0.031 C 
ATOM     45  C   UNL A   1      41.093  32.093  30.846  1.00  0.00     0.029 A 
ATOM     46  C   UNL A   1      42.287  31.257  30.887  1.00  0.00     0.049 A 
ATOM     47  H   UNL A   1      42.520  29.341  30.101  1.00  0.00     0.167 HD
ATOM     48  C   UNL A   1      42.829  25.267  28.538  1.00  0.00     0.031 A 
ATOM     49  C   UNL A   1      43.458  31.604  31.456  1.00  0.00     0.031 A 
ATOM     50  C   UNL A   1      44.141  25.584  29.038  1.00  0.00     0.049 A 
ATOM     51  C   UNL A   1      44.605  30.634  31.416  1.00  0.00     0.074 A 
ATOM     52  C   UNL A   1      45.288  24.811  28.993  1.00  0.00     0.029 A 
ATOM     53  N   UNL A   1      44.482  26.766  29.679  1.00  0.00    -0.354 N 
ATOM     54  N   UNL A   1      44.652  29.435  30.885  1.00  0.00    -0.248 NA
ATOM     55  C   UNL A   1      45.862  31.065  32.044  1.00  0.00     0.031 C 
ATOM     56  C   UNL A   1      46.305  25.499  29.660  1.00  0.00     0.029 A 
ATOM     57  C   UNL A   1      45.812  26.730  30.061  1.00  0.00     0.049 A 
ATOM     58  H   UNL A   1      43.867  27.519  29.839  1.00  0.00     0.167 HD
ATOM     59  C   UNL A   1      45.951  28.981  31.091  1.00  0.00     0.074 A 
ATOM     60  C   UNL A   1      46.661  30.041  31.777  1.00  0.00     0.031 C 
ATOM     61  C   UNL A   1      46.505  27.793  30.746  1.00  0.00     0.031 A 
BRANCH  48  62
ATOM     62  C   UNL A   1      42.610  23.907  27.926  1.00  0.00    -0.014 A 
ATOM     63  C   UNL A   1      42.860  23.676  26.561  1.00  0.00     0.010 A 
ATOM     64  C   UNL A   1      42.208  22.831  28.738  1.00  0.00     0.010 A 
ATOM     65  C   UNL A   1      42.680  22.403  26.012  1.00  0.00     0.020 A 
ATOM     66  C   UNL A   1      42.058  21.550  28.200  1.00  0.00     0.020 A 
ATOM     67  C   UNL A   1      42.282  21.347  26.837  1.00  0.00     0.054 A 
BRANCH  67  68
ATOM     68  S   UNL A   1      42.099  19.697  26.106  1.00  0.00     0.124 S 
ATOM     69  O   UNL A   1      40.678  19.675  25.765  1.00  0.00    -0.237 OA
ATOM     70  O   UNL A   1      43.016  19.748  24.971  1.00  0.00    -0.237 OA
ATOM     71  O   UNL A   1      42.494  18.793  27.183  1.00  0.00    -0.744 OA
ENDBRANCH  67  68
ENDBRANCH  48  62
BRANCH  49  72
ATOM     72  C   UNL A   1      43.602  32.932  32.117  1.00  0.00    -0.014 A 
ATOM     73  C   UNL A   1      43.279  33.096  33.476  1.00  0.00     0.010 A 
ATOM     74  C   UNL A   1      44.062  34.043  31.387  1.00  0.00     0.010 A 
ATOM     75  C   UNL A   1      43.388  34.350  34.085  1.00  0.00     0.020 A 
ATOM     76  C   UNL A   1      44.202  35.291  32.000  1.00  0.00     0.020 A 
ATOM     77  C   UNL A   1      43.848  35.440  33.342  1.00  0.00     0.054 A 
BRANCH  77  78
ATOM     78  S   UNL A   1      44.014  37.050  34.160  1.00  0.00     0.124 S 
ATOM     79  O   UNL A   1      44.834  36.718  35.321  1.00  0.00    -0.237 OA
ATOM     80  O   UNL A   1      44.666  37.860  33.134  1.00  0.00    -0.237 OA
ATOM     81  O   UNL A   1      42.633  37.427  34.456  1.00  0.00    -0.744 OA
ENDBRANCH  77  78
ENDBRANCH  49  72
BRANCH  61  82
ATOM     82  C   UNL A   1      47.959  27.584  31.075  1.00  0.00    -0.014 A 
ATOM     83  C   UNL A   1      48.357  26.995  32.288  1.00  0.00     0.010 A 
ATOM     84  C   UNL A   1      48.942  27.939  30.132  1.00  0.00     0.010 A 
ATOM     85  C   UNL A   1      49.713  26.797  32.566  1.00  0.00     0.020 A 
ATOM     86  C   UNL A   1      50.296  27.713  30.391  1.00  0.00     0.020 A 
ATOM     87  C   UNL A   1      50.673  27.157  31.615  1.00  0.00     0.054 A 
BRANCH  87  88
ATOM     88  S   UNL A   1      52.422  26.850  31.984  1.00  0.00     0.124 S 
ATOM     89  O   UNL A   1      52.523  25.405  31.800  1.00  0.00    -0.237 OA
ATOM     90  O   UNL A   1      53.108  27.662  30.982  1.00  0.00    -0.237 OA
ATOM     91  O   UNL A   1      52.573  27.313  33.362  1.00  0.00    -0.744 OA
ENDBRANCH  87  88
ENDBRANCH  61  82
ENDBRANCH  35  36
ENDBRANCH  27  30
ENDBRANCH  25  26
ENDBRANCH  24  25
ENDBRANCH   1  24
TORSDOF 18
ENDMDL
MODEL 2
REMARK VINA RESULT:      -9.4      3.872     11.058
REMARK SMILES CCCc1nnsc1C(=O)NC[C@@H]1CC[C@@H](C(=O)NCCCNC(=O)c2ccc(-c3c4nc(c(-c5ccc(S(=O)(=O)[O-])cc5)c5ccc([nH]5)c(-c5ccc(S(=O)(=O)[O-])cc5)c5nc(c(-c6ccc(S(=O)(=O)[O-])cc6)c6ccc3[nH]6)C=C5)C=C4)cc2)O1
REMARK SMILES IDX 20 1 19 2 17 3 18 4 16 6 13 7 14 8 86 9 15 10 12 11 11 12
REMARK SMILES IDX 9 13 10 14 8 16 4 17 5 18 6 19 7 20 3 21 2 22 1 23 21 24
REMARK SMILES IDX 22 25 23 26 24 27 25 29 26 30 27 31 85 32 28 33 84 34 29 35
REMARK SMILES IDX 30 36 31 37 78 38 32 39 83 40 77 41 79 42 33 43 82 44 76 45
REMARK SMILES IDX 75 46 34 48 64 49 45 50 63 51 46 52 49 53 62 54 80 55 47 56
REMARK SMILES IDX 48 57 61 59 81 60 50 61 35 62 36 63 44 64 37 65 43 66 38 67
REMARK SMILES IDX 39 68 40 69 41 70 42 71 65 72 66 73 74 74 67 75 73 76 68 77
REMARK SMILES IDX 69 78 70 79 71 80 72 81 51 82 52 83 60 84 53 85 59 86 54 87
REMARK SMILES IDX 55 88 56 89 57 90 58 91
REMARK H PARENT 19 5 11 15 23 28 79 47 49 58
REMARK Flexibility Score: inf
ROOT
ATOM      1  C   UNL A   1      32.231  28.095  25.131  1.00  0.00     0.117 C 
ENDROOT
BRANCH   1   2
ATOM      2  N   UNL A   1      31.055  28.569  24.410  1.00  0.00    -0.354 N 
ATOM      3  C   UNL A   1      30.108  27.832  23.741  1.00  0.00     0.249 C 
ATOM      4  O   UNL A   1      29.139  28.410  23.249  1.00  0.00    -0.272 OA
ATOM      5  H   UNL A   1      30.921  29.544  24.402  1.00  0.00     0.163 HD
BRANCH   3   6
ATOM      6  C   UNL A   1      30.345  26.331  23.572  1.00  0.00     0.207 C 
ATOM      7  C   UNL A   1      32.093  24.789  23.734  1.00  0.00     0.138 C 
ATOM      8  C   UNL A   1      30.913  24.254  24.532  1.00  0.00     0.037 C 
ATOM      9  O   UNL A   1      31.718  26.086  23.277  1.00  0.00    -0.363 OA
ATOM     10  C   UNL A   1      30.083  25.493  24.807  1.00  0.00     0.045 C 
BRANCH   7  11
ATOM     11  C   UNL A   1      32.459  23.940  22.501  1.00  0.00     0.148 C 
BRANCH  11  12
ATOM     12  N   UNL A   1      33.862  23.552  22.507  1.00  0.00    -0.349 N 
ATOM     13  C   UNL A   1      34.736  22.891  23.319  1.00  0.00     0.265 C 
ATOM     14  O   UNL A   1      35.880  22.867  22.845  1.00  0.00    -0.268 OA
ATOM     15  H   UNL A   1      34.311  23.857  21.685  1.00  0.00     0.163 HD
BRANCH  13  16
ATOM     16  C   UNL A   1      34.421  22.260  24.586  1.00  0.00     0.136 A 
ATOM     17  C   UNL A   1      33.562  21.295  25.115  1.00  0.00     0.088 A 
ATOM     18  N   UNL A   1      33.709  21.064  26.485  1.00  0.00    -0.142 NA
ATOM     19  N   UNL A   1      34.614  21.840  27.038  1.00  0.00    -0.090 NA
ATOM     20  S   UNL A   1      35.343  22.850  25.945  1.00  0.00    -0.006 S 
BRANCH  17  21
ATOM     21  C   UNL A   1      32.528  20.465  24.440  1.00  0.00     0.060 C 
BRANCH  21  22
ATOM     22  C   UNL A   1      32.658  18.949  24.557  1.00  0.00     0.003 C 
ATOM     23  C   UNL A   1      34.085  18.458  24.348  1.00  0.00     0.004 C 
ENDBRANCH  21  22
ENDBRANCH  17  21
ENDBRANCH  13  16
ENDBRANCH  11  12
ENDBRANCH   7  11
ENDBRANCH   3   6
ENDBRANCH   1   2
BRANCH   1  24
ATOM     24  C   UNL A   1      32.040  28.065  26.633  1.00  0.00     0.042 C 
BRANCH  24  25
ATOM     25  C   UNL A   1      33.258  28.507  27.418  1.00  0.00     0.118 C 
BRANCH  25  26
ATOM     26  N   UNL A   1      33.313  29.948  27.621  1.00  0.00    -0.352 N 
ATOM     27  C   UNL A   1      34.343  30.736  28.080  1.00  0.00     0.251 C 
ATOM     28  H   UNL A   1      32.486  30.433  27.394  1.00  0.00     0.163 HD
ATOM     29  O   UNL A   1      34.144  31.920  28.318  1.00  0.00    -0.269 OA
BRANCH  27  30
ATOM     30  C   UNL A   1      35.677  30.140  28.319  1.00  0.00     0.039 A 
ATOM     31  C   UNL A   1      36.608  30.135  27.279  1.00  0.00     0.014 A 
ATOM     32  C   UNL A   1      36.021  29.615  29.567  1.00  0.00     0.014 A 
ATOM     33  C   UNL A   1      37.910  29.688  27.519  1.00  0.00     0.010 A 
ATOM     34  C   UNL A   1      37.340  29.268  29.832  1.00  0.00     0.010 A 
ATOM     35  C   UNL A   1      38.301  29.302  28.812  1.00  0.00    -0.014 A 
BRANCH  35  36
ATOM     36  C   UNL A   1      39.712  28.958  29.121  1.00  0.00     0.031 A 
ATOM     37  C   UNL A   1      40.630  29.986  29.727  1.00  0.00     0.074 A 
ATOM     38  C   UNL A   1      40.187  27.739  28.791  1.00  0.00     0.049 A 
ATOM     39  N   UNL A   1      41.905  29.887  30.008  1.00  0.00    -0.248 NA
ATOM     40  C   UNL A   1      40.049  31.304  30.035  1.00  0.00     0.031 C 
ATOM     41  C   UNL A   1      39.409  26.670  28.157  1.00  0.00     0.029 A 
ATOM     42  N   UNL A   1      41.437  27.193  28.938  1.00  0.00    -0.354 N 
ATOM     43  C   UNL A   1      42.278  31.126  30.515  1.00  0.00     0.074 A 
ATOM     44  C   UNL A   1      41.112  31.979  30.450  1.00  0.00     0.031 C 
ATOM     45  C   UNL A   1      40.192  25.590  28.000  1.00  0.00     0.029 A 
ATOM     46  C   UNL A   1      41.536  25.903  28.472  1.00  0.00     0.049 A 
ATOM     47  H   UNL A   1      42.193  27.680  29.339  1.00  0.00     0.167 HD
ATOM     48  C   UNL A   1      43.478  31.514  31.007  1.00  0.00     0.031 A 
ATOM     49  C   UNL A   1      42.590  25.066  28.420  1.00  0.00     0.031 A 
ATOM     50  C   UNL A   1      44.636  30.662  31.075  1.00  0.00     0.049 A 
ATOM     51  C   UNL A   1      43.919  25.530  28.950  1.00  0.00     0.074 A 
ATOM     52  C   UNL A   1      45.882  30.946  31.605  1.00  0.00     0.029 A 
ATOM     53  N   UNL A   1      44.694  29.362  30.595  1.00  0.00    -0.354 N 
ATOM     54  N   UNL A   1      44.232  26.685  29.488  1.00  0.00    -0.248 NA
ATOM     55  C   UNL A   1      45.033  24.576  28.876  1.00  0.00     0.031 C 
ATOM     56  C   UNL A   1      46.711  29.841  31.391  1.00  0.00     0.029 A 
ATOM     57  C   UNL A   1      45.962  28.843  30.789  1.00  0.00     0.049 A 
ATOM     58  H   UNL A   1      43.942  28.881  30.178  1.00  0.00     0.167 HD
ATOM     59  C   UNL A   1      45.574  26.585  29.841  1.00  0.00     0.074 A 
ATOM     60  C   UNL A   1      46.005  25.251  29.474  1.00  0.00     0.031 C 
ATOM     61  C   UNL A   1      46.378  27.513  30.416  1.00  0.00     0.031 A 
BRANCH  48  62
ATOM     62  C   UNL A   1      43.604  32.928  31.516  1.00  0.00    -0.014 A 
ATOM     63  C   UNL A   1      43.347  33.241  32.863  1.00  0.00     0.010 A 
ATOM     64  C   UNL A   1      44.044  33.946  30.650  1.00  0.00     0.010 A 
ATOM     65  C   UNL A   1      43.496  34.551  33.327  1.00  0.00     0.020 A 
ATOM     66  C   UNL A   1      44.224  35.251  31.117  1.00  0.00     0.020 A 
ATOM     67  C   UNL A   1      43.936  35.547  32.451  1.00  0.00     0.054 A 
BRANCH  67  68
ATOM     68  S   UNL A   1      44.160  37.229  33.093  1.00  0.00     0.124 S 
ATOM     69  O   UNL A   1      45.555  37.200  33.531  1.00  0.00    -0.237 OA
ATOM     70  O   UNL A   1      43.887  38.057  31.922  1.00  0.00    -0.237 OA
ATOM     71  O   UNL A   1      43.174  37.326  34.166  1.00  0.00    -0.744 OA
ENDBRANCH  67  68
ENDBRANCH  48  62
BRANCH  49  72
ATOM     72  C   UNL A   1      42.434  23.703  27.837  1.00  0.00    -0.014 A 
ATOM     73  C   UNL A   1      42.058  22.616  28.646  1.00  0.00     0.010 A 
ATOM     74  C   UNL A   1      42.666  23.484  26.467  1.00  0.00     0.010 A 
ATOM     75  C   UNL A   1      41.942  21.333  28.102  1.00  0.00     0.020 A 
ATOM     76  C   UNL A   1      42.521  22.210  25.913  1.00  0.00     0.020 A 
ATOM     77  C   UNL A   1      42.175  21.139  26.738  1.00  0.00     0.054 A 
BRANCH  77  78
ATOM     78  S   UNL A   1      41.986  19.473  26.045  1.00  0.00     0.124 S 
ATOM     79  O   UNL A   1      40.552  19.416  25.779  1.00  0.00    -0.237 OA
ATOM     80  O   UNL A   1      42.849  19.522  24.868  1.00  0.00    -0.237 OA
ATOM     81  O   UNL A   1      42.460  18.601  27.119  1.00  0.00    -0.744 OA
ENDBRANCH  77  78
ENDBRANCH  49  72
BRANCH  61  82
ATOM     82  C   UNL A   1      47.798  27.113  30.713  1.00  0.00    -0.014 A 
ATOM     83  C   UNL A   1      48.811  27.240  29.746  1.00  0.00     0.010 A 
ATOM     84  C   UNL A   1      48.134  26.648  31.998  1.00  0.00     0.010 A 
ATOM     85  C   UNL A   1      50.126  26.877  30.049  1.00  0.00     0.020 A 
ATOM     86  C   UNL A   1      49.453  26.314  32.315  1.00  0.00     0.020 A 
ATOM     87  C   UNL A   1      50.439  26.416  31.332  1.00  0.00     0.054 A 
BRANCH  87  88
ATOM     88  S   UNL A   1      52.160  25.992  31.710  1.00  0.00     0.124 S 
ATOM     89  O   UNL A   1      52.827  26.263  30.440  1.00  0.00    -0.237 OA
ATOM     90  O   UNL A   1      52.485  26.910  32.800  1.00  0.00    -0.237 OA
ATOM     91  O   UNL A   1      52.096  24.582  32.090  1.00  0.00    -0.744 OA
ENDBRANCH  87  88
ENDBRANCH  61  82
ENDBRANCH  35  36
ENDBRANCH  27  30
ENDBRANCH  25  26
ENDBRANCH  24  25
ENDBRANCH   1  24
TORSDOF 18
ENDMDL
MODEL 3
REMARK VINA RESULT:      -9.4      3.495      9.686
REMARK SMILES CCCc1nnsc1C(=O)NC[C@@H]1CC[C@@H](C(=O)NCCCNC(=O)c2ccc(-c3c4nc(c(-c5ccc(S(=O)(=O)[O-])cc5)c5ccc([nH]5)c(-c5ccc(S(=O)(=O)[O-])cc5)c5nc(c(-c6ccc(S(=O)(=O)[O-])cc6)c6ccc3[nH]6)C=C5)C=C4)cc2)O1
REMARK SMILES IDX 20 1 19 2 17 3 18 4 16 6 13 7 14 8 86 9 15 10 12 11 11 12
REMARK SMILES IDX 9 13 10 14 8 16 4 17 5 18 6 19 7 20 3 21 2 22 1 23 21 24
REMARK SMILES IDX 22 25 23 26 24 27 25 29 26 30 27 31 85 32 28 33 84 34 29 35
REMARK SMILES IDX 30 36 31 37 78 38 32 39 83 40 77 41 79 42 33 43 82 44 76 45
REMARK SMILES IDX 75 46 34 48 64 49 45 50 63 51 46 52 49 53 62 54 80 55 47 56
REMARK SMILES IDX 48 57 61 59 81 60 50 61 35 62 36 63 44 64 37 65 43 66 38 67
REMARK SMILES IDX 39 68 40 69 41 70 42 71 65 72 66 73 74 74 67 75 73 76 68 77
REMARK SMILES IDX 69 78 70 79 71 80 72 81 51 82 52 83 60 84 53 85 59 86 54 87
REMARK SMILES IDX 55 88 56 89 57 90 58 91
REMARK H PARENT 19 5 11 15 23 28 79 47 49 58
REMARK Flexibility Score: inf
ROOT
ATOM      1  C   UNL A   1      38.271  34.711  33.120  1.00  0.00     0.117 C 
ENDROOT
BRANCH   1   2
ATOM      2  N   UNL A   1      37.268  34.312  34.101  1.00  0.00    -0.354 N 
ATOM      3  C   UNL A   1      35.903  34.458  34.037  1.00  0.00     0.249 C 
ATOM      4  O   UNL A   1      35.209  33.989  34.939  1.00  0.00    -0.272 OA
ATOM      5  H   UNL A   1      37.613  33.879  34.915  1.00  0.00     0.163 HD
BRANCH   3   6
ATOM      6  C   UNL A   1      35.315  35.268  32.881  1.00  0.00     0.207 C 
ATOM      7  C   UNL A   1      33.720  35.031  31.190  1.00  0.00     0.138 C 
ATOM      8  C   UNL A   1      33.458  36.347  31.907  1.00  0.00     0.037 C 
ATOM      9  O   UNL A   1      34.779  34.388  31.896  1.00  0.00    -0.363 OA
ATOM     10  C   UNL A   1      34.146  36.161  33.247  1.00  0.00     0.045 C 
BRANCH   7  11
ATOM     11  C   UNL A   1      34.157  35.188  29.721  1.00  0.00     0.148 C 
BRANCH  11  12
ATOM     12  N   UNL A   1      33.142  34.704  28.798  1.00  0.00    -0.349 N 
ATOM     13  C   UNL A   1      32.936  33.638  27.972  1.00  0.00     0.265 C 
ATOM     14  O   UNL A   1      31.869  33.734  27.350  1.00  0.00    -0.268 OA
ATOM     15  H   UNL A   1      32.382  35.329  28.758  1.00  0.00     0.163 HD
BRANCH  13  16
ATOM     16  C   UNL A   1      33.815  32.497  27.810  1.00  0.00     0.136 A 
ATOM     17  C   UNL A   1      33.754  31.133  27.519  1.00  0.00     0.088 A 
ATOM     18  N   UNL A   1      34.991  30.484  27.477  1.00  0.00    -0.142 NA
ATOM     19  N   UNL A   1      35.994  31.281  27.765  1.00  0.00    -0.090 NA
ATOM     20  S   UNL A   1      35.508  32.837  28.066  1.00  0.00    -0.006 S 
BRANCH  17  21
ATOM     21  C   UNL A   1      32.576  30.271  27.231  1.00  0.00     0.060 C 
BRANCH  21  22
ATOM     22  C   UNL A   1      32.727  28.771  27.475  1.00  0.00     0.003 C 
ATOM     23  C   UNL A   1      31.600  27.953  26.856  1.00  0.00     0.004 C 
ENDBRANCH  21  22
ENDBRANCH  17  21
ENDBRANCH  13  16
ENDBRANCH  11  12
ENDBRANCH   7  11
ENDBRANCH   3   6
ENDBRANCH   1   2
BRANCH   1  24
ATOM     24  C   UNL A   1      38.774  33.558  32.276  1.00  0.00     0.042 C 
BRANCH  24  25
ATOM     25  C   UNL A   1      37.849  33.179  31.137  1.00  0.00     0.118 C 
BRANCH  25  26
ATOM     26  N   UNL A   1      36.888  32.150  31.504  1.00  0.00    -0.352 N 
ATOM     27  C   UNL A   1      36.938  30.788  31.313  1.00  0.00     0.251 C 
ATOM     28  H   UNL A   1      36.078  32.477  31.958  1.00  0.00     0.163 HD
ATOM     29  O   UNL A   1      35.957  30.101  31.566  1.00  0.00    -0.269 OA
BRANCH  27  30
ATOM     30  C   UNL A   1      38.165  30.164  30.769  1.00  0.00     0.039 A 
ATOM     31  C   UNL A   1      38.346  30.129  29.386  1.00  0.00     0.014 A 
ATOM     32  C   UNL A   1      39.146  29.641  31.616  1.00  0.00     0.014 A 
ATOM     33  C   UNL A   1      39.550  29.654  28.858  1.00  0.00     0.010 A 
ATOM     34  C   UNL A   1      40.380  29.266  31.096  1.00  0.00     0.010 A 
ATOM     35  C   UNL A   1      40.597  29.270  29.712  1.00  0.00    -0.014 A 
BRANCH  35  36
ATOM     36  C   UNL A   1      41.932  28.897  29.177  1.00  0.00     0.031 A 
ATOM     37  C   UNL A   1      43.017  29.933  29.050  1.00  0.00     0.074 A 
ATOM     38  C   UNL A   1      42.144  27.639  28.740  1.00  0.00     0.049 A 
ATOM     39  N   UNL A   1      44.220  29.807  28.550  1.00  0.00    -0.248 NA
ATOM     40  C   UNL A   1      42.703  31.292  29.522  1.00  0.00     0.031 C 
ATOM     41  C   UNL A   1      41.157  26.554  28.766  1.00  0.00     0.029 A 
ATOM     42  N   UNL A   1      43.256  27.058  28.184  1.00  0.00    -0.354 N 
ATOM     43  C   UNL A   1      44.801  31.066  28.639  1.00  0.00     0.074 A 
ATOM     44  C   UNL A   1      43.801  31.956  29.187  1.00  0.00     0.031 C 
ATOM     45  C   UNL A   1      41.719  25.436  28.279  1.00  0.00     0.029 A 
ATOM     46  C   UNL A   1      43.084  25.732  27.860  1.00  0.00     0.049 A 
ATOM     47  H   UNL A   1      44.098  27.545  28.031  1.00  0.00     0.167 HD
ATOM     48  C   UNL A   1      46.059  31.445  28.313  1.00  0.00     0.031 A 
ATOM     49  C   UNL A   1      43.925  24.853  27.280  1.00  0.00     0.031 A 
ATOM     50  C   UNL A   1      47.054  30.556  27.772  1.00  0.00     0.049 A 
ATOM     51  C   UNL A   1      45.309  25.305  26.903  1.00  0.00     0.074 A 
ATOM     52  C   UNL A   1      48.373  30.832  27.458  1.00  0.00     0.029 A 
ATOM     53  N   UNL A   1      46.841  29.221  27.461  1.00  0.00    -0.354 N 
ATOM     54  N   UNL A   1      45.860  26.486  27.060  1.00  0.00    -0.248 NA
ATOM     55  C   UNL A   1      46.188  24.306  26.281  1.00  0.00     0.031 C 
ATOM     56  C   UNL A   1      48.939  29.682  26.900  1.00  0.00     0.029 A 
ATOM     57  C   UNL A   1      47.994  28.670  26.930  1.00  0.00     0.049 A 
ATOM     58  H   UNL A   1      45.993  28.738  27.598  1.00  0.00     0.167 HD
ATOM     59  C   UNL A   1      47.160  26.361  26.579  1.00  0.00     0.074 A 
ATOM     60  C   UNL A   1      47.317  24.987  26.147  1.00  0.00     0.031 C 
ATOM     61  C   UNL A   1      48.135  27.300  26.502  1.00  0.00     0.031 A 
BRANCH  48  62
ATOM     62  C   UNL A   1      46.436  32.888  28.531  1.00  0.00    -0.014 A 
ATOM     63  C   UNL A   1      46.232  33.852  27.527  1.00  0.00     0.010 A 
ATOM     64  C   UNL A   1      46.945  33.297  29.777  1.00  0.00     0.010 A 
ATOM     65  C   UNL A   1      46.559  35.191  27.753  1.00  0.00     0.020 A 
ATOM     66  C   UNL A   1      47.245  34.641  30.018  1.00  0.00     0.020 A 
ATOM     67  C   UNL A   1      47.062  35.578  28.999  1.00  0.00     0.054 A 
BRANCH  67  68
ATOM     68  S   UNL A   1      47.438  37.330  29.277  1.00  0.00     0.124 S 
ATOM     69  O   UNL A   1      48.900  37.328  29.275  1.00  0.00    -0.237 OA
ATOM     70  O   UNL A   1      46.809  37.977  28.129  1.00  0.00    -0.237 OA
ATOM     71  O   UNL A   1      46.819  37.619  30.568  1.00  0.00    -0.744 OA
ENDBRANCH  67  68
ENDBRANCH  48  62
BRANCH  49  72
ATOM     72  C   UNL A   1      43.479  23.456  27.015  1.00  0.00    -0.014 A 
ATOM     73  C   UNL A   1      43.087  23.061  25.723  1.00  0.00     0.010 A 
ATOM     74  C   UNL A   1      43.442  22.512  28.056  1.00  0.00     0.010 A 
ATOM     75  C   UNL A   1      42.640  21.758  25.485  1.00  0.00     0.020 A 
ATOM     76  C   UNL A   1      43.026  21.200  27.816  1.00  0.00     0.020 A 
ATOM     77  C   UNL A   1      42.613  20.835  26.533  1.00  0.00     0.054 A 
BRANCH  77  78
ATOM     78  S   UNL A   1      42.063  19.140  26.195  1.00  0.00     0.124 S 
ATOM     79  O   UNL A   1      42.235  18.500  27.496  1.00  0.00    -0.237 OA
ATOM     80  O   UNL A   1      40.681  19.337  25.764  1.00  0.00    -0.237 OA
ATOM     81  O   UNL A   1      42.976  18.687  25.148  1.00  0.00    -0.744 OA
ENDBRANCH  77  78
ENDBRANCH  49  72
BRANCH  61  82
ATOM     82  C   UNL A   1      49.471  26.869  25.957  1.00  0.00    -0.014 A 
ATOM     83  C   UNL A   1      49.841  27.143  24.628  1.00  0.00     0.010 A 
ATOM     84  C   UNL A   1      50.390  26.223  26.805  1.00  0.00     0.010 A 
ATOM     85  C   UNL A   1      51.093  26.747  24.148  1.00  0.00     0.020 A 
ATOM     86  C   UNL A   1      51.655  25.855  26.338  1.00  0.00     0.020 A 
ATOM     87  C   UNL A   1      51.992  26.106  25.006  1.00  0.00     0.054 A 
BRANCH  87  88
ATOM     88  S   UNL A   1      53.624  25.641  24.369  1.00  0.00     0.124 S 
ATOM     89  O   UNL A   1      53.674  24.214  24.671  1.00  0.00    -0.237 OA
ATOM     90  O   UNL A   1      53.524  25.982  22.952  1.00  0.00    -0.237 OA
ATOM     91  O   UNL A   1      54.547  26.472  25.139  1.00  0.00    -0.744 OA
ENDBRANCH  87  88
ENDBRANCH  61  82
ENDBRANCH  35  36
ENDBRANCH  27  30
ENDBRANCH  25  26
ENDBRANCH  24  25
ENDBRANCH   1  24
TORSDOF 18
ENDMDL
