MODEL 1
REMARK VINA RESULT:     -12.6      0.000      0.000
REMARK SMILES CC(C)(C)c1cc(Nc2ccccc2C(=O)NCCCNC(=O)c2ccc(-c3c4nc(c(-c5ccc(S(=O)(=O)[O-])cc5)c5ccc([nH]5)c(-c5ccc(S(=O)(=O)[O-])cc5)c5nc(c(-c6ccc(S(=O)(=O)[O-])cc6)c6ccc3[nH]6)C=C5)C=C4)cc2)cc2c1OCC2(C)C
REMARK SMILES IDX 19 1 18 2 17 3 15 4 16 5 14 7 9 8 10 9 11 10 13 11 12 12
REMARK SMILES IDX 8 13 7 15 5 16 6 17 86 18 85 19 87 20 84 21 89 22 88 23
REMARK SMILES IDX 90 24 91 25 2 26 1 27 3 28 4 29 20 30 21 31 22 32 23 34
REMARK SMILES IDX 24 35 25 36 83 37 26 38 82 39 27 40 28 41 29 42 76 43 30 44
REMARK SMILES IDX 81 45 75 46 77 47 31 48 80 49 74 50 73 51 32 53 62 54 43 55
REMARK SMILES IDX 61 56 44 57 47 58 60 59 78 60 45 61 46 62 59 64 79 65 48 66
REMARK SMILES IDX 33 67 34 68 42 69 35 70 41 71 36 72 37 73 38 74 39 75 40 76
REMARK SMILES IDX 63 77 64 78 72 79 65 80 71 81 66 82 67 83 68 84 69 85 70 86
REMARK SMILES IDX 49 87 50 88 58 89 51 90 57 91 52 92 53 93 54 94 55 95 56 96
REMARK H PARENT 17 6 8 14 21 33 77 52 47 63
REMARK Flexibility Score: inf
ROOT
ATOM      1  C   UNL A   1      33.086  28.202  26.925  1.00  0.00     0.042 C 
ENDROOT
BRANCH   1   2
ATOM      2  C   UNL A   1      31.613  27.864  26.690  1.00  0.00     0.118 C 
BRANCH   2   3
ATOM      3  N   UNL A   1      31.218  26.520  27.051  1.00  0.00    -0.352 N 
ATOM      4  C   UNL A   1      31.156  25.352  26.337  1.00  0.00     0.253 C 
ATOM      5  O   UNL A   1      30.768  24.361  26.968  1.00  0.00    -0.269 OA
ATOM      6  H   UNL A   1      30.939  26.426  27.991  1.00  0.00     0.163 HD
BRANCH   4   7
ATOM      7  C   UNL A   1      31.460  25.165  24.883  1.00  0.00     0.063 A 
ATOM      8  C   UNL A   1      31.414  23.983  24.117  1.00  0.00     0.051 A 
ATOM      9  C   UNL A   1      31.556  24.082  22.712  1.00  0.00     0.027 A 
ATOM     10  C   UNL A   1      31.796  25.293  22.070  1.00  0.00     0.002 A 
ATOM     11  C   UNL A   1      31.706  26.386  24.208  1.00  0.00     0.016 A 
ATOM     12  C   UNL A   1      31.888  26.451  22.824  1.00  0.00     0.001 A 
BRANCH   8  13
ATOM     13  N   UNL A   1      31.347  22.677  24.648  1.00  0.00    -0.355 N 
ATOM     14  H   UNL A   1      30.461  22.346  24.920  1.00  0.00     0.167 HD
BRANCH  13  15
ATOM     15  C   UNL A   1      32.452  21.800  24.822  1.00  0.00     0.039 A 
ATOM     16  C   UNL A   1      34.912  21.541  24.871  1.00  0.00     0.002 A 
ATOM     17  C   UNL A   1      33.750  22.341  24.949  1.00  0.00     0.034 A 
ATOM     18  C   UNL A   1      34.703  20.167  24.743  1.00  0.00     0.127 A 
ATOM     19  C   UNL A   1      33.440  19.605  24.715  1.00  0.00     0.006 A 
ATOM     20  O   UNL A   1      35.695  19.243  24.542  1.00  0.00    -0.492 OA
ATOM     21  C   UNL A   1      32.314  20.407  24.748  1.00  0.00     0.034 A 
ATOM     22  C   UNL A   1      33.525  18.124  24.551  1.00  0.00     0.028 C 
ATOM     23  C   UNL A   1      35.056  17.948  24.620  1.00  0.00     0.240 C 
ATOM     24  C   UNL A   1      32.827  17.387  25.697  1.00  0.00     0.020 C 
ATOM     25  C   UNL A   1      32.962  17.667  23.201  1.00  0.00     0.020 C 
BRANCH  16  26
ATOM     26  C   UNL A   1      36.315  22.150  24.778  1.00  0.00    -0.009 C 
ATOM     27  C   UNL A   1      36.664  22.636  23.354  1.00  0.00     0.016 C 
ATOM     28  C   UNL A   1      37.450  21.188  25.207  1.00  0.00     0.016 C 
ATOM     29  C   UNL A   1      36.354  23.343  25.741  1.00  0.00     0.016 C 
ENDBRANCH  16  26
ENDBRANCH  13  15
ENDBRANCH   8  13
ENDBRANCH   4   7
ENDBRANCH   2   3
ENDBRANCH   1   2
BRANCH   1  30
ATOM     30  C   UNL A   1      33.541  29.578  26.445  1.00  0.00     0.118 C 
BRANCH  30  31
ATOM     31  N   UNL A   1      33.630  30.610  27.470  1.00  0.00    -0.352 N 
ATOM     32  C   UNL A   1      34.603  31.055  28.335  1.00  0.00     0.251 C 
ATOM     33  H   UNL A   1      32.789  31.111  27.567  1.00  0.00     0.163 HD
ATOM     34  O   UNL A   1      34.318  32.051  29.007  1.00  0.00    -0.269 OA
BRANCH  32  35
ATOM     35  C   UNL A   1      35.916  30.386  28.577  1.00  0.00     0.039 A 
ATOM     36  C   UNL A   1      36.244  29.678  29.726  1.00  0.00     0.014 A 
ATOM     37  C   UNL A   1      36.909  30.517  27.584  1.00  0.00     0.014 A 
ATOM     38  C   UNL A   1      37.561  29.278  29.963  1.00  0.00     0.010 A 
ATOM     39  C   UNL A   1      38.220  30.049  27.789  1.00  0.00     0.010 A 
ATOM     40  C   UNL A   1      38.575  29.478  29.013  1.00  0.00    -0.014 A 
BRANCH  40  41
ATOM     41  C   UNL A   1      39.963  29.049  29.348  1.00  0.00     0.031 A 
ATOM     42  C   UNL A   1      40.834  29.845  30.285  1.00  0.00     0.074 A 
ATOM     43  C   UNL A   1      40.384  27.843  28.920  1.00  0.00     0.049 A 
ATOM     44  N   UNL A   1      41.910  29.464  30.928  1.00  0.00    -0.248 NA
ATOM     45  C   UNL A   1      40.444  31.232  30.563  1.00  0.00     0.031 C 
ATOM     46  C   UNL A   1      39.630  26.962  28.026  1.00  0.00     0.029 A 
ATOM     47  N   UNL A   1      41.518  27.127  29.216  1.00  0.00    -0.354 N 
ATOM     48  C   UNL A   1      42.276  30.539  31.733  1.00  0.00     0.074 A 
ATOM     49  C   UNL A   1      41.334  31.602  31.473  1.00  0.00     0.031 C 
ATOM     50  C   UNL A   1      40.282  25.798  27.907  1.00  0.00     0.029 A 
ATOM     51  C   UNL A   1      41.531  25.869  28.662  1.00  0.00     0.049 A 
ATOM     52  H   UNL A   1      42.250  27.480  29.771  1.00  0.00     0.167 HD
ATOM     53  C   UNL A   1      43.308  30.637  32.603  1.00  0.00     0.031 A 
ATOM     54  C   UNL A   1      42.439  24.877  28.744  1.00  0.00     0.031 A 
ATOM     55  C   UNL A   1      44.321  29.628  32.767  1.00  0.00     0.049 A 
ATOM     56  C   UNL A   1      43.664  25.072  29.588  1.00  0.00     0.074 A 
ATOM     57  C   UNL A   1      45.432  29.657  33.591  1.00  0.00     0.029 A 
ATOM     58  N   UNL A   1      44.375  28.438  32.061  1.00  0.00    -0.354 N 
ATOM     59  N   UNL A   1      43.954  26.068  30.392  1.00  0.00    -0.248 NA
ATOM     60  C   UNL A   1      44.688  24.021  29.535  1.00  0.00     0.031 C 
ATOM     61  C   UNL A   1      46.205  28.526  33.315  1.00  0.00     0.029 A 
ATOM     62  C   UNL A   1      45.535  27.754  32.380  1.00  0.00     0.049 A 
ATOM     63  H   UNL A   1      43.691  28.124  31.425  1.00  0.00     0.167 HD
ATOM     64  C   UNL A   1      45.196  25.766  30.936  1.00  0.00     0.074 A 
ATOM     65  C   UNL A   1      45.593  24.484  30.390  1.00  0.00     0.031 C 
ATOM     66  C   UNL A   1      45.936  26.491  31.809  1.00  0.00     0.031 A 
BRANCH  53  67
ATOM     67  C   UNL A   1      43.429  31.891  33.429  1.00  0.00    -0.014 A 
ATOM     68  C   UNL A   1      42.742  32.001  34.652  1.00  0.00     0.010 A 
ATOM     69  C   UNL A   1      44.128  33.008  32.934  1.00  0.00     0.010 A 
ATOM     70  C   UNL A   1      42.724  33.212  35.350  1.00  0.00     0.020 A 
ATOM     71  C   UNL A   1      44.125  34.216  33.638  1.00  0.00     0.020 A 
ATOM     72  C   UNL A   1      43.406  34.316  34.832  1.00  0.00     0.054 A 
BRANCH  72  73
ATOM     73  S   UNL A   1      43.341  35.889  35.734  1.00  0.00     0.124 S 
ATOM     74  O   UNL A   1      43.904  35.526  37.031  1.00  0.00    -0.237 OA
ATOM     75  O   UNL A   1      44.169  36.765  34.908  1.00  0.00    -0.237 OA
ATOM     76  O   UNL A   1      41.917  36.220  35.742  1.00  0.00    -0.744 OA
ENDBRANCH  72  73
ENDBRANCH  53  67
BRANCH  54  77
ATOM     77  C   UNL A   1      42.197  23.621  27.983  1.00  0.00    -0.014 A 
ATOM     78  C   UNL A   1      41.393  22.609  28.541  1.00  0.00     0.010 A 
ATOM     79  C   UNL A   1      42.853  23.379  26.765  1.00  0.00     0.010 A 
ATOM     80  C   UNL A   1      41.309  21.353  27.938  1.00  0.00     0.020 A 
ATOM     81  C   UNL A   1      42.745  22.131  26.140  1.00  0.00     0.020 A 
ATOM     82  C   UNL A   1      42.004  21.116  26.751  1.00  0.00     0.054 A 
BRANCH  82  83
ATOM     83  S   UNL A   1      41.943  19.456  26.024  1.00  0.00     0.124 S 
ATOM     84  O   UNL A   1      42.484  18.637  27.106  1.00  0.00    -0.237 OA
ATOM     85  O   UNL A   1      40.520  19.275  25.749  1.00  0.00    -0.237 OA
ATOM     86  O   UNL A   1      42.792  19.571  24.842  1.00  0.00    -0.744 OA
ENDBRANCH  82  83
ENDBRANCH  54  77
BRANCH  66  87
ATOM     87  C   UNL A   1      47.280  25.950  32.221  1.00  0.00    -0.014 A 
ATOM     88  C   UNL A   1      48.373  26.051  31.341  1.00  0.00     0.010 A 
ATOM     89  C   UNL A   1      47.423  25.222  33.414  1.00  0.00     0.010 A 
ATOM     90  C   UNL A   1      49.574  25.398  31.627  1.00  0.00     0.020 A 
ATOM     91  C   UNL A   1      48.632  24.591  33.717  1.00  0.00     0.020 A 
ATOM     92  C   UNL A   1      49.691  24.661  32.808  1.00  0.00     0.054 A 
BRANCH  92  93
ATOM     93  S   UNL A   1      51.245  23.788  33.147  1.00  0.00     0.124 S 
ATOM     94  O   UNL A   1      51.020  23.278  34.496  1.00  0.00    -0.237 OA
ATOM     95  O   UNL A   1      51.284  22.779  32.091  1.00  0.00    -0.237 OA
ATOM     96  O   UNL A   1      52.257  24.836  33.034  1.00  0.00    -0.744 OA
ENDBRANCH  92  93
ENDBRANCH  66  87
ENDBRANCH  40  41
ENDBRANCH  32  35
ENDBRANCH  30  31
ENDBRANCH   1  30
TORSDOF 16
ENDMDL
MODEL 2
REMARK VINA RESULT:     -12.5      1.461      8.257
REMARK SMILES CC(C)(C)c1cc(Nc2ccccc2C(=O)NCCCNC(=O)c2ccc(-c3c4nc(c(-c5ccc(S(=O)(=O)[O-])cc5)c5ccc([nH]5)c(-c5ccc(S(=O)(=O)[O-])cc5)c5nc(c(-c6ccc(S(=O)(=O)[O-])cc6)c6ccc3[nH]6)C=C5)C=C4)cc2)cc2c1OCC2(C)C
REMARK SMILES IDX 19 1 18 2 17 3 15 4 16 5 14 7 9 8 10 9 11 10 13 11 12 12
REMARK SMILES IDX 8 13 7 15 5 16 6 17 86 18 85 19 87 20 84 21 89 22 88 23
REMARK SMILES IDX 90 24 91 25 2 26 1 27 3 28 4 29 20 30 21 31 22 32 23 34
REMARK SMILES IDX 24 35 25 36 83 37 26 38 82 39 27 40 28 41 29 42 76 43 30 44
REMARK SMILES IDX 81 45 75 46 77 47 31 48 80 49 74 50 73 51 32 53 62 54 43 55
REMARK SMILES IDX 61 56 44 57 47 58 60 59 78 60 45 61 46 62 59 64 79 65 48 66
REMARK SMILES IDX 33 67 34 68 42 69 35 70 41 71 36 72 37 73 38 74 39 75 40 76
REMARK SMILES IDX 63 77 64 78 72 79 65 80 71 81 66 82 67 83 68 84 69 85 70 86
REMARK SMILES IDX 49 87 50 88 58 89 51 90 57 91 52 92 53 93 54 94 55 95 56 96
REMARK H PARENT 17 6 8 14 21 33 77 52 47 63
REMARK Flexibility Score: inf
ROOT
ATOM      1  C   UNL A   1      32.817  27.969  27.245  1.00  0.00     0.042 C 
ENDROOT
BRANCH   1   2
ATOM      2  C   UNL A   1      31.346  27.820  26.852  1.00  0.00     0.118 C 
BRANCH   2   3
ATOM      3  N   UNL A   1      30.819  26.474  26.918  1.00  0.00    -0.352 N 
ATOM      4  C   UNL A   1      30.731  25.470  25.990  1.00  0.00     0.253 C 
ATOM      5  O   UNL A   1      30.214  24.419  26.389  1.00  0.00    -0.269 OA
ATOM      6  H   UNL A   1      30.452  26.233  27.800  1.00  0.00     0.163 HD
BRANCH   4   7
ATOM      7  C   UNL A   1      31.146  25.530  24.552  1.00  0.00     0.063 A 
ATOM      8  C   UNL A   1      31.288  24.473  23.631  1.00  0.00     0.051 A 
ATOM      9  C   UNL A   1      31.507  24.789  22.268  1.00  0.00     0.027 A 
ATOM     10  C   UNL A   1      31.642  26.100  21.820  1.00  0.00     0.002 A 
ATOM     11  C   UNL A   1      31.290  26.855  24.073  1.00  0.00     0.016 A 
ATOM     12  C   UNL A   1      31.550  27.139  22.730  1.00  0.00     0.001 A 
BRANCH   8  13
ATOM     13  N   UNL A   1      31.342  23.104  23.971  1.00  0.00    -0.355 N 
ATOM     14  H   UNL A   1      30.490  22.659  24.183  1.00  0.00     0.167 HD
BRANCH  13  15
ATOM     15  C   UNL A   1      32.523  22.315  24.033  1.00  0.00     0.039 A 
ATOM     16  C   UNL A   1      33.503  20.058  24.287  1.00  0.00     0.002 A 
ATOM     17  C   UNL A   1      32.417  20.909  23.980  1.00  0.00     0.034 A 
ATOM     18  C   UNL A   1      34.716  20.689  24.567  1.00  0.00     0.127 A 
ATOM     19  C   UNL A   1      34.867  22.063  24.528  1.00  0.00     0.006 A 
ATOM     20  O   UNL A   1      35.850  20.047  24.992  1.00  0.00    -0.492 OA
ATOM     21  C   UNL A   1      33.783  22.882  24.270  1.00  0.00     0.034 A 
ATOM     22  C   UNL A   1      36.262  22.451  24.889  1.00  0.00     0.028 C 
ATOM     23  C   UNL A   1      36.892  21.048  25.012  1.00  0.00     0.240 C 
ATOM     24  C   UNL A   1      36.929  23.266  23.778  1.00  0.00     0.020 C 
ATOM     25  C   UNL A   1      36.317  23.214  26.217  1.00  0.00     0.020 C 
BRANCH  16  26
ATOM     26  C   UNL A   1      33.330  18.545  24.455  1.00  0.00    -0.009 C 
ATOM     27  C   UNL A   1      32.731  18.158  25.825  1.00  0.00     0.016 C 
ATOM     28  C   UNL A   1      34.643  17.739  24.304  1.00  0.00     0.016 C 
ATOM     29  C   UNL A   1      32.387  18.073  23.341  1.00  0.00     0.016 C 
ENDBRANCH  16  26
ENDBRANCH  13  15
ENDBRANCH   8  13
ENDBRANCH   4   7
ENDBRANCH   2   3
ENDBRANCH   1   2
BRANCH   1  30
ATOM     30  C   UNL A   1      33.552  29.163  26.639  1.00  0.00     0.118 C 
BRANCH  30  31
ATOM     31  N   UNL A   1      33.685  30.331  27.501  1.00  0.00    -0.352 N 
ATOM     32  C   UNL A   1      34.689  30.879  28.265  1.00  0.00     0.251 C 
ATOM     33  H   UNL A   1      32.853  30.854  27.549  1.00  0.00     0.163 HD
ATOM     34  O   UNL A   1      34.437  31.967  28.793  1.00  0.00    -0.269 OA
BRANCH  32  35
ATOM     35  C   UNL A   1      36.001  30.231  28.562  1.00  0.00     0.039 A 
ATOM     36  C   UNL A   1      36.338  29.646  29.776  1.00  0.00     0.014 A 
ATOM     37  C   UNL A   1      36.984  30.251  27.551  1.00  0.00     0.014 A 
ATOM     38  C   UNL A   1      37.655  29.264  30.040  1.00  0.00     0.010 A 
ATOM     39  C   UNL A   1      38.295  29.798  27.790  1.00  0.00     0.010 A 
ATOM     40  C   UNL A   1      38.660  29.357  29.064  1.00  0.00    -0.014 A 
BRANCH  40  41
ATOM     41  C   UNL A   1      40.049  28.957  29.429  1.00  0.00     0.031 A 
ATOM     42  C   UNL A   1      40.598  27.596  29.083  1.00  0.00     0.074 A 
ATOM     43  C   UNL A   1      40.873  29.889  29.944  1.00  0.00     0.049 A 
ATOM     44  N   UNL A   1      41.847  27.205  29.029  1.00  0.00    -0.248 NA
ATOM     45  C   UNL A   1      39.637  26.547  28.723  1.00  0.00     0.031 C 
ATOM     46  C   UNL A   1      40.474  31.251  30.305  1.00  0.00     0.029 A 
ATOM     47  N   UNL A   1      42.221  29.856  30.204  1.00  0.00    -0.354 N 
ATOM     48  C   UNL A   1      41.817  25.893  28.565  1.00  0.00     0.074 A 
ATOM     49  C   UNL A   1      40.429  25.539  28.387  1.00  0.00     0.031 C 
ATOM     50  C   UNL A   1      41.562  31.944  30.667  1.00  0.00     0.029 A 
ATOM     51  C   UNL A   1      42.727  31.063  30.625  1.00  0.00     0.049 A 
ATOM     52  H   UNL A   1      42.772  29.047  30.098  1.00  0.00     0.167 HD
ATOM     53  C   UNL A   1      42.851  25.055  28.318  1.00  0.00     0.031 A 
ATOM     54  C   UNL A   1      43.983  31.431  30.945  1.00  0.00     0.031 A 
ATOM     55  C   UNL A   1      44.225  25.363  28.618  1.00  0.00     0.049 A 
ATOM     56  C   UNL A   1      45.095  30.431  30.820  1.00  0.00     0.074 A 
ATOM     57  C   UNL A   1      45.339  24.560  28.446  1.00  0.00     0.029 A 
ATOM     58  N   UNL A   1      44.665  26.542  29.195  1.00  0.00    -0.354 N 
ATOM     59  N   UNL A   1      45.053  29.221  30.316  1.00  0.00    -0.248 NA
ATOM     60  C   UNL A   1      46.418  30.836  31.312  1.00  0.00     0.031 C 
ATOM     61  C   UNL A   1      46.438  25.218  29.004  1.00  0.00     0.029 A 
ATOM     62  C   UNL A   1      46.024  26.464  29.449  1.00  0.00     0.049 A 
ATOM     63  H   UNL A   1      44.097  27.321  29.397  1.00  0.00     0.167 HD
ATOM     64  C   UNL A   1      46.343  28.717  30.434  1.00  0.00     0.074 A 
ATOM     65  C   UNL A   1      47.147  29.761  31.035  1.00  0.00     0.031 C 
ATOM     66  C   UNL A   1      46.811  27.497  30.075  1.00  0.00     0.031 A 
BRANCH  53  67
ATOM     67  C   UNL A   1      42.550  23.704  27.726  1.00  0.00    -0.014 A 
ATOM     68  C   UNL A   1      42.178  22.634  28.560  1.00  0.00     0.010 A 
ATOM     69  C   UNL A   1      42.752  23.464  26.354  1.00  0.00     0.010 A 
ATOM     70  C   UNL A   1      42.044  21.342  28.042  1.00  0.00     0.020 A 
ATOM     71  C   UNL A   1      42.604  22.176  25.829  1.00  0.00     0.020 A 
ATOM     72  C   UNL A   1      42.271  21.120  26.681  1.00  0.00     0.054 A 
BRANCH  72  73
ATOM     73  S   UNL A   1      42.128  19.430  26.034  1.00  0.00     0.124 S 
ATOM     74  O   UNL A   1      40.696  19.316  25.778  1.00  0.00    -0.237 OA
ATOM     75  O   UNL A   1      42.981  19.471  24.847  1.00  0.00    -0.237 OA
ATOM     76  O   UNL A   1      42.636  18.602  27.126  1.00  0.00    -0.744 OA
ENDBRANCH  72  73
ENDBRANCH  53  67
BRANCH  54  77
ATOM     77  C   UNL A   1      44.222  32.821  31.422  1.00  0.00    -0.014 A 
ATOM     78  C   UNL A   1      43.953  33.157  32.762  1.00  0.00     0.010 A 
ATOM     79  C   UNL A   1      44.603  33.834  30.526  1.00  0.00     0.010 A 
ATOM     80  C   UNL A   1      43.984  34.487  33.182  1.00  0.00     0.020 A 
ATOM     81  C   UNL A   1      44.667  35.166  30.952  1.00  0.00     0.020 A 
ATOM     82  C   UNL A   1      44.321  35.486  32.267  1.00  0.00     0.054 A 
BRANCH  82  83
ATOM     83  S   UNL A   1      44.282  37.215  32.813  1.00  0.00     0.124 S 
ATOM     84  O   UNL A   1      43.802  37.896  31.613  1.00  0.00    -0.237 OA
ATOM     85  O   UNL A   1      43.343  37.179  33.932  1.00  0.00    -0.237 OA
ATOM     86  O   UNL A   1      45.669  37.489  33.177  1.00  0.00    -0.744 OA
ENDBRANCH  82  83
ENDBRANCH  54  77
BRANCH  66  87
ATOM     87  C   UNL A   1      48.259  27.185  30.346  1.00  0.00    -0.014 A 
ATOM     88  C   UNL A   1      48.635  26.629  31.582  1.00  0.00     0.010 A 
ATOM     89  C   UNL A   1      49.257  27.572  29.435  1.00  0.00     0.010 A 
ATOM     90  C   UNL A   1      49.984  26.501  31.920  1.00  0.00     0.020 A 
ATOM     91  C   UNL A   1      50.608  27.420  29.758  1.00  0.00     0.020 A 
ATOM     92  C   UNL A   1      50.962  26.911  31.011  1.00  0.00     0.054 A 
BRANCH  92  93
ATOM     93  S   UNL A   1      52.709  26.774  31.480  1.00  0.00     0.124 S 
ATOM     94  O   UNL A   1      53.279  27.982  30.890  1.00  0.00    -0.237 OA
ATOM     95  O   UNL A   1      52.650  26.754  32.940  1.00  0.00    -0.237 OA
ATOM     96  O   UNL A   1      53.130  25.518  30.864  1.00  0.00    -0.744 OA
ENDBRANCH  92  93
ENDBRANCH  66  87
ENDBRANCH  40  41
ENDBRANCH  32  35
ENDBRANCH  30  31
ENDBRANCH   1  30
TORSDOF 16
ENDMDL
MODEL 3
REMARK VINA RESULT:     -12.3      4.013     10.377
REMARK SMILES CC(C)(C)c1cc(Nc2ccccc2C(=O)NCCCNC(=O)c2ccc(-c3c4nc(c(-c5ccc(S(=O)(=O)[O-])cc5)c5ccc([nH]5)c(-c5ccc(S(=O)(=O)[O-])cc5)c5nc(c(-c6ccc(S(=O)(=O)[O-])cc6)c6ccc3[nH]6)C=C5)C=C4)cc2)cc2c1OCC2(C)C
REMARK SMILES IDX 19 1 18 2 17 3 15 4 16 5 14 7 9 8 10 9 11 10 13 11 12 12
REMARK SMILES IDX 8 13 7 15 5 16 6 17 86 18 85 19 87 20 84 21 89 22 88 23
REMARK SMILES IDX 90 24 91 25 2 26 1 27 3 28 4 29 20 30 21 31 22 32 23 34
REMARK SMILES IDX 24 35 25 36 83 37 26 38 82 39 27 40 28 41 29 42 76 43 30 44
REMARK SMILES IDX 81 45 75 46 77 47 31 48 80 49 74 50 73 51 32 53 62 54 43 55
REMARK SMILES IDX 61 56 44 57 47 58 60 59 78 60 45 61 46 62 59 64 79 65 48 66
REMARK SMILES IDX 33 67 34 68 42 69 35 70 41 71 36 72 37 73 38 74 39 75 40 76
REMARK SMILES IDX 63 77 64 78 72 79 65 80 71 81 66 82 67 83 68 84 69 85 70 86
REMARK SMILES IDX 49 87 50 88 58 89 51 90 57 91 52 92 53 93 54 94 55 95 56 96
REMARK H PARENT 17 6 8 14 21 33 77 52 47 63
REMARK Flexibility Score: inf
ROOT
ATOM      1  C   UNL A   1      38.687  23.809  26.777  1.00  0.00     0.042 C 
ENDROOT
BRANCH   1   2
ATOM      2  C   UNL A   1      38.435  22.541  25.959  1.00  0.00     0.118 C 
BRANCH   2   3
ATOM      3  N   UNL A   1      37.881  22.753  24.639  1.00  0.00    -0.352 N 
ATOM      4  C   UNL A   1      36.626  22.562  24.122  1.00  0.00     0.253 C 
ATOM      5  O   UNL A   1      36.491  22.854  22.928  1.00  0.00    -0.269 OA
ATOM      6  H   UNL A   1      38.531  23.101  23.986  1.00  0.00     0.163 HD
BRANCH   4   7
ATOM      7  C   UNL A   1      35.433  22.001  24.832  1.00  0.00     0.063 A 
ATOM      8  C   UNL A   1      34.435  22.685  25.555  1.00  0.00     0.051 A 
ATOM      9  C   UNL A   1      33.293  21.962  25.979  1.00  0.00     0.027 A 
ATOM     10  C   UNL A   1      33.151  20.596  25.757  1.00  0.00     0.002 A 
ATOM     11  C   UNL A   1      35.267  20.610  24.620  1.00  0.00     0.016 A 
ATOM     12  C   UNL A   1      34.152  19.911  25.089  1.00  0.00     0.001 A 
BRANCH   8  13
ATOM     13  N   UNL A   1      34.526  24.023  25.994  1.00  0.00    -0.355 N 
ATOM     14  H   UNL A   1      35.100  24.203  26.773  1.00  0.00     0.167 HD
BRANCH  13  15
ATOM     15  C   UNL A   1      33.858  25.131  25.407  1.00  0.00     0.039 A 
ATOM     16  C   UNL A   1      33.059  27.457  25.676  1.00  0.00     0.002 A 
ATOM     17  C   UNL A   1      33.897  26.384  26.055  1.00  0.00     0.034 A 
ATOM     18  C   UNL A   1      32.245  27.235  24.564  1.00  0.00     0.127 A 
ATOM     19  C   UNL A   1      32.261  26.050  23.854  1.00  0.00     0.006 A 
ATOM     20  O   UNL A   1      31.290  28.108  24.111  1.00  0.00    -0.492 OA
ATOM     21  C   UNL A   1      33.054  24.994  24.266  1.00  0.00     0.034 A 
ATOM     22  C   UNL A   1      31.277  26.093  22.733  1.00  0.00     0.028 C 
ATOM     23  C   UNL A   1      30.801  27.554  22.869  1.00  0.00     0.240 C 
ATOM     24  C   UNL A   1      31.948  25.848  21.379  1.00  0.00     0.020 C 
ATOM     25  C   UNL A   1      30.127  25.101  22.946  1.00  0.00     0.020 C 
BRANCH  16  26
ATOM     26  C   UNL A   1      32.936  28.731  26.518  1.00  0.00    -0.009 C 
ATOM     27  C   UNL A   1      32.691  29.993  25.662  1.00  0.00     0.016 C 
ATOM     28  C   UNL A   1      34.175  29.028  27.399  1.00  0.00     0.016 C 
ATOM     29  C   UNL A   1      31.751  28.530  27.470  1.00  0.00     0.016 C 
ENDBRANCH  16  26
ENDBRANCH  13  15
ENDBRANCH   8  13
ENDBRANCH   4   7
ENDBRANCH   2   3
ENDBRANCH   1   2
BRANCH   1  30
ATOM     30  C   UNL A   1      40.147  24.232  26.922  1.00  0.00     0.118 C 
BRANCH  30  31
ATOM     31  N   UNL A   1      40.572  25.346  26.085  1.00  0.00    -0.352 N 
ATOM     32  C   UNL A   1      40.838  26.681  26.286  1.00  0.00     0.251 C 
ATOM     33  H   UNL A   1      40.698  25.080  25.146  1.00  0.00     0.163 HD
ATOM     34  O   UNL A   1      41.283  27.299  25.314  1.00  0.00    -0.269 OA
BRANCH  32  35
ATOM     35  C   UNL A   1      40.557  27.439  27.542  1.00  0.00     0.039 A 
ATOM     36  C   UNL A   1      41.119  28.667  27.868  1.00  0.00     0.014 A 
ATOM     37  C   UNL A   1      39.691  26.846  28.484  1.00  0.00     0.014 A 
ATOM     38  C   UNL A   1      40.976  29.196  29.153  1.00  0.00     0.010 A 
ATOM     39  C   UNL A   1      39.485  27.415  29.754  1.00  0.00     0.010 A 
ATOM     40  C   UNL A   1      40.180  28.568  30.124  1.00  0.00    -0.014 A 
BRANCH  40  41
ATOM     41  C   UNL A   1      40.097  29.178  31.482  1.00  0.00     0.031 A 
ATOM     42  C   UNL A   1      41.178  28.969  32.512  1.00  0.00     0.074 A 
ATOM     43  C   UNL A   1      39.107  30.056  31.734  1.00  0.00     0.049 A 
ATOM     44  N   UNL A   1      41.427  29.665  33.593  1.00  0.00    -0.248 NA
ATOM     45  C   UNL A   1      42.117  27.862  32.297  1.00  0.00     0.031 C 
ATOM     46  C   UNL A   1      38.010  30.366  30.815  1.00  0.00     0.029 A 
ATOM     47  N   UNL A   1      38.889  30.885  32.806  1.00  0.00    -0.354 N 
ATOM     48  C   UNL A   1      42.586  29.122  34.140  1.00  0.00     0.074 A 
ATOM     49  C   UNL A   1      42.972  28.015  33.297  1.00  0.00     0.031 C 
ATOM     50  C   UNL A   1      37.281  31.366  31.327  1.00  0.00     0.029 A 
ATOM     51  C   UNL A   1      37.816  31.728  32.637  1.00  0.00     0.049 A 
ATOM     52  H   UNL A   1      39.447  30.877  33.618  1.00  0.00     0.167 HD
ATOM     53  C   UNL A   1      43.263  29.504  35.248  1.00  0.00     0.031 A 
ATOM     54  C   UNL A   1      37.311  32.687  33.438  1.00  0.00     0.031 A 
ATOM     55  C   UNL A   1      42.807  30.521  36.159  1.00  0.00     0.049 A 
ATOM     56  C   UNL A   1      37.985  32.981  34.745  1.00  0.00     0.074 A 
ATOM     57  C   UNL A   1      43.401  30.946  37.334  1.00  0.00     0.029 A 
ATOM     58  N   UNL A   1      41.628  31.235  36.023  1.00  0.00    -0.354 N 
ATOM     59  N   UNL A   1      39.116  32.502  35.209  1.00  0.00    -0.248 NA
ATOM     60  C   UNL A   1      37.319  33.933  35.643  1.00  0.00     0.031 C 
ATOM     61  C   UNL A   1      42.535  31.849  37.955  1.00  0.00     0.029 A 
ATOM     62  C   UNL A   1      41.441  32.048  37.127  1.00  0.00     0.049 A 
ATOM     63  H   UNL A   1      41.012  31.172  35.257  1.00  0.00     0.167 HD
ATOM     64  C   UNL A   1      39.295  33.092  36.454  1.00  0.00     0.074 A 
ATOM     65  C   UNL A   1      38.169  33.979  36.663  1.00  0.00     0.031 C 
ATOM     66  C   UNL A   1      40.303  32.908  37.341  1.00  0.00     0.031 A 
BRANCH  53  67
ATOM     67  C   UNL A   1      44.554  28.800  35.574  1.00  0.00    -0.014 A 
ATOM     68  C   UNL A   1      45.763  29.246  35.008  1.00  0.00     0.010 A 
ATOM     69  C   UNL A   1      44.552  27.623  36.345  1.00  0.00     0.010 A 
ATOM     70  C   UNL A   1      46.940  28.512  35.181  1.00  0.00     0.020 A 
ATOM     71  C   UNL A   1      45.731  26.896  36.533  1.00  0.00     0.020 A 
ATOM     72  C   UNL A   1      46.914  27.334  35.932  1.00  0.00     0.054 A 
BRANCH  72  73
ATOM     73  S   UNL A   1      48.445  26.377  36.114  1.00  0.00     0.124 S 
ATOM     74  O   UNL A   1      47.950  25.004  36.146  1.00  0.00    -0.237 OA
ATOM     75  O   UNL A   1      49.197  26.749  34.917  1.00  0.00    -0.237 OA
ATOM     76  O   UNL A   1      49.008  26.867  37.371  1.00  0.00    -0.744 OA
ENDBRANCH  72  73
ENDBRANCH  53  67
BRANCH  54  77
ATOM     77  C   UNL A   1      36.090  33.416  32.998  1.00  0.00    -0.014 A 
ATOM     78  C   UNL A   1      36.214  34.662  32.355  1.00  0.00     0.010 A 
ATOM     79  C   UNL A   1      34.810  32.936  33.318  1.00  0.00     0.010 A 
ATOM     80  C   UNL A   1      35.089  35.451  32.108  1.00  0.00     0.020 A 
ATOM     81  C   UNL A   1      33.676  33.710  33.043  1.00  0.00     0.020 A 
ATOM     82  C   UNL A   1      33.828  34.977  32.474  1.00  0.00     0.054 A 
BRANCH  82  83
ATOM     83  S   UNL A   1      32.387  36.048  32.214  1.00  0.00     0.124 S 
ATOM     84  O   UNL A   1      32.498  36.355  30.790  1.00  0.00    -0.237 OA
ATOM     85  O   UNL A   1      31.271  35.183  32.586  1.00  0.00    -0.237 OA
ATOM     86  O   UNL A   1      32.630  37.169  33.117  1.00  0.00    -0.744 OA
ENDBRANCH  82  83
ENDBRANCH  54  77
BRANCH  66  87
ATOM     87  C   UNL A   1      40.240  33.649  38.650  1.00  0.00    -0.014 A 
ATOM     88  C   UNL A   1      39.518  33.105  39.728  1.00  0.00     0.010 A 
ATOM     89  C   UNL A   1      40.777  34.943  38.766  1.00  0.00     0.010 A 
ATOM     90  C   UNL A   1      39.298  33.857  40.883  1.00  0.00     0.020 A 
ATOM     91  C   UNL A   1      40.583  35.688  39.932  1.00  0.00     0.020 A 
ATOM     92  C   UNL A   1      39.821  35.150  40.973  1.00  0.00     0.054 A 
BRANCH  92  93
ATOM     93  S   UNL A   1      39.494  36.128  42.465  1.00  0.00     0.124 S 
ATOM     94  O   UNL A   1      40.656  35.819  43.293  1.00  0.00    -0.237 OA
ATOM     95  O   UNL A   1      39.434  37.493  41.948  1.00  0.00    -0.237 OA
ATOM     96  O   UNL A   1      38.222  35.597  42.949  1.00  0.00    -0.744 OA
ENDBRANCH  92  93
ENDBRANCH  66  87
ENDBRANCH  40  41
ENDBRANCH  32  35
ENDBRANCH  30  31
ENDBRANCH   1  30
TORSDOF 16
ENDMDL
