MODEL 1
REMARK VINA RESULT:     -11.5      0.000      0.000
REMARK SMILES O=C(C[C@@H]([NH2+]Cc1ccccc1)C(=O)/N=c1/[nH]c(-c2ccccc2)cs1)NCCCNC(=O)c1ccc(-c2c3nc(c(-c4ccc(S(=O)(=O)[O-])cc4)c4ccc([nH]4)c(-c4ccc(S(=O)(=O)[O-])cc4)c4nc(c(-c5ccc(S(=O)(=O)[O-])cc5)c5ccc2[nH]5)C=C4)C=C3)cc1
REMARK SMILES IDX 28 1 27 2 1 3 2 4 3 6 4 7 5 8 6 11 7 12 8 13 12 14 9 15
REMARK SMILES IDX 11 16 10 17 13 18 14 19 15 20 16 21 17 22 26 23 18 24 25 26
REMARK SMILES IDX 19 27 20 28 24 29 21 30 23 31 22 32 29 33 30 34 31 35 32 36
REMARK SMILES IDX 33 38 34 39 35 40 93 41 36 42 92 43 37 44 38 45 39 46 86 47
REMARK SMILES IDX 40 48 91 49 85 50 87 51 41 52 90 53 84 54 83 55 42 57 72 58
REMARK SMILES IDX 53 59 71 60 54 61 57 62 70 63 88 64 55 65 56 66 69 68 89 69
REMARK SMILES IDX 58 70 43 71 44 72 52 73 45 74 51 75 46 76 47 77 48 78 49 79
REMARK SMILES IDX 50 80 73 81 74 82 82 83 75 84 81 85 76 86 77 87 78 88 79 89
REMARK SMILES IDX 80 90 59 91 60 92 68 93 61 94 67 95 62 96 63 97 64 98 65 99
REMARK SMILES IDX 66 100
REMARK H PARENT 27 5 5 9 5 10 17 25 31 37 87 56 57 67
REMARK Flexibility Score: inf
ROOT
ATOM      1  C   UNL A   1      32.039  26.407  26.604  1.00  0.00     0.117 C 
ENDROOT
BRANCH   1   2
ATOM      2  N   UNL A   1      32.401  25.108  26.084  1.00  0.00    -0.356 N 
ATOM      3  O   UNL A   1      30.903  23.872  27.321  1.00  0.00    -0.275 OA
ATOM      4  C   UNL A   1      31.827  23.937  26.526  1.00  0.00     0.226 C 
ATOM      5  H   UNL A   1      33.090  25.058  25.383  1.00  0.00     0.163 HD
BRANCH   4   6
ATOM      6  C   UNL A   1      32.498  22.728  25.933  1.00  0.00     0.175 C 
BRANCH   6   7
ATOM      7  C   UNL A   1      33.007  22.938  24.508  1.00  0.00     0.284 C 
BRANCH   7   8
ATOM      8  N   UNL A   1      34.118  21.991  24.184  1.00  0.00    -0.332 N 
ATOM      9  H   UNL A   1      33.772  21.293  23.527  1.00  0.00     0.347 HD
ATOM     10  H   UNL A   1      34.426  21.564  25.057  1.00  0.00     0.347 HD
BRANCH   8  11
ATOM     11  C   UNL A   1      35.279  22.672  23.583  1.00  0.00     0.297 C 
BRANCH  11  12
ATOM     12  C   UNL A   1      36.505  22.698  24.475  1.00  0.00     0.006 A 
ATOM     13  C   UNL A   1      37.371  21.596  24.580  1.00  0.00     0.009 A 
ATOM     14  C   UNL A   1      36.772  23.836  25.249  1.00  0.00     0.009 A 
ATOM     15  C   UNL A   1      38.425  21.603  25.494  1.00  0.00     0.001 A 
ATOM     16  C   UNL A   1      37.842  23.849  26.145  1.00  0.00     0.001 A 
ATOM     17  C   UNL A   1      38.656  22.727  26.281  1.00  0.00     0.000 A 
ENDBRANCH  11  12
ENDBRANCH   8  11
ENDBRANCH   7   8
BRANCH   7  18
ATOM     18  C   UNL A   1      31.808  22.804  23.526  1.00  0.00     0.307 C 
ATOM     19  O   UNL A   1      31.812  21.948  22.643  1.00  0.00    -0.265 OA
BRANCH  18  20
ATOM     20  N   UNL A   1      30.759  23.680  23.700  1.00  0.00    -0.180 NA
ATOM     21  C   UNL A   1      30.866  24.861  23.193  1.00  0.00     0.190 A 
ATOM     22  N   UNL A   1      29.942  25.872  23.295  1.00  0.00    -0.330 N 
ATOM     23  S   UNL A   1      32.267  25.530  22.304  1.00  0.00    -0.105 S 
ATOM     24  C   UNL A   1      30.353  27.127  22.882  1.00  0.00     0.058 A 
ATOM     25  H   UNL A   1      29.036  25.712  23.643  1.00  0.00     0.169 HD
ATOM     26  C   UNL A   1      31.618  27.140  22.420  1.00  0.00     0.095 A 
BRANCH  24  27
ATOM     27  C   UNL A   1      29.465  28.301  22.882  1.00  0.00    -0.001 A 
ATOM     28  C   UNL A   1      29.945  29.613  22.776  1.00  0.00     0.010 A 
ATOM     29  C   UNL A   1      28.084  28.117  23.086  1.00  0.00     0.010 A 
ATOM     30  C   UNL A   1      29.073  30.701  22.898  1.00  0.00     0.001 A 
ATOM     31  C   UNL A   1      27.214  29.200  23.200  1.00  0.00     0.001 A 
ATOM     32  C   UNL A   1      27.711  30.494  23.118  1.00  0.00     0.000 A 
ENDBRANCH  24  27
ENDBRANCH  18  20
ENDBRANCH   7  18
ENDBRANCH   6   7
ENDBRANCH   4   6
ENDBRANCH   1   2
BRANCH   1  33
ATOM     33  C   UNL A   1      32.782  27.518  25.873  1.00  0.00     0.042 C 
BRANCH  33  34
ATOM     34  C   UNL A   1      33.919  28.153  26.668  1.00  0.00     0.118 C 
BRANCH  34  35
ATOM     35  N   UNL A   1      33.634  29.518  27.075  1.00  0.00    -0.352 N 
ATOM     36  C   UNL A   1      34.401  30.392  27.806  1.00  0.00     0.251 C 
ATOM     37  H   UNL A   1      32.762  29.870  26.783  1.00  0.00     0.163 HD
ATOM     38  O   UNL A   1      33.907  31.448  28.192  1.00  0.00    -0.269 OA
BRANCH  36  39
ATOM     39  C   UNL A   1      35.802  30.060  28.144  1.00  0.00     0.039 A 
ATOM     40  C   UNL A   1      36.092  29.615  29.436  1.00  0.00     0.014 A 
ATOM     41  C   UNL A   1      36.831  30.207  27.209  1.00  0.00     0.014 A 
ATOM     42  C   UNL A   1      37.405  29.277  29.775  1.00  0.00     0.010 A 
ATOM     43  C   UNL A   1      38.122  29.787  27.524  1.00  0.00     0.010 A 
ATOM     44  C   UNL A   1      38.428  29.335  28.816  1.00  0.00    -0.014 A 
BRANCH  44  45
ATOM     45  C   UNL A   1      39.825  28.960  29.158  1.00  0.00     0.031 A 
ATOM     46  C   UNL A   1      40.725  29.948  29.851  1.00  0.00     0.074 A 
ATOM     47  C   UNL A   1      40.297  27.744  28.816  1.00  0.00     0.049 A 
ATOM     48  N   UNL A   1      41.979  29.816  30.206  1.00  0.00    -0.248 NA
ATOM     49  C   UNL A   1      40.154  31.268  30.165  1.00  0.00     0.031 C 
ATOM     50  C   UNL A   1      39.538  26.708  28.111  1.00  0.00     0.029 A 
ATOM     51  N   UNL A   1      41.530  27.174  29.014  1.00  0.00    -0.354 N 
ATOM     52  C   UNL A   1      42.345  31.033  30.768  1.00  0.00     0.074 A 
ATOM     53  C   UNL A   1      41.203  31.912  30.654  1.00  0.00     0.031 C 
ATOM     54  C   UNL A   1      40.310  25.618  27.969  1.00  0.00     0.029 A 
ATOM     55  C   UNL A   1      41.630  25.891  28.529  1.00  0.00     0.049 A 
ATOM     56  H   UNL A   1      42.273  27.640  29.461  1.00  0.00     0.167 HD
ATOM     57  C   UNL A   1      43.517  31.383  31.351  1.00  0.00     0.031 A 
ATOM     58  C   UNL A   1      42.667  25.030  28.531  1.00  0.00     0.031 A 
ATOM     59  C   UNL A   1      44.650  30.504  31.473  1.00  0.00     0.049 A 
ATOM     60  C   UNL A   1      43.966  25.447  29.168  1.00  0.00     0.074 A 
ATOM     61  C   UNL A   1      45.865  30.748  32.089  1.00  0.00     0.029 A 
ATOM     62  N   UNL A   1      44.709  29.213  30.968  1.00  0.00    -0.354 N 
ATOM     63  N   UNL A   1      44.272  26.582  29.749  1.00  0.00    -0.248 NA
ATOM     64  C   UNL A   1      45.055  24.460  29.161  1.00  0.00     0.031 C 
ATOM     65  C   UNL A   1      46.681  29.628  31.905  1.00  0.00     0.029 A 
ATOM     66  C   UNL A   1      45.949  28.658  31.238  1.00  0.00     0.049 A 
ATOM     67  H   UNL A   1      43.979  28.759  30.491  1.00  0.00     0.167 HD
ATOM     68  C   UNL A   1      45.576  26.433  30.210  1.00  0.00     0.074 A 
ATOM     69  C   UNL A   1      45.994  25.094  29.850  1.00  0.00     0.031 C 
ATOM     70  C   UNL A   1      46.354  27.323  30.875  1.00  0.00     0.031 A 
BRANCH  57  71
ATOM     71  C   UNL A   1      43.636  32.784  31.893  1.00  0.00    -0.014 A 
ATOM     72  C   UNL A   1      44.065  33.849  31.079  1.00  0.00     0.010 A 
ATOM     73  C   UNL A   1      43.279  33.050  33.228  1.00  0.00     0.010 A 
ATOM     74  C   UNL A   1      44.177  35.141  31.599  1.00  0.00     0.020 A 
ATOM     75  C   UNL A   1      43.358  34.347  33.744  1.00  0.00     0.020 A 
ATOM     76  C   UNL A   1      43.824  35.381  32.930  1.00  0.00     0.054 A 
BRANCH  76  77
ATOM     77  S   UNL A   1      43.964  37.070  33.574  1.00  0.00     0.124 S 
ATOM     78  O   UNL A   1      44.279  37.828  32.365  1.00  0.00    -0.237 OA
ATOM     79  O   UNL A   1      42.636  37.308  34.135  1.00  0.00    -0.237 OA
ATOM     80  O   UNL A   1      45.045  36.983  34.552  1.00  0.00    -0.744 OA
ENDBRANCH  76  77
ENDBRANCH  57  71
BRANCH  58  81
ATOM     81  C   UNL A   1      42.515  23.678  27.924  1.00  0.00    -0.014 A 
ATOM     82  C   UNL A   1      42.235  22.559  28.728  1.00  0.00     0.010 A 
ATOM     83  C   UNL A   1      42.644  23.503  26.534  1.00  0.00     0.010 A 
ATOM     84  C   UNL A   1      42.111  21.288  28.158  1.00  0.00     0.020 A 
ATOM     85  C   UNL A   1      42.490  22.240  25.956  1.00  0.00     0.020 A 
ATOM     86  C   UNL A   1      42.237  21.138  26.773  1.00  0.00     0.054 A 
BRANCH  86  87
ATOM     87  S   UNL A   1      42.028  19.487  26.051  1.00  0.00     0.124 S 
ATOM     88  O   UNL A   1      42.910  19.549  24.890  1.00  0.00    -0.237 OA
ATOM     89  O   UNL A   1      42.466  18.611  27.135  1.00  0.00    -0.237 OA
ATOM     90  O   UNL A   1      40.600  19.425  25.748  1.00  0.00    -0.744 OA
ENDBRANCH  86  87
ENDBRANCH  58  81
BRANCH  70  91
ATOM     91  C   UNL A   1      47.724  26.865  31.305  1.00  0.00    -0.014 A 
ATOM     92  C   UNL A   1      47.937  26.242  32.547  1.00  0.00     0.010 A 
ATOM     93  C   UNL A   1      48.809  27.016  30.420  1.00  0.00     0.010 A 
ATOM     94  C   UNL A   1      49.217  25.813  32.913  1.00  0.00     0.020 A 
ATOM     95  C   UNL A   1      50.082  26.558  30.768  1.00  0.00     0.020 A 
ATOM     96  C   UNL A   1      50.281  25.974  32.020  1.00  0.00     0.054 A 
BRANCH  96  97
ATOM     97  S   UNL A   1      51.923  25.375  32.502  1.00  0.00     0.124 S 
ATOM     98  O   UNL A   1      52.805  26.248  31.732  1.00  0.00    -0.237 OA
ATOM     99  O   UNL A   1      51.930  25.592  33.947  1.00  0.00    -0.237 OA
ATOM    100  O   UNL A   1      51.918  23.974  32.089  1.00  0.00    -0.744 OA
ENDBRANCH  96  97
ENDBRANCH  70  91
ENDBRANCH  44  45
ENDBRANCH  36  39
ENDBRANCH  34  35
ENDBRANCH  33  34
ENDBRANCH   1  33
TORSDOF 20
ENDMDL
MODEL 2
REMARK VINA RESULT:     -11.1      3.505      9.334
REMARK SMILES O=C(C[C@@H]([NH2+]Cc1ccccc1)C(=O)/N=c1/[nH]c(-c2ccccc2)cs1)NCCCNC(=O)c1ccc(-c2c3nc(c(-c4ccc(S(=O)(=O)[O-])cc4)c4ccc([nH]4)c(-c4ccc(S(=O)(=O)[O-])cc4)c4nc(c(-c5ccc(S(=O)(=O)[O-])cc5)c5ccc2[nH]5)C=C4)C=C3)cc1
REMARK SMILES IDX 28 1 27 2 1 3 2 4 3 6 4 7 5 8 6 11 7 12 8 13 12 14 9 15
REMARK SMILES IDX 11 16 10 17 13 18 14 19 15 20 16 21 17 22 26 23 18 24 25 26
REMARK SMILES IDX 19 27 20 28 24 29 21 30 23 31 22 32 29 33 30 34 31 35 32 36
REMARK SMILES IDX 33 38 34 39 35 40 93 41 36 42 92 43 37 44 38 45 39 46 86 47
REMARK SMILES IDX 40 48 91 49 85 50 87 51 41 52 90 53 84 54 83 55 42 57 72 58
REMARK SMILES IDX 53 59 71 60 54 61 57 62 70 63 88 64 55 65 56 66 69 68 89 69
REMARK SMILES IDX 58 70 43 71 44 72 52 73 45 74 51 75 46 76 47 77 48 78 49 79
REMARK SMILES IDX 50 80 73 81 74 82 82 83 75 84 81 85 76 86 77 87 78 88 79 89
REMARK SMILES IDX 80 90 59 91 60 92 68 93 61 94 67 95 62 96 63 97 64 98 65 99
REMARK SMILES IDX 66 100
REMARK H PARENT 27 5 5 9 5 10 17 25 31 37 87 56 57 67
REMARK Flexibility Score: inf
ROOT
ATOM      1  C   UNL A   1      33.082  30.382  27.323  1.00  0.00     0.117 C 
ENDROOT
BRANCH   1   2
ATOM      2  N   UNL A   1      32.730  28.981  27.298  1.00  0.00    -0.356 N 
ATOM      3  O   UNL A   1      31.595  29.001  25.296  1.00  0.00    -0.275 OA
ATOM      4  C   UNL A   1      31.970  28.416  26.299  1.00  0.00     0.226 C 
ATOM      5  H   UNL A   1      33.047  28.404  28.030  1.00  0.00     0.163 HD
BRANCH   4   6
ATOM      6  C   UNL A   1      31.623  26.984  26.603  1.00  0.00     0.175 C 
BRANCH   6   7
ATOM      7  C   UNL A   1      31.314  26.145  25.363  1.00  0.00     0.284 C 
BRANCH   7   8
ATOM      8  N   UNL A   1      32.516  26.016  24.483  1.00  0.00    -0.332 N 
ATOM      9  H   UNL A   1      32.595  26.856  23.911  1.00  0.00     0.347 HD
ATOM     10  H   UNL A   1      32.391  25.182  23.908  1.00  0.00     0.347 HD
BRANCH   8  11
ATOM     11  C   UNL A   1      33.761  25.848  25.253  1.00  0.00     0.297 C 
BRANCH  11  12
ATOM     12  C   UNL A   1      34.652  24.733  24.744  1.00  0.00     0.006 A 
ATOM     13  C   UNL A   1      34.450  24.136  23.487  1.00  0.00     0.009 A 
ATOM     14  C   UNL A   1      35.690  24.250  25.555  1.00  0.00     0.009 A 
ATOM     15  C   UNL A   1      35.210  23.035  23.090  1.00  0.00     0.001 A 
ATOM     16  C   UNL A   1      36.464  23.164  25.146  1.00  0.00     0.001 A 
ATOM     17  C   UNL A   1      36.213  22.546  23.923  1.00  0.00     0.000 A 
ENDBRANCH  11  12
ENDBRANCH   8  11
ENDBRANCH   7   8
BRANCH   7  18
ATOM     18  C   UNL A   1      30.764  24.764  25.821  1.00  0.00     0.307 C 
ATOM     19  O   UNL A   1      30.236  24.632  26.924  1.00  0.00    -0.265 OA
BRANCH  18  20
ATOM     20  N   UNL A   1      30.896  23.716  24.936  1.00  0.00    -0.180 NA
ATOM     21  C   UNL A   1      31.631  22.717  25.287  1.00  0.00     0.190 A 
ATOM     22  N   UNL A   1      31.905  21.606  24.526  1.00  0.00    -0.330 N 
ATOM     23  S   UNL A   1      32.557  22.540  26.808  1.00  0.00    -0.105 S 
ATOM     24  C   UNL A   1      32.898  20.766  24.996  1.00  0.00     0.058 A 
ATOM     25  H   UNL A   1      31.419  21.419  23.691  1.00  0.00     0.169 HD
ATOM     26  C   UNL A   1      33.429  21.181  26.161  1.00  0.00     0.095 A 
BRANCH  24  27
ATOM     27  C   UNL A   1      33.272  19.512  24.321  1.00  0.00    -0.001 A 
ATOM     28  C   UNL A   1      32.452  18.892  23.369  1.00  0.00     0.010 A 
ATOM     29  C   UNL A   1      34.456  18.853  24.703  1.00  0.00     0.010 A 
ATOM     30  C   UNL A   1      32.795  17.641  22.842  1.00  0.00     0.001 A 
ATOM     31  C   UNL A   1      34.802  17.612  24.172  1.00  0.00     0.001 A 
ATOM     32  C   UNL A   1      33.965  16.999  23.249  1.00  0.00     0.000 A 
ENDBRANCH  24  27
ENDBRANCH  18  20
ENDBRANCH   7  18
ENDBRANCH   6   7
ENDBRANCH   4   6
ENDBRANCH   1   2
BRANCH   1  33
ATOM     33  C   UNL A   1      34.582  30.576  27.131  1.00  0.00     0.042 C 
BRANCH  33  34
ATOM     34  C   UNL A   1      35.455  29.670  27.994  1.00  0.00     0.118 C 
BRANCH  34  35
ATOM     35  N   UNL A   1      35.466  30.058  29.394  1.00  0.00    -0.352 N 
ATOM     36  C   UNL A   1      36.501  30.051  30.297  1.00  0.00     0.251 C 
ATOM     37  H   UNL A   1      34.604  30.374  29.749  1.00  0.00     0.163 HD
ATOM     38  O   UNL A   1      36.264  30.254  31.485  1.00  0.00    -0.269 OA
BRANCH  36  39
ATOM     39  C   UNL A   1      37.885  29.779  29.851  1.00  0.00     0.039 A 
ATOM     40  C   UNL A   1      38.828  29.374  30.799  1.00  0.00     0.014 A 
ATOM     41  C   UNL A   1      38.264  29.944  28.516  1.00  0.00     0.014 A 
ATOM     42  C   UNL A   1      40.136  29.094  30.400  1.00  0.00     0.010 A 
ATOM     43  C   UNL A   1      39.545  29.581  28.107  1.00  0.00     0.010 A 
ATOM     44  C   UNL A   1      40.502  29.169  29.046  1.00  0.00    -0.014 A 
BRANCH  44  45
ATOM     45  C   UNL A   1      41.886  28.855  28.605  1.00  0.00     0.031 A 
ATOM     46  C   UNL A   1      42.240  27.459  28.162  1.00  0.00     0.074 A 
ATOM     47  C   UNL A   1      42.835  29.813  28.634  1.00  0.00     0.049 A 
ATOM     48  N   UNL A   1      43.396  26.986  27.769  1.00  0.00    -0.248 NA
ATOM     49  C   UNL A   1      41.163  26.456  28.187  1.00  0.00     0.031 C 
ATOM     50  C   UNL A   1      42.630  31.195  29.074  1.00  0.00     0.029 A 
ATOM     51  N   UNL A   1      44.162  29.769  28.287  1.00  0.00    -0.354 N 
ATOM     52  C   UNL A   1      43.187  25.635  27.516  1.00  0.00     0.074 A 
ATOM     53  C   UNL A   1      41.811  25.350  27.856  1.00  0.00     0.031 C 
ATOM     54  C   UNL A   1      43.780  31.875  28.937  1.00  0.00     0.029 A 
ATOM     55  C   UNL A   1      44.814  30.970  28.443  1.00  0.00     0.049 A 
ATOM     56  H   UNL A   1      44.606  28.955  27.957  1.00  0.00     0.167 HD
ATOM     57  C   UNL A   1      44.053  24.719  27.021  1.00  0.00     0.031 A 
ATOM     58  C   UNL A   1      46.099  31.307  28.217  1.00  0.00     0.031 A 
ATOM     59  C   UNL A   1      45.420  25.006  26.673  1.00  0.00     0.049 A 
ATOM     60  C   UNL A   1      47.048  30.267  27.685  1.00  0.00     0.074 A 
ATOM     61  C   UNL A   1      46.362  24.158  26.120  1.00  0.00     0.029 A 
ATOM     62  N   UNL A   1      46.039  26.235  26.847  1.00  0.00    -0.354 N 
ATOM     63  N   UNL A   1      46.814  29.010  27.394  1.00  0.00    -0.248 NA
ATOM     64  C   UNL A   1      48.432  30.696  27.437  1.00  0.00     0.031 C 
ATOM     65  C   UNL A   1      47.569  24.856  26.014  1.00  0.00     0.029 A 
ATOM     66  C   UNL A   1      47.359  26.160  26.434  1.00  0.00     0.049 A 
ATOM     67  H   UNL A   1      45.605  27.041  27.209  1.00  0.00     0.167 HD
ATOM     68  C   UNL A   1      48.012  28.508  26.893  1.00  0.00     0.074 A 
ATOM     69  C   UNL A   1      48.962  29.600  26.910  1.00  0.00     0.031 C 
ATOM     70  C   UNL A   1      48.296  27.256  26.455  1.00  0.00     0.031 A 
BRANCH  57  71
ATOM     71  C   UNL A   1      43.548  23.310  26.835  1.00  0.00    -0.014 A 
ATOM     72  C   UNL A   1      43.322  22.779  25.551  1.00  0.00     0.010 A 
ATOM     73  C   UNL A   1      43.331  22.491  27.959  1.00  0.00     0.010 A 
ATOM     74  C   UNL A   1      42.846  21.474  25.397  1.00  0.00     0.020 A 
ATOM     75  C   UNL A   1      42.887  21.174  27.808  1.00  0.00     0.020 A 
ATOM     76  C   UNL A   1      42.630  20.681  26.527  1.00  0.00     0.054 A 
BRANCH  76  77
ATOM     77  S   UNL A   1      42.029  18.985  26.296  1.00  0.00     0.124 S 
ATOM     78  O   UNL A   1      42.080  18.459  27.658  1.00  0.00    -0.237 OA
ATOM     79  O   UNL A   1      40.688  19.193  25.753  1.00  0.00    -0.237 OA
ATOM     80  O   UNL A   1      42.991  18.399  25.367  1.00  0.00    -0.744 OA
ENDBRANCH  76  77
ENDBRANCH  57  71
BRANCH  58  81
ATOM     81  C   UNL A   1      46.562  32.700  28.479  1.00  0.00    -0.014 A 
ATOM     82  C   UNL A   1      46.491  33.679  27.472  1.00  0.00     0.010 A 
ATOM     83  C   UNL A   1      47.072  33.055  29.740  1.00  0.00     0.010 A 
ATOM     84  C   UNL A   1      46.943  34.980  27.714  1.00  0.00     0.020 A 
ATOM     85  C   UNL A   1      47.495  34.362  29.996  1.00  0.00     0.020 A 
ATOM     86  C   UNL A   1      47.440  35.313  28.977  1.00  0.00     0.054 A 
BRANCH  86  87
ATOM     87  S   UNL A   1      47.979  37.019  29.282  1.00  0.00     0.124 S 
ATOM     88  O   UNL A   1      47.269  37.347  30.514  1.00  0.00    -0.237 OA
ATOM     89  O   UNL A   1      49.427  36.874  29.404  1.00  0.00    -0.237 OA
ATOM     90  O   UNL A   1      47.530  37.737  28.091  1.00  0.00    -0.744 OA
ENDBRANCH  86  87
ENDBRANCH  58  81
BRANCH  70  91
ATOM     91  C   UNL A   1      49.678  27.007  25.909  1.00  0.00    -0.014 A 
ATOM     92  C   UNL A   1      49.986  27.226  24.555  1.00  0.00     0.010 A 
ATOM     93  C   UNL A   1      50.700  26.595  26.785  1.00  0.00     0.010 A 
ATOM     94  C   UNL A   1      51.282  27.001  24.079  1.00  0.00     0.020 A 
ATOM     95  C   UNL A   1      52.003  26.402  26.321  1.00  0.00     0.020 A 
ATOM     96  C   UNL A   1      52.283  26.591  24.966  1.00  0.00     0.054 A 
BRANCH  96  97
ATOM     97  S   UNL A   1      53.963  26.343  24.332  1.00  0.00     0.124 S 
ATOM     98  O   UNL A   1      53.756  26.404  22.888  1.00  0.00    -0.237 OA
ATOM     99  O   UNL A   1      54.692  27.470  24.911  1.00  0.00    -0.237 OA
ATOM    100  O   UNL A   1      54.341  25.031  24.852  1.00  0.00    -0.744 OA
ENDBRANCH  96  97
ENDBRANCH  70  91
ENDBRANCH  44  45
ENDBRANCH  36  39
ENDBRANCH  34  35
ENDBRANCH  33  34
ENDBRANCH   1  33
TORSDOF 20
ENDMDL
MODEL 3
REMARK VINA RESULT:     -11.1      3.326      5.228
REMARK SMILES O=C(C[C@@H]([NH2+]Cc1ccccc1)C(=O)/N=c1/[nH]c(-c2ccccc2)cs1)NCCCNC(=O)c1ccc(-c2c3nc(c(-c4ccc(S(=O)(=O)[O-])cc4)c4ccc([nH]4)c(-c4ccc(S(=O)(=O)[O-])cc4)c4nc(c(-c5ccc(S(=O)(=O)[O-])cc5)c5ccc2[nH]5)C=C4)C=C3)cc1
REMARK SMILES IDX 28 1 27 2 1 3 2 4 3 6 4 7 5 8 6 11 7 12 8 13 12 14 9 15
REMARK SMILES IDX 11 16 10 17 13 18 14 19 15 20 16 21 17 22 26 23 18 24 25 26
REMARK SMILES IDX 19 27 20 28 24 29 21 30 23 31 22 32 29 33 30 34 31 35 32 36
REMARK SMILES IDX 33 38 34 39 35 40 93 41 36 42 92 43 37 44 38 45 39 46 86 47
REMARK SMILES IDX 40 48 91 49 85 50 87 51 41 52 90 53 84 54 83 55 42 57 72 58
REMARK SMILES IDX 53 59 71 60 54 61 57 62 70 63 88 64 55 65 56 66 69 68 89 69
REMARK SMILES IDX 58 70 43 71 44 72 52 73 45 74 51 75 46 76 47 77 48 78 49 79
REMARK SMILES IDX 50 80 73 81 74 82 82 83 75 84 81 85 76 86 77 87 78 88 79 89
REMARK SMILES IDX 80 90 59 91 60 92 68 93 61 94 67 95 62 96 63 97 64 98 65 99
REMARK SMILES IDX 66 100
REMARK H PARENT 27 5 5 9 5 10 17 25 31 37 87 56 57 67
REMARK Flexibility Score: inf
ROOT
ATOM      1  C   UNL A   1      33.477  29.826  26.891  1.00  0.00     0.117 C 
ENDROOT
BRANCH   1   2
ATOM      2  N   UNL A   1      32.647  28.651  26.757  1.00  0.00    -0.356 N 
ATOM      3  O   UNL A   1      32.195  28.869  24.510  1.00  0.00    -0.275 OA
ATOM      4  C   UNL A   1      32.035  28.296  25.576  1.00  0.00     0.226 C 
ATOM      5  H   UNL A   1      32.514  28.079  27.546  1.00  0.00     0.163 HD
BRANCH   4   6
ATOM      6  C   UNL A   1      31.109  27.125  25.757  1.00  0.00     0.175 C 
BRANCH   6   7
ATOM      7  C   UNL A   1      31.620  25.828  25.130  1.00  0.00     0.284 C 
BRANCH   7   8
ATOM      8  N   UNL A   1      33.107  25.722  25.239  1.00  0.00    -0.332 N 
ATOM      9  H   UNL A   1      33.336  25.132  26.038  1.00  0.00     0.347 HD
ATOM     10  H   UNL A   1      33.478  26.666  25.352  1.00  0.00     0.347 HD
BRANCH   8  11
ATOM     11  C   UNL A   1      33.720  25.141  24.031  1.00  0.00     0.297 C 
BRANCH  11  12
ATOM     12  C   UNL A   1      34.888  24.219  24.318  1.00  0.00     0.006 A 
ATOM     13  C   UNL A   1      35.201  23.133  23.481  1.00  0.00     0.009 A 
ATOM     14  C   UNL A   1      35.665  24.425  25.467  1.00  0.00     0.009 A 
ATOM     15  C   UNL A   1      36.209  22.233  23.829  1.00  0.00     0.001 A 
ATOM     16  C   UNL A   1      36.688  23.536  25.800  1.00  0.00     0.001 A 
ATOM     17  C   UNL A   1      36.947  22.432  24.992  1.00  0.00     0.000 A 
ENDBRANCH  11  12
ENDBRANCH   8  11
ENDBRANCH   7   8
BRANCH   7  18
ATOM     18  C   UNL A   1      30.890  24.629  25.801  1.00  0.00     0.307 C 
ATOM     19  O   UNL A   1      30.296  24.772  26.868  1.00  0.00    -0.265 OA
BRANCH  18  20
ATOM     20  N   UNL A   1      30.943  23.420  25.142  1.00  0.00    -0.180 NA
ATOM     21  C   UNL A   1      31.721  22.507  25.615  1.00  0.00     0.190 A 
ATOM     22  N   UNL A   1      31.928  21.260  25.075  1.00  0.00    -0.330 N 
ATOM     23  S   UNL A   1      32.799  22.638  27.037  1.00  0.00    -0.105 S 
ATOM     24  C   UNL A   1      32.973  20.525  25.604  1.00  0.00     0.058 A 
ATOM     25  H   UNL A   1      31.361  20.910  24.351  1.00  0.00     0.169 HD
ATOM     26  C   UNL A   1      33.616  21.166  26.598  1.00  0.00     0.095 A 
BRANCH  24  27
ATOM     27  C   UNL A   1      33.290  19.155  25.167  1.00  0.00    -0.001 A 
ATOM     28  C   UNL A   1      32.432  18.072  25.395  1.00  0.00     0.010 A 
ATOM     29  C   UNL A   1      34.541  18.894  24.576  1.00  0.00     0.010 A 
ATOM     30  C   UNL A   1      32.829  16.770  25.066  1.00  0.00     0.001 A 
ATOM     31  C   UNL A   1      34.933  17.600  24.242  1.00  0.00     0.001 A 
ATOM     32  C   UNL A   1      34.081  16.534  24.499  1.00  0.00     0.000 A 
ENDBRANCH  24  27
ENDBRANCH  18  20
ENDBRANCH   7  18
ENDBRANCH   6   7
ENDBRANCH   4   6
ENDBRANCH   1   2
BRANCH   1  33
ATOM     33  C   UNL A   1      34.697  29.543  27.760  1.00  0.00     0.042 C 
BRANCH  33  34
ATOM     34  C   UNL A   1      35.431  30.787  28.250  1.00  0.00     0.118 C 
BRANCH  34  35
ATOM     35  N   UNL A   1      35.434  30.912  29.697  1.00  0.00    -0.352 N 
ATOM     36  C   UNL A   1      36.422  30.608  30.601  1.00  0.00     0.251 C 
ATOM     37  H   UNL A   1      34.604  31.269  30.089  1.00  0.00     0.163 HD
ATOM     38  O   UNL A   1      36.165  30.624  31.802  1.00  0.00    -0.269 OA
BRANCH  36  39
ATOM     39  C   UNL A   1      37.778  30.243  30.136  1.00  0.00     0.039 A 
ATOM     40  C   UNL A   1      38.718  29.818  31.078  1.00  0.00     0.014 A 
ATOM     41  C   UNL A   1      38.136  30.341  28.789  1.00  0.00     0.014 A 
ATOM     42  C   UNL A   1      40.000  29.451  30.662  1.00  0.00     0.010 A 
ATOM     43  C   UNL A   1      39.385  29.892  28.366  1.00  0.00     0.010 A 
ATOM     44  C   UNL A   1      40.338  29.459  29.300  1.00  0.00    -0.014 A 
BRANCH  44  45
ATOM     45  C   UNL A   1      41.692  29.052  28.842  1.00  0.00     0.031 A 
ATOM     46  C   UNL A   1      42.808  30.062  28.788  1.00  0.00     0.074 A 
ATOM     47  C   UNL A   1      41.913  27.783  28.440  1.00  0.00     0.049 A 
ATOM     48  N   UNL A   1      44.047  29.905  28.393  1.00  0.00    -0.248 NA
ATOM     49  C   UNL A   1      42.488  31.436  29.211  1.00  0.00     0.031 C 
ATOM     50  C   UNL A   1      40.909  26.718  28.410  1.00  0.00     0.029 A 
ATOM     51  N   UNL A   1      43.054  27.176  27.979  1.00  0.00    -0.354 N 
ATOM     52  C   UNL A   1      44.643  31.155  28.505  1.00  0.00     0.074 A 
ATOM     53  C   UNL A   1      43.618  32.074  28.948  1.00  0.00     0.031 C 
ATOM     54  C   UNL A   1      41.487  25.581  27.989  1.00  0.00     0.029 A 
ATOM     55  C   UNL A   1      42.888  25.844  27.676  1.00  0.00     0.049 A 
ATOM     56  H   UNL A   1      43.912  27.649  27.874  1.00  0.00     0.167 HD
ATOM     57  C   UNL A   1      45.933  31.505  28.285  1.00  0.00     0.031 A 
ATOM     58  C   UNL A   1      43.763  24.937  27.199  1.00  0.00     0.031 A 
ATOM     59  C   UNL A   1      46.955  30.588  27.854  1.00  0.00     0.049 A 
ATOM     60  C   UNL A   1      45.186  25.354  26.944  1.00  0.00     0.074 A 
ATOM     61  C   UNL A   1      48.301  30.835  27.649  1.00  0.00     0.029 A 
ATOM     62  N   UNL A   1      46.744  29.249  27.559  1.00  0.00    -0.354 N 
ATOM     63  N   UNL A   1      45.745  26.528  27.115  1.00  0.00    -0.248 NA
ATOM     64  C   UNL A   1      46.101  24.317  26.444  1.00  0.00     0.031 C 
ATOM     65  C   UNL A   1      48.892  29.661  27.173  1.00  0.00     0.029 A 
ATOM     66  C   UNL A   1      47.930  28.663  27.151  1.00  0.00     0.049 A 
ATOM     67  H   UNL A   1      45.880  28.784  27.631  1.00  0.00     0.167 HD
ATOM     68  C   UNL A   1      47.085  26.362  26.780  1.00  0.00     0.074 A 
ATOM     69  C   UNL A   1      47.254  24.973  26.408  1.00  0.00     0.031 C 
ATOM     70  C   UNL A   1      48.086  27.278  26.784  1.00  0.00     0.031 A 
BRANCH  57  71
ATOM     71  C   UNL A   1      46.311  32.949  28.497  1.00  0.00    -0.014 A 
ATOM     72  C   UNL A   1      46.218  33.890  27.455  1.00  0.00     0.010 A 
ATOM     73  C   UNL A   1      46.730  33.382  29.769  1.00  0.00     0.010 A 
ATOM     74  C   UNL A   1      46.579  35.223  27.667  1.00  0.00     0.020 A 
ATOM     75  C   UNL A   1      47.061  34.722  29.995  1.00  0.00     0.020 A 
ATOM     76  C   UNL A   1      47.001  35.630  28.936  1.00  0.00     0.054 A 
BRANCH  76  77
ATOM     77  S   UNL A   1      47.447  37.370  29.186  1.00  0.00     0.124 S 
ATOM     78  O   UNL A   1      47.673  37.418  30.629  1.00  0.00    -0.237 OA
ATOM     79  O   UNL A   1      48.642  37.515  28.358  1.00  0.00    -0.237 OA
ATOM     80  O   UNL A   1      46.273  38.101  28.717  1.00  0.00    -0.744 OA
ENDBRANCH  76  77
ENDBRANCH  57  71
BRANCH  58  81
ATOM     81  C   UNL A   1      43.320  23.537  26.946  1.00  0.00    -0.014 A 
ATOM     82  C   UNL A   1      43.037  23.100  25.639  1.00  0.00     0.010 A 
ATOM     83  C   UNL A   1      43.182  22.631  28.012  1.00  0.00     0.010 A 
ATOM     84  C   UNL A   1      42.603  21.791  25.407  1.00  0.00     0.020 A 
ATOM     85  C   UNL A   1      42.779  21.312  27.781  1.00  0.00     0.020 A 
ATOM     86  C   UNL A   1      42.480  20.905  26.481  1.00  0.00     0.054 A 
BRANCH  86  87
ATOM     87  S   UNL A   1      41.959  19.198  26.150  1.00  0.00     0.124 S 
ATOM     88  O   UNL A   1      42.730  18.871  24.955  1.00  0.00    -0.237 OA
ATOM     89  O   UNL A   1      42.359  18.505  27.372  1.00  0.00    -0.237 OA
ATOM     90  O   UNL A   1      40.516  19.314  25.952  1.00  0.00    -0.744 OA
ENDBRANCH  86  87
ENDBRANCH  58  81
BRANCH  70  91
ATOM     91  C   UNL A   1      49.469  26.799  26.422  1.00  0.00    -0.014 A 
ATOM     92  C   UNL A   1      50.283  26.129  27.352  1.00  0.00     0.010 A 
ATOM     93  C   UNL A   1      49.938  26.980  25.108  1.00  0.00     0.010 A 
ATOM     94  C   UNL A   1      51.556  25.683  26.984  1.00  0.00     0.020 A 
ATOM     95  C   UNL A   1      51.195  26.505  24.726  1.00  0.00     0.020 A 
ATOM     96  C   UNL A   1      52.003  25.873  25.672  1.00  0.00     0.054 A 
BRANCH  96  97
ATOM     97  S   UNL A   1      53.642  25.251  25.210  1.00  0.00     0.124 S 
ATOM     98  O   UNL A   1      54.505  25.906  26.190  1.00  0.00    -0.237 OA
ATOM     99  O   UNL A   1      53.493  23.806  25.371  1.00  0.00    -0.237 OA
ATOM    100  O   UNL A   1      53.810  25.705  23.831  1.00  0.00    -0.744 OA
ENDBRANCH  96  97
ENDBRANCH  70  91
ENDBRANCH  44  45
ENDBRANCH  36  39
ENDBRANCH  34  35
ENDBRANCH  33  34
ENDBRANCH   1  33
TORSDOF 20
ENDMDL
