MODEL 1
REMARK VINA RESULT:     -12.1      0.000      0.000
REMARK SMILES C/C(=N/[NH+]=C1\NC(=O)[C@H](CC(=O)NCCCNC(=O)c2ccc(-c3c4nc(c(-c5ccc(S(=O)(=O)[O-])cc5)c5ccc([nH]5)c(-c5ccc(S(=O)(=O)[O-])cc5)c5nc(c(-c6ccc(S(=O)(=O)[O-])cc6)c6ccc3[nH]6)C=C5)C=C4)cc2)S1)c1ccc(OC(C)C)cc1
REMARK SMILES IDX 14 1 13 2 11 3 12 4 10 6 9 7 4 8 5 9 6 11 80 12 7 13 8 15
REMARK SMILES IDX 3 16 1 17 2 18 81 19 82 20 90 21 83 22 89 23 84 24 85 25
REMARK SMILES IDX 86 26 87 27 88 28 15 29 16 30 17 31 18 32 19 34 20 35 21 36
REMARK SMILES IDX 79 37 22 38 78 39 23 40 24 41 25 42 72 43 26 44 77 45 71 46
REMARK SMILES IDX 73 47 27 48 76 49 70 50 69 51 28 53 58 54 39 55 57 56 40 57
REMARK SMILES IDX 43 58 56 59 74 60 41 61 42 62 55 64 75 65 44 66 29 67 30 68
REMARK SMILES IDX 38 69 31 70 37 71 32 72 33 73 34 74 35 75 36 76 59 77 60 78
REMARK SMILES IDX 68 79 61 80 67 81 62 82 63 83 64 84 65 85 66 86 45 87 46 88
REMARK SMILES IDX 54 89 47 90 53 91 48 92 49 93 50 94 51 95 52 96
REMARK H PARENT 13 5 4 10 6 14 17 33 73 52 43 63
REMARK Flexibility Score: inf
ROOT
ATOM      1  C   UNL A   1      36.988  22.185  25.255  1.00  0.00     0.117 C 
ENDROOT
BRANCH   1   2
ATOM      2  N   UNL A   1      36.177  21.761  26.379  1.00  0.00    -0.356 N 
ATOM      3  C   UNL A   1      34.879  22.070  26.651  1.00  0.00     0.221 C 
ATOM      4  O   UNL A   1      34.318  21.532  27.605  1.00  0.00    -0.275 OA
ATOM      5  H   UNL A   1      36.623  21.172  27.030  1.00  0.00     0.163 HD
BRANCH   3   6
ATOM      6  C   UNL A   1      34.149  23.054  25.769  1.00  0.00     0.127 C 
BRANCH   6   7
ATOM      7  C   UNL A   1      33.545  22.394  24.534  1.00  0.00     0.183 C 
ATOM      8  N   UNL A   1      31.404  25.064  22.859  1.00  0.00    -0.142 N 
ATOM      9  C   UNL A   1      31.919  23.987  23.341  1.00  0.00     0.337 C 
ATOM     10  H   UNL A   1      31.942  25.703  22.337  1.00  0.00     0.343 HD
ATOM     11  N   UNL A   1      31.287  23.042  24.067  1.00  0.00    -0.202 N 
ATOM     12  S   UNL A   1      33.612  23.616  23.167  1.00  0.00    -0.020 SA
ATOM     13  C   UNL A   1      32.060  22.074  24.646  1.00  0.00     0.322 C 
ATOM     14  H   UNL A   1      30.309  23.049  24.175  1.00  0.00     0.316 HD
ATOM     15  O   UNL A   1      31.602  21.103  25.222  1.00  0.00    -0.246 OA
BRANCH   8  16
ATOM     16  N   UNL A   1      30.048  25.284  23.112  1.00  0.00    -0.090 NA
ATOM     17  C   UNL A   1      28.256  26.627  23.981  1.00  0.00     0.071 C 
ATOM     18  C   UNL A   1      29.732  26.297  23.874  1.00  0.00     0.088 C 
BRANCH  18  19
ATOM     19  C   UNL A   1      30.672  27.104  24.718  1.00  0.00    -0.000 A 
ATOM     20  C   UNL A   1      31.047  26.688  25.993  1.00  0.00     0.014 A 
ATOM     21  C   UNL A   1      31.061  28.380  24.287  1.00  0.00     0.014 A 
ATOM     22  C   UNL A   1      31.670  27.585  26.865  1.00  0.00     0.047 A 
ATOM     23  C   UNL A   1      31.715  29.269  25.162  1.00  0.00     0.047 A 
ATOM     24  C   UNL A   1      31.979  28.893  26.474  1.00  0.00     0.119 A 
BRANCH  24  25
ATOM     25  O   UNL A   1      32.453  29.657  27.491  1.00  0.00    -0.491 OA
BRANCH  25  26
ATOM     26  C   UNL A   1      33.809  30.052  27.709  1.00  0.00     0.167 C 
ATOM     27  C   UNL A   1      34.856  29.201  27.008  1.00  0.00     0.052 C 
ATOM     28  C   UNL A   1      34.054  31.549  27.567  1.00  0.00     0.052 C 
ENDBRANCH  25  26
ENDBRANCH  24  25
ENDBRANCH  18  19
ENDBRANCH   8  16
ENDBRANCH   6   7
ENDBRANCH   3   6
ENDBRANCH   1   2
BRANCH   1  29
ATOM     29  C   UNL A   1      37.478  23.617  25.344  1.00  0.00     0.042 C 
BRANCH  29  30
ATOM     30  C   UNL A   1      38.365  23.874  26.550  1.00  0.00     0.118 C 
BRANCH  30  31
ATOM     31  N   UNL A   1      39.786  23.862  26.222  1.00  0.00    -0.352 N 
ATOM     32  C   UNL A   1      40.790  24.739  26.560  1.00  0.00     0.251 C 
ATOM     33  H   UNL A   1      40.074  23.100  25.669  1.00  0.00     0.163 HD
ATOM     34  O   UNL A   1      41.889  24.626  26.024  1.00  0.00    -0.269 OA
BRANCH  32  35
ATOM     35  C   UNL A   1      40.536  25.832  27.524  1.00  0.00     0.039 A 
ATOM     36  C   UNL A   1      39.604  25.639  28.547  1.00  0.00     0.014 A 
ATOM     37  C   UNL A   1      41.231  27.039  27.440  1.00  0.00     0.014 A 
ATOM     38  C   UNL A   1      39.449  26.614  29.535  1.00  0.00     0.010 A 
ATOM     39  C   UNL A   1      41.170  27.948  28.488  1.00  0.00     0.010 A 
ATOM     40  C   UNL A   1      40.272  27.753  29.546  1.00  0.00    -0.014 A 
BRANCH  40  41
ATOM     41  C   UNL A   1      40.206  28.754  30.642  1.00  0.00     0.031 A 
ATOM     42  C   UNL A   1      41.093  28.604  31.853  1.00  0.00     0.074 A 
ATOM     43  C   UNL A   1      39.297  29.751  30.585  1.00  0.00     0.049 A 
ATOM     44  N   UNL A   1      41.129  29.331  32.940  1.00  0.00    -0.248 NA
ATOM     45  C   UNL A   1      42.039  27.473  31.861  1.00  0.00     0.031 C 
ATOM     46  C   UNL A   1      38.340  29.968  29.495  1.00  0.00     0.029 A 
ATOM     47  N   UNL A   1      39.020  30.765  31.469  1.00  0.00    -0.354 N 
ATOM     48  C   UNL A   1      42.070  28.728  33.767  1.00  0.00     0.074 A 
ATOM     49  C   UNL A   1      42.551  27.553  33.080  1.00  0.00     0.031 C 
ATOM     50  C   UNL A   1      37.608  31.063  29.761  1.00  0.00     0.029 A 
ATOM     51  C   UNL A   1      38.005  31.598  31.058  1.00  0.00     0.049 A 
ATOM     52  H   UNL A   1      39.504  30.885  32.317  1.00  0.00     0.167 HD
ATOM     53  C   UNL A   1      42.509  29.128  34.983  1.00  0.00     0.031 A 
ATOM     54  C   UNL A   1      37.445  32.665  31.663  1.00  0.00     0.031 A 
ATOM     55  C   UNL A   1      42.059  30.324  35.643  1.00  0.00     0.049 A 
ATOM     56  C   UNL A   1      37.969  33.096  33.009  1.00  0.00     0.074 A 
ATOM     57  C   UNL A   1      42.514  30.867  36.832  1.00  0.00     0.029 A 
ATOM     58  N   UNL A   1      41.055  31.157  35.179  1.00  0.00    -0.354 N 
ATOM     59  N   UNL A   1      38.934  32.569  33.724  1.00  0.00    -0.248 NA
ATOM     60  C   UNL A   1      37.338  34.272  33.622  1.00  0.00     0.031 C 
ATOM     61  C   UNL A   1      41.740  31.993  37.119  1.00  0.00     0.029 A 
ATOM     62  C   UNL A   1      40.852  32.191  36.074  1.00  0.00     0.049 A 
ATOM     63  H   UNL A   1      40.560  31.032  34.337  1.00  0.00     0.167 HD
ATOM     64  C   UNL A   1      39.047  33.371  34.855  1.00  0.00     0.074 A 
ATOM     65  C   UNL A   1      38.067  34.428  34.717  1.00  0.00     0.031 C 
ATOM     66  C   UNL A   1      39.883  33.244  35.913  1.00  0.00     0.031 A 
BRANCH  53  67
ATOM     67  C   UNL A   1      43.530  28.278  35.690  1.00  0.00    -0.014 A 
ATOM     68  C   UNL A   1      43.143  27.250  36.569  1.00  0.00     0.010 A 
ATOM     69  C   UNL A   1      44.894  28.444  35.389  1.00  0.00     0.010 A 
ATOM     70  C   UNL A   1      44.103  26.413  37.144  1.00  0.00     0.020 A 
ATOM     71  C   UNL A   1      45.855  27.591  35.940  1.00  0.00     0.020 A 
ATOM     72  C   UNL A   1      45.454  26.584  36.818  1.00  0.00     0.054 A 
BRANCH  72  73
ATOM     73  S   UNL A   1      46.666  25.429  37.514  1.00  0.00     0.124 S 
ATOM     74  O   UNL A   1      46.644  24.343  36.537  1.00  0.00    -0.237 OA
ATOM     75  O   UNL A   1      47.889  26.228  37.536  1.00  0.00    -0.237 OA
ATOM     76  O   UNL A   1      46.118  25.097  38.826  1.00  0.00    -0.744 OA
ENDBRANCH  72  73
ENDBRANCH  53  67
BRANCH  54  77
ATOM     77  C   UNL A   1      36.321  33.402  31.018  1.00  0.00    -0.014 A 
ATOM     78  C   UNL A   1      36.443  33.896  29.706  1.00  0.00     0.010 A 
ATOM     79  C   UNL A   1      35.135  33.654  31.732  1.00  0.00     0.010 A 
ATOM     80  C   UNL A   1      35.424  34.669  29.141  1.00  0.00     0.020 A 
ATOM     81  C   UNL A   1      34.098  34.394  31.157  1.00  0.00     0.020 A 
ATOM     82  C   UNL A   1      34.260  34.918  29.873  1.00  0.00     0.054 A 
BRANCH  82  83
ATOM     83  S   UNL A   1      32.953  35.927  29.123  1.00  0.00     0.124 S 
ATOM     84  O   UNL A   1      32.356  34.993  28.173  1.00  0.00    -0.237 OA
ATOM     85  O   UNL A   1      32.124  36.276  30.275  1.00  0.00    -0.237 OA
ATOM     86  O   UNL A   1      33.682  37.045  28.529  1.00  0.00    -0.744 OA
ENDBRANCH  82  83
ENDBRANCH  54  77
BRANCH  66  87
ATOM     87  C   UNL A   1      39.818  34.300  36.984  1.00  0.00    -0.014 A 
ATOM     88  C   UNL A   1      40.405  35.564  36.805  1.00  0.00     0.010 A 
ATOM     89  C   UNL A   1      39.101  34.037  38.167  1.00  0.00     0.010 A 
ATOM     90  C   UNL A   1      40.305  36.535  37.804  1.00  0.00     0.020 A 
ATOM     91  C   UNL A   1      38.970  35.016  39.153  1.00  0.00     0.020 A 
ATOM     92  C   UNL A   1      39.587  36.256  38.971  1.00  0.00     0.054 A 
BRANCH  92  93
ATOM     93  S   UNL A   1      39.435  37.549  40.233  1.00  0.00     0.124 S 
ATOM     94  O   UNL A   1      38.760  36.837  41.316  1.00  0.00    -0.237 OA
ATOM     95  O   UNL A   1      40.826  37.911  40.489  1.00  0.00    -0.237 OA
ATOM     96  O   UNL A   1      38.637  38.583  39.575  1.00  0.00    -0.744 OA
ENDBRANCH  92  93
ENDBRANCH  66  87
ENDBRANCH  40  41
ENDBRANCH  32  35
ENDBRANCH  30  31
ENDBRANCH  29  30
ENDBRANCH   1  29
TORSDOF 18
ENDMDL
MODEL 2
REMARK VINA RESULT:     -11.8      1.543      2.453
REMARK SMILES C/C(=N/[NH+]=C1\NC(=O)[C@H](CC(=O)NCCCNC(=O)c2ccc(-c3c4nc(c(-c5ccc(S(=O)(=O)[O-])cc5)c5ccc([nH]5)c(-c5ccc(S(=O)(=O)[O-])cc5)c5nc(c(-c6ccc(S(=O)(=O)[O-])cc6)c6ccc3[nH]6)C=C5)C=C4)cc2)S1)c1ccc(OC(C)C)cc1
REMARK SMILES IDX 14 1 13 2 11 3 12 4 10 6 9 7 4 8 5 9 6 11 80 12 7 13 8 15
REMARK SMILES IDX 3 16 1 17 2 18 81 19 82 20 90 21 83 22 89 23 84 24 85 25
REMARK SMILES IDX 86 26 87 27 88 28 15 29 16 30 17 31 18 32 19 34 20 35 21 36
REMARK SMILES IDX 79 37 22 38 78 39 23 40 24 41 25 42 72 43 26 44 77 45 71 46
REMARK SMILES IDX 73 47 27 48 76 49 70 50 69 51 28 53 58 54 39 55 57 56 40 57
REMARK SMILES IDX 43 58 56 59 74 60 41 61 42 62 55 64 75 65 44 66 29 67 30 68
REMARK SMILES IDX 38 69 31 70 37 71 32 72 33 73 34 74 35 75 36 76 59 77 60 78
REMARK SMILES IDX 68 79 61 80 67 81 62 82 63 83 64 84 65 85 66 86 45 87 46 88
REMARK SMILES IDX 54 89 47 90 53 91 48 92 49 93 50 94 51 95 52 96
REMARK H PARENT 13 5 4 10 6 14 17 33 73 52 43 63
REMARK Flexibility Score: inf
ROOT
ATOM      1  C   UNL A   1      37.464  22.576  25.302  1.00  0.00     0.117 C 
ENDROOT
BRANCH   1   2
ATOM      2  N   UNL A   1      36.700  21.395  24.950  1.00  0.00    -0.356 N 
ATOM      3  C   UNL A   1      35.439  21.055  25.337  1.00  0.00     0.221 C 
ATOM      4  O   UNL A   1      34.910  20.054  24.854  1.00  0.00    -0.275 OA
ATOM      5  H   UNL A   1      37.152  20.756  24.354  1.00  0.00     0.163 HD
BRANCH   3   6
ATOM      6  C   UNL A   1      34.712  21.918  26.339  1.00  0.00     0.127 C 
BRANCH   6   7
ATOM      7  C   UNL A   1      33.336  22.352  25.844  1.00  0.00     0.183 C 
ATOM      8  N   UNL A   1      33.537  26.126  25.364  1.00  0.00    -0.142 N 
ATOM      9  C   UNL A   1      33.205  24.908  25.615  1.00  0.00     0.337 C 
ATOM     10  H   UNL A   1      33.991  26.375  24.526  1.00  0.00     0.343 HD
ATOM     11  N   UNL A   1      32.583  24.450  26.721  1.00  0.00    -0.202 N 
ATOM     12  S   UNL A   1      33.593  23.604  24.528  1.00  0.00    -0.020 SA
ATOM     13  C   UNL A   1      32.495  23.094  26.875  1.00  0.00     0.322 C 
ATOM     14  H   UNL A   1      32.209  25.067  27.390  1.00  0.00     0.316 HD
ATOM     15  O   UNL A   1      31.856  22.559  27.764  1.00  0.00    -0.246 OA
BRANCH   8  16
ATOM     16  N   UNL A   1      33.226  27.079  26.337  1.00  0.00    -0.090 NA
ATOM     17  C   UNL A   1      31.773  28.757  27.256  1.00  0.00     0.071 C 
ATOM     18  C   UNL A   1      32.205  27.863  26.110  1.00  0.00     0.088 C 
BRANCH  18  19
ATOM     19  C   UNL A   1      31.479  28.027  24.809  1.00  0.00    -0.000 A 
ATOM     20  C   UNL A   1      31.860  28.991  23.879  1.00  0.00     0.014 A 
ATOM     21  C   UNL A   1      30.298  27.307  24.585  1.00  0.00     0.014 A 
ATOM     22  C   UNL A   1      31.001  29.325  22.829  1.00  0.00     0.047 A 
ATOM     23  C   UNL A   1      29.450  27.629  23.507  1.00  0.00     0.047 A 
ATOM     24  C   UNL A   1      29.774  28.675  22.650  1.00  0.00     0.119 A 
BRANCH  24  25
ATOM     25  O   UNL A   1      29.017  29.223  21.666  1.00  0.00    -0.491 OA
BRANCH  25  26
ATOM     26  C   UNL A   1      28.026  30.244  21.811  1.00  0.00     0.167 C 
ATOM     27  C   UNL A   1      27.621  30.560  23.242  1.00  0.00     0.052 C 
ATOM     28  C   UNL A   1      28.285  31.487  20.968  1.00  0.00     0.052 C 
ENDBRANCH  25  26
ENDBRANCH  24  25
ENDBRANCH  18  19
ENDBRANCH   8  16
ENDBRANCH   6   7
ENDBRANCH   3   6
ENDBRANCH   1   2
BRANCH   1  29
ATOM     29  C   UNL A   1      38.685  22.298  26.155  1.00  0.00     0.042 C 
BRANCH  29  30
ATOM     30  C   UNL A   1      39.310  23.555  26.736  1.00  0.00     0.118 C 
BRANCH  30  31
ATOM     31  N   UNL A   1      40.592  23.886  26.125  1.00  0.00    -0.352 N 
ATOM     32  C   UNL A   1      41.381  25.006  26.250  1.00  0.00     0.251 C 
ATOM     33  H   UNL A   1      40.953  23.194  25.525  1.00  0.00     0.163 HD
ATOM     34  O   UNL A   1      42.344  25.147  25.501  1.00  0.00    -0.269 OA
BRANCH  32  35
ATOM     35  C   UNL A   1      41.048  26.049  27.246  1.00  0.00     0.039 A 
ATOM     36  C   UNL A   1      40.127  25.760  28.255  1.00  0.00     0.014 A 
ATOM     37  C   UNL A   1      41.658  27.302  27.203  1.00  0.00     0.014 A 
ATOM     38  C   UNL A   1      39.901  26.691  29.272  1.00  0.00     0.010 A 
ATOM     39  C   UNL A   1      41.530  28.173  28.277  1.00  0.00     0.010 A 
ATOM     40  C   UNL A   1      40.643  27.883  29.322  1.00  0.00    -0.014 A 
BRANCH  40  41
ATOM     41  C   UNL A   1      40.504  28.843  30.448  1.00  0.00     0.031 A 
ATOM     42  C   UNL A   1      41.367  28.695  31.676  1.00  0.00     0.074 A 
ATOM     43  C   UNL A   1      39.550  29.798  30.400  1.00  0.00     0.049 A 
ATOM     44  N   UNL A   1      41.343  29.386  32.786  1.00  0.00    -0.248 NA
ATOM     45  C   UNL A   1      42.365  27.609  31.673  1.00  0.00     0.031 C 
ATOM     46  C   UNL A   1      38.610  30.007  29.293  1.00  0.00     0.029 A 
ATOM     47  N   UNL A   1      39.205  30.769  31.308  1.00  0.00    -0.354 N 
ATOM     48  C   UNL A   1      42.291  28.800  33.618  1.00  0.00     0.074 A 
ATOM     49  C   UNL A   1      42.844  27.672  32.906  1.00  0.00     0.031 C 
ATOM     50  C   UNL A   1      37.822  31.057  29.575  1.00  0.00     0.029 A 
ATOM     51  C   UNL A   1      38.161  31.568  30.898  1.00  0.00     0.049 A 
ATOM     52  H   UNL A   1      39.662  30.883  32.172  1.00  0.00     0.167 HD
ATOM     53  C   UNL A   1      42.681  29.180  34.857  1.00  0.00     0.031 A 
ATOM     54  C   UNL A   1      37.538  32.586  31.523  1.00  0.00     0.031 A 
ATOM     55  C   UNL A   1      42.160  30.331  35.543  1.00  0.00     0.049 A 
ATOM     56  C   UNL A   1      38.008  32.996  32.894  1.00  0.00     0.074 A 
ATOM     57  C   UNL A   1      42.560  30.855  36.760  1.00  0.00     0.029 A 
ATOM     58  N   UNL A   1      41.128  31.131  35.080  1.00  0.00    -0.354 N 
ATOM     59  N   UNL A   1      38.979  32.491  33.617  1.00  0.00    -0.248 NA
ATOM     60  C   UNL A   1      37.307  34.121  33.528  1.00  0.00     0.031 C 
ATOM     61  C   UNL A   1      41.726  31.934  37.063  1.00  0.00     0.029 A 
ATOM     62  C   UNL A   1      40.855  32.125  36.003  1.00  0.00     0.049 A 
ATOM     63  H   UNL A   1      40.661  31.011  34.222  1.00  0.00     0.167 HD
ATOM     64  C   UNL A   1      39.027  33.260  34.775  1.00  0.00     0.074 A 
ATOM     65  C   UNL A   1      38.002  34.274  34.647  1.00  0.00     0.031 C 
ATOM     66  C   UNL A   1      39.843  33.137  35.850  1.00  0.00     0.031 A 
BRANCH  53  67
ATOM     67  C   UNL A   1      43.724  28.354  35.562  1.00  0.00    -0.014 A 
ATOM     68  C   UNL A   1      45.093  28.650  35.443  1.00  0.00     0.010 A 
ATOM     69  C   UNL A   1      43.317  27.331  36.439  1.00  0.00     0.010 A 
ATOM     70  C   UNL A   1      46.038  27.930  36.179  1.00  0.00     0.020 A 
ATOM     71  C   UNL A   1      44.256  26.627  37.197  1.00  0.00     0.020 A 
ATOM     72  C   UNL A   1      45.612  26.928  37.058  1.00  0.00     0.054 A 
BRANCH  72  73
ATOM     73  S   UNL A   1      46.855  26.068  38.060  1.00  0.00     0.124 S 
ATOM     74  O   UNL A   1      46.160  24.830  38.405  1.00  0.00    -0.237 OA
ATOM     75  O   UNL A   1      47.970  25.923  37.128  1.00  0.00    -0.237 OA
ATOM     76  O   UNL A   1      47.094  26.979  39.176  1.00  0.00    -0.744 OA
ENDBRANCH  72  73
ENDBRANCH  53  67
BRANCH  54  77
ATOM     77  C   UNL A   1      36.396  33.292  30.873  1.00  0.00    -0.014 A 
ATOM     78  C   UNL A   1      36.522  33.824  29.577  1.00  0.00     0.010 A 
ATOM     79  C   UNL A   1      35.186  33.474  31.568  1.00  0.00     0.010 A 
ATOM     80  C   UNL A   1      35.483  34.567  29.010  1.00  0.00     0.020 A 
ATOM     81  C   UNL A   1      34.130  34.185  30.990  1.00  0.00     0.020 A 
ATOM     82  C   UNL A   1      34.294  34.748  29.723  1.00  0.00     0.054 A 
BRANCH  82  83
ATOM     83  S   UNL A   1      32.960  35.720  28.972  1.00  0.00     0.124 S 
ATOM     84  O   UNL A   1      32.384  34.765  28.029  1.00  0.00    -0.237 OA
ATOM     85  O   UNL A   1      32.127  36.055  30.124  1.00  0.00    -0.237 OA
ATOM     86  O   UNL A   1      33.660  36.851  28.369  1.00  0.00    -0.744 OA
ENDBRANCH  82  83
ENDBRANCH  54  77
BRANCH  66  87
ATOM     87  C   UNL A   1      39.701  34.152  36.952  1.00  0.00    -0.014 A 
ATOM     88  C   UNL A   1      38.947  33.881  38.107  1.00  0.00     0.010 A 
ATOM     89  C   UNL A   1      40.390  35.376  36.853  1.00  0.00     0.010 A 
ATOM     90  C   UNL A   1      38.856  34.831  39.127  1.00  0.00     0.020 A 
ATOM     91  C   UNL A   1      40.328  36.314  37.885  1.00  0.00     0.020 A 
ATOM     92  C   UNL A   1      39.548  36.041  39.011  1.00  0.00     0.054 A 
BRANCH  92  93
ATOM     93  S   UNL A   1      39.449  37.237  40.369  1.00  0.00     0.124 S 
ATOM     94  O   UNL A   1      38.651  38.306  39.774  1.00  0.00    -0.237 OA
ATOM     95  O   UNL A   1      38.788  36.471  41.423  1.00  0.00    -0.237 OA
ATOM     96  O   UNL A   1      40.846  37.576  40.636  1.00  0.00    -0.744 OA
ENDBRANCH  92  93
ENDBRANCH  66  87
ENDBRANCH  40  41
ENDBRANCH  32  35
ENDBRANCH  30  31
ENDBRANCH  29  30
ENDBRANCH   1  29
TORSDOF 18
ENDMDL
MODEL 3
REMARK VINA RESULT:     -11.6      6.388     12.403
REMARK SMILES C/C(=N/[NH+]=C1\NC(=O)[C@H](CC(=O)NCCCNC(=O)c2ccc(-c3c4nc(c(-c5ccc(S(=O)(=O)[O-])cc5)c5ccc([nH]5)c(-c5ccc(S(=O)(=O)[O-])cc5)c5nc(c(-c6ccc(S(=O)(=O)[O-])cc6)c6ccc3[nH]6)C=C5)C=C4)cc2)S1)c1ccc(OC(C)C)cc1
REMARK SMILES IDX 14 1 13 2 11 3 12 4 10 6 9 7 4 8 5 9 6 11 80 12 7 13 8 15
REMARK SMILES IDX 3 16 1 17 2 18 81 19 82 20 90 21 83 22 89 23 84 24 85 25
REMARK SMILES IDX 86 26 87 27 88 28 15 29 16 30 17 31 18 32 19 34 20 35 21 36
REMARK SMILES IDX 79 37 22 38 78 39 23 40 24 41 25 42 72 43 26 44 77 45 71 46
REMARK SMILES IDX 73 47 27 48 76 49 70 50 69 51 28 53 58 54 39 55 57 56 40 57
REMARK SMILES IDX 43 58 56 59 74 60 41 61 42 62 55 64 75 65 44 66 29 67 30 68
REMARK SMILES IDX 38 69 31 70 37 71 32 72 33 73 34 74 35 75 36 76 59 77 60 78
REMARK SMILES IDX 68 79 61 80 67 81 62 82 63 83 64 84 65 85 66 86 45 87 46 88
REMARK SMILES IDX 54 89 47 90 53 91 48 92 49 93 50 94 51 95 52 96
REMARK H PARENT 13 5 4 10 6 14 17 33 73 52 43 63
REMARK Flexibility Score: inf
ROOT
ATOM      1  C   UNL A   1      33.198  30.233  27.549  1.00  0.00     0.117 C 
ENDROOT
BRANCH   1   2
ATOM      2  N   UNL A   1      32.318  30.824  26.560  1.00  0.00    -0.356 N 
ATOM      3  C   UNL A   1      31.469  30.198  25.699  1.00  0.00     0.221 C 
ATOM      4  O   UNL A   1      30.718  30.872  24.995  1.00  0.00    -0.275 OA
ATOM      5  H   UNL A   1      32.337  31.807  26.504  1.00  0.00     0.163 HD
BRANCH   3   6
ATOM      6  C   UNL A   1      31.455  28.690  25.635  1.00  0.00     0.127 C 
BRANCH   6   7
ATOM      7  C   UNL A   1      31.285  28.168  24.212  1.00  0.00     0.183 C 
ATOM      8  N   UNL A   1      32.889  24.712  24.164  1.00  0.00    -0.142 N 
ATOM      9  C   UNL A   1      32.456  25.899  23.918  1.00  0.00     0.337 C 
ATOM     10  H   UNL A   1      32.307  24.022  24.557  1.00  0.00     0.343 HD
ATOM     11  N   UNL A   1      33.155  26.922  23.383  1.00  0.00    -0.202 N 
ATOM     12  S   UNL A   1      30.836  26.393  24.325  1.00  0.00    -0.020 SA
ATOM     13  C   UNL A   1      32.564  28.155  23.383  1.00  0.00     0.322 C 
ATOM     14  H   UNL A   1      34.055  26.786  23.008  1.00  0.00     0.316 HD
ATOM     15  O   UNL A   1      33.038  29.129  22.825  1.00  0.00    -0.246 OA
BRANCH   8  16
ATOM     16  N   UNL A   1      34.224  24.449  23.848  1.00  0.00    -0.090 NA
ATOM     17  C   UNL A   1      35.974  22.950  23.167  1.00  0.00     0.071 C 
ATOM     18  C   UNL A   1      34.573  23.199  23.691  1.00  0.00     0.088 C 
BRANCH  18  19
ATOM     19  C   UNL A   1      33.761  21.994  24.060  1.00  0.00    -0.000 A 
ATOM     20  C   UNL A   1      34.064  21.228  25.182  1.00  0.00     0.014 A 
ATOM     21  C   UNL A   1      32.774  21.534  23.177  1.00  0.00     0.014 A 
ATOM     22  C   UNL A   1      33.495  19.960  25.336  1.00  0.00     0.047 A 
ATOM     23  C   UNL A   1      32.183  20.267  23.355  1.00  0.00     0.047 A 
ATOM     24  C   UNL A   1      32.578  19.451  24.409  1.00  0.00     0.119 A 
BRANCH  24  25
ATOM     25  O   UNL A   1      32.239  18.159  24.647  1.00  0.00    -0.491 OA
BRANCH  25  26
ATOM     26  C   UNL A   1      33.126  17.042  24.743  1.00  0.00     0.167 C 
ATOM     27  C   UNL A   1      32.545  15.805  25.412  1.00  0.00     0.052 C 
ATOM     28  C   UNL A   1      33.882  16.733  23.457  1.00  0.00     0.052 C 
ENDBRANCH  25  26
ENDBRANCH  24  25
ENDBRANCH  18  19
ENDBRANCH   8  16
ENDBRANCH   6   7
ENDBRANCH   3   6
ENDBRANCH   1   2
BRANCH   1  29
ATOM     29  C   UNL A   1      34.651  30.158  27.126  1.00  0.00     0.042 C 
BRANCH  29  30
ATOM     30  C   UNL A   1      35.512  29.345  28.077  1.00  0.00     0.118 C 
BRANCH  30  31
ATOM     31  N   UNL A   1      35.442  29.822  29.454  1.00  0.00    -0.352 N 
ATOM     32  C   UNL A   1      36.428  29.971  30.401  1.00  0.00     0.251 C 
ATOM     33  H   UNL A   1      34.541  30.081  29.754  1.00  0.00     0.163 HD
ATOM     34  O   UNL A   1      36.111  30.226  31.560  1.00  0.00    -0.269 OA
BRANCH  32  35
ATOM     35  C   UNL A   1      37.850  29.782  30.037  1.00  0.00     0.039 A 
ATOM     36  C   UNL A   1      38.727  29.230  30.974  1.00  0.00     0.014 A 
ATOM     37  C   UNL A   1      38.317  30.124  28.768  1.00  0.00     0.014 A 
ATOM     38  C   UNL A   1      40.039  28.930  30.600  1.00  0.00     0.010 A 
ATOM     39  C   UNL A   1      39.579  29.711  28.360  1.00  0.00     0.010 A 
ATOM     40  C   UNL A   1      40.460  29.116  29.272  1.00  0.00    -0.014 A 
BRANCH  40  41
ATOM     41  C   UNL A   1      41.814  28.706  28.818  1.00  0.00     0.031 A 
ATOM     42  C   UNL A   1      42.916  29.731  28.713  1.00  0.00     0.074 A 
ATOM     43  C   UNL A   1      42.032  27.432  28.426  1.00  0.00     0.049 A 
ATOM     44  N   UNL A   1      44.137  29.583  28.271  1.00  0.00    -0.248 NA
ATOM     45  C   UNL A   1      42.597  31.110  29.128  1.00  0.00     0.031 C 
ATOM     46  C   UNL A   1      41.032  26.360  28.422  1.00  0.00     0.029 A 
ATOM     47  N   UNL A   1      43.165  26.823  27.945  1.00  0.00    -0.354 N 
ATOM     48  C   UNL A   1      44.715  30.846  28.322  1.00  0.00     0.074 A 
ATOM     49  C   UNL A   1      43.702  31.759  28.797  1.00  0.00     0.031 C 
ATOM     50  C   UNL A   1      41.604  25.223  27.993  1.00  0.00     0.029 A 
ATOM     51  C   UNL A   1      42.994  25.490  27.645  1.00  0.00     0.049 A 
ATOM     52  H   UNL A   1      44.020  27.295  27.827  1.00  0.00     0.167 HD
ATOM     53  C   UNL A   1      45.983  31.211  28.020  1.00  0.00     0.031 A 
ATOM     54  C   UNL A   1      43.855  24.588  27.134  1.00  0.00     0.031 A 
ATOM     55  C   UNL A   1      47.001  30.290  27.591  1.00  0.00     0.049 A 
ATOM     56  C   UNL A   1      45.265  25.021  26.824  1.00  0.00     0.074 A 
ATOM     57  C   UNL A   1      48.340  30.545  27.354  1.00  0.00     0.029 A 
ATOM     58  N   UNL A   1      46.795  28.945  27.332  1.00  0.00    -0.354 N 
ATOM     59  N   UNL A   1      45.817  26.201  26.981  1.00  0.00    -0.248 NA
ATOM     60  C   UNL A   1      46.171  24.000  26.282  1.00  0.00     0.031 C 
ATOM     61  C   UNL A   1      48.931  29.368  26.889  1.00  0.00     0.029 A 
ATOM     62  C   UNL A   1      47.976  28.364  26.904  1.00  0.00     0.049 A 
ATOM     63  H   UNL A   1      45.938  28.473  27.437  1.00  0.00     0.167 HD
ATOM     64  C   UNL A   1      47.143  26.052  26.589  1.00  0.00     0.074 A 
ATOM     65  C   UNL A   1      47.314  24.666  26.208  1.00  0.00     0.031 C 
ATOM     66  C   UNL A   1      48.131  26.979  26.545  1.00  0.00     0.031 A 
BRANCH  53  67
ATOM     67  C   UNL A   1      46.357  32.664  28.140  1.00  0.00    -0.014 A 
ATOM     68  C   UNL A   1      46.060  33.582  27.117  1.00  0.00     0.010 A 
ATOM     69  C   UNL A   1      46.921  33.134  29.340  1.00  0.00     0.010 A 
ATOM     70  C   UNL A   1      46.333  34.942  27.288  1.00  0.00     0.020 A 
ATOM     71  C   UNL A   1      47.170  34.497  29.526  1.00  0.00     0.020 A 
ATOM     72  C   UNL A   1      46.878  35.392  28.496  1.00  0.00     0.054 A 
BRANCH  72  73
ATOM     73  S   UNL A   1      47.143  37.172  28.718  1.00  0.00     0.124 S 
ATOM     74  O   UNL A   1      46.662  37.709  27.447  1.00  0.00    -0.237 OA
ATOM     75  O   UNL A   1      46.312  37.474  29.881  1.00  0.00    -0.237 OA
ATOM     76  O   UNL A   1      48.582  37.286  28.937  1.00  0.00    -0.744 OA
ENDBRANCH  72  73
ENDBRANCH  53  67
BRANCH  54  77
ATOM     77  C   UNL A   1      43.420  23.187  26.868  1.00  0.00    -0.014 A 
ATOM     78  C   UNL A   1      42.893  22.390  27.901  1.00  0.00     0.010 A 
ATOM     79  C   UNL A   1      43.572  22.627  25.587  1.00  0.00     0.010 A 
ATOM     80  C   UNL A   1      42.577  21.047  27.670  1.00  0.00     0.020 A 
ATOM     81  C   UNL A   1      43.222  21.296  25.342  1.00  0.00     0.020 A 
ATOM     82  C   UNL A   1      42.749  20.507  26.393  1.00  0.00     0.054 A 
BRANCH  82  83
ATOM     83  S   UNL A   1      42.337  18.763  26.116  1.00  0.00     0.124 S 
ATOM     84  O   UNL A   1      42.647  18.169  27.413  1.00  0.00    -0.237 OA
ATOM     85  O   UNL A   1      40.919  18.825  25.769  1.00  0.00    -0.237 OA
ATOM     86  O   UNL A   1      43.222  18.372  25.021  1.00  0.00    -0.744 OA
ENDBRANCH  82  83
ENDBRANCH  54  77
BRANCH  66  87
ATOM     87  C   UNL A   1      49.500  26.519  26.121  1.00  0.00    -0.014 A 
ATOM     88  C   UNL A   1      49.975  26.738  24.816  1.00  0.00     0.010 A 
ATOM     89  C   UNL A   1      50.346  25.910  27.067  1.00  0.00     0.010 A 
ATOM     90  C   UNL A   1      51.261  26.326  24.457  1.00  0.00     0.020 A 
ATOM     91  C   UNL A   1      51.643  25.528  26.721  1.00  0.00     0.020 A 
ATOM     92  C   UNL A   1      52.087  25.724  25.411  1.00  0.00     0.054 A 
BRANCH  92  93
ATOM     93  S   UNL A   1      53.767  25.240  24.931  1.00  0.00     0.124 S 
ATOM     94  O   UNL A   1      53.640  23.790  24.809  1.00  0.00    -0.237 OA
ATOM     95  O   UNL A   1      53.962  25.963  23.677  1.00  0.00    -0.237 OA
ATOM     96  O   UNL A   1      54.593  25.701  26.045  1.00  0.00    -0.744 OA
ENDBRANCH  92  93
ENDBRANCH  66  87
ENDBRANCH  40  41
ENDBRANCH  32  35
ENDBRANCH  30  31
ENDBRANCH  29  30
ENDBRANCH   1  29
TORSDOF 18
ENDMDL
