MODEL 1
REMARK VINA RESULT:     -11.1      0.000      0.000
REMARK SMILES CCCc1cc(OC(F)(F)F)cc2c1O[C@@H](C(F)(F)F)C(C(=O)NCCCNC(=O)c1ccc(-c3c4nc(c(-c5ccc(S(=O)(=O)[O-])cc5)c5ccc([nH]5)c(-c5ccc(S(=O)(=O)[O-])cc5)c5nc(c(-c6ccc(S(=O)(=O)[O-])cc6)c6ccc3[nH]6)C=C5)C=C4)cc1)=C2
REMARK SMILES IDX 26 1 25 2 24 3 22 4 23 5 21 7 4 8 5 9 14 10 6 11 13 12 15 13
REMARK SMILES IDX 12 14 91 15 16 16 3 17 2 18 1 19 7 20 8 21 9 22 10 23 11 24
REMARK SMILES IDX 17 25 18 26 19 27 20 28 27 29 28 30 29 31 30 33 31 34 32 35
REMARK SMILES IDX 90 36 33 37 89 38 34 39 35 40 36 41 83 42 37 43 88 44 82 45
REMARK SMILES IDX 84 46 38 47 87 48 81 49 80 50 39 52 69 53 50 54 68 55 51 56
REMARK SMILES IDX 54 57 67 58 85 59 52 60 53 61 66 63 86 64 55 65 40 66 41 67
REMARK SMILES IDX 49 68 42 69 48 70 43 71 44 72 45 73 46 74 47 75 70 76 71 77
REMARK SMILES IDX 79 78 72 79 78 80 73 81 74 82 75 83 76 84 77 85 56 86 57 87
REMARK SMILES IDX 65 88 58 89 64 90 59 91 60 92 61 93 62 94 63 95
REMARK H PARENT 24 6 28 32 84 51 54 62
REMARK Flexibility Score: inf
ROOT
ATOM      1  C   UNL A   1      35.342  23.174  26.351  1.00  0.00     0.042 C 
ENDROOT
BRANCH   1   2
ATOM      2  C   UNL A   1      34.142  23.253  25.403  1.00  0.00     0.118 C 
BRANCH   2   3
ATOM      3  N   UNL A   1      32.917  22.893  26.101  1.00  0.00    -0.352 N 
ATOM      4  C   UNL A   1      31.866  23.615  26.569  1.00  0.00     0.251 C 
ATOM      5  O   UNL A   1      31.040  23.034  27.268  1.00  0.00    -0.270 OA
ATOM      6  H   UNL A   1      32.832  21.926  26.269  1.00  0.00     0.163 HD
BRANCH   4   7
ATOM      7  C   UNL A   1      31.629  25.036  26.201  1.00  0.00     0.067 C 
ATOM      8  C   UNL A   1      31.143  28.931  24.698  1.00  0.00    -0.002 A 
ATOM      9  C   UNL A   1      31.706  30.010  25.405  1.00  0.00     0.054 A 
ATOM     10  C   UNL A   1      31.241  27.636  25.230  1.00  0.00     0.131 A 
ATOM     11  C   UNL A   1      32.358  29.802  26.622  1.00  0.00     0.130 A 
ATOM     12  C   UNL A   1      31.896  27.420  26.438  1.00  0.00     0.021 A 
ATOM     13  O   UNL A   1      30.735  26.617  24.480  1.00  0.00    -0.475 OA
ATOM     14  C   UNL A   1      32.446  28.504  27.132  1.00  0.00     0.058 A 
ATOM     15  C   UNL A   1      32.100  26.063  26.920  1.00  0.00     0.025 C 
ATOM     16  C   UNL A   1      30.678  25.273  25.033  1.00  0.00     0.314 C 
BRANCH   8  17
ATOM     17  C   UNL A   1      30.483  29.183  23.360  1.00  0.00     0.039 C 
BRANCH  17  18
ATOM     18  C   UNL A   1      29.002  29.566  23.463  1.00  0.00     0.001 C 
ATOM     19  C   UNL A   1      28.724  31.042  23.214  1.00  0.00     0.004 C 
ENDBRANCH  17  18
ENDBRANCH   8  17
BRANCH  11  20
ATOM     20  O   UNL A   1      32.968  30.748  27.393  1.00  0.00    -0.406 OA
BRANCH  20  21
ATOM     21  C   UNL A   1      34.377  30.693  27.525  1.00  0.00     0.573 C 
ATOM     22  F   UNL A   1      34.735  30.425  28.801  1.00  0.00    -0.132 F 
ATOM     23  F   UNL A   1      34.907  29.760  26.706  1.00  0.00    -0.132 F 
ATOM     24  F   UNL A   1      34.896  31.895  27.192  1.00  0.00    -0.132 F 
ENDBRANCH  20  21
ENDBRANCH  11  20
BRANCH  16  25
ATOM     25  C   UNL A   1      30.793  24.302  23.833  1.00  0.00     0.429 C 
ATOM     26  F   UNL A   1      29.944  24.596  22.825  1.00  0.00    -0.167 F 
ATOM     27  F   UNL A   1      32.037  24.362  23.279  1.00  0.00    -0.167 F 
ATOM     28  F   UNL A   1      30.594  23.012  24.193  1.00  0.00    -0.167 F 
ENDBRANCH  16  25
ENDBRANCH   4   7
ENDBRANCH   2   3
ENDBRANCH   1   2
BRANCH   1  29
ATOM     29  C   UNL A   1      36.650  23.629  25.703  1.00  0.00     0.118 C 
BRANCH  29  30
ATOM     30  N   UNL A   1      37.735  22.692  25.960  1.00  0.00    -0.352 N 
ATOM     31  C   UNL A   1      39.015  22.931  26.398  1.00  0.00     0.251 C 
ATOM     32  H   UNL A   1      37.519  21.746  25.794  1.00  0.00     0.163 HD
ATOM     33  O   UNL A   1      39.860  22.046  26.307  1.00  0.00    -0.269 OA
BRANCH  31  34
ATOM     34  C   UNL A   1      39.374  24.248  26.965  1.00  0.00     0.039 A 
ATOM     35  C   UNL A   1      39.009  24.544  28.281  1.00  0.00     0.014 A 
ATOM     36  C   UNL A   1      40.047  25.200  26.194  1.00  0.00     0.014 A 
ATOM     37  C   UNL A   1      39.378  25.767  28.845  1.00  0.00     0.010 A 
ATOM     38  C   UNL A   1      40.471  26.391  26.777  1.00  0.00     0.010 A 
ATOM     39  C   UNL A   1      40.146  26.684  28.109  1.00  0.00    -0.014 A 
BRANCH  39  40
ATOM     40  C   UNL A   1      40.644  27.945  28.716  1.00  0.00     0.031 A 
ATOM     41  C   UNL A   1      42.054  28.034  29.232  1.00  0.00     0.074 A 
ATOM     42  C   UNL A   1      39.799  28.981  28.876  1.00  0.00     0.049 A 
ATOM     43  N   UNL A   1      42.635  29.012  29.878  1.00  0.00    -0.248 NA
ATOM     44  C   UNL A   1      42.917  26.863  29.009  1.00  0.00     0.031 C 
ATOM     45  C   UNL A   1      38.401  29.011  28.435  1.00  0.00     0.029 A 
ATOM     46  N   UNL A   1      39.985  30.208  29.463  1.00  0.00    -0.354 N 
ATOM     47  C   UNL A   1      43.925  28.571  30.151  1.00  0.00     0.074 A 
ATOM     48  C   UNL A   1      44.024  27.219  29.643  1.00  0.00     0.031 C 
ATOM     49  C   UNL A   1      37.867  30.203  28.744  1.00  0.00     0.029 A 
ATOM     50  C   UNL A   1      38.863  31.003  29.448  1.00  0.00     0.049 A 
ATOM     51  H   UNL A   1      40.842  30.492  29.855  1.00  0.00     0.167 HD
ATOM     52  C   UNL A   1      44.940  29.236  30.755  1.00  0.00     0.031 A 
ATOM     53  C   UNL A   1      38.653  32.231  29.960  1.00  0.00     0.031 A 
ATOM     54  C   UNL A   1      44.831  30.578  31.265  1.00  0.00     0.049 A 
ATOM     55  C   UNL A   1      39.775  32.927  30.680  1.00  0.00     0.074 A 
ATOM     56  C   UNL A   1      45.811  31.355  31.857  1.00  0.00     0.029 A 
ATOM     57  N   UNL A   1      43.671  31.338  31.252  1.00  0.00    -0.354 N 
ATOM     58  N   UNL A   1      41.004  32.516  30.880  1.00  0.00    -0.248 NA
ATOM     59  C   UNL A   1      39.480  34.252  31.245  1.00  0.00     0.031 C 
ATOM     60  C   UNL A   1      45.228  32.563  32.254  1.00  0.00     0.029 A 
ATOM     61  C   UNL A   1      43.901  32.564  31.855  1.00  0.00     0.049 A 
ATOM     62  H   UNL A   1      42.810  31.049  30.871  1.00  0.00     0.167 HD
ATOM     63  C   UNL A   1      41.637  33.540  31.574  1.00  0.00     0.074 A 
ATOM     64  C   UNL A   1      40.659  34.596  31.748  1.00  0.00     0.031 C 
ATOM     65  C   UNL A   1      42.914  33.601  32.026  1.00  0.00     0.031 A 
BRANCH  52  66
ATOM     66  C   UNL A   1      46.250  28.509  30.906  1.00  0.00    -0.014 A 
ATOM     67  C   UNL A   1      46.522  27.731  32.046  1.00  0.00     0.010 A 
ATOM     68  C   UNL A   1      47.219  28.589  29.888  1.00  0.00     0.010 A 
ATOM     69  C   UNL A   1      47.757  27.096  32.194  1.00  0.00     0.020 A 
ATOM     70  C   UNL A   1      48.446  27.929  30.018  1.00  0.00     0.020 A 
ATOM     71  C   UNL A   1      48.715  27.206  31.181  1.00  0.00     0.054 A 
BRANCH  71  72
ATOM     72  S   UNL A   1      50.313  26.377  31.403  1.00  0.00     0.124 S 
ATOM     73  O   UNL A   1      49.927  24.968  31.361  1.00  0.00    -0.237 OA
ATOM     74  O   UNL A   1      51.083  26.851  30.256  1.00  0.00    -0.237 OA
ATOM     75  O   UNL A   1      50.777  26.856  32.702  1.00  0.00    -0.744 OA
ENDBRANCH  71  72
ENDBRANCH  52  66
BRANCH  53  76
ATOM     76  C   UNL A   1      37.326  32.885  29.796  1.00  0.00    -0.014 A 
ATOM     77  C   UNL A   1      36.301  32.649  30.728  1.00  0.00     0.010 A 
ATOM     78  C   UNL A   1      37.088  33.768  28.726  1.00  0.00     0.010 A 
ATOM     79  C   UNL A   1      35.058  33.276  30.590  1.00  0.00     0.020 A 
ATOM     80  C   UNL A   1      35.856  34.417  28.600  1.00  0.00     0.020 A 
ATOM     81  C   UNL A   1      34.846  34.160  29.529  1.00  0.00     0.054 A 
BRANCH  81  82
ATOM     82  S   UNL A   1      33.248  35.010  29.408  1.00  0.00     0.124 S 
ATOM     83  O   UNL A   1      32.748  34.915  30.776  1.00  0.00    -0.237 OA
ATOM     84  O   UNL A   1      33.637  36.348  28.966  1.00  0.00    -0.237 OA
ATOM     85  O   UNL A   1      32.518  34.224  28.416  1.00  0.00    -0.744 OA
ENDBRANCH  81  82
ENDBRANCH  53  76
BRANCH  65  86
ATOM     86  C   UNL A   1      43.339  34.857  32.740  1.00  0.00    -0.014 A 
ATOM     87  C   UNL A   1      43.924  35.926  32.039  1.00  0.00     0.010 A 
ATOM     88  C   UNL A   1      43.078  34.999  34.115  1.00  0.00     0.010 A 
ATOM     89  C   UNL A   1      44.253  37.109  32.703  1.00  0.00     0.020 A 
ATOM     90  C   UNL A   1      43.381  36.190  34.777  1.00  0.00     0.020 A 
ATOM     91  C   UNL A   1      43.974  37.236  34.069  1.00  0.00     0.054 A 
BRANCH  91  92
ATOM     92  S   UNL A   1      44.343  38.811  34.890  1.00  0.00     0.124 S 
ATOM     93  O   UNL A   1      44.084  38.491  36.292  1.00  0.00    -0.237 OA
ATOM     94  O   UNL A   1      45.745  39.031  34.544  1.00  0.00    -0.237 OA
ATOM     95  O   UNL A   1      43.402  39.748  34.281  1.00  0.00    -0.744 OA
ENDBRANCH  91  92
ENDBRANCH  65  86
ENDBRANCH  39  40
ENDBRANCH  31  34
ENDBRANCH  29  30
ENDBRANCH   1  29
TORSDOF 18
ENDMDL
MODEL 2
REMARK VINA RESULT:     -10.6      1.780      2.865
REMARK SMILES CCCc1cc(OC(F)(F)F)cc2c1O[C@@H](C(F)(F)F)C(C(=O)NCCCNC(=O)c1ccc(-c3c4nc(c(-c5ccc(S(=O)(=O)[O-])cc5)c5ccc([nH]5)c(-c5ccc(S(=O)(=O)[O-])cc5)c5nc(c(-c6ccc(S(=O)(=O)[O-])cc6)c6ccc3[nH]6)C=C5)C=C4)cc1)=C2
REMARK SMILES IDX 26 1 25 2 24 3 22 4 23 5 21 7 4 8 5 9 14 10 6 11 13 12 15 13
REMARK SMILES IDX 12 14 91 15 16 16 3 17 2 18 1 19 7 20 8 21 9 22 10 23 11 24
REMARK SMILES IDX 17 25 18 26 19 27 20 28 27 29 28 30 29 31 30 33 31 34 32 35
REMARK SMILES IDX 90 36 33 37 89 38 34 39 35 40 36 41 83 42 37 43 88 44 82 45
REMARK SMILES IDX 84 46 38 47 87 48 81 49 80 50 39 52 69 53 50 54 68 55 51 56
REMARK SMILES IDX 54 57 67 58 85 59 52 60 53 61 66 63 86 64 55 65 40 66 41 67
REMARK SMILES IDX 49 68 42 69 48 70 43 71 44 72 45 73 46 74 47 75 70 76 71 77
REMARK SMILES IDX 79 78 72 79 78 80 73 81 74 82 75 83 76 84 77 85 56 86 57 87
REMARK SMILES IDX 65 88 58 89 64 90 59 91 60 92 61 93 62 94 63 95
REMARK H PARENT 24 6 28 32 84 51 54 62
REMARK Flexibility Score: inf
ROOT
ATOM      1  C   UNL A   1      35.674  22.885  24.644  1.00  0.00     0.042 C 
ENDROOT
BRANCH   1   2
ATOM      2  C   UNL A   1      35.112  23.350  23.298  1.00  0.00     0.118 C 
BRANCH   2   3
ATOM      3  N   UNL A   1      33.772  22.819  23.094  1.00  0.00    -0.352 N 
ATOM      4  C   UNL A   1      32.530  23.319  23.317  1.00  0.00     0.251 C 
ATOM      5  O   UNL A   1      31.576  22.556  23.188  1.00  0.00    -0.270 OA
ATOM      6  H   UNL A   1      33.766  21.910  22.716  1.00  0.00     0.163 HD
BRANCH   4   7
ATOM      7  C   UNL A   1      32.271  24.752  23.618  1.00  0.00     0.067 C 
ATOM      8  C   UNL A   1      31.285  28.637  24.884  1.00  0.00    -0.002 A 
ATOM      9  C   UNL A   1      30.641  29.505  23.982  1.00  0.00     0.054 A 
ATOM     10  C   UNL A   1      31.680  27.362  24.447  1.00  0.00     0.131 A 
ATOM     11  C   UNL A   1      30.393  29.110  22.667  1.00  0.00     0.130 A 
ATOM     12  C   UNL A   1      31.429  26.959  23.139  1.00  0.00     0.021 A 
ATOM     13  O   UNL A   1      32.243  26.536  25.372  1.00  0.00    -0.475 OA
ATOM     14  C   UNL A   1      30.793  27.837  22.253  1.00  0.00     0.058 A 
ATOM     15  C   UNL A   1      31.730  25.597  22.730  1.00  0.00     0.025 C 
ATOM     16  C   UNL A   1      32.800  25.259  24.955  1.00  0.00     0.314 C 
BRANCH   8  17
ATOM     17  C   UNL A   1      31.498  29.077  26.316  1.00  0.00     0.039 C 
BRANCH  17  18
ATOM     18  C   UNL A   1      32.673  30.045  26.497  1.00  0.00     0.001 C 
ATOM     19  C   UNL A   1      34.041  29.378  26.431  1.00  0.00     0.004 C 
ENDBRANCH  17  18
ENDBRANCH   8  17
BRANCH  11  20
ATOM     20  O   UNL A   1      29.759  29.837  21.702  1.00  0.00    -0.406 OA
BRANCH  20  21
ATOM     21  C   UNL A   1      28.367  30.061  21.844  1.00  0.00     0.573 C 
ATOM     22  F   UNL A   1      27.796  30.336  20.650  1.00  0.00    -0.132 F 
ATOM     23  F   UNL A   1      27.755  28.993  22.397  1.00  0.00    -0.132 F 
ATOM     24  F   UNL A   1      28.175  31.126  22.651  1.00  0.00    -0.132 F 
ENDBRANCH  20  21
ENDBRANCH  11  20
BRANCH  16  25
ATOM     25  C   UNL A   1      32.662  24.305  26.166  1.00  0.00     0.429 C 
ATOM     26  F   UNL A   1      31.867  24.794  27.142  1.00  0.00    -0.167 F 
ATOM     27  F   UNL A   1      32.084  23.129  25.793  1.00  0.00    -0.167 F 
ATOM     28  F   UNL A   1      33.859  23.988  26.712  1.00  0.00    -0.167 F 
ENDBRANCH  16  25
ENDBRANCH   4   7
ENDBRANCH   2   3
ENDBRANCH   1   2
BRANCH   1  29
ATOM     29  C   UNL A   1      37.007  23.544  24.999  1.00  0.00     0.118 C 
BRANCH  29  30
ATOM     30  N   UNL A   1      38.022  22.559  25.344  1.00  0.00    -0.352 N 
ATOM     31  C   UNL A   1      39.234  22.731  25.968  1.00  0.00     0.251 C 
ATOM     32  H   UNL A   1      37.809  21.632  25.092  1.00  0.00     0.163 HD
ATOM     33  O   UNL A   1      40.062  21.825  25.940  1.00  0.00    -0.269 OA
BRANCH  31  34
ATOM     34  C   UNL A   1      39.542  24.000  26.661  1.00  0.00     0.039 A 
ATOM     35  C   UNL A   1      39.051  24.206  27.952  1.00  0.00     0.014 A 
ATOM     36  C   UNL A   1      40.293  24.995  26.029  1.00  0.00     0.014 A 
ATOM     37  C   UNL A   1      39.369  25.382  28.635  1.00  0.00     0.010 A 
ATOM     38  C   UNL A   1      40.663  26.137  26.733  1.00  0.00     0.010 A 
ATOM     39  C   UNL A   1      40.210  26.340  28.046  1.00  0.00    -0.014 A 
BRANCH  39  40
ATOM     40  C   UNL A   1      40.652  27.548  28.787  1.00  0.00     0.031 A 
ATOM     41  C   UNL A   1      41.989  27.571  29.474  1.00  0.00     0.074 A 
ATOM     42  C   UNL A   1      39.812  28.594  28.907  1.00  0.00     0.049 A 
ATOM     43  N   UNL A   1      42.505  28.492  30.247  1.00  0.00    -0.248 NA
ATOM     44  C   UNL A   1      42.852  26.393  29.284  1.00  0.00     0.031 C 
ATOM     45  C   UNL A   1      38.480  28.686  28.303  1.00  0.00     0.029 A 
ATOM     46  N   UNL A   1      39.947  29.778  29.589  1.00  0.00    -0.354 N 
ATOM     47  C   UNL A   1      43.743  28.003  30.645  1.00  0.00     0.074 A 
ATOM     48  C   UNL A   1      43.879  26.683  30.069  1.00  0.00     0.031 C 
ATOM     49  C   UNL A   1      37.934  29.870  28.620  1.00  0.00     0.029 A 
ATOM     50  C   UNL A   1      38.849  30.600  29.489  1.00  0.00     0.049 A 
ATOM     51  H   UNL A   1      40.754  30.016  30.099  1.00  0.00     0.167 HD
ATOM     52  C   UNL A   1      44.687  28.605  31.408  1.00  0.00     0.031 A 
ATOM     53  C   UNL A   1      38.600  31.801  30.047  1.00  0.00     0.031 A 
ATOM     54  C   UNL A   1      44.541  29.916  31.985  1.00  0.00     0.049 A 
ATOM     55  C   UNL A   1      39.638  32.423  30.941  1.00  0.00     0.074 A 
ATOM     56  C   UNL A   1      45.454  30.631  32.739  1.00  0.00     0.029 A 
ATOM     57  N   UNL A   1      43.405  30.704  31.880  1.00  0.00    -0.354 N 
ATOM     58  N   UNL A   1      40.825  31.970  31.262  1.00  0.00    -0.248 NA
ATOM     59  C   UNL A   1      39.299  33.718  31.548  1.00  0.00     0.031 C 
ATOM     60  C   UNL A   1      44.849  31.827  33.138  1.00  0.00     0.029 A 
ATOM     61  C   UNL A   1      43.581  31.885  32.582  1.00  0.00     0.049 A 
ATOM     62  H   UNL A   1      42.593  30.461  31.379  1.00  0.00     0.167 HD
ATOM     63  C   UNL A   1      41.387  32.933  32.091  1.00  0.00     0.074 A 
ATOM     64  C   UNL A   1      40.414  34.001  32.211  1.00  0.00     0.031 C 
ATOM     65  C   UNL A   1      42.599  32.935  32.697  1.00  0.00     0.031 A 
BRANCH  52  66
ATOM     66  C   UNL A   1      45.957  27.837  31.671  1.00  0.00    -0.014 A 
ATOM     67  C   UNL A   1      47.071  27.964  30.821  1.00  0.00     0.010 A 
ATOM     68  C   UNL A   1      46.046  26.990  32.791  1.00  0.00     0.010 A 
ATOM     69  C   UNL A   1      48.228  27.216  31.052  1.00  0.00     0.020 A 
ATOM     70  C   UNL A   1      47.213  26.262  33.043  1.00  0.00     0.020 A 
ATOM     71  C   UNL A   1      48.288  26.362  32.157  1.00  0.00     0.054 A 
BRANCH  71  72
ATOM     72  S   UNL A   1      49.800  25.396  32.428  1.00  0.00     0.124 S 
ATOM     73  O   UNL A   1      49.342  24.383  33.376  1.00  0.00    -0.237 OA
ATOM     74  O   UNL A   1      50.112  24.906  31.088  1.00  0.00    -0.237 OA
ATOM     75  O   UNL A   1      50.744  26.372  32.967  1.00  0.00    -0.744 OA
ENDBRANCH  71  72
ENDBRANCH  52  66
BRANCH  53  76
ATOM     76  C   UNL A   1      37.314  32.497  29.766  1.00  0.00    -0.014 A 
ATOM     77  C   UNL A   1      36.175  32.221  30.541  1.00  0.00     0.010 A 
ATOM     78  C   UNL A   1      37.229  33.458  28.741  1.00  0.00     0.010 A 
ATOM     79  C   UNL A   1      34.971  32.886  30.293  1.00  0.00     0.020 A 
ATOM     80  C   UNL A   1      36.033  34.144  28.507  1.00  0.00     0.020 A 
ATOM     81  C   UNL A   1      34.909  33.847  29.281  1.00  0.00     0.054 A 
BRANCH  81  82
ATOM     82  S   UNL A   1      33.353  34.743  29.021  1.00  0.00     0.124 S 
ATOM     83  O   UNL A   1      32.775  34.744  30.361  1.00  0.00    -0.237 OA
ATOM     84  O   UNL A   1      33.814  36.039  28.528  1.00  0.00    -0.237 OA
ATOM     85  O   UNL A   1      32.649  33.925  28.035  1.00  0.00    -0.744 OA
ENDBRANCH  81  82
ENDBRANCH  53  76
BRANCH  65  86
ATOM     86  C   UNL A   1      42.956  34.134  33.535  1.00  0.00    -0.014 A 
ATOM     87  C   UNL A   1      42.847  34.098  34.936  1.00  0.00     0.010 A 
ATOM     88  C   UNL A   1      43.481  35.284  32.916  1.00  0.00     0.010 A 
ATOM     89  C   UNL A   1      43.244  35.196  35.703  1.00  0.00     0.020 A 
ATOM     90  C   UNL A   1      43.904  36.372  33.681  1.00  0.00     0.020 A 
ATOM     91  C   UNL A   1      43.776  36.325  35.071  1.00  0.00     0.054 A 
BRANCH  91  92
ATOM     92  S   UNL A   1      44.353  37.706  36.095  1.00  0.00     0.124 S 
ATOM     93  O   UNL A   1      43.343  37.745  37.150  1.00  0.00    -0.237 OA
ATOM     94  O   UNL A   1      45.681  37.261  36.513  1.00  0.00    -0.237 OA
ATOM     95  O   UNL A   1      44.342  38.845  35.180  1.00  0.00    -0.744 OA
ENDBRANCH  91  92
ENDBRANCH  65  86
ENDBRANCH  39  40
ENDBRANCH  31  34
ENDBRANCH  29  30
ENDBRANCH   1  29
TORSDOF 18
ENDMDL
MODEL 3
REMARK VINA RESULT:     -10.5      3.506      8.726
REMARK SMILES CCCc1cc(OC(F)(F)F)cc2c1O[C@@H](C(F)(F)F)C(C(=O)NCCCNC(=O)c1ccc(-c3c4nc(c(-c5ccc(S(=O)(=O)[O-])cc5)c5ccc([nH]5)c(-c5ccc(S(=O)(=O)[O-])cc5)c5nc(c(-c6ccc(S(=O)(=O)[O-])cc6)c6ccc3[nH]6)C=C5)C=C4)cc1)=C2
REMARK SMILES IDX 26 1 25 2 24 3 22 4 23 5 21 7 4 8 5 9 14 10 6 11 13 12 15 13
REMARK SMILES IDX 12 14 91 15 16 16 3 17 2 18 1 19 7 20 8 21 9 22 10 23 11 24
REMARK SMILES IDX 17 25 18 26 19 27 20 28 27 29 28 30 29 31 30 33 31 34 32 35
REMARK SMILES IDX 90 36 33 37 89 38 34 39 35 40 36 41 83 42 37 43 88 44 82 45
REMARK SMILES IDX 84 46 38 47 87 48 81 49 80 50 39 52 69 53 50 54 68 55 51 56
REMARK SMILES IDX 54 57 67 58 85 59 52 60 53 61 66 63 86 64 55 65 40 66 41 67
REMARK SMILES IDX 49 68 42 69 48 70 43 71 44 72 45 73 46 74 47 75 70 76 71 77
REMARK SMILES IDX 79 78 72 79 78 80 73 81 74 82 75 83 76 84 77 85 56 86 57 87
REMARK SMILES IDX 65 88 58 89 64 90 59 91 60 92 61 93 62 94 63 95
REMARK H PARENT 24 6 28 32 84 51 54 62
REMARK Flexibility Score: inf
ROOT
ATOM      1  C   UNL A   1      37.675  24.182  26.243  1.00  0.00     0.042 C 
ENDROOT
BRANCH   1   2
ATOM      2  C   UNL A   1      37.257  23.303  25.061  1.00  0.00     0.118 C 
BRANCH   2   3
ATOM      3  N   UNL A   1      36.176  22.408  25.448  1.00  0.00    -0.352 N 
ATOM      4  C   UNL A   1      34.852  22.597  25.686  1.00  0.00     0.251 C 
ATOM      5  O   UNL A   1      34.218  21.658  26.159  1.00  0.00    -0.270 OA
ATOM      6  H   UNL A   1      36.464  21.473  25.562  1.00  0.00     0.163 HD
BRANCH   4   7
ATOM      7  C   UNL A   1      34.130  23.843  25.318  1.00  0.00     0.067 C 
ATOM      8  C   UNL A   1      32.258  27.287  23.800  1.00  0.00    -0.002 A 
ATOM      9  C   UNL A   1      32.503  28.526  24.421  1.00  0.00     0.054 A 
ATOM     10  C   UNL A   1      32.824  26.123  24.343  1.00  0.00     0.131 A 
ATOM     11  C   UNL A   1      33.300  28.606  25.565  1.00  0.00     0.130 A 
ATOM     12  C   UNL A   1      33.626  26.195  25.478  1.00  0.00     0.021 A 
ATOM     13  O   UNL A   1      32.610  24.957  23.672  1.00  0.00    -0.475 OA
ATOM     14  C   UNL A   1      33.855  27.434  26.087  1.00  0.00     0.058 A 
ATOM     15  C   UNL A   1      34.306  25.005  25.962  1.00  0.00     0.025 C 
ATOM     16  C   UNL A   1      33.048  23.698  24.254  1.00  0.00     0.314 C 
BRANCH   8  17
ATOM     17  C   UNL A   1      31.427  27.241  22.536  1.00  0.00     0.039 C 
BRANCH  17  18
ATOM     18  C   UNL A   1      30.055  27.909  22.673  1.00  0.00     0.001 C 
ATOM     19  C   UNL A   1      29.047  27.098  23.476  1.00  0.00     0.004 C 
ENDBRANCH  17  18
ENDBRANCH   8  17
BRANCH  11  20
ATOM     20  O   UNL A   1      33.638  29.737  26.247  1.00  0.00    -0.406 OA
BRANCH  20  21
ATOM     21  C   UNL A   1      32.613  30.432  26.935  1.00  0.00     0.573 C 
ATOM     22  F   UNL A   1      31.887  31.192  26.086  1.00  0.00    -0.132 F 
ATOM     23  F   UNL A   1      31.794  29.576  27.582  1.00  0.00    -0.132 F 
ATOM     24  F   UNL A   1      33.177  31.252  27.848  1.00  0.00    -0.132 F 
ENDBRANCH  20  21
ENDBRANCH  11  20
BRANCH  16  25
ATOM     25  C   UNL A   1      33.358  22.753  23.068  1.00  0.00     0.429 C 
ATOM     26  F   UNL A   1      33.037  21.465  23.314  1.00  0.00    -0.167 F 
ATOM     27  F   UNL A   1      32.626  23.098  21.971  1.00  0.00    -0.167 F 
ATOM     28  F   UNL A   1      34.657  22.804  22.695  1.00  0.00    -0.167 F 
ENDBRANCH  16  25
ENDBRANCH   4   7
ENDBRANCH   2   3
ENDBRANCH   1   2
BRANCH   1  29
ATOM     29  C   UNL A   1      38.999  23.751  26.873  1.00  0.00     0.118 C 
BRANCH  29  30
ATOM     30  N   UNL A   1      40.142  24.228  26.107  1.00  0.00    -0.352 N 
ATOM     31  C   UNL A   1      40.803  25.430  26.175  1.00  0.00     0.251 C 
ATOM     32  H   UNL A   1      40.493  23.595  25.440  1.00  0.00     0.163 HD
ATOM     33  O   UNL A   1      41.576  25.748  25.276  1.00  0.00    -0.269 OA
BRANCH  31  34
ATOM     34  C   UNL A   1      40.580  26.340  27.319  1.00  0.00     0.039 A 
ATOM     35  C   UNL A   1      39.754  25.925  28.367  1.00  0.00     0.014 A 
ATOM     36  C   UNL A   1      41.162  27.610  27.347  1.00  0.00     0.014 A 
ATOM     37  C   UNL A   1      39.567  26.756  29.474  1.00  0.00     0.010 A 
ATOM     38  C   UNL A   1      41.028  28.410  28.479  1.00  0.00     0.010 A 
ATOM     39  C   UNL A   1      40.234  27.989  29.556  1.00  0.00    -0.014 A 
BRANCH  39  40
ATOM     40  C   UNL A   1      40.140  28.845  30.765  1.00  0.00     0.031 A 
ATOM     41  C   UNL A   1      39.161  29.985  30.813  1.00  0.00     0.074 A 
ATOM     42  C   UNL A   1      40.994  28.643  31.787  1.00  0.00     0.049 A 
ATOM     43  N   UNL A   1      39.002  30.898  31.737  1.00  0.00    -0.248 NA
ATOM     44  C   UNL A   1      38.256  30.131  29.662  1.00  0.00     0.031 C 
ATOM     45  C   UNL A   1      42.003  27.582  31.852  1.00  0.00     0.029 A 
ATOM     46  N   UNL A   1      41.160  29.329  32.965  1.00  0.00    -0.354 N 
ATOM     47  C   UNL A   1      37.991  31.732  31.275  1.00  0.00     0.074 A 
ATOM     48  C   UNL A   1      37.608  31.245  29.967  1.00  0.00     0.031 C 
ATOM     49  C   UNL A   1      42.663  27.673  33.017  1.00  0.00     0.029 A 
ATOM     50  C   UNL A   1      42.164  28.825  33.759  1.00  0.00     0.049 A 
ATOM     51  H   UNL A   1      40.612  30.107  33.216  1.00  0.00     0.167 HD
ATOM     52  C   UNL A   1      37.421  32.796  31.892  1.00  0.00     0.031 A 
ATOM     53  C   UNL A   1      42.640  29.252  34.944  1.00  0.00     0.031 A 
ATOM     54  C   UNL A   1      37.812  33.279  33.190  1.00  0.00     0.049 A 
ATOM     55  C   UNL A   1      42.034  30.472  35.581  1.00  0.00     0.074 A 
ATOM     56  C   UNL A   1      37.271  34.324  33.918  1.00  0.00     0.029 A 
ATOM     57  N   UNL A   1      38.848  32.756  33.950  1.00  0.00    -0.354 N 
ATOM     58  N   UNL A   1      41.041  31.216  35.155  1.00  0.00    -0.248 NA
ATOM     59  C   UNL A   1      42.614  30.911  36.859  1.00  0.00     0.031 C 
ATOM     60  C   UNL A   1      38.017  34.469  35.093  1.00  0.00     0.029 A 
ATOM     61  C   UNL A   1      38.984  33.477  35.125  1.00  0.00     0.049 A 
ATOM     62  H   UNL A   1      39.405  31.986  33.692  1.00  0.00     0.167 HD
ATOM     63  C   UNL A   1      40.862  32.198  36.122  1.00  0.00     0.074 A 
ATOM     64  C   UNL A   1      41.840  31.946  37.162  1.00  0.00     0.031 C 
ATOM     65  C   UNL A   1      39.968  33.216  36.147  1.00  0.00     0.031 A 
BRANCH  52  66
ATOM     66  C   UNL A   1      36.322  33.515  31.154  1.00  0.00    -0.014 A 
ATOM     67  C   UNL A   1      36.456  33.846  29.793  1.00  0.00     0.010 A 
ATOM     68  C   UNL A   1      35.130  33.852  31.823  1.00  0.00     0.010 A 
ATOM     69  C   UNL A   1      35.447  34.549  29.130  1.00  0.00     0.020 A 
ATOM     70  C   UNL A   1      34.105  34.530  31.156  1.00  0.00     0.020 A 
ATOM     71  C   UNL A   1      34.280  34.895  29.819  1.00  0.00     0.054 A 
BRANCH  71  72
ATOM     72  S   UNL A   1      32.990  35.815  28.936  1.00  0.00     0.124 S 
ATOM     73  O   UNL A   1      32.175  36.319  30.038  1.00  0.00    -0.237 OA
ATOM     74  O   UNL A   1      33.756  36.824  28.209  1.00  0.00    -0.237 OA
ATOM     75  O   UNL A   1      32.350  34.801  28.102  1.00  0.00    -0.744 OA
ENDBRANCH  71  72
ENDBRANCH  52  66
BRANCH  53  76
ATOM     76  C   UNL A   1      43.745  28.509  35.610  1.00  0.00    -0.014 A 
ATOM     77  C   UNL A   1      43.457  27.460  36.499  1.00  0.00     0.010 A 
ATOM     78  C   UNL A   1      45.089  28.827  35.338  1.00  0.00     0.010 A 
ATOM     79  C   UNL A   1      44.492  26.746  37.112  1.00  0.00     0.020 A 
ATOM     80  C   UNL A   1      46.126  28.098  35.928  1.00  0.00     0.020 A 
ATOM     81  C   UNL A   1      45.820  27.067  36.819  1.00  0.00     0.054 A 
BRANCH  81  82
ATOM     82  S   UNL A   1      47.143  26.085  37.576  1.00  0.00     0.124 S 
ATOM     83  O   UNL A   1      46.678  24.720  37.349  1.00  0.00    -0.237 OA
ATOM     84  O   UNL A   1      48.317  26.491  36.807  1.00  0.00    -0.237 OA
ATOM     85  O   UNL A   1      47.140  26.525  38.970  1.00  0.00    -0.744 OA
ENDBRANCH  81  82
ENDBRANCH  53  76
BRANCH  65  86
ATOM     86  C   UNL A   1      39.988  34.130  37.343  1.00  0.00    -0.014 A 
ATOM     87  C   UNL A   1      40.807  35.272  37.370  1.00  0.00     0.010 A 
ATOM     88  C   UNL A   1      39.118  33.884  38.422  1.00  0.00     0.010 A 
ATOM     89  C   UNL A   1      40.766  36.145  38.459  1.00  0.00     0.020 A 
ATOM     90  C   UNL A   1      39.054  34.769  39.500  1.00  0.00     0.020 A 
ATOM     91  C   UNL A   1      39.884  35.891  39.516  1.00  0.00     0.054 A 
BRANCH  91  92
ATOM     92  S   UNL A   1      39.797  37.081  40.882  1.00  0.00     0.124 S 
ATOM     93  O   UNL A   1      41.121  37.696  40.834  1.00  0.00    -0.237 OA
ATOM     94  O   UNL A   1      38.689  37.945  40.483  1.00  0.00    -0.237 OA
ATOM     95  O   UNL A   1      39.540  36.246  42.053  1.00  0.00    -0.744 OA
ENDBRANCH  91  92
ENDBRANCH  65  86
ENDBRANCH  39  40
ENDBRANCH  31  34
ENDBRANCH  29  30
ENDBRANCH   1  29
TORSDOF 18
ENDMDL
