MODEL 1
REMARK VINA RESULT:     -11.7      0.000      0.000
REMARK SMILES Cc1cc(C(=O)N[C@H]2C=C[C@H](C(=O)NCCCNC(=O)c3ccc(-c4c5nc(c(-c6ccc(S(=O)(=O)[O-])cc6)c6ccc([nH]6)c(-c6ccc(S(=O)(=O)[O-])cc6)c6nc(c(-c7ccc(S(=O)(=O)[O-])cc7)c7ccc4[nH]7)C=C6)C=C5)cc3)C2)ccc1F
REMARK SMILES IDX 16 1 15 2 14 3 12 4 13 5 11 7 8 8 9 9 81 10 10 11 7 12 5 13
REMARK SMILES IDX 6 14 4 16 1 17 2 18 3 19 84 20 83 21 85 22 82 23 17 24 18 25
REMARK SMILES IDX 19 26 20 28 21 29 22 30 80 31 23 32 79 33 24 34 25 35 26 36
REMARK SMILES IDX 73 37 27 38 78 39 72 40 74 41 28 42 77 43 71 44 70 45 29 47
REMARK SMILES IDX 59 48 40 49 58 50 41 51 44 52 57 53 75 54 42 55 43 56 56 58
REMARK SMILES IDX 76 59 45 60 30 61 31 62 39 63 32 64 38 65 33 66 34 67 35 68
REMARK SMILES IDX 36 69 37 70 60 71 61 72 69 73 62 74 68 75 63 76 64 77 65 78
REMARK SMILES IDX 66 79 67 80 46 81 47 82 55 83 48 84 54 85 49 86 50 87 51 88
REMARK SMILES IDX 52 89 53 90
REMARK H PARENT 14 6 7 15 18 27 74 46 44 57
REMARK Flexibility Score: inf
ROOT
ATOM      1  C   UNL A   1      33.403  27.533  26.543  1.00  0.00     0.042 C 
ENDROOT
BRANCH   1   2
ATOM      2  C   UNL A   1      31.932  27.820  26.810  1.00  0.00     0.117 C 
BRANCH   2   3
ATOM      3  N   UNL A   1      31.155  26.598  26.867  1.00  0.00    -0.356 N 
ATOM      4  C   UNL A   1      30.294  26.007  26.009  1.00  0.00     0.227 C 
ATOM      5  O   UNL A   1      29.715  25.007  26.452  1.00  0.00    -0.274 OA
ATOM      6  H   UNL A   1      31.281  26.095  27.704  1.00  0.00     0.163 HD
BRANCH   4   7
ATOM      7  C   UNL A   1      30.005  26.492  24.570  1.00  0.00     0.103 C 
ATOM      8  C   UNL A   1      31.775  25.447  23.326  1.00  0.00     0.106 C 
ATOM      9  C   UNL A   1      31.870  26.932  23.191  1.00  0.00    -0.006 C 
ATOM     10  C   UNL A   1      30.283  25.298  23.632  1.00  0.00     0.047 C 
ATOM     11  C   UNL A   1      30.895  27.510  23.907  1.00  0.00    -0.016 C 
BRANCH   8  12
ATOM     12  N   UNL A   1      32.220  24.760  22.147  1.00  0.00    -0.346 N 
ATOM     13  C   UNL A   1      33.160  23.766  22.007  1.00  0.00     0.251 C 
ATOM     14  O   UNL A   1      33.363  23.314  20.879  1.00  0.00    -0.269 OA
ATOM     15  H   UNL A   1      31.785  25.044  21.310  1.00  0.00     0.164 HD
BRANCH  13  16
ATOM     16  C   UNL A   1      33.888  23.161  23.166  1.00  0.00     0.040 A 
ATOM     17  C   UNL A   1      36.838  23.751  25.509  1.00  0.00     0.047 C 
ATOM     18  C   UNL A   1      35.645  23.112  24.863  1.00  0.00    -0.015 A 
ATOM     19  C   UNL A   1      35.092  23.647  23.689  1.00  0.00     0.020 A 
ATOM     20  C   UNL A   1      35.047  21.990  25.433  1.00  0.00     0.126 A 
ATOM     21  C   UNL A   1      33.904  21.428  24.876  1.00  0.00     0.040 A 
ATOM     22  F   UNL A   1      35.576  21.436  26.533  1.00  0.00    -0.207 F 
ATOM     23  C   UNL A   1      33.317  22.022  23.755  1.00  0.00     0.017 A 
ENDBRANCH  13  16
ENDBRANCH   8  12
ENDBRANCH   4   7
ENDBRANCH   2   3
ENDBRANCH   1   2
BRANCH   1  24
ATOM     24  C   UNL A   1      34.141  28.704  25.901  1.00  0.00     0.118 C 
BRANCH  24  25
ATOM     25  N   UNL A   1      33.863  29.969  26.570  1.00  0.00    -0.352 N 
ATOM     26  C   UNL A   1      34.523  30.590  27.600  1.00  0.00     0.251 C 
ATOM     27  H   UNL A   1      33.077  30.454  26.231  1.00  0.00     0.163 HD
ATOM     28  O   UNL A   1      33.978  31.532  28.179  1.00  0.00    -0.269 OA
BRANCH  26  29
ATOM     29  C   UNL A   1      35.867  30.142  28.019  1.00  0.00     0.039 A 
ATOM     30  C   UNL A   1      36.038  29.605  29.299  1.00  0.00     0.014 A 
ATOM     31  C   UNL A   1      36.971  30.295  27.176  1.00  0.00     0.014 A 
ATOM     32  C   UNL A   1      37.305  29.184  29.713  1.00  0.00     0.010 A 
ATOM     33  C   UNL A   1      38.210  29.788  27.552  1.00  0.00     0.010 A 
ATOM     34  C   UNL A   1      38.397  29.251  28.833  1.00  0.00    -0.014 A 
BRANCH  34  35
ATOM     35  C   UNL A   1      39.754  28.811  29.248  1.00  0.00     0.031 A 
ATOM     36  C   UNL A   1      40.645  29.749  30.021  1.00  0.00     0.074 A 
ATOM     37  C   UNL A   1      40.211  27.600  28.876  1.00  0.00     0.049 A 
ATOM     38  N   UNL A   1      41.879  29.576  30.419  1.00  0.00    -0.248 NA
ATOM     39  C   UNL A   1      40.085  31.069  30.359  1.00  0.00     0.031 C 
ATOM     40  C   UNL A   1      39.466  26.619  28.084  1.00  0.00     0.029 A 
ATOM     41  N   UNL A   1      41.418  26.991  29.109  1.00  0.00    -0.354 N 
ATOM     42  C   UNL A   1      42.250  30.771  31.028  1.00  0.00     0.074 A 
ATOM     43  C   UNL A   1      41.132  31.678  30.893  1.00  0.00     0.031 C 
ATOM     44  C   UNL A   1      40.221  25.522  27.921  1.00  0.00     0.029 A 
ATOM     45  C   UNL A   1      41.514  25.733  28.563  1.00  0.00     0.049 A 
ATOM     46  H   UNL A   1      42.145  27.414  29.619  1.00  0.00     0.167 HD
ATOM     47  C   UNL A   1      43.406  31.081  31.663  1.00  0.00     0.031 A 
ATOM     48  C   UNL A   1      42.530  24.848  28.578  1.00  0.00     0.031 A 
ATOM     49  C   UNL A   1      44.509  30.169  31.809  1.00  0.00     0.049 A 
ATOM     50  C   UNL A   1      43.795  25.196  29.311  1.00  0.00     0.074 A 
ATOM     51  C   UNL A   1      45.703  30.361  32.482  1.00  0.00     0.029 A 
ATOM     52  N   UNL A   1      44.553  28.890  31.273  1.00  0.00    -0.354 N 
ATOM     53  N   UNL A   1      44.105  26.309  29.934  1.00  0.00    -0.248 NA
ATOM     54  C   UNL A   1      44.837  24.163  29.363  1.00  0.00     0.031 C 
ATOM     55  C   UNL A   1      46.488  29.213  32.314  1.00  0.00     0.029 A 
ATOM     56  C   UNL A   1      45.757  28.285  31.588  1.00  0.00     0.049 A 
ATOM     57  H   UNL A   1      43.833  28.474  30.746  1.00  0.00     0.167 HD
ATOM     58  C   UNL A   1      45.367  26.098  30.480  1.00  0.00     0.074 A 
ATOM     59  C   UNL A   1      45.755  24.748  30.121  1.00  0.00     0.031 C 
ATOM     60  C   UNL A   1      46.131  26.942  31.218  1.00  0.00     0.031 A 
BRANCH  47  61
ATOM     61  C   UNL A   1      43.528  32.472  32.232  1.00  0.00    -0.014 A 
ATOM     62  C   UNL A   1      43.094  32.768  33.538  1.00  0.00     0.010 A 
ATOM     63  C   UNL A   1      44.078  33.502  31.447  1.00  0.00     0.010 A 
ATOM     64  C   UNL A   1      43.140  34.078  34.021  1.00  0.00     0.020 A 
ATOM     65  C   UNL A   1      44.157  34.808  31.940  1.00  0.00     0.020 A 
ATOM     66  C   UNL A   1      43.662  35.092  33.215  1.00  0.00     0.054 A 
BRANCH  66  67
ATOM     67  S   UNL A   1      43.693  36.788  33.858  1.00  0.00     0.124 S 
ATOM     68  O   UNL A   1      42.579  36.770  34.803  1.00  0.00    -0.237 OA
ATOM     69  O   UNL A   1      45.022  36.880  34.458  1.00  0.00    -0.237 OA
ATOM     70  O   UNL A   1      43.490  37.614  32.671  1.00  0.00    -0.744 OA
ENDBRANCH  66  67
ENDBRANCH  47  61
BRANCH  48  71
ATOM     71  C   UNL A   1      42.362  23.529  27.908  1.00  0.00    -0.014 A 
ATOM     72  C   UNL A   1      42.980  23.274  26.672  1.00  0.00     0.010 A 
ATOM     73  C   UNL A   1      41.626  22.505  28.530  1.00  0.00     0.010 A 
ATOM     74  C   UNL A   1      42.864  22.019  26.068  1.00  0.00     0.020 A 
ATOM     75  C   UNL A   1      41.530  21.240  27.942  1.00  0.00     0.020 A 
ATOM     76  C   UNL A   1      42.145  21.007  26.711  1.00  0.00     0.054 A 
BRANCH  76  77
ATOM     77  S   UNL A   1      42.082  19.361  25.950  1.00  0.00     0.124 S 
ATOM     78  O   UNL A   1      42.616  18.514  27.011  1.00  0.00    -0.237 OA
ATOM     79  O   UNL A   1      40.658  19.199  25.665  1.00  0.00    -0.237 OA
ATOM     80  O   UNL A   1      42.933  19.498  24.768  1.00  0.00    -0.744 OA
ENDBRANCH  76  77
ENDBRANCH  48  71
BRANCH  60  81
ATOM     81  C   UNL A   1      47.447  26.416  31.727  1.00  0.00    -0.014 A 
ATOM     82  C   UNL A   1      48.627  26.535  30.973  1.00  0.00     0.010 A 
ATOM     83  C   UNL A   1      47.506  25.827  33.004  1.00  0.00     0.010 A 
ATOM     84  C   UNL A   1      49.835  26.036  31.469  1.00  0.00     0.020 A 
ATOM     85  C   UNL A   1      48.715  25.355  33.516  1.00  0.00     0.020 A 
ATOM     86  C   UNL A   1      49.870  25.445  32.736  1.00  0.00     0.054 A 
BRANCH  86  87
ATOM     87  S   UNL A   1      51.453  24.827  33.370  1.00  0.00     0.124 S 
ATOM     88  O   UNL A   1      52.167  26.067  33.665  1.00  0.00    -0.237 OA
ATOM     89  O   UNL A   1      51.049  24.042  34.533  1.00  0.00    -0.237 OA
ATOM     90  O   UNL A   1      51.991  24.047  32.257  1.00  0.00    -0.744 OA
ENDBRANCH  86  87
ENDBRANCH  60  81
ENDBRANCH  34  35
ENDBRANCH  26  29
ENDBRANCH  24  25
ENDBRANCH   1  24
TORSDOF 15
ENDMDL
MODEL 2
REMARK VINA RESULT:     -11.4      1.548      2.798
REMARK SMILES Cc1cc(C(=O)N[C@H]2C=C[C@H](C(=O)NCCCNC(=O)c3ccc(-c4c5nc(c(-c6ccc(S(=O)(=O)[O-])cc6)c6ccc([nH]6)c(-c6ccc(S(=O)(=O)[O-])cc6)c6nc(c(-c7ccc(S(=O)(=O)[O-])cc7)c7ccc4[nH]7)C=C6)C=C5)cc3)C2)ccc1F
REMARK SMILES IDX 16 1 15 2 14 3 12 4 13 5 11 7 8 8 9 9 81 10 10 11 7 12 5 13
REMARK SMILES IDX 6 14 4 16 1 17 2 18 3 19 84 20 83 21 85 22 82 23 17 24 18 25
REMARK SMILES IDX 19 26 20 28 21 29 22 30 80 31 23 32 79 33 24 34 25 35 26 36
REMARK SMILES IDX 73 37 27 38 78 39 72 40 74 41 28 42 77 43 71 44 70 45 29 47
REMARK SMILES IDX 59 48 40 49 58 50 41 51 44 52 57 53 75 54 42 55 43 56 56 58
REMARK SMILES IDX 76 59 45 60 30 61 31 62 39 63 32 64 38 65 33 66 34 67 35 68
REMARK SMILES IDX 36 69 37 70 60 71 61 72 69 73 62 74 68 75 63 76 64 77 65 78
REMARK SMILES IDX 66 79 67 80 46 81 47 82 55 83 48 84 54 85 49 86 50 87 51 88
REMARK SMILES IDX 52 89 53 90
REMARK H PARENT 14 6 7 15 18 27 74 46 44 57
REMARK Flexibility Score: inf
ROOT
ATOM      1  C   UNL A   1      32.520  27.579  27.031  1.00  0.00     0.042 C 
ENDROOT
BRANCH   1   2
ATOM      2  C   UNL A   1      32.351  26.390  26.096  1.00  0.00     0.117 C 
BRANCH   2   3
ATOM      3  N   UNL A   1      31.519  25.362  26.690  1.00  0.00    -0.356 N 
ATOM      4  C   UNL A   1      31.500  24.015  26.589  1.00  0.00     0.227 C 
ATOM      5  O   UNL A   1      30.552  23.459  27.161  1.00  0.00    -0.274 OA
ATOM      6  H   UNL A   1      30.825  25.720  27.290  1.00  0.00     0.163 HD
BRANCH   4   7
ATOM      7  C   UNL A   1      32.548  23.167  25.832  1.00  0.00     0.103 C 
ATOM      8  C   UNL A   1      32.136  23.786  23.548  1.00  0.00     0.106 C 
ATOM      9  C   UNL A   1      31.920  22.318  23.722  1.00  0.00    -0.006 C 
ATOM     10  C   UNL A   1      33.107  24.055  24.700  1.00  0.00     0.047 C 
ATOM     11  C   UNL A   1      32.127  21.983  25.003  1.00  0.00    -0.016 C 
BRANCH   8  12
ATOM     12  N   UNL A   1      32.639  24.116  22.245  1.00  0.00    -0.346 N 
ATOM     13  C   UNL A   1      32.632  25.317  21.574  1.00  0.00     0.251 C 
ATOM     14  O   UNL A   1      33.146  25.359  20.455  1.00  0.00    -0.269 OA
ATOM     15  H   UNL A   1      33.054  23.368  21.758  1.00  0.00     0.164 HD
BRANCH  13  16
ATOM     16  C   UNL A   1      32.098  26.582  22.169  1.00  0.00     0.040 A 
ATOM     17  C   UNL A   1      28.852  28.272  23.238  1.00  0.00     0.047 C 
ATOM     18  C   UNL A   1      30.309  28.038  22.975  1.00  0.00    -0.015 A 
ATOM     19  C   UNL A   1      30.739  26.895  22.282  1.00  0.00     0.020 A 
ATOM     20  C   UNL A   1      31.266  28.937  23.439  1.00  0.00     0.126 A 
ATOM     21  C   UNL A   1      32.624  28.697  23.254  1.00  0.00     0.040 A 
ATOM     22  F   UNL A   1      30.883  30.055  24.071  1.00  0.00    -0.207 F 
ATOM     23  C   UNL A   1      33.039  27.514  22.636  1.00  0.00     0.017 A 
ENDBRANCH  13  16
ENDBRANCH   8  12
ENDBRANCH   4   7
ENDBRANCH   2   3
ENDBRANCH   1   2
BRANCH   1  24
ATOM     24  C   UNL A   1      33.763  28.412  26.734  1.00  0.00     0.118 C 
BRANCH  24  25
ATOM     25  N   UNL A   1      33.610  29.803  27.146  1.00  0.00    -0.352 N 
ATOM     26  C   UNL A   1      34.422  30.591  27.920  1.00  0.00     0.251 C 
ATOM     27  H   UNL A   1      32.795  30.245  26.817  1.00  0.00     0.163 HD
ATOM     28  O   UNL A   1      33.986  31.661  28.349  1.00  0.00    -0.269 OA
BRANCH  26  29
ATOM     29  C   UNL A   1      35.802  30.172  28.244  1.00  0.00     0.039 A 
ATOM     30  C   UNL A   1      36.097  29.740  29.540  1.00  0.00     0.014 A 
ATOM     31  C   UNL A   1      36.819  30.251  27.289  1.00  0.00     0.014 A 
ATOM     32  C   UNL A   1      37.398  29.347  29.863  1.00  0.00     0.010 A 
ATOM     33  C   UNL A   1      38.090  29.771  27.584  1.00  0.00     0.010 A 
ATOM     34  C   UNL A   1      38.401  29.338  28.881  1.00  0.00    -0.014 A 
BRANCH  34  35
ATOM     35  C   UNL A   1      39.793  28.927  29.197  1.00  0.00     0.031 A 
ATOM     36  C   UNL A   1      40.731  29.900  29.864  1.00  0.00     0.074 A 
ATOM     37  C   UNL A   1      40.234  27.709  28.829  1.00  0.00     0.049 A 
ATOM     38  N   UNL A   1      41.996  29.754  30.166  1.00  0.00    -0.248 NA
ATOM     39  C   UNL A   1      40.183  31.225  30.203  1.00  0.00     0.031 C 
ATOM     40  C   UNL A   1      39.440  26.694  28.133  1.00  0.00     0.029 A 
ATOM     41  N   UNL A   1      41.464  27.121  28.983  1.00  0.00    -0.354 N 
ATOM     42  C   UNL A   1      42.399  30.973  30.703  1.00  0.00     0.074 A 
ATOM     43  C   UNL A   1      41.262  31.863  30.629  1.00  0.00     0.031 C 
ATOM     44  C   UNL A   1      40.195  25.600  27.946  1.00  0.00     0.029 A 
ATOM     45  C   UNL A   1      41.533  25.846  28.473  1.00  0.00     0.049 A 
ATOM     46  H   UNL A   1      42.225  27.569  29.419  1.00  0.00     0.167 HD
ATOM     47  C   UNL A   1      43.598  31.316  31.231  1.00  0.00     0.031 A 
ATOM     48  C   UNL A   1      42.558  24.973  28.434  1.00  0.00     0.031 A 
ATOM     49  C   UNL A   1      44.722  30.421  31.317  1.00  0.00     0.049 A 
ATOM     50  C   UNL A   1      43.874  25.360  29.050  1.00  0.00     0.074 A 
ATOM     51  C   UNL A   1      45.963  30.649  31.884  1.00  0.00     0.029 A 
ATOM     52  N   UNL A   1      44.739  29.126  30.821  1.00  0.00    -0.354 N 
ATOM     53  N   UNL A   1      44.219  26.496  29.609  1.00  0.00    -0.248 NA
ATOM     54  C   UNL A   1      44.930  24.340  29.050  1.00  0.00     0.031 C 
ATOM     55  C   UNL A   1      46.747  29.505  31.689  1.00  0.00     0.029 A 
ATOM     56  C   UNL A   1      45.973  28.545  31.057  1.00  0.00     0.049 A 
ATOM     57  H   UNL A   1      43.984  28.685  30.369  1.00  0.00     0.167 HD
ATOM     58  C   UNL A   1      45.523  26.317  30.056  1.00  0.00     0.074 A 
ATOM     59  C   UNL A   1      45.899  24.960  29.712  1.00  0.00     0.031 C 
ATOM     60  C   UNL A   1      46.333  27.193  30.702  1.00  0.00     0.031 A 
BRANCH  47  61
ATOM     61  C   UNL A   1      43.747  32.727  31.742  1.00  0.00    -0.014 A 
ATOM     62  C   UNL A   1      44.189  33.766  30.902  1.00  0.00     0.010 A 
ATOM     63  C   UNL A   1      43.449  33.018  33.087  1.00  0.00     0.010 A 
ATOM     64  C   UNL A   1      44.399  35.050  31.412  1.00  0.00     0.020 A 
ATOM     65  C   UNL A   1      43.625  34.309  33.592  1.00  0.00     0.020 A 
ATOM     66  C   UNL A   1      44.125  35.310  32.757  1.00  0.00     0.054 A 
BRANCH  66  67
ATOM     67  S   UNL A   1      44.423  36.981  33.398  1.00  0.00     0.124 S 
ATOM     68  O   UNL A   1      45.211  36.705  34.597  1.00  0.00    -0.237 OA
ATOM     69  O   UNL A   1      45.150  37.621  32.304  1.00  0.00    -0.237 OA
ATOM     70  O   UNL A   1      43.081  37.504  33.642  1.00  0.00    -0.744 OA
ENDBRANCH  66  67
ENDBRANCH  47  61
BRANCH  48  71
ATOM     71  C   UNL A   1      42.354  23.631  27.824  1.00  0.00    -0.014 A 
ATOM     72  C   UNL A   1      42.719  23.392  26.488  1.00  0.00     0.010 A 
ATOM     73  C   UNL A   1      41.842  22.571  28.593  1.00  0.00     0.010 A 
ATOM     74  C   UNL A   1      42.575  22.119  25.931  1.00  0.00     0.020 A 
ATOM     75  C   UNL A   1      41.721  21.289  28.048  1.00  0.00     0.020 A 
ATOM     76  C   UNL A   1      42.083  21.073  26.717  1.00  0.00     0.054 A 
BRANCH  76  77
ATOM     77  S   UNL A   1      41.987  19.410  25.998  1.00  0.00     0.124 S 
ATOM     78  O   UNL A   1      42.506  18.579  27.080  1.00  0.00    -0.237 OA
ATOM     79  O   UNL A   1      40.560  19.268  25.719  1.00  0.00    -0.237 OA
ATOM     80  O   UNL A   1      42.839  19.500  24.813  1.00  0.00    -0.744 OA
ENDBRANCH  76  77
ENDBRANCH  48  71
BRANCH  60  81
ATOM     81  C   UNL A   1      47.693  26.699  31.118  1.00  0.00    -0.014 A 
ATOM     82  C   UNL A   1      47.891  26.032  32.339  1.00  0.00     0.010 A 
ATOM     83  C   UNL A   1      48.785  26.876  30.248  1.00  0.00     0.010 A 
ATOM     84  C   UNL A   1      49.165  25.586  32.701  1.00  0.00     0.020 A 
ATOM     85  C   UNL A   1      50.053  26.405  30.592  1.00  0.00     0.020 A 
ATOM     86  C   UNL A   1      50.240  25.780  31.827  1.00  0.00     0.054 A 
BRANCH  86  87
ATOM     87  S   UNL A   1      51.879  25.171  32.306  1.00  0.00     0.124 S 
ATOM     88  O   UNL A   1      51.685  23.724  32.282  1.00  0.00    -0.237 OA
ATOM     89  O   UNL A   1      52.741  25.708  31.256  1.00  0.00    -0.237 OA
ATOM     90  O   UNL A   1      52.090  25.750  33.631  1.00  0.00    -0.744 OA
ENDBRANCH  86  87
ENDBRANCH  60  81
ENDBRANCH  34  35
ENDBRANCH  26  29
ENDBRANCH  24  25
ENDBRANCH   1  24
TORSDOF 15
ENDMDL
MODEL 3
REMARK VINA RESULT:     -11.3      2.715      9.308
REMARK SMILES Cc1cc(C(=O)N[C@H]2C=C[C@H](C(=O)NCCCNC(=O)c3ccc(-c4c5nc(c(-c6ccc(S(=O)(=O)[O-])cc6)c6ccc([nH]6)c(-c6ccc(S(=O)(=O)[O-])cc6)c6nc(c(-c7ccc(S(=O)(=O)[O-])cc7)c7ccc4[nH]7)C=C6)C=C5)cc3)C2)ccc1F
REMARK SMILES IDX 16 1 15 2 14 3 12 4 13 5 11 7 8 8 9 9 81 10 10 11 7 12 5 13
REMARK SMILES IDX 6 14 4 16 1 17 2 18 3 19 84 20 83 21 85 22 82 23 17 24 18 25
REMARK SMILES IDX 19 26 20 28 21 29 22 30 80 31 23 32 79 33 24 34 25 35 26 36
REMARK SMILES IDX 73 37 27 38 78 39 72 40 74 41 28 42 77 43 71 44 70 45 29 47
REMARK SMILES IDX 59 48 40 49 58 50 41 51 44 52 57 53 75 54 42 55 43 56 56 58
REMARK SMILES IDX 76 59 45 60 30 61 31 62 39 63 32 64 38 65 33 66 34 67 35 68
REMARK SMILES IDX 36 69 37 70 60 71 61 72 69 73 62 74 68 75 63 76 64 77 65 78
REMARK SMILES IDX 66 79 67 80 46 81 47 82 55 83 48 84 54 85 49 86 50 87 51 88
REMARK SMILES IDX 52 89 53 90
REMARK H PARENT 14 6 7 15 18 27 74 46 44 57
REMARK Flexibility Score: inf
ROOT
ATOM      1  C   UNL A   1      35.980  24.029  24.817  1.00  0.00     0.042 C 
ENDROOT
BRANCH   1   2
ATOM      2  C   UNL A   1      35.222  22.992  24.000  1.00  0.00     0.117 C 
BRANCH   2   3
ATOM      3  N   UNL A   1      34.573  23.593  22.852  1.00  0.00    -0.356 N 
ATOM      4  C   UNL A   1      33.389  23.375  22.239  1.00  0.00     0.227 C 
ATOM      5  O   UNL A   1      33.215  24.012  21.191  1.00  0.00    -0.274 OA
ATOM      6  H   UNL A   1      35.106  24.307  22.432  1.00  0.00     0.163 HD
BRANCH   4   7
ATOM      7  C   UNL A   1      32.289  22.416  22.750  1.00  0.00     0.103 C 
ATOM      8  C   UNL A   1      31.532  23.538  24.735  1.00  0.00     0.106 C 
ATOM      9  C   UNL A   1      32.067  22.188  25.089  1.00  0.00    -0.006 C 
ATOM     10  C   UNL A   1      31.137  23.298  23.277  1.00  0.00     0.047 C 
ATOM     11  C   UNL A   1      32.511  21.577  23.982  1.00  0.00    -0.016 C 
BRANCH   8  12
ATOM     12  N   UNL A   1      30.455  23.942  25.593  1.00  0.00    -0.346 N 
ATOM     13  C   UNL A   1      30.151  25.183  26.103  1.00  0.00     0.251 C 
ATOM     14  O   UNL A   1      29.151  25.289  26.814  1.00  0.00    -0.269 OA
ATOM     15  H   UNL A   1      29.839  23.220  25.856  1.00  0.00     0.164 HD
BRANCH  13  16
ATOM     16  C   UNL A   1      30.933  26.416  25.773  1.00  0.00     0.040 A 
ATOM     17  C   UNL A   1      33.901  28.502  26.946  1.00  0.00     0.047 C 
ATOM     18  C   UNL A   1      32.720  28.039  26.146  1.00  0.00    -0.015 A 
ATOM     19  C   UNL A   1      31.935  26.961  26.584  1.00  0.00     0.020 A 
ATOM     20  C   UNL A   1      32.398  28.653  24.938  1.00  0.00     0.126 A 
ATOM     21  C   UNL A   1      31.344  28.190  24.158  1.00  0.00     0.040 A 
ATOM     22  F   UNL A   1      33.108  29.708  24.514  1.00  0.00    -0.207 F 
ATOM     23  C   UNL A   1      30.623  27.064  24.567  1.00  0.00     0.017 A 
ENDBRANCH  13  16
ENDBRANCH   8  12
ENDBRANCH   4   7
ENDBRANCH   2   3
ENDBRANCH   1   2
BRANCH   1  24
ATOM     24  C   UNL A   1      36.435  23.512  26.179  1.00  0.00     0.118 C 
BRANCH  24  25
ATOM     25  N   UNL A   1      37.609  22.652  26.082  1.00  0.00    -0.352 N 
ATOM     26  C   UNL A   1      38.935  22.940  26.277  1.00  0.00     0.251 C 
ATOM     27  H   UNL A   1      37.420  21.719  25.836  1.00  0.00     0.163 HD
ATOM     28  O   UNL A   1      39.786  22.129  25.904  1.00  0.00    -0.269 OA
BRANCH  26  29
ATOM     29  C   UNL A   1      39.351  24.202  26.922  1.00  0.00     0.039 A 
ATOM     30  C   UNL A   1      39.007  24.432  28.257  1.00  0.00     0.014 A 
ATOM     31  C   UNL A   1      40.036  25.185  26.203  1.00  0.00     0.014 A 
ATOM     32  C   UNL A   1      39.386  25.624  28.879  1.00  0.00     0.010 A 
ATOM     33  C   UNL A   1      40.496  26.328  26.848  1.00  0.00     0.010 A 
ATOM     34  C   UNL A   1      40.154  26.573  28.185  1.00  0.00    -0.014 A 
BRANCH  34  35
ATOM     35  C   UNL A   1      40.570  27.849  28.821  1.00  0.00     0.031 A 
ATOM     36  C   UNL A   1      41.951  27.980  29.410  1.00  0.00     0.074 A 
ATOM     37  C   UNL A   1      39.692  28.864  28.930  1.00  0.00     0.049 A 
ATOM     38  N   UNL A   1      42.481  28.985  30.060  1.00  0.00    -0.248 NA
ATOM     39  C   UNL A   1      42.841  26.813  29.283  1.00  0.00     0.031 C 
ATOM     40  C   UNL A   1      38.310  28.844  28.445  1.00  0.00     0.029 A 
ATOM     41  N   UNL A   1      39.830  30.108  29.491  1.00  0.00    -0.354 N 
ATOM     42  C   UNL A   1      43.751  28.561  30.440  1.00  0.00     0.074 A 
ATOM     43  C   UNL A   1      43.887  27.191  30.001  1.00  0.00     0.031 C 
ATOM     44  C   UNL A   1      37.737  30.030  28.706  1.00  0.00     0.029 A 
ATOM     45  C   UNL A   1      38.695  30.880  29.406  1.00  0.00     0.049 A 
ATOM     46  H   UNL A   1      40.662  30.419  29.914  1.00  0.00     0.167 HD
ATOM     47  C   UNL A   1      44.725  29.255  31.077  1.00  0.00     0.031 A 
ATOM     48  C   UNL A   1      38.453  32.131  29.842  1.00  0.00     0.031 A 
ATOM     49  C   UNL A   1      44.590  30.624  31.497  1.00  0.00     0.049 A 
ATOM     50  C   UNL A   1      39.554  32.896  30.521  1.00  0.00     0.074 A 
ATOM     51  C   UNL A   1      45.533  31.438  32.099  1.00  0.00     0.029 A 
ATOM     52  N   UNL A   1      43.436  31.382  31.359  1.00  0.00    -0.354 N 
ATOM     53  N   UNL A   1      40.769  32.501  30.818  1.00  0.00    -0.248 NA
ATOM     54  C   UNL A   1      39.259  34.283  30.903  1.00  0.00     0.031 C 
ATOM     55  C   UNL A   1      44.934  32.675  32.366  1.00  0.00     0.029 A 
ATOM     56  C   UNL A   1      43.638  32.650  31.875  1.00  0.00     0.049 A 
ATOM     57  H   UNL A   1      42.597  31.065  30.954  1.00  0.00     0.167 HD
ATOM     58  C   UNL A   1      41.395  33.601  31.394  1.00  0.00     0.074 A 
ATOM     59  C   UNL A   1      40.426  34.679  31.393  1.00  0.00     0.031 C 
ATOM     60  C   UNL A   1      42.660  33.711  31.872  1.00  0.00     0.031 A 
BRANCH  47  61
ATOM     61  C   UNL A   1      46.014  28.527  31.362  1.00  0.00    -0.014 A 
ATOM     62  C   UNL A   1      47.084  28.549  30.447  1.00  0.00     0.010 A 
ATOM     63  C   UNL A   1      46.157  27.802  32.560  1.00  0.00     0.010 A 
ATOM     64  C   UNL A   1      48.240  27.804  30.690  1.00  0.00     0.020 A 
ATOM     65  C   UNL A   1      47.327  27.083  32.822  1.00  0.00     0.020 A 
ATOM     66  C   UNL A   1      48.350  27.068  31.872  1.00  0.00     0.054 A 
BRANCH  66  67
ATOM     67  S   UNL A   1      49.854  26.093  32.154  1.00  0.00     0.124 S 
ATOM     68  O   UNL A   1      49.336  24.951  32.903  1.00  0.00    -0.237 OA
ATOM     69  O   UNL A   1      50.308  25.800  30.797  1.00  0.00    -0.237 OA
ATOM     70  O   UNL A   1      50.715  26.997  32.914  1.00  0.00    -0.744 OA
ENDBRANCH  66  67
ENDBRANCH  47  61
BRANCH  48  71
ATOM     71  C   UNL A   1      37.117  32.743  29.604  1.00  0.00    -0.014 A 
ATOM     72  C   UNL A   1      36.140  32.738  30.613  1.00  0.00     0.010 A 
ATOM     73  C   UNL A   1      36.836  33.383  28.382  1.00  0.00     0.010 A 
ATOM     74  C   UNL A   1      34.905  33.359  30.407  1.00  0.00     0.020 A 
ATOM     75  C   UNL A   1      35.612  34.027  28.181  1.00  0.00     0.020 A 
ATOM     76  C   UNL A   1      34.651  34.006  29.194  1.00  0.00     0.054 A 
BRANCH  76  77
ATOM     77  S   UNL A   1      33.075  34.879  28.982  1.00  0.00     0.124 S 
ATOM     78  O   UNL A   1      32.520  34.839  30.331  1.00  0.00    -0.237 OA
ATOM     79  O   UNL A   1      33.503  36.194  28.511  1.00  0.00    -0.237 OA
ATOM     80  O   UNL A   1      32.367  34.071  27.989  1.00  0.00    -0.744 OA
ENDBRANCH  76  77
ENDBRANCH  48  71
BRANCH  60  81
ATOM     81  C   UNL A   1      43.086  35.057  32.395  1.00  0.00    -0.014 A 
ATOM     82  C   UNL A   1      42.913  35.410  33.744  1.00  0.00     0.010 A 
ATOM     83  C   UNL A   1      43.708  35.969  31.522  1.00  0.00     0.010 A 
ATOM     84  C   UNL A   1      43.316  36.668  34.202  1.00  0.00     0.020 A 
ATOM     85  C   UNL A   1      44.140  37.215  31.982  1.00  0.00     0.020 A 
ATOM     86  C   UNL A   1      43.924  37.564  33.316  1.00  0.00     0.054 A 
BRANCH  86  87
ATOM     87  S   UNL A   1      44.461  39.181  33.938  1.00  0.00     0.124 S 
ATOM     88  O   UNL A   1      44.363  38.998  35.384  1.00  0.00    -0.237 OA
ATOM     89  O   UNL A   1      45.818  39.293  33.410  1.00  0.00    -0.237 OA
ATOM     90  O   UNL A   1      43.495  40.113  33.360  1.00  0.00    -0.744 OA
ENDBRANCH  86  87
ENDBRANCH  60  81
ENDBRANCH  34  35
ENDBRANCH  26  29
ENDBRANCH  24  25
ENDBRANCH   1  24
TORSDOF 15
ENDMDL
