MODEL 1
REMARK VINA RESULT:     -12.0      0.000      0.000
REMARK SMILES O=C(NCCCNC(=O)c1nn(-c2ccc([N+](=O)[O-])cc2)cc1CCO)c1ccc(-c2c3nc(c(-c4ccc(S(=O)(=O)[O-])cc4)c4ccc([nH]4)c(-c4ccc(S(=O)(=O)[O-])cc4)c4nc(c(-c5ccc(S(=O)(=O)[O-])cc5)c5ccc2[nH]5)C=C4)C=C3)cc1
REMARK SMILES IDX 5 1 4 2 3 3 1 4 2 5 27 7 28 8 86 9 29 10 85 11 30 12 31 13
REMARK SMILES IDX 32 14 79 15 33 16 84 17 78 18 80 19 34 20 83 21 77 22 76 23
REMARK SMILES IDX 35 25 65 26 46 27 64 28 47 29 50 30 63 31 81 32 48 33 49 34
REMARK SMILES IDX 62 36 82 37 51 38 36 39 37 40 45 41 38 42 44 43 39 44 40 45
REMARK SMILES IDX 41 46 42 47 43 48 66 49 67 50 75 51 68 52 74 53 69 54 70 55
REMARK SMILES IDX 71 56 72 57 73 58 52 59 53 60 61 61 54 62 60 63 55 64 56 65
REMARK SMILES IDX 57 66 58 67 59 68 6 69 7 70 8 71 9 73 10 74 11 75 23 76
REMARK SMILES IDX 12 77 22 78 24 79 25 80 26 81 13 83 14 84 21 85 15 86 20 87
REMARK SMILES IDX 16 88 17 89 18 90 19 91
REMARK H PARENT 3 6 80 24 50 35 7 72 26 82
REMARK Flexibility Score: inf
ROOT
ATOM      1  C   UNL A   1      36.714  22.959  23.892  1.00  0.00     0.042 C 
ENDROOT
BRANCH   1   2
ATOM      2  C   UNL A   1      36.870  22.229  25.228  1.00  0.00     0.118 C 
BRANCH   2   3
ATOM      3  N   UNL A   1      38.152  21.590  25.438  1.00  0.00    -0.352 N 
ATOM      4  O   UNL A   1      40.117  20.978  26.221  1.00  0.00    -0.269 OA
ATOM      5  C   UNL A   1      39.271  21.875  26.171  1.00  0.00     0.251 C 
ATOM      6  H   UNL A   1      38.239  20.749  24.933  1.00  0.00     0.163 HD
BRANCH   5   7
ATOM      7  C   UNL A   1      39.559  23.170  26.847  1.00  0.00     0.039 A 
ATOM      8  C   UNL A   1      38.824  24.348  26.701  1.00  0.00     0.014 A 
ATOM      9  C   UNL A   1      40.698  23.192  27.676  1.00  0.00     0.014 A 
ATOM     10  C   UNL A   1      39.259  25.532  27.297  1.00  0.00     0.010 A 
ATOM     11  C   UNL A   1      41.123  24.366  28.290  1.00  0.00     0.010 A 
ATOM     12  C   UNL A   1      40.422  25.548  28.070  1.00  0.00    -0.014 A 
BRANCH  12  13
ATOM     13  C   UNL A   1      40.816  26.806  28.702  1.00  0.00     0.031 A 
ATOM     14  C   UNL A   1      42.006  27.492  28.119  1.00  0.00     0.074 A 
ATOM     15  C   UNL A   1      40.080  27.426  29.646  1.00  0.00     0.049 A 
ATOM     16  N   UNL A   1      43.116  27.826  28.697  1.00  0.00    -0.248 NA
ATOM     17  C   UNL A   1      41.968  27.794  26.680  1.00  0.00     0.031 C 
ATOM     18  C   UNL A   1      38.729  27.081  30.097  1.00  0.00     0.029 A 
ATOM     19  N   UNL A   1      40.346  28.586  30.313  1.00  0.00    -0.354 N 
ATOM     20  C   UNL A   1      43.850  28.536  27.746  1.00  0.00     0.074 A 
ATOM     21  C   UNL A   1      43.150  28.381  26.496  1.00  0.00     0.031 C 
ATOM     22  C   UNL A   1      38.209  28.129  30.773  1.00  0.00     0.029 A 
ATOM     23  C   UNL A   1      39.232  29.152  30.918  1.00  0.00     0.049 A 
ATOM     24  H   UNL A   1      41.245  28.986  30.361  1.00  0.00     0.167 HD
ATOM     25  C   UNL A   1      44.886  29.360  28.074  1.00  0.00     0.031 A 
ATOM     26  C   UNL A   1      39.130  30.403  31.429  1.00  0.00     0.031 A 
ATOM     27  C   UNL A   1      45.372  29.128  29.405  1.00  0.00     0.049 A 
ATOM     28  C   UNL A   1      40.499  30.908  31.679  1.00  0.00     0.074 A 
ATOM     29  C   UNL A   1      45.936  28.058  30.071  1.00  0.00     0.029 A 
ATOM     30  N   UNL A   1      45.020  30.031  30.378  1.00  0.00    -0.354 N 
ATOM     31  N   UNL A   1      41.303  30.416  32.580  1.00  0.00    -0.248 NA
ATOM     32  C   UNL A   1      41.134  31.735  30.665  1.00  0.00     0.031 C 
ATOM     33  C   UNL A   1      45.462  28.165  31.411  1.00  0.00     0.029 A 
ATOM     34  C   UNL A   1      44.665  29.309  31.486  1.00  0.00     0.049 A 
ATOM     35  H   UNL A   1      45.021  31.012  30.294  1.00  0.00     0.167 HD
ATOM     36  C   UNL A   1      42.570  30.527  32.030  1.00  0.00     0.074 A 
ATOM     37  C   UNL A   1      42.415  31.449  30.909  1.00  0.00     0.031 C 
ATOM     38  C   UNL A   1      43.567  29.656  32.366  1.00  0.00     0.031 A 
BRANCH  25  39
ATOM     39  C   UNL A   1      45.229  30.624  27.316  1.00  0.00    -0.014 A 
ATOM     40  C   UNL A   1      46.576  30.881  26.983  1.00  0.00     0.010 A 
ATOM     41  C   UNL A   1      44.323  31.698  27.182  1.00  0.00     0.010 A 
ATOM     42  C   UNL A   1      47.008  32.167  26.629  1.00  0.00     0.020 A 
ATOM     43  C   UNL A   1      44.735  32.971  26.783  1.00  0.00     0.020 A 
ATOM     44  C   UNL A   1      46.084  33.209  26.555  1.00  0.00     0.054 A 
BRANCH  44  45
ATOM     45  S   UNL A   1      46.669  34.896  26.255  1.00  0.00     0.124 S 
ATOM     46  O   UNL A   1      47.388  35.185  27.492  1.00  0.00    -0.237 OA
ATOM     47  O   UNL A   1      47.497  34.733  25.063  1.00  0.00    -0.237 OA
ATOM     48  O   UNL A   1      45.436  35.654  26.053  1.00  0.00    -0.744 OA
ENDBRANCH  44  45
ENDBRANCH  25  39
BRANCH  26  49
ATOM     49  C   UNL A   1      37.937  31.285  31.411  1.00  0.00    -0.014 A 
ATOM     50  C   UNL A   1      36.795  30.986  32.177  1.00  0.00     0.010 A 
ATOM     51  C   UNL A   1      38.023  32.571  30.839  1.00  0.00     0.010 A 
ATOM     52  C   UNL A   1      35.802  31.956  32.401  1.00  0.00     0.020 A 
ATOM     53  C   UNL A   1      37.035  33.537  31.048  1.00  0.00     0.020 A 
ATOM     54  C   UNL A   1      35.938  33.232  31.847  1.00  0.00     0.054 A 
BRANCH  54  55
ATOM     55  S   UNL A   1      34.740  34.529  32.277  1.00  0.00     0.124 S 
ATOM     56  O   UNL A   1      33.725  33.782  33.012  1.00  0.00    -0.237 OA
ATOM     57  O   UNL A   1      35.544  35.454  33.069  1.00  0.00    -0.237 OA
ATOM     58  O   UNL A   1      34.311  35.045  30.977  1.00  0.00    -0.744 OA
ENDBRANCH  54  55
ENDBRANCH  26  49
BRANCH  38  59
ATOM     59  C   UNL A   1      43.379  28.768  33.574  1.00  0.00    -0.014 A 
ATOM     60  C   UNL A   1      43.612  29.206  34.892  1.00  0.00     0.010 A 
ATOM     61  C   UNL A   1      42.777  27.512  33.379  1.00  0.00     0.010 A 
ATOM     62  C   UNL A   1      43.259  28.402  35.986  1.00  0.00     0.020 A 
ATOM     63  C   UNL A   1      42.406  26.715  34.465  1.00  0.00     0.020 A 
ATOM     64  C   UNL A   1      42.650  27.164  35.764  1.00  0.00     0.054 A 
BRANCH  64  65
ATOM     65  S   UNL A   1      42.104  26.177  37.186  1.00  0.00     0.124 S 
ATOM     66  O   UNL A   1      42.091  24.821  36.644  1.00  0.00    -0.237 OA
ATOM     67  O   UNL A   1      43.138  26.445  38.185  1.00  0.00    -0.237 OA
ATOM     68  O   UNL A   1      40.790  26.729  37.510  1.00  0.00    -0.744 OA
ENDBRANCH  64  65
ENDBRANCH  38  59
ENDBRANCH  12  13
ENDBRANCH   5   7
ENDBRANCH   2   3
ENDBRANCH   1   2
BRANCH   1  69
ATOM     69  C   UNL A   1      35.367  23.655  23.681  1.00  0.00     0.118 C 
BRANCH  69  70
ATOM     70  N   UNL A   1      34.314  23.132  24.542  1.00  0.00    -0.351 N 
ATOM     71  C   UNL A   1      33.268  23.790  25.136  1.00  0.00     0.272 C 
ATOM     72  H   UNL A   1      34.361  22.166  24.724  1.00  0.00     0.163 HD
ATOM     73  O   UNL A   1      32.545  23.176  25.934  1.00  0.00    -0.267 OA
BRANCH  71  74
ATOM     74  C   UNL A   1      33.069  25.216  24.875  1.00  0.00     0.153 A 
ATOM     75  N   UNL A   1      33.567  26.163  25.692  1.00  0.00    -0.162 NA
ATOM     76  C   UNL A   1      32.429  25.802  23.745  1.00  0.00     0.006 A 
ATOM     77  N   UNL A   1      33.037  27.319  25.243  1.00  0.00    -0.240 N 
ATOM     78  C   UNL A   1      32.349  27.143  24.067  1.00  0.00     0.119 A 
BRANCH  76  79
ATOM     79  C   UNL A   1      31.900  25.126  22.518  1.00  0.00     0.068 C 
BRANCH  79  80
ATOM     80  C   UNL A   1      32.952  24.968  21.413  1.00  0.00     0.161 C 
BRANCH  80  81
ATOM     81  O   UNL A   1      33.071  26.139  20.612  1.00  0.00    -0.396 OA
ATOM     82  H   UNL A   1      33.712  26.744  21.015  1.00  0.00     0.210 HD
ENDBRANCH  80  81
ENDBRANCH  79  80
ENDBRANCH  76  79
BRANCH  77  83
ATOM     83  C   UNL A   1      33.224  28.526  25.955  1.00  0.00     0.065 A 
ATOM     84  C   UNL A   1      32.197  29.480  25.967  1.00  0.00     0.035 A 
ATOM     85  C   UNL A   1      34.431  28.771  26.624  1.00  0.00     0.035 A 
ATOM     86  C   UNL A   1      32.358  30.665  26.689  1.00  0.00     0.088 A 
ATOM     87  C   UNL A   1      34.616  29.982  27.299  1.00  0.00     0.088 A 
ATOM     88  C   UNL A   1      33.571  30.916  27.348  1.00  0.00     0.269 A 
BRANCH  88  89
ATOM     89  N   UNL A   1      33.731  32.155  28.121  1.00  0.00     0.062 N 
ATOM     90  O   UNL A   1      33.106  33.155  27.736  1.00  0.00    -0.258 OA
ATOM     91  O   UNL A   1      34.440  32.118  29.134  1.00  0.00    -0.258 OA
ENDBRANCH  88  89
ENDBRANCH  77  83
ENDBRANCH  71  74
ENDBRANCH  69  70
ENDBRANCH   1  69
TORSDOF 18
ENDMDL
MODEL 2
REMARK VINA RESULT:     -12.0      2.258      5.045
REMARK SMILES O=C(NCCCNC(=O)c1nn(-c2ccc([N+](=O)[O-])cc2)cc1CCO)c1ccc(-c2c3nc(c(-c4ccc(S(=O)(=O)[O-])cc4)c4ccc([nH]4)c(-c4ccc(S(=O)(=O)[O-])cc4)c4nc(c(-c5ccc(S(=O)(=O)[O-])cc5)c5ccc2[nH]5)C=C4)C=C3)cc1
REMARK SMILES IDX 5 1 4 2 3 3 1 4 2 5 27 7 28 8 86 9 29 10 85 11 30 12 31 13
REMARK SMILES IDX 32 14 79 15 33 16 84 17 78 18 80 19 34 20 83 21 77 22 76 23
REMARK SMILES IDX 35 25 65 26 46 27 64 28 47 29 50 30 63 31 81 32 48 33 49 34
REMARK SMILES IDX 62 36 82 37 51 38 36 39 37 40 45 41 38 42 44 43 39 44 40 45
REMARK SMILES IDX 41 46 42 47 43 48 66 49 67 50 75 51 68 52 74 53 69 54 70 55
REMARK SMILES IDX 71 56 72 57 73 58 52 59 53 60 61 61 54 62 60 63 55 64 56 65
REMARK SMILES IDX 57 66 58 67 59 68 6 69 7 70 8 71 9 73 10 74 11 75 23 76
REMARK SMILES IDX 12 77 22 78 24 79 25 80 26 81 13 83 14 84 21 85 15 86 20 87
REMARK SMILES IDX 16 88 17 89 18 90 19 91
REMARK H PARENT 3 6 80 24 50 35 7 72 26 82
REMARK Flexibility Score: inf
ROOT
ATOM      1  C   UNL A   1      36.395  23.401  24.497  1.00  0.00     0.042 C 
ENDROOT
BRANCH   1   2
ATOM      2  C   UNL A   1      36.690  22.604  25.769  1.00  0.00     0.118 C 
BRANCH   2   3
ATOM      3  N   UNL A   1      37.917  21.834  25.747  1.00  0.00    -0.352 N 
ATOM      4  O   UNL A   1      39.914  21.009  26.168  1.00  0.00    -0.269 OA
ATOM      5  C   UNL A   1      39.170  21.988  26.273  1.00  0.00     0.251 C 
ATOM      6  H   UNL A   1      37.828  21.000  25.230  1.00  0.00     0.163 HD
BRANCH   5   7
ATOM      7  C   UNL A   1      39.703  23.231  26.895  1.00  0.00     0.039 A 
ATOM      8  C   UNL A   1      40.790  23.307  27.766  1.00  0.00     0.014 A 
ATOM      9  C   UNL A   1      39.010  24.419  26.585  1.00  0.00     0.014 A 
ATOM     10  C   UNL A   1      41.125  24.516  28.376  1.00  0.00     0.010 A 
ATOM     11  C   UNL A   1      39.355  25.631  27.175  1.00  0.00     0.010 A 
ATOM     12  C   UNL A   1      40.393  25.672  28.102  1.00  0.00    -0.014 A 
BRANCH  12  13
ATOM     13  C   UNL A   1      40.806  26.922  28.740  1.00  0.00     0.031 A 
ATOM     14  C   UNL A   1      42.010  27.589  28.165  1.00  0.00     0.074 A 
ATOM     15  C   UNL A   1      40.077  27.550  29.684  1.00  0.00     0.049 A 
ATOM     16  N   UNL A   1      43.124  27.901  28.749  1.00  0.00    -0.248 NA
ATOM     17  C   UNL A   1      41.983  27.896  26.727  1.00  0.00     0.031 C 
ATOM     18  C   UNL A   1      38.718  27.227  30.127  1.00  0.00     0.029 A 
ATOM     19  N   UNL A   1      40.359  28.704  30.356  1.00  0.00    -0.354 N 
ATOM     20  C   UNL A   1      43.873  28.602  27.804  1.00  0.00     0.074 A 
ATOM     21  C   UNL A   1      43.176  28.464  26.550  1.00  0.00     0.031 C 
ATOM     22  C   UNL A   1      38.213  28.281  30.805  1.00  0.00     0.029 A 
ATOM     23  C   UNL A   1      39.253  29.286  30.958  1.00  0.00     0.049 A 
ATOM     24  H   UNL A   1      41.265  29.087  30.409  1.00  0.00     0.167 HD
ATOM     25  C   UNL A   1      44.922  29.407  28.139  1.00  0.00     0.031 A 
ATOM     26  C   UNL A   1      39.170  30.538  31.473  1.00  0.00     0.031 A 
ATOM     27  C   UNL A   1      45.398  29.162  29.472  1.00  0.00     0.049 A 
ATOM     28  C   UNL A   1      40.547  31.018  31.731  1.00  0.00     0.074 A 
ATOM     29  C   UNL A   1      45.941  28.080  30.136  1.00  0.00     0.029 A 
ATOM     30  N   UNL A   1      45.057  30.068  30.446  1.00  0.00    -0.354 N 
ATOM     31  N   UNL A   1      41.338  30.509  32.634  1.00  0.00    -0.248 NA
ATOM     32  C   UNL A   1      41.200  31.837  30.723  1.00  0.00     0.031 C 
ATOM     33  C   UNL A   1      45.463  28.190  31.474  1.00  0.00     0.029 A 
ATOM     34  C   UNL A   1      44.685  29.348  31.550  1.00  0.00     0.049 A 
ATOM     35  H   UNL A   1      45.076  31.049  30.366  1.00  0.00     0.167 HD
ATOM     36  C   UNL A   1      42.610  30.600  32.090  1.00  0.00     0.074 A 
ATOM     37  C   UNL A   1      42.475  31.528  30.971  1.00  0.00     0.031 C 
ATOM     38  C   UNL A   1      43.590  29.710  32.426  1.00  0.00     0.031 A 
BRANCH  25  39
ATOM     39  C   UNL A   1      45.290  30.668  27.387  1.00  0.00    -0.014 A 
ATOM     40  C   UNL A   1      46.642  30.898  27.053  1.00  0.00     0.010 A 
ATOM     41  C   UNL A   1      44.407  31.761  27.261  1.00  0.00     0.010 A 
ATOM     42  C   UNL A   1      47.100  32.176  26.704  1.00  0.00     0.020 A 
ATOM     43  C   UNL A   1      44.845  33.028  26.868  1.00  0.00     0.020 A 
ATOM     44  C   UNL A   1      46.198  33.238  26.638  1.00  0.00     0.054 A 
BRANCH  44  45
ATOM     45  S   UNL A   1      46.818  34.914  26.346  1.00  0.00     0.124 S 
ATOM     46  O   UNL A   1      47.326  34.809  24.982  1.00  0.00    -0.237 OA
ATOM     47  O   UNL A   1      45.615  35.726  26.515  1.00  0.00    -0.237 OA
ATOM     48  O   UNL A   1      47.832  35.088  27.384  1.00  0.00    -0.744 OA
ENDBRANCH  44  45
ENDBRANCH  25  39
BRANCH  26  49
ATOM     49  C   UNL A   1      37.992  31.440  31.454  1.00  0.00    -0.014 A 
ATOM     50  C   UNL A   1      36.743  31.022  31.945  1.00  0.00     0.010 A 
ATOM     51  C   UNL A   1      38.166  32.815  31.190  1.00  0.00     0.010 A 
ATOM     52  C   UNL A   1      35.723  31.952  32.209  1.00  0.00     0.020 A 
ATOM     53  C   UNL A   1      37.153  33.745  31.440  1.00  0.00     0.020 A 
ATOM     54  C   UNL A   1      35.942  33.312  31.969  1.00  0.00     0.054 A 
BRANCH  54  55
ATOM     55  S   UNL A   1      34.685  34.526  32.469  1.00  0.00     0.124 S 
ATOM     56  O   UNL A   1      34.295  35.112  31.190  1.00  0.00    -0.237 OA
ATOM     57  O   UNL A   1      33.678  33.693  33.118  1.00  0.00    -0.237 OA
ATOM     58  O   UNL A   1      35.413  35.424  33.366  1.00  0.00    -0.744 OA
ENDBRANCH  54  55
ENDBRANCH  26  49
BRANCH  38  59
ATOM     59  C   UNL A   1      43.381  28.822  33.630  1.00  0.00    -0.014 A 
ATOM     60  C   UNL A   1      43.515  29.280  34.956  1.00  0.00     0.010 A 
ATOM     61  C   UNL A   1      42.860  27.534  33.414  1.00  0.00     0.010 A 
ATOM     62  C   UNL A   1      43.144  28.466  36.035  1.00  0.00     0.020 A 
ATOM     63  C   UNL A   1      42.471  26.725  34.485  1.00  0.00     0.020 A 
ATOM     64  C   UNL A   1      42.616  27.195  35.791  1.00  0.00     0.054 A 
BRANCH  64  65
ATOM     65  S   UNL A   1      42.044  26.189  37.190  1.00  0.00     0.124 S 
ATOM     66  O   UNL A   1      43.096  26.397  38.180  1.00  0.00    -0.237 OA
ATOM     67  O   UNL A   1      40.749  26.786  37.512  1.00  0.00    -0.237 OA
ATOM     68  O   UNL A   1      41.969  24.837  36.638  1.00  0.00    -0.744 OA
ENDBRANCH  64  65
ENDBRANCH  38  59
ENDBRANCH  12  13
ENDBRANCH   5   7
ENDBRANCH   2   3
ENDBRANCH   1   2
BRANCH   1  69
ATOM     69  C   UNL A   1      35.268  24.429  24.617  1.00  0.00     0.118 C 
BRANCH  69  70
ATOM     70  N   UNL A   1      34.459  24.532  23.410  1.00  0.00    -0.351 N 
ATOM     71  C   UNL A   1      33.433  23.732  22.977  1.00  0.00     0.272 C 
ATOM     72  H   UNL A   1      34.683  25.287  22.817  1.00  0.00     0.163 HD
ATOM     73  O   UNL A   1      32.950  23.927  21.852  1.00  0.00    -0.267 OA
BRANCH  71  74
ATOM     74  C   UNL A   1      32.978  22.623  23.817  1.00  0.00     0.153 A 
ATOM     75  N   UNL A   1      33.662  21.467  23.896  1.00  0.00    -0.162 NA
ATOM     76  C   UNL A   1      31.856  22.614  24.694  1.00  0.00     0.006 A 
ATOM     77  N   UNL A   1      32.861  20.640  24.599  1.00  0.00    -0.240 N 
ATOM     78  C   UNL A   1      31.765  21.297  25.103  1.00  0.00     0.119 A 
BRANCH  76  79
ATOM     79  C   UNL A   1      30.939  23.743  25.049  1.00  0.00     0.068 C 
BRANCH  79  80
ATOM     80  C   UNL A   1      31.428  24.567  26.247  1.00  0.00     0.161 C 
BRANCH  80  81
ATOM     81  O   UNL A   1      31.251  23.879  27.481  1.00  0.00    -0.396 OA
ATOM     82  H   UNL A   1      31.912  24.185  28.121  1.00  0.00     0.210 HD
ENDBRANCH  80  81
ENDBRANCH  79  80
ENDBRANCH  76  79
BRANCH  77  83
ATOM     83  C   UNL A   1      33.191  19.275  24.759  1.00  0.00     0.065 A 
ATOM     84  C   UNL A   1      34.486  18.841  24.439  1.00  0.00     0.035 A 
ATOM     85  C   UNL A   1      32.228  18.364  25.213  1.00  0.00     0.035 A 
ATOM     86  C   UNL A   1      34.834  17.501  24.619  1.00  0.00     0.088 A 
ATOM     87  C   UNL A   1      32.558  17.011  25.338  1.00  0.00     0.088 A 
ATOM     88  C   UNL A   1      33.866  16.587  25.062  1.00  0.00     0.269 A 
BRANCH  88  89
ATOM     89  N   UNL A   1      34.239  15.180  25.266  1.00  0.00     0.062 N 
ATOM     90  O   UNL A   1      33.327  14.376  25.513  1.00  0.00    -0.258 OA
ATOM     91  O   UNL A   1      35.429  14.872  25.131  1.00  0.00    -0.258 OA
ENDBRANCH  88  89
ENDBRANCH  77  83
ENDBRANCH  71  74
ENDBRANCH  69  70
ENDBRANCH   1  69
TORSDOF 18
ENDMDL
MODEL 3
REMARK VINA RESULT:     -11.9      3.112      9.081
REMARK SMILES O=C(NCCCNC(=O)c1nn(-c2ccc([N+](=O)[O-])cc2)cc1CCO)c1ccc(-c2c3nc(c(-c4ccc(S(=O)(=O)[O-])cc4)c4ccc([nH]4)c(-c4ccc(S(=O)(=O)[O-])cc4)c4nc(c(-c5ccc(S(=O)(=O)[O-])cc5)c5ccc2[nH]5)C=C4)C=C3)cc1
REMARK SMILES IDX 5 1 4 2 3 3 1 4 2 5 27 7 28 8 86 9 29 10 85 11 30 12 31 13
REMARK SMILES IDX 32 14 79 15 33 16 84 17 78 18 80 19 34 20 83 21 77 22 76 23
REMARK SMILES IDX 35 25 65 26 46 27 64 28 47 29 50 30 63 31 81 32 48 33 49 34
REMARK SMILES IDX 62 36 82 37 51 38 36 39 37 40 45 41 38 42 44 43 39 44 40 45
REMARK SMILES IDX 41 46 42 47 43 48 66 49 67 50 75 51 68 52 74 53 69 54 70 55
REMARK SMILES IDX 71 56 72 57 73 58 52 59 53 60 61 61 54 62 60 63 55 64 56 65
REMARK SMILES IDX 57 66 58 67 59 68 6 69 7 70 8 71 9 73 10 74 11 75 23 76
REMARK SMILES IDX 12 77 22 78 24 79 25 80 26 81 13 83 14 84 21 85 15 86 20 87
REMARK SMILES IDX 16 88 17 89 18 90 19 91
REMARK H PARENT 3 6 80 24 50 35 7 72 26 82
REMARK Flexibility Score: inf
ROOT
ATOM      1  C   UNL A   1      32.925  28.417  27.209  1.00  0.00     0.042 C 
ENDROOT
BRANCH   1   2
ATOM      2  C   UNL A   1      33.167  29.700  26.412  1.00  0.00     0.118 C 
BRANCH   2   3
ATOM      3  N   UNL A   1      33.305  30.905  27.205  1.00  0.00    -0.352 N 
ATOM      4  O   UNL A   1      34.081  32.663  28.280  1.00  0.00    -0.269 OA
ATOM      5  C   UNL A   1      34.339  31.542  27.832  1.00  0.00     0.251 C 
ATOM      6  H   UNL A   1      32.448  31.378  27.320  1.00  0.00     0.163 HD
BRANCH   5   7
ATOM      7  C   UNL A   1      35.699  30.977  28.055  1.00  0.00     0.039 A 
ATOM      8  C   UNL A   1      36.078  29.651  27.838  1.00  0.00     0.014 A 
ATOM      9  C   UNL A   1      36.662  31.872  28.561  1.00  0.00     0.014 A 
ATOM     10  C   UNL A   1      37.353  29.212  28.193  1.00  0.00     0.010 A 
ATOM     11  C   UNL A   1      37.942  31.444  28.897  1.00  0.00     0.010 A 
ATOM     12  C   UNL A   1      38.277  30.101  28.746  1.00  0.00    -0.014 A 
BRANCH  12  13
ATOM     13  C   UNL A   1      39.613  29.600  29.069  1.00  0.00     0.031 A 
ATOM     14  C   UNL A   1      39.984  29.597  30.514  1.00  0.00     0.074 A 
ATOM     15  C   UNL A   1      40.424  29.014  28.166  1.00  0.00     0.049 A 
ATOM     16  N   UNL A   1      40.979  30.185  31.098  1.00  0.00    -0.248 NA
ATOM     17  C   UNL A   1      39.086  28.885  31.436  1.00  0.00     0.031 C 
ATOM     18  C   UNL A   1      40.101  28.626  26.791  1.00  0.00     0.029 A 
ATOM     19  N   UNL A   1      41.685  28.521  28.342  1.00  0.00    -0.354 N 
ATOM     20  C   UNL A   1      40.940  29.778  32.433  1.00  0.00     0.074 A 
ATOM     21  C   UNL A   1      39.691  29.080  32.606  1.00  0.00     0.031 C 
ATOM     22  C   UNL A   1      41.038  27.760  26.345  1.00  0.00     0.029 A 
ATOM     23  C   UNL A   1      42.087  27.644  27.344  1.00  0.00     0.049 A 
ATOM     24  H   UNL A   1      42.256  28.765  29.106  1.00  0.00     0.167 HD
ATOM     25  C   UNL A   1      42.013  29.877  33.269  1.00  0.00     0.031 A 
ATOM     26  C   UNL A   1      43.162  26.819  27.370  1.00  0.00     0.031 A 
ATOM     27  C   UNL A   1      43.023  30.765  32.764  1.00  0.00     0.049 A 
ATOM     28  C   UNL A   1      44.103  27.325  28.395  1.00  0.00     0.074 A 
ATOM     29  C   UNL A   1      43.078  32.106  32.440  1.00  0.00     0.029 A 
ATOM     30  N   UNL A   1      44.151  30.201  32.219  1.00  0.00    -0.354 N 
ATOM     31  N   UNL A   1      44.750  28.452  28.296  1.00  0.00    -0.248 NA
ATOM     32  C   UNL A   1      44.052  26.753  29.731  1.00  0.00     0.031 C 
ATOM     33  C   UNL A   1      43.970  32.182  31.331  1.00  0.00     0.029 A 
ATOM     34  C   UNL A   1      44.426  30.889  31.068  1.00  0.00     0.049 A 
ATOM     35  H   UNL A   1      44.663  29.445  32.587  1.00  0.00     0.167 HD
ATOM     36  C   UNL A   1      44.836  28.933  29.593  1.00  0.00     0.074 A 
ATOM     37  C   UNL A   1      44.496  27.794  30.440  1.00  0.00     0.031 C 
ATOM     38  C   UNL A   1      44.909  30.273  29.848  1.00  0.00     0.031 A 
BRANCH  25  39
ATOM     39  C   UNL A   1      42.309  28.892  34.379  1.00  0.00    -0.014 A 
ATOM     40  C   UNL A   1      42.628  29.382  35.664  1.00  0.00     0.010 A 
ATOM     41  C   UNL A   1      42.571  27.528  34.134  1.00  0.00     0.010 A 
ATOM     42  C   UNL A   1      43.263  28.572  36.616  1.00  0.00     0.020 A 
ATOM     43  C   UNL A   1      43.160  26.700  35.092  1.00  0.00     0.020 A 
ATOM     44  C   UNL A   1      43.546  27.241  36.311  1.00  0.00     0.054 A 
BRANCH  44  45
ATOM     45  S   UNL A   1      44.508  26.247  37.479  1.00  0.00     0.124 S 
ATOM     46  O   UNL A   1      45.822  26.875  37.392  1.00  0.00    -0.237 OA
ATOM     47  O   UNL A   1      43.788  26.454  38.733  1.00  0.00    -0.237 OA
ATOM     48  O   UNL A   1      44.419  24.895  36.931  1.00  0.00    -0.744 OA
ENDBRANCH  44  45
ENDBRANCH  25  39
BRANCH  26  49
ATOM     49  C   UNL A   1      43.264  25.459  26.784  1.00  0.00    -0.014 A 
ATOM     50  C   UNL A   1      43.367  25.267  25.395  1.00  0.00     0.010 A 
ATOM     51  C   UNL A   1      43.526  24.353  27.620  1.00  0.00     0.010 A 
ATOM     52  C   UNL A   1      43.766  24.028  24.865  1.00  0.00     0.020 A 
ATOM     53  C   UNL A   1      43.913  23.114  27.100  1.00  0.00     0.020 A 
ATOM     54  C   UNL A   1      44.052  22.963  25.725  1.00  0.00     0.054 A 
BRANCH  54  55
ATOM     55  S   UNL A   1      44.728  21.418  25.046  1.00  0.00     0.124 S 
ATOM     56  O   UNL A   1      46.084  21.410  25.589  1.00  0.00    -0.237 OA
ATOM     57  O   UNL A   1      43.823  20.410  25.587  1.00  0.00    -0.237 OA
ATOM     58  O   UNL A   1      44.641  21.612  23.599  1.00  0.00    -0.744 OA
ENDBRANCH  54  55
ENDBRANCH  26  49
BRANCH  38  59
ATOM     59  C   UNL A   1      45.218  31.213  28.707  1.00  0.00    -0.014 A 
ATOM     60  C   UNL A   1      44.236  31.696  27.821  1.00  0.00     0.010 A 
ATOM     61  C   UNL A   1      46.511  31.765  28.643  1.00  0.00     0.010 A 
ATOM     62  C   UNL A   1      44.542  32.698  26.889  1.00  0.00     0.020 A 
ATOM     63  C   UNL A   1      46.817  32.776  27.728  1.00  0.00     0.020 A 
ATOM     64  C   UNL A   1      45.831  33.237  26.855  1.00  0.00     0.054 A 
BRANCH  64  65
ATOM     65  S   UNL A   1      46.190  34.603  25.715  1.00  0.00     0.124 S 
ATOM     66  O   UNL A   1      45.846  35.778  26.511  1.00  0.00    -0.237 OA
ATOM     67  O   UNL A   1      47.615  34.428  25.435  1.00  0.00    -0.237 OA
ATOM     68  O   UNL A   1      45.311  34.346  24.575  1.00  0.00    -0.744 OA
ENDBRANCH  64  65
ENDBRANCH  38  59
ENDBRANCH  12  13
ENDBRANCH   5   7
ENDBRANCH   2   3
ENDBRANCH   1   2
BRANCH   1  69
ATOM     69  C   UNL A   1      33.292  27.119  26.485  1.00  0.00     0.118 C 
BRANCH  69  70
ATOM     70  N   UNL A   1      32.295  26.070  26.654  1.00  0.00    -0.351 N 
ATOM     71  C   UNL A   1      31.212  25.762  25.871  1.00  0.00     0.272 C 
ATOM     72  H   UNL A   1      32.416  25.500  27.448  1.00  0.00     0.163 HD
ATOM     73  O   UNL A   1      30.414  24.897  26.259  1.00  0.00    -0.267 OA
BRANCH  71  74
ATOM     74  C   UNL A   1      30.982  26.507  24.633  1.00  0.00     0.153 A 
ATOM     75  N   UNL A   1      30.626  27.805  24.641  1.00  0.00    -0.162 NA
ATOM     76  C   UNL A   1      31.163  26.036  23.300  1.00  0.00     0.006 A 
ATOM     77  N   UNL A   1      30.329  28.089  23.357  1.00  0.00    -0.240 N 
ATOM     78  C   UNL A   1      30.646  27.050  22.517  1.00  0.00     0.119 A 
BRANCH  76  79
ATOM     79  C   UNL A   1      31.720  24.724  22.841  1.00  0.00     0.068 C 
BRANCH  79  80
ATOM     80  C   UNL A   1      33.057  24.860  22.102  1.00  0.00     0.161 C 
BRANCH  80  81
ATOM     81  O   UNL A   1      32.914  24.684  20.696  1.00  0.00    -0.396 OA
ATOM     82  H   UNL A   1      31.986  24.811  20.446  1.00  0.00     0.210 HD
ENDBRANCH  80  81
ENDBRANCH  79  80
ENDBRANCH  76  79
BRANCH  77  83
ATOM     83  C   UNL A   1      29.770  29.339  23.003  1.00  0.00     0.065 A 
ATOM     84  C   UNL A   1      29.599  30.318  23.992  1.00  0.00     0.035 A 
ATOM     85  C   UNL A   1      29.375  29.587  21.681  1.00  0.00     0.035 A 
ATOM     86  C   UNL A   1      29.074  31.566  23.651  1.00  0.00     0.088 A 
ATOM     87  C   UNL A   1      28.795  30.815  21.350  1.00  0.00     0.088 A 
ATOM     88  C   UNL A   1      28.667  31.810  22.331  1.00  0.00     0.269 A 
BRANCH  88  89
ATOM     89  N   UNL A   1      28.130  33.129  21.970  1.00  0.00     0.062 N 
ATOM     90  O   UNL A   1      28.301  34.057  22.776  1.00  0.00    -0.258 OA
ATOM     91  O   UNL A   1      27.584  33.250  20.867  1.00  0.00    -0.258 OA
ENDBRANCH  88  89
ENDBRANCH  77  83
ENDBRANCH  71  74
ENDBRANCH  69  70
ENDBRANCH   1  69
TORSDOF 18
ENDMDL
