MODEL 1
REMARK VINA RESULT:     -10.5      0.000      0.000
REMARK SMILES CC[C@](C)(Nc1cccc(Cl)c1C(N)=O)C(=O)NCCCNC(=O)c1ccc(-c2c3nc(c(-c4ccc(S(=O)(=O)[O-])cc4)c4ccc([nH]4)c(-c4ccc(S(=O)(=O)[O-])cc4)c4nc(c(-c5ccc(S(=O)(=O)[O-])cc5)c5ccc2[nH]5)C=C4)C=C3)cc1
REMARK SMILES IDX 20 1 19 2 18 3 16 4 17 5 3 7 4 8 2 9 1 10 5 11 6 13 7 14
REMARK SMILES IDX 12 15 8 16 10 17 9 18 11 19 13 20 14 21 15 22 21 25 22 26
REMARK SMILES IDX 23 27 24 29 25 30 26 31 84 32 27 33 83 34 28 35 29 36 30 37
REMARK SMILES IDX 77 38 31 39 82 40 76 41 78 42 32 43 81 44 75 45 74 46 33 48
REMARK SMILES IDX 63 49 44 50 62 51 45 52 48 53 61 54 79 55 46 56 47 57 60 59
REMARK SMILES IDX 80 60 49 61 34 62 35 63 43 64 36 65 42 66 37 67 38 68 39 69
REMARK SMILES IDX 40 70 41 71 64 72 65 73 73 74 66 75 72 76 67 77 68 78 69 79
REMARK SMILES IDX 70 80 71 81 50 82 51 83 59 84 52 85 58 86 53 87 54 88 55 89
REMARK SMILES IDX 56 90 57 91
REMARK H PARENT 18 6 5 12 14 23 14 24 22 28 78 47 48 58
REMARK Flexibility Score: inf
ROOT
ATOM      1  C   UNL A   1      33.516  27.097  26.131  1.00  0.00     0.042 C 
ENDROOT
BRANCH   1   2
ATOM      2  C   UNL A   1      34.044  25.782  25.570  1.00  0.00     0.117 C 
BRANCH   2   3
ATOM      3  N   UNL A   1      33.468  24.581  26.157  1.00  0.00    -0.354 N 
ATOM      4  C   UNL A   1      33.079  23.389  25.609  1.00  0.00     0.245 C 
ATOM      5  O   UNL A   1      32.630  22.550  26.400  1.00  0.00    -0.272 OA
ATOM      6  H   UNL A   1      33.333  24.637  27.130  1.00  0.00     0.163 HD
BRANCH   4   7
ATOM      7  C   UNL A   1      33.197  23.094  24.086  1.00  0.00     0.113 C 
ATOM      8  C   UNL A   1      33.136  21.566  23.844  1.00  0.00     0.045 C 
BRANCH   7   9
ATOM      9  C   UNL A   1      34.629  23.557  23.647  1.00  0.00     0.035 C 
ATOM     10  C   UNL A   1      35.797  22.649  24.005  1.00  0.00     0.007 C 
ENDBRANCH   7   9
BRANCH   7  11
ATOM     11  N   UNL A   1      32.117  23.702  23.257  1.00  0.00    -0.371 N 
ATOM     12  H   UNL A   1      31.883  23.183  22.454  1.00  0.00     0.161 HD
BRANCH  11  13
ATOM     13  C   UNL A   1      31.379  24.879  23.418  1.00  0.00     0.049 A 
ATOM     14  C   UNL A   1      30.308  24.970  24.320  1.00  0.00     0.026 A 
ATOM     15  C   UNL A   1      31.737  26.083  22.731  1.00  0.00     0.081 A 
ATOM     16  C   UNL A   1      29.782  26.199  24.729  1.00  0.00     0.004 A 
ATOM     17  C   UNL A   1      31.197  27.324  23.145  1.00  0.00     0.055 A 
ATOM     18  C   UNL A   1      30.260  27.374  24.178  1.00  0.00     0.021 A 
ATOM     19  Cl  UNL A   1      31.585  28.854  22.435  1.00  0.00    -0.083 Cl
BRANCH  15  20
ATOM     20  C   UNL A   1      32.618  26.040  21.513  1.00  0.00     0.252 C 
ATOM     21  N   UNL A   1      31.986  25.850  20.308  1.00  0.00    -0.365 N 
ATOM     22  O   UNL A   1      33.824  26.191  21.517  1.00  0.00    -0.269 OA
ATOM     23  H   UNL A   1      31.011  25.726  20.278  1.00  0.00     0.159 HD
ATOM     24  H   UNL A   1      32.510  25.839  19.475  1.00  0.00     0.159 HD
ENDBRANCH  15  20
ENDBRANCH  11  13
ENDBRANCH   7  11
ENDBRANCH   4   7
ENDBRANCH   2   3
ENDBRANCH   1   2
BRANCH   1  25
ATOM     25  C   UNL A   1      34.349  28.328  25.808  1.00  0.00     0.118 C 
BRANCH  25  26
ATOM     26  N   UNL A   1      33.850  29.526  26.462  1.00  0.00    -0.352 N 
ATOM     27  C   UNL A   1      34.412  30.246  27.491  1.00  0.00     0.251 C 
ATOM     28  H   UNL A   1      32.991  29.869  26.124  1.00  0.00     0.163 HD
ATOM     29  O   UNL A   1      33.755  31.115  28.057  1.00  0.00    -0.269 OA
BRANCH  27  30
ATOM     30  C   UNL A   1      35.799  29.959  27.925  1.00  0.00     0.039 A 
ATOM     31  C   UNL A   1      36.021  29.489  29.221  1.00  0.00     0.014 A 
ATOM     32  C   UNL A   1      36.877  30.162  27.060  1.00  0.00     0.014 A 
ATOM     33  C   UNL A   1      37.318  29.163  29.630  1.00  0.00     0.010 A 
ATOM     34  C   UNL A   1      38.159  29.772  27.445  1.00  0.00     0.010 A 
ATOM     35  C   UNL A   1      38.395  29.273  28.735  1.00  0.00    -0.014 A 
BRANCH  35  36
ATOM     36  C   UNL A   1      39.779  28.890  29.125  1.00  0.00     0.031 A 
ATOM     37  C   UNL A   1      40.677  29.898  29.792  1.00  0.00     0.074 A 
ATOM     38  C   UNL A   1      40.254  27.667  28.816  1.00  0.00     0.049 A 
ATOM     39  N   UNL A   1      41.944  29.797  30.103  1.00  0.00    -0.248 NA
ATOM     40  C   UNL A   1      40.078  31.198  30.132  1.00  0.00     0.031 C 
ATOM     41  C   UNL A   1      39.495  26.601  28.159  1.00  0.00     0.029 A 
ATOM     42  N   UNL A   1      41.500  27.118  29.001  1.00  0.00    -0.354 N 
ATOM     43  C   UNL A   1      42.297  31.023  30.656  1.00  0.00     0.074 A 
ATOM     44  C   UNL A   1      41.124  31.867  30.596  1.00  0.00     0.031 C 
ATOM     45  C   UNL A   1      40.284  25.525  28.010  1.00  0.00     0.029 A 
ATOM     46  C   UNL A   1      41.620  25.837  28.511  1.00  0.00     0.049 A 
ATOM     47  H   UNL A   1      42.239  27.596  29.443  1.00  0.00     0.167 HD
ATOM     48  C   UNL A   1      43.487  31.409  31.177  1.00  0.00     0.031 A 
ATOM     49  C   UNL A   1      42.685  25.013  28.453  1.00  0.00     0.031 A 
ATOM     50  C   UNL A   1      44.651  30.566  31.240  1.00  0.00     0.049 A 
ATOM     51  C   UNL A   1      44.008  25.477  29.005  1.00  0.00     0.074 A 
ATOM     52  C   UNL A   1      45.890  30.853  31.788  1.00  0.00     0.029 A 
ATOM     53  N   UNL A   1      44.726  29.275  30.739  1.00  0.00    -0.354 N 
ATOM     54  N   UNL A   1      44.309  26.624  29.565  1.00  0.00    -0.248 NA
ATOM     55  C   UNL A   1      45.131  24.532  28.928  1.00  0.00     0.031 C 
ATOM     56  C   UNL A   1      46.730  29.759  31.565  1.00  0.00     0.029 A 
ATOM     57  C   UNL A   1      45.994  28.761  30.945  1.00  0.00     0.049 A 
ATOM     58  H   UNL A   1      43.986  28.794  30.302  1.00  0.00     0.167 HD
ATOM     59  C   UNL A   1      45.644  26.522  29.944  1.00  0.00     0.074 A 
ATOM     60  C   UNL A   1      46.092  25.201  29.551  1.00  0.00     0.031 C 
ATOM     61  C   UNL A   1      46.425  27.437  30.569  1.00  0.00     0.031 A 
BRANCH  48  62
ATOM     62  C   UNL A   1      43.595  32.815  31.708  1.00  0.00    -0.014 A 
ATOM     63  C   UNL A   1      43.938  33.889  30.866  1.00  0.00     0.010 A 
ATOM     64  C   UNL A   1      43.303  33.073  33.061  1.00  0.00     0.010 A 
ATOM     65  C   UNL A   1      44.030  35.187  31.377  1.00  0.00     0.020 A 
ATOM     66  C   UNL A   1      43.362  34.374  33.567  1.00  0.00     0.020 A 
ATOM     67  C   UNL A   1      43.743  35.421  32.725  1.00  0.00     0.054 A 
BRANCH  67  68
ATOM     68  S   UNL A   1      43.853  37.119  33.355  1.00  0.00     0.124 S 
ATOM     69  O   UNL A   1      45.102  37.078  34.112  1.00  0.00    -0.237 OA
ATOM     70  O   UNL A   1      43.888  37.912  32.128  1.00  0.00    -0.237 OA
ATOM     71  O   UNL A   1      42.643  37.271  34.158  1.00  0.00    -0.744 OA
ENDBRANCH  67  68
ENDBRANCH  48  62
BRANCH  49  72
ATOM     72  C   UNL A   1      42.545  23.657  27.852  1.00  0.00    -0.014 A 
ATOM     73  C   UNL A   1      42.152  22.563  28.644  1.00  0.00     0.010 A 
ATOM     74  C   UNL A   1      42.794  23.452  26.483  1.00  0.00     0.010 A 
ATOM     75  C   UNL A   1      42.032  21.288  28.083  1.00  0.00     0.020 A 
ATOM     76  C   UNL A   1      42.644  22.185  25.911  1.00  0.00     0.020 A 
ATOM     77  C   UNL A   1      42.274  21.108  26.719  1.00  0.00     0.054 A 
BRANCH  77  78
ATOM     78  S   UNL A   1      42.060  19.452  26.007  1.00  0.00     0.124 S 
ATOM     79  O   UNL A   1      42.876  19.534  24.799  1.00  0.00    -0.237 OA
ATOM     80  O   UNL A   1      42.578  18.587  27.063  1.00  0.00    -0.237 OA
ATOM     81  O   UNL A   1      40.620  19.357  25.784  1.00  0.00    -0.744 OA
ENDBRANCH  77  78
ENDBRANCH  49  72
BRANCH  61  82
ATOM     82  C   UNL A   1      47.829  27.036  30.936  1.00  0.00    -0.014 A 
ATOM     83  C   UNL A   1      48.920  27.300  30.089  1.00  0.00     0.010 A 
ATOM     84  C   UNL A   1      48.068  26.463  32.200  1.00  0.00     0.010 A 
ATOM     85  C   UNL A   1      50.220  26.986  30.495  1.00  0.00     0.020 A 
ATOM     86  C   UNL A   1      49.368  26.175  32.620  1.00  0.00     0.020 A 
ATOM     87  C   UNL A   1      50.437  26.432  31.761  1.00  0.00     0.054 A 
BRANCH  87  88
ATOM     88  S   UNL A   1      52.140  26.105  32.293  1.00  0.00     0.124 S 
ATOM     89  O   UNL A   1      52.274  24.675  32.026  1.00  0.00    -0.237 OA
ATOM     90  O   UNL A   1      52.921  26.983  31.424  1.00  0.00    -0.237 OA
ATOM     91  O   UNL A   1      52.140  26.476  33.707  1.00  0.00    -0.744 OA
ENDBRANCH  87  88
ENDBRANCH  61  82
ENDBRANCH  35  36
ENDBRANCH  27  30
ENDBRANCH  25  26
ENDBRANCH   1  25
TORSDOF 17
ENDMDL
MODEL 2
REMARK VINA RESULT:     -10.3      1.805      2.970
REMARK SMILES CC[C@](C)(Nc1cccc(Cl)c1C(N)=O)C(=O)NCCCNC(=O)c1ccc(-c2c3nc(c(-c4ccc(S(=O)(=O)[O-])cc4)c4ccc([nH]4)c(-c4ccc(S(=O)(=O)[O-])cc4)c4nc(c(-c5ccc(S(=O)(=O)[O-])cc5)c5ccc2[nH]5)C=C4)C=C3)cc1
REMARK SMILES IDX 20 1 19 2 18 3 16 4 17 5 3 7 4 8 2 9 1 10 5 11 6 13 7 14
REMARK SMILES IDX 12 15 8 16 10 17 9 18 11 19 13 20 14 21 15 22 21 25 22 26
REMARK SMILES IDX 23 27 24 29 25 30 26 31 84 32 27 33 83 34 28 35 29 36 30 37
REMARK SMILES IDX 77 38 31 39 82 40 76 41 78 42 32 43 81 44 75 45 74 46 33 48
REMARK SMILES IDX 63 49 44 50 62 51 45 52 48 53 61 54 79 55 46 56 47 57 60 59
REMARK SMILES IDX 80 60 49 61 34 62 35 63 43 64 36 65 42 66 37 67 38 68 39 69
REMARK SMILES IDX 40 70 41 71 64 72 65 73 73 74 66 75 72 76 67 77 68 78 69 79
REMARK SMILES IDX 70 80 71 81 50 82 51 83 59 84 52 85 58 86 53 87 54 88 55 89
REMARK SMILES IDX 56 90 57 91
REMARK H PARENT 18 6 5 12 14 23 14 24 22 28 78 47 48 58
REMARK Flexibility Score: inf
ROOT
ATOM      1  C   UNL A   1      33.592  27.872  25.336  1.00  0.00     0.042 C 
ENDROOT
BRANCH   1   2
ATOM      2  C   UNL A   1      33.124  26.456  25.018  1.00  0.00     0.117 C 
BRANCH   2   3
ATOM      3  N   UNL A   1      31.734  26.175  25.345  1.00  0.00    -0.354 N 
ATOM      4  C   UNL A   1      31.089  25.017  25.689  1.00  0.00     0.245 C 
ATOM      5  O   UNL A   1      29.879  25.120  25.922  1.00  0.00    -0.272 OA
ATOM      6  H   UNL A   1      31.147  26.964  25.310  1.00  0.00     0.163 HD
BRANCH   4   7
ATOM      7  C   UNL A   1      31.827  23.651  25.791  1.00  0.00     0.113 C 
ATOM      8  C   UNL A   1      30.821  22.543  26.187  1.00  0.00     0.045 C 
BRANCH   7   9
ATOM      9  C   UNL A   1      32.842  23.776  26.979  1.00  0.00     0.035 C 
ATOM     10  C   UNL A   1      33.030  22.556  27.870  1.00  0.00     0.007 C 
ENDBRANCH   7   9
BRANCH   7  11
ATOM     11  N   UNL A   1      32.476  23.207  24.525  1.00  0.00    -0.371 N 
ATOM     12  H   UNL A   1      31.882  23.220  23.739  1.00  0.00     0.161 HD
BRANCH  11  13
ATOM     13  C   UNL A   1      33.780  22.778  24.254  1.00  0.00     0.049 A 
ATOM     14  C   UNL A   1      34.769  23.650  23.775  1.00  0.00     0.026 A 
ATOM     15  C   UNL A   1      34.197  21.437  24.538  1.00  0.00     0.081 A 
ATOM     16  C   UNL A   1      36.128  23.326  23.812  1.00  0.00     0.004 A 
ATOM     17  C   UNL A   1      35.573  21.113  24.569  1.00  0.00     0.055 A 
ATOM     18  C   UNL A   1      36.531  22.079  24.254  1.00  0.00     0.021 A 
ATOM     19  Cl  UNL A   1      36.209  19.549  24.947  1.00  0.00    -0.083 Cl
BRANCH  15  20
ATOM     20  C   UNL A   1      33.183  20.340  24.722  1.00  0.00     0.252 C 
ATOM     21  N   UNL A   1      33.162  19.729  25.952  1.00  0.00    -0.365 N 
ATOM     22  O   UNL A   1      32.378  19.985  23.884  1.00  0.00    -0.269 OA
ATOM     23  H   UNL A   1      33.804  19.998  26.647  1.00  0.00     0.159 HD
ATOM     24  H   UNL A   1      32.503  19.022  26.137  1.00  0.00     0.159 HD
ENDBRANCH  15  20
ENDBRANCH  11  13
ENDBRANCH   7  11
ENDBRANCH   4   7
ENDBRANCH   2   3
ENDBRANCH   1   2
BRANCH   1  25
ATOM     25  C   UNL A   1      33.586  28.248  26.810  1.00  0.00     0.118 C 
BRANCH  25  26
ATOM     26  N   UNL A   1      33.456  29.680  27.019  1.00  0.00    -0.352 N 
ATOM     27  C   UNL A   1      34.308  30.538  27.676  1.00  0.00     0.251 C 
ATOM     28  H   UNL A   1      32.648  30.094  26.638  1.00  0.00     0.163 HD
ATOM     29  O   UNL A   1      33.943  31.681  27.933  1.00  0.00    -0.269 OA
BRANCH  27  30
ATOM     30  C   UNL A   1      35.653  30.075  28.089  1.00  0.00     0.039 A 
ATOM     31  C   UNL A   1      36.695  30.097  27.159  1.00  0.00     0.014 A 
ATOM     32  C   UNL A   1      35.884  29.613  29.388  1.00  0.00     0.014 A 
ATOM     33  C   UNL A   1      37.982  29.713  27.546  1.00  0.00     0.010 A 
ATOM     34  C   UNL A   1      37.181  29.299  29.791  1.00  0.00     0.010 A 
ATOM     35  C   UNL A   1      38.243  29.340  28.875  1.00  0.00    -0.014 A 
BRANCH  35  36
ATOM     36  C   UNL A   1      39.612  28.972  29.330  1.00  0.00     0.031 A 
ATOM     37  C   UNL A   1      40.443  29.972  30.089  1.00  0.00     0.074 A 
ATOM     38  C   UNL A   1      40.134  27.774  29.001  1.00  0.00     0.049 A 
ATOM     39  N   UNL A   1      41.692  29.887  30.470  1.00  0.00    -0.248 NA
ATOM     40  C   UNL A   1      39.792  31.243  30.446  1.00  0.00     0.031 C 
ATOM     41  C   UNL A   1      39.442  26.720  28.257  1.00  0.00     0.029 A 
ATOM     42  N   UNL A   1      41.381  27.247  29.236  1.00  0.00    -0.354 N 
ATOM     43  C   UNL A   1      41.982  31.097  31.091  1.00  0.00     0.074 A 
ATOM     44  C   UNL A   1      40.793  31.915  30.997  1.00  0.00     0.031 C 
ATOM     45  C   UNL A   1      40.265  25.670  28.112  1.00  0.00     0.029 A 
ATOM     46  C   UNL A   1      41.561  25.991  28.703  1.00  0.00     0.049 A 
ATOM     47  H   UNL A   1      42.081  27.723  29.740  1.00  0.00     0.167 HD
ATOM     48  C   UNL A   1      43.129  31.488  31.697  1.00  0.00     0.031 A 
ATOM     49  C   UNL A   1      42.649  25.195  28.674  1.00  0.00     0.031 A 
ATOM     50  C   UNL A   1      44.309  30.670  31.795  1.00  0.00     0.049 A 
ATOM     51  C   UNL A   1      43.925  25.665  29.322  1.00  0.00     0.074 A 
ATOM     52  C   UNL A   1      45.506  30.962  32.425  1.00  0.00     0.029 A 
ATOM     53  N   UNL A   1      44.445  29.403  31.247  1.00  0.00    -0.354 N 
ATOM     54  N   UNL A   1      44.164  26.795  29.944  1.00  0.00    -0.248 NA
ATOM     55  C   UNL A   1      45.074  24.750  29.273  1.00  0.00     0.031 C 
ATOM     56  C   UNL A   1      46.385  29.898  32.208  1.00  0.00     0.029 A 
ATOM     57  C   UNL A   1      45.712  28.911  31.506  1.00  0.00     0.049 A 
ATOM     58  H   UNL A   1      43.744  28.924  30.748  1.00  0.00     0.167 HD
ATOM     59  C   UNL A   1      45.478  26.707  30.397  1.00  0.00     0.074 A 
ATOM     60  C   UNL A   1      45.980  25.415  29.978  1.00  0.00     0.031 C 
ATOM     61  C   UNL A   1      46.197  27.614  31.102  1.00  0.00     0.031 A 
BRANCH  48  62
ATOM     62  C   UNL A   1      43.171  32.872  32.290  1.00  0.00    -0.014 A 
ATOM     63  C   UNL A   1      42.744  33.115  33.608  1.00  0.00     0.010 A 
ATOM     64  C   UNL A   1      43.689  33.939  31.532  1.00  0.00     0.010 A 
ATOM     65  C   UNL A   1      42.793  34.407  34.141  1.00  0.00     0.020 A 
ATOM     66  C   UNL A   1      43.770  35.226  32.073  1.00  0.00     0.020 A 
ATOM     67  C   UNL A   1      43.305  35.454  33.370  1.00  0.00     0.054 A 
BRANCH  67  68
ATOM     68  S   UNL A   1      43.374  37.115  34.096  1.00  0.00     0.124 S 
ATOM     69  O   UNL A   1      43.377  37.963  32.906  1.00  0.00    -0.237 OA
ATOM     70  O   UNL A   1      42.153  37.164  34.898  1.00  0.00    -0.237 OA
ATOM     71  O   UNL A   1      44.618  37.110  34.859  1.00  0.00    -0.744 OA
ENDBRANCH  67  68
ENDBRANCH  48  62
BRANCH  49  72
ATOM     72  C   UNL A   1      42.578  23.862  28.012  1.00  0.00    -0.014 A 
ATOM     73  C   UNL A   1      42.853  23.731  26.639  1.00  0.00     0.010 A 
ATOM     74  C   UNL A   1      42.243  22.713  28.752  1.00  0.00     0.010 A 
ATOM     75  C   UNL A   1      42.775  22.482  26.016  1.00  0.00     0.020 A 
ATOM     76  C   UNL A   1      42.194  21.458  28.139  1.00  0.00     0.020 A 
ATOM     77  C   UNL A   1      42.451  21.352  26.770  1.00  0.00     0.054 A 
BRANCH  77  78
ATOM     78  S   UNL A   1      42.406  19.736  25.946  1.00  0.00     0.124 S 
ATOM     79  O   UNL A   1      43.459  19.877  24.944  1.00  0.00    -0.237 OA
ATOM     80  O   UNL A   1      42.696  18.816  27.043  1.00  0.00    -0.237 OA
ATOM     81  O   UNL A   1      41.047  19.657  25.419  1.00  0.00    -0.744 OA
ENDBRANCH  77  78
ENDBRANCH  49  72
BRANCH  61  82
ATOM     82  C   UNL A   1      47.588  27.230  31.535  1.00  0.00    -0.014 A 
ATOM     83  C   UNL A   1      47.822  26.506  32.717  1.00  0.00     0.010 A 
ATOM     84  C   UNL A   1      48.674  27.525  30.688  1.00  0.00     0.010 A 
ATOM     85  C   UNL A   1      49.117  26.097  33.050  1.00  0.00     0.020 A 
ATOM     86  C   UNL A   1      49.964  27.093  31.003  1.00  0.00     0.020 A 
ATOM     87  C   UNL A   1      50.178  26.387  32.187  1.00  0.00     0.054 A 
BRANCH  87  88
ATOM     88  S   UNL A   1      51.836  25.779  32.604  1.00  0.00     0.124 S 
ATOM     89  O   UNL A   1      51.575  24.974  33.793  1.00  0.00    -0.237 OA
ATOM     90  O   UNL A   1      52.212  25.030  31.407  1.00  0.00    -0.237 OA
ATOM     91  O   UNL A   1      52.606  27.000  32.836  1.00  0.00    -0.744 OA
ENDBRANCH  87  88
ENDBRANCH  61  82
ENDBRANCH  35  36
ENDBRANCH  27  30
ENDBRANCH  25  26
ENDBRANCH   1  25
TORSDOF 17
ENDMDL
MODEL 3
REMARK VINA RESULT:     -10.3      1.629      2.918
REMARK SMILES CC[C@](C)(Nc1cccc(Cl)c1C(N)=O)C(=O)NCCCNC(=O)c1ccc(-c2c3nc(c(-c4ccc(S(=O)(=O)[O-])cc4)c4ccc([nH]4)c(-c4ccc(S(=O)(=O)[O-])cc4)c4nc(c(-c5ccc(S(=O)(=O)[O-])cc5)c5ccc2[nH]5)C=C4)C=C3)cc1
REMARK SMILES IDX 20 1 19 2 18 3 16 4 17 5 3 7 4 8 2 9 1 10 5 11 6 13 7 14
REMARK SMILES IDX 12 15 8 16 10 17 9 18 11 19 13 20 14 21 15 22 21 25 22 26
REMARK SMILES IDX 23 27 24 29 25 30 26 31 84 32 27 33 83 34 28 35 29 36 30 37
REMARK SMILES IDX 77 38 31 39 82 40 76 41 78 42 32 43 81 44 75 45 74 46 33 48
REMARK SMILES IDX 63 49 44 50 62 51 45 52 48 53 61 54 79 55 46 56 47 57 60 59
REMARK SMILES IDX 80 60 49 61 34 62 35 63 43 64 36 65 42 66 37 67 38 68 39 69
REMARK SMILES IDX 40 70 41 71 64 72 65 73 73 74 66 75 72 76 67 77 68 78 69 79
REMARK SMILES IDX 70 80 71 81 50 82 51 83 59 84 52 85 58 86 53 87 54 88 55 89
REMARK SMILES IDX 56 90 57 91
REMARK H PARENT 18 6 5 12 14 23 14 24 22 28 78 47 48 58
REMARK Flexibility Score: inf
ROOT
ATOM      1  C   UNL A   1      33.096  27.252  26.371  1.00  0.00     0.042 C 
ENDROOT
BRANCH   1   2
ATOM      2  C   UNL A   1      33.383  25.931  25.667  1.00  0.00     0.117 C 
BRANCH   2   3
ATOM      3  N   UNL A   1      33.785  26.045  24.272  1.00  0.00    -0.354 N 
ATOM      4  C   UNL A   1      33.567  25.240  23.187  1.00  0.00     0.245 C 
ATOM      5  O   UNL A   1      34.043  25.636  22.116  1.00  0.00    -0.272 OA
ATOM      6  H   UNL A   1      34.314  26.851  24.074  1.00  0.00     0.163 HD
BRANCH   4   7
ATOM      7  C   UNL A   1      32.763  23.912  23.282  1.00  0.00     0.113 C 
ATOM      8  C   UNL A   1      33.166  22.974  22.117  1.00  0.00     0.045 C 
BRANCH   7   9
ATOM      9  C   UNL A   1      31.257  24.280  23.056  1.00  0.00     0.035 C 
ATOM     10  C   UNL A   1      30.304  24.075  24.225  1.00  0.00     0.007 C 
ENDBRANCH   7   9
BRANCH   7  11
ATOM     11  N   UNL A   1      32.986  23.148  24.543  1.00  0.00    -0.371 N 
ATOM     12  H   UNL A   1      32.820  23.666  25.364  1.00  0.00     0.161 HD
BRANCH  11  13
ATOM     13  C   UNL A   1      33.388  21.827  24.766  1.00  0.00     0.049 A 
ATOM     14  C   UNL A   1      32.472  20.765  24.807  1.00  0.00     0.026 A 
ATOM     15  C   UNL A   1      34.772  21.479  24.877  1.00  0.00     0.081 A 
ATOM     16  C   UNL A   1      32.874  19.431  24.701  1.00  0.00     0.004 A 
ATOM     17  C   UNL A   1      35.174  20.126  24.774  1.00  0.00     0.055 A 
ATOM     18  C   UNL A   1      34.219  19.117  24.635  1.00  0.00     0.021 A 
ATOM     19  Cl  UNL A   1      36.814  19.577  24.840  1.00  0.00    -0.083 Cl
BRANCH  15  20
ATOM     20  C   UNL A   1      35.807  22.526  25.188  1.00  0.00     0.252 C 
ATOM     21  N   UNL A   1      36.231  22.597  26.492  1.00  0.00    -0.365 N 
ATOM     22  O   UNL A   1      36.306  23.279  24.374  1.00  0.00    -0.269 OA
ATOM     23  H   UNL A   1      35.842  21.999  27.170  1.00  0.00     0.159 HD
ATOM     24  H   UNL A   1      36.925  23.246  26.748  1.00  0.00     0.159 HD
ENDBRANCH  15  20
ENDBRANCH  11  13
ENDBRANCH   7  11
ENDBRANCH   4   7
ENDBRANCH   2   3
ENDBRANCH   1   2
BRANCH   1  25
ATOM     25  C   UNL A   1      34.292  28.177  26.539  1.00  0.00     0.118 C 
BRANCH  25  26
ATOM     26  N   UNL A   1      33.915  29.492  27.030  1.00  0.00    -0.352 N 
ATOM     27  C   UNL A   1      34.602  30.324  27.883  1.00  0.00     0.251 C 
ATOM     28  H   UNL A   1      33.050  29.833  26.710  1.00  0.00     0.163 HD
ATOM     29  O   UNL A   1      34.044  31.311  28.353  1.00  0.00    -0.269 OA
BRANCH  27  30
ATOM     30  C   UNL A   1      36.005  30.019  28.247  1.00  0.00     0.039 A 
ATOM     31  C   UNL A   1      36.285  29.536  29.528  1.00  0.00     0.014 A 
ATOM     32  C   UNL A   1      37.043  30.216  27.332  1.00  0.00     0.014 A 
ATOM     33  C   UNL A   1      37.597  29.193  29.871  1.00  0.00     0.010 A 
ATOM     34  C   UNL A   1      38.337  29.809  27.651  1.00  0.00     0.010 A 
ATOM     35  C   UNL A   1      38.630  29.297  28.925  1.00  0.00    -0.014 A 
BRANCH  35  36
ATOM     36  C   UNL A   1      40.027  28.896  29.244  1.00  0.00     0.031 A 
ATOM     37  C   UNL A   1      40.965  29.886  29.881  1.00  0.00     0.074 A 
ATOM     38  C   UNL A   1      40.474  27.672  28.898  1.00  0.00     0.049 A 
ATOM     39  N   UNL A   1      42.244  29.769  30.131  1.00  0.00    -0.248 NA
ATOM     40  C   UNL A   1      40.396  31.187  30.266  1.00  0.00     0.031 C 
ATOM     41  C   UNL A   1      39.674  26.623  28.263  1.00  0.00     0.029 A 
ATOM     42  N   UNL A   1      41.722  27.109  29.016  1.00  0.00    -0.354 N 
ATOM     43  C   UNL A   1      42.636  30.984  30.682  1.00  0.00     0.074 A 
ATOM     44  C   UNL A   1      41.469  31.839  30.689  1.00  0.00     0.031 C 
ATOM     45  C   UNL A   1      40.445  25.541  28.063  1.00  0.00     0.029 A 
ATOM     46  C   UNL A   1      41.805  25.834  28.505  1.00  0.00     0.049 A 
ATOM     47  H   UNL A   1      42.486  27.574  29.429  1.00  0.00     0.167 HD
ATOM     48  C   UNL A   1      43.852  31.351  31.152  1.00  0.00     0.031 A 
ATOM     49  C   UNL A   1      42.858  25.001  28.386  1.00  0.00     0.031 A 
ATOM     50  C   UNL A   1      45.010  30.496  31.150  1.00  0.00     0.049 A 
ATOM     51  C   UNL A   1      44.210  25.444  28.881  1.00  0.00     0.074 A 
ATOM     52  C   UNL A   1      46.275  30.764  31.642  1.00  0.00     0.029 A 
ATOM     53  N   UNL A   1      45.047  29.212  30.628  1.00  0.00    -0.354 N 
ATOM     54  N   UNL A   1      44.549  26.581  29.441  1.00  0.00    -0.248 NA
ATOM     55  C   UNL A   1      45.318  24.489  28.739  1.00  0.00     0.031 C 
ATOM     56  C   UNL A   1      47.093  29.665  31.366  1.00  0.00     0.029 A 
ATOM     57  C   UNL A   1      46.319  28.683  30.768  1.00  0.00     0.049 A 
ATOM     58  H   UNL A   1      44.283  28.744  30.221  1.00  0.00     0.167 HD
ATOM     59  C   UNL A   1      45.900  26.461  29.756  1.00  0.00     0.074 A 
ATOM     60  C   UNL A   1      46.314  25.141  29.325  1.00  0.00     0.031 C 
ATOM     61  C   UNL A   1      46.718  27.360  30.355  1.00  0.00     0.031 A 
BRANCH  48  62
ATOM     62  C   UNL A   1      44.000  32.748  31.695  1.00  0.00    -0.014 A 
ATOM     63  C   UNL A   1      43.740  33.037  33.048  1.00  0.00     0.010 A 
ATOM     64  C   UNL A   1      44.450  33.781  30.851  1.00  0.00     0.010 A 
ATOM     65  C   UNL A   1      43.885  34.340  33.534  1.00  0.00     0.020 A 
ATOM     66  C   UNL A   1      44.628  35.078  31.342  1.00  0.00     0.020 A 
ATOM     67  C   UNL A   1      44.327  35.352  32.677  1.00  0.00     0.054 A 
BRANCH  67  68
ATOM     68  S   UNL A   1      44.524  37.029  33.342  1.00  0.00     0.124 S 
ATOM     69  O   UNL A   1      44.362  37.848  32.143  1.00  0.00    -0.237 OA
ATOM     70  O   UNL A   1      43.437  37.117  34.313  1.00  0.00    -0.237 OA
ATOM     71  O   UNL A   1      45.868  37.020  33.913  1.00  0.00    -0.744 OA
ENDBRANCH  67  68
ENDBRANCH  48  62
BRANCH  49  72
ATOM     72  C   UNL A   1      42.676  23.654  27.775  1.00  0.00    -0.014 A 
ATOM     73  C   UNL A   1      42.380  22.539  28.580  1.00  0.00     0.010 A 
ATOM     74  C   UNL A   1      42.789  23.479  26.383  1.00  0.00     0.010 A 
ATOM     75  C   UNL A   1      42.220  21.274  28.008  1.00  0.00     0.020 A 
ATOM     76  C   UNL A   1      42.598  22.221  25.804  1.00  0.00     0.020 A 
ATOM     77  C   UNL A   1      42.326  21.123  26.623  1.00  0.00     0.054 A 
BRANCH  77  78
ATOM     78  S   UNL A   1      42.064  19.478  25.902  1.00  0.00     0.124 S 
ATOM     79  O   UNL A   1      42.388  18.600  27.023  1.00  0.00    -0.237 OA
ATOM     80  O   UNL A   1      40.655  19.523  25.521  1.00  0.00    -0.237 OA
ATOM     81  O   UNL A   1      43.003  19.439  24.784  1.00  0.00    -0.744 OA
ENDBRANCH  77  78
ENDBRANCH  49  72
BRANCH  61  82
ATOM     82  C   UNL A   1      48.134  26.941  30.650  1.00  0.00    -0.014 A 
ATOM     83  C   UNL A   1      49.179  27.168  29.738  1.00  0.00     0.010 A 
ATOM     84  C   UNL A   1      48.434  26.389  31.911  1.00  0.00     0.010 A 
ATOM     85  C   UNL A   1      50.494  26.837  30.076  1.00  0.00     0.020 A 
ATOM     86  C   UNL A   1      49.751  26.086  32.263  1.00  0.00     0.020 A 
ATOM     87  C   UNL A   1      50.773  26.305  31.339  1.00  0.00     0.054 A 
BRANCH  87  88
ATOM     88  S   UNL A   1      52.498  25.958  31.780  1.00  0.00     0.124 S 
ATOM     89  O   UNL A   1      53.214  26.405  30.589  1.00  0.00    -0.237 OA
ATOM     90  O   UNL A   1      52.694  26.775  32.975  1.00  0.00    -0.237 OA
ATOM     91  O   UNL A   1      52.514  24.515  32.011  1.00  0.00    -0.744 OA
ENDBRANCH  87  88
ENDBRANCH  61  82
ENDBRANCH  35  36
ENDBRANCH  27  30
ENDBRANCH  25  26
ENDBRANCH   1  25
TORSDOF 17
ENDMDL
