MODEL 1
REMARK VINA RESULT:     -11.7      0.000      0.000
REMARK SMILES Cc1ccc(C)n1-c1ccccc1S[C@H](C)C(=O)NCCCNC(=O)c1ccc(-c2c3nc(c(-c4ccc(S(=O)(=O)[O-])cc4)c4ccc([nH]4)c(-c4ccc(S(=O)(=O)[O-])cc4)c4nc(c(-c5ccc(S(=O)(=O)[O-])cc5)c5ccc2[nH]5)C=C4)C=C3)cc1
REMARK SMILES IDX 21 1 20 2 19 3 17 4 18 5 15 7 16 8 14 9 13 10 8 11 9 12
REMARK SMILES IDX 10 13 12 14 11 15 7 16 1 17 2 18 3 19 4 20 5 21 6 22 22 23
REMARK SMILES IDX 23 24 24 25 25 27 26 28 27 29 85 30 28 31 84 32 29 33 30 34
REMARK SMILES IDX 31 35 78 36 32 37 83 38 77 39 79 40 33 41 82 42 76 43 75 44
REMARK SMILES IDX 34 46 64 47 45 48 63 49 46 50 49 51 62 52 80 53 47 54 48 55
REMARK SMILES IDX 61 57 81 58 50 59 35 60 36 61 44 62 37 63 43 64 38 65 39 66
REMARK SMILES IDX 40 67 41 68 42 69 65 70 66 71 74 72 67 73 73 74 68 75 69 76
REMARK SMILES IDX 70 77 71 78 72 79 51 80 52 81 60 82 53 83 59 84 54 85 55 86
REMARK SMILES IDX 56 87 57 88 58 89
REMARK H PARENT 19 6 23 26 79 45 49 56
REMARK Flexibility Score: inf
ROOT
ATOM      1  C   UNL A   1      38.995  22.658  26.131  1.00  0.00     0.042 C 
ENDROOT
BRANCH   1   2
ATOM      2  C   UNL A   1      37.857  21.831  25.511  1.00  0.00     0.117 C 
BRANCH   2   3
ATOM      3  N   UNL A   1      36.573  21.995  26.179  1.00  0.00    -0.355 N 
ATOM      4  C   UNL A   1      35.534  22.858  25.987  1.00  0.00     0.233 C 
ATOM      5  O   UNL A   1      34.546  22.726  26.717  1.00  0.00    -0.274 OA
ATOM      6  H   UNL A   1      36.426  21.358  26.915  1.00  0.00     0.163 HD
BRANCH   4   7
ATOM      7  C   UNL A   1      35.556  23.962  24.919  1.00  0.00     0.137 C 
ATOM      8  C   UNL A   1      35.436  23.382  23.516  1.00  0.00     0.030 C 
BRANCH   7   9
ATOM      9  S   UNL A   1      34.293  25.210  25.402  1.00  0.00    -0.111 SA
BRANCH   9  10
ATOM     10  C   UNL A   1      33.305  25.619  23.962  1.00  0.00     0.032 A 
ATOM     11  C   UNL A   1      32.029  25.027  23.787  1.00  0.00     0.059 A 
ATOM     12  C   UNL A   1      31.305  25.200  22.592  1.00  0.00     0.028 A 
ATOM     13  C   UNL A   1      31.832  25.968  21.560  1.00  0.00     0.002 A 
ATOM     14  C   UNL A   1      33.778  26.436  22.926  1.00  0.00     0.017 A 
ATOM     15  C   UNL A   1      33.061  26.593  21.731  1.00  0.00     0.001 A 
BRANCH  11  16
ATOM     16  N   UNL A   1      31.433  24.199  24.785  1.00  0.00    -0.317 N 
ATOM     17  C   UNL A   1      32.243  21.920  23.926  1.00  0.00     0.065 C 
ATOM     18  C   UNL A   1      31.495  22.809  24.863  1.00  0.00     0.020 A 
ATOM     19  C   UNL A   1      30.772  22.409  25.971  1.00  0.00     0.023 A 
ATOM     20  C   UNL A   1      30.315  23.563  26.628  1.00  0.00     0.023 A 
ATOM     21  C   UNL A   1      30.740  24.660  25.904  1.00  0.00     0.020 A 
ATOM     22  C   UNL A   1      30.436  26.092  26.193  1.00  0.00     0.065 C 
ENDBRANCH  11  16
ENDBRANCH   9  10
ENDBRANCH   7   9
ENDBRANCH   4   7
ENDBRANCH   2   3
ENDBRANCH   1   2
BRANCH   1  23
ATOM     23  C   UNL A   1      40.043  21.877  26.952  1.00  0.00     0.118 C 
BRANCH  23  24
ATOM     24  N   UNL A   1      41.213  21.500  26.188  1.00  0.00    -0.352 N 
ATOM     25  C   UNL A   1      42.340  22.241  25.876  1.00  0.00     0.251 C 
ATOM     26  H   UNL A   1      41.207  20.580  25.837  1.00  0.00     0.163 HD
ATOM     27  O   UNL A   1      43.169  21.704  25.143  1.00  0.00    -0.269 OA
BRANCH  25  28
ATOM     28  C   UNL A   1      42.508  23.691  26.267  1.00  0.00     0.039 A 
ATOM     29  C   UNL A   1      42.430  23.995  27.618  1.00  0.00     0.014 A 
ATOM     30  C   UNL A   1      42.503  24.790  25.388  1.00  0.00     0.014 A 
ATOM     31  C   UNL A   1      42.419  25.350  28.069  1.00  0.00     0.010 A 
ATOM     32  C   UNL A   1      42.403  26.177  25.855  1.00  0.00     0.010 A 
ATOM     33  C   UNL A   1      42.354  26.518  27.225  1.00  0.00    -0.014 A 
BRANCH  33  34
ATOM     34  C   UNL A   1      41.690  27.841  27.907  1.00  0.00     0.031 A 
ATOM     35  C   UNL A   1      42.885  28.718  28.065  1.00  0.00     0.074 A 
ATOM     36  C   UNL A   1      40.541  28.364  28.510  1.00  0.00     0.049 A 
ATOM     37  N   UNL A   1      43.883  28.262  28.763  1.00  0.00    -0.248 NA
ATOM     38  C   UNL A   1      43.212  29.839  27.185  1.00  0.00     0.031 C 
ATOM     39  C   UNL A   1      39.296  27.663  28.862  1.00  0.00     0.029 A 
ATOM     40  N   UNL A   1      40.200  29.682  28.974  1.00  0.00    -0.354 N 
ATOM     41  C   UNL A   1      44.911  29.157  28.626  1.00  0.00     0.074 A 
ATOM     42  C   UNL A   1      44.507  29.988  27.494  1.00  0.00     0.031 C 
ATOM     43  C   UNL A   1      38.322  28.526  29.289  1.00  0.00     0.029 A 
ATOM     44  C   UNL A   1      38.813  29.905  29.339  1.00  0.00     0.049 A 
ATOM     45  H   UNL A   1      40.873  30.397  29.042  1.00  0.00     0.167 HD
ATOM     46  C   UNL A   1      45.476  29.557  29.800  1.00  0.00     0.031 A 
ATOM     47  C   UNL A   1      38.136  31.061  29.746  1.00  0.00     0.031 A 
ATOM     48  C   UNL A   1      44.853  30.764  30.283  1.00  0.00     0.049 A 
ATOM     49  C   UNL A   1      39.144  31.826  30.495  1.00  0.00     0.074 A 
ATOM     50  C   UNL A   1      44.550  31.963  29.670  1.00  0.00     0.029 A 
ATOM     51  N   UNL A   1      44.033  30.656  31.391  1.00  0.00    -0.354 N 
ATOM     52  N   UNL A   1      39.528  31.468  31.683  1.00  0.00    -0.248 NA
ATOM     53  C   UNL A   1      39.693  33.090  30.014  1.00  0.00     0.031 C 
ATOM     54  C   UNL A   1      43.264  32.297  30.145  1.00  0.00     0.029 A 
ATOM     55  C   UNL A   1      42.976  31.536  31.272  1.00  0.00     0.049 A 
ATOM     56  H   UNL A   1      44.181  30.045  32.148  1.00  0.00     0.167 HD
ATOM     57  C   UNL A   1      40.722  32.112  31.821  1.00  0.00     0.074 A 
ATOM     58  C   UNL A   1      40.625  33.271  30.952  1.00  0.00     0.031 C 
ATOM     59  C   UNL A   1      41.808  31.350  32.110  1.00  0.00     0.031 A 
BRANCH  46  60
ATOM     60  C   UNL A   1      45.893  28.424  30.706  1.00  0.00    -0.014 A 
ATOM     61  C   UNL A   1      44.904  27.696  31.379  1.00  0.00     0.010 A 
ATOM     62  C   UNL A   1      47.249  28.111  30.964  1.00  0.00     0.010 A 
ATOM     63  C   UNL A   1      45.260  26.703  32.300  1.00  0.00     0.020 A 
ATOM     64  C   UNL A   1      47.611  27.137  31.896  1.00  0.00     0.020 A 
ATOM     65  C   UNL A   1      46.611  26.436  32.559  1.00  0.00     0.054 A 
BRANCH  65  66
ATOM     66  S   UNL A   1      47.021  25.176  33.796  1.00  0.00     0.124 S 
ATOM     67  O   UNL A   1      45.982  24.172  33.583  1.00  0.00    -0.237 OA
ATOM     68  O   UNL A   1      48.362  24.776  33.395  1.00  0.00    -0.237 OA
ATOM     69  O   UNL A   1      46.922  25.889  35.074  1.00  0.00    -0.744 OA
ENDBRANCH  65  66
ENDBRANCH  46  60
BRANCH  47  70
ATOM     70  C   UNL A   1      36.735  31.746  29.952  1.00  0.00    -0.014 A 
ATOM     71  C   UNL A   1      35.978  31.485  31.154  1.00  0.00     0.010 A 
ATOM     72  C   UNL A   1      36.314  32.896  29.264  1.00  0.00     0.010 A 
ATOM     73  C   UNL A   1      35.018  32.370  31.708  1.00  0.00     0.020 A 
ATOM     74  C   UNL A   1      35.317  33.782  29.797  1.00  0.00     0.020 A 
ATOM     75  C   UNL A   1      34.716  33.546  31.040  1.00  0.00     0.054 A 
BRANCH  75  76
ATOM     76  S   UNL A   1      33.680  34.809  31.882  1.00  0.00     0.124 S 
ATOM     77  O   UNL A   1      33.023  34.048  32.941  1.00  0.00    -0.237 OA
ATOM     78  O   UNL A   1      34.670  35.786  32.336  1.00  0.00    -0.237 OA
ATOM     79  O   UNL A   1      32.795  35.290  30.823  1.00  0.00    -0.744 OA
ENDBRANCH  75  76
ENDBRANCH  47  70
BRANCH  59  80
ATOM     80  C   UNL A   1      41.641  30.241  33.145  1.00  0.00    -0.014 A 
ATOM     81  C   UNL A   1      41.607  30.430  34.547  1.00  0.00     0.010 A 
ATOM     82  C   UNL A   1      41.589  28.914  32.684  1.00  0.00     0.010 A 
ATOM     83  C   UNL A   1      41.613  29.350  35.442  1.00  0.00     0.020 A 
ATOM     84  C   UNL A   1      41.545  27.827  33.570  1.00  0.00     0.020 A 
ATOM     85  C   UNL A   1      41.596  28.050  34.945  1.00  0.00     0.054 A 
BRANCH  85  86
ATOM     86  S   UNL A   1      41.687  26.662  36.111  1.00  0.00     0.124 S 
ATOM     87  O   UNL A   1      41.004  25.597  35.378  1.00  0.00    -0.237 OA
ATOM     88  O   UNL A   1      43.125  26.474  36.282  1.00  0.00    -0.237 OA
ATOM     89  O   UNL A   1      40.969  27.148  37.286  1.00  0.00    -0.744 OA
ENDBRANCH  85  86
ENDBRANCH  59  80
ENDBRANCH  33  34
ENDBRANCH  25  28
ENDBRANCH  23  24
ENDBRANCH   1  23
TORSDOF 16
ENDMDL
MODEL 2
REMARK VINA RESULT:     -11.6      0.807      2.107
REMARK SMILES Cc1ccc(C)n1-c1ccccc1S[C@H](C)C(=O)NCCCNC(=O)c1ccc(-c2c3nc(c(-c4ccc(S(=O)(=O)[O-])cc4)c4ccc([nH]4)c(-c4ccc(S(=O)(=O)[O-])cc4)c4nc(c(-c5ccc(S(=O)(=O)[O-])cc5)c5ccc2[nH]5)C=C4)C=C3)cc1
REMARK SMILES IDX 21 1 20 2 19 3 17 4 18 5 15 7 16 8 14 9 13 10 8 11 9 12
REMARK SMILES IDX 10 13 12 14 11 15 7 16 1 17 2 18 3 19 4 20 5 21 6 22 22 23
REMARK SMILES IDX 23 24 24 25 25 27 26 28 27 29 85 30 28 31 84 32 29 33 30 34
REMARK SMILES IDX 31 35 78 36 32 37 83 38 77 39 79 40 33 41 82 42 76 43 75 44
REMARK SMILES IDX 34 46 64 47 45 48 63 49 46 50 49 51 62 52 80 53 47 54 48 55
REMARK SMILES IDX 61 57 81 58 50 59 35 60 36 61 44 62 37 63 43 64 38 65 39 66
REMARK SMILES IDX 40 67 41 68 42 69 65 70 66 71 74 72 67 73 73 74 68 75 69 76
REMARK SMILES IDX 70 77 71 78 72 79 51 80 52 81 60 82 53 83 59 84 54 85 55 86
REMARK SMILES IDX 56 87 57 88 58 89
REMARK H PARENT 19 6 23 26 79 45 49 56
REMARK Flexibility Score: inf
ROOT
ATOM      1  C   UNL A   1      39.069  22.940  26.418  1.00  0.00     0.042 C 
ENDROOT
BRANCH   1   2
ATOM      2  C   UNL A   1      38.010  22.367  25.462  1.00  0.00     0.117 C 
BRANCH   2   3
ATOM      3  N   UNL A   1      36.796  21.913  26.125  1.00  0.00    -0.355 N 
ATOM      4  C   UNL A   1      35.471  22.085  25.847  1.00  0.00     0.233 C 
ATOM      5  O   UNL A   1      34.660  21.540  26.603  1.00  0.00    -0.274 OA
ATOM      6  H   UNL A   1      36.963  21.376  26.933  1.00  0.00     0.163 HD
BRANCH   4   7
ATOM      7  C   UNL A   1      34.971  22.916  24.656  1.00  0.00     0.137 C 
ATOM      8  C   UNL A   1      33.832  22.214  23.928  1.00  0.00     0.030 C 
BRANCH   7   9
ATOM      9  S   UNL A   1      34.625  24.611  25.282  1.00  0.00    -0.111 SA
BRANCH   9  10
ATOM     10  C   UNL A   1      32.850  24.818  25.435  1.00  0.00     0.032 A 
ATOM     11  C   UNL A   1      32.213  25.932  24.833  1.00  0.00     0.059 A 
ATOM     12  C   UNL A   1      30.853  26.208  25.072  1.00  0.00     0.028 A 
ATOM     13  C   UNL A   1      30.108  25.382  25.905  1.00  0.00     0.002 A 
ATOM     14  C   UNL A   1      32.053  23.972  26.218  1.00  0.00     0.017 A 
ATOM     15  C   UNL A   1      30.704  24.260  26.467  1.00  0.00     0.001 A 
BRANCH  11  16
ATOM     16  N   UNL A   1      32.916  26.846  23.992  1.00  0.00    -0.317 N 
ATOM     17  C   UNL A   1      33.805  28.429  25.806  1.00  0.00     0.065 C 
ATOM     18  C   UNL A   1      33.619  27.979  24.395  1.00  0.00     0.020 A 
ATOM     19  C   UNL A   1      34.135  28.587  23.266  1.00  0.00     0.023 A 
ATOM     20  C   UNL A   1      33.809  27.789  22.158  1.00  0.00     0.023 A 
ATOM     21  C   UNL A   1      33.076  26.710  22.613  1.00  0.00     0.020 A 
ATOM     22  C   UNL A   1      32.465  25.633  21.782  1.00  0.00     0.065 C 
ENDBRANCH  11  16
ENDBRANCH   9  10
ENDBRANCH   7   9
ENDBRANCH   4   7
ENDBRANCH   2   3
ENDBRANCH   1   2
BRANCH   1  23
ATOM     23  C   UNL A   1      40.056  21.928  27.036  1.00  0.00     0.118 C 
BRANCH  23  24
ATOM     24  N   UNL A   1      41.170  21.604  26.170  1.00  0.00    -0.352 N 
ATOM     25  C   UNL A   1      42.260  22.376  25.807  1.00  0.00     0.251 C 
ATOM     26  H   UNL A   1      41.150  20.700  25.781  1.00  0.00     0.163 HD
ATOM     27  O   UNL A   1      43.039  21.885  24.991  1.00  0.00    -0.269 OA
BRANCH  25  28
ATOM     28  C   UNL A   1      42.437  23.811  26.248  1.00  0.00     0.039 A 
ATOM     29  C   UNL A   1      42.308  24.078  27.603  1.00  0.00     0.014 A 
ATOM     30  C   UNL A   1      42.490  24.935  25.403  1.00  0.00     0.014 A 
ATOM     31  C   UNL A   1      42.303  25.419  28.094  1.00  0.00     0.010 A 
ATOM     32  C   UNL A   1      42.395  26.309  25.907  1.00  0.00     0.010 A 
ATOM     33  C   UNL A   1      42.294  26.611  27.283  1.00  0.00    -0.014 A 
BRANCH  33  34
ATOM     34  C   UNL A   1      41.626  27.926  27.976  1.00  0.00     0.031 A 
ATOM     35  C   UNL A   1      42.816  28.812  28.127  1.00  0.00     0.074 A 
ATOM     36  C   UNL A   1      40.479  28.438  28.590  1.00  0.00     0.049 A 
ATOM     37  N   UNL A   1      43.823  28.362  28.815  1.00  0.00    -0.248 NA
ATOM     38  C   UNL A   1      43.127  29.939  27.249  1.00  0.00     0.031 C 
ATOM     39  C   UNL A   1      39.241  27.727  28.950  1.00  0.00     0.029 A 
ATOM     40  N   UNL A   1      40.131  29.752  29.063  1.00  0.00    -0.354 N 
ATOM     41  C   UNL A   1      44.843  29.265  28.672  1.00  0.00     0.074 A 
ATOM     42  C   UNL A   1      44.423  30.097  27.547  1.00  0.00     0.031 C 
ATOM     43  C   UNL A   1      38.265  28.580  29.389  1.00  0.00     0.029 A 
ATOM     44  C   UNL A   1      38.746  29.963  29.440  1.00  0.00     0.049 A 
ATOM     45  H   UNL A   1      40.799  30.472  29.127  1.00  0.00     0.167 HD
ATOM     46  C   UNL A   1      45.415  29.664  29.843  1.00  0.00     0.031 A 
ATOM     47  C   UNL A   1      38.063  31.112  29.857  1.00  0.00     0.031 A 
ATOM     48  C   UNL A   1      44.787  30.865  30.336  1.00  0.00     0.049 A 
ATOM     49  C   UNL A   1      39.072  31.882  30.601  1.00  0.00     0.074 A 
ATOM     50  C   UNL A   1      44.469  32.064  29.731  1.00  0.00     0.029 A 
ATOM     51  N   UNL A   1      43.977  30.746  31.450  1.00  0.00    -0.354 N 
ATOM     52  N   UNL A   1      39.469  31.522  31.784  1.00  0.00    -0.248 NA
ATOM     53  C   UNL A   1      39.607  33.152  30.120  1.00  0.00     0.031 C 
ATOM     54  C   UNL A   1      43.185  32.386  30.217  1.00  0.00     0.029 A 
ATOM     55  C   UNL A   1      42.913  31.618  31.344  1.00  0.00     0.049 A 
ATOM     56  H   UNL A   1      44.136  30.133  32.204  1.00  0.00     0.167 HD
ATOM     57  C   UNL A   1      40.659  32.176  31.915  1.00  0.00     0.074 A 
ATOM     58  C   UNL A   1      40.546  33.336  31.050  1.00  0.00     0.031 C 
ATOM     59  C   UNL A   1      41.754  31.420  32.192  1.00  0.00     0.031 A 
BRANCH  46  60
ATOM     60  C   UNL A   1      45.849  28.531  30.741  1.00  0.00    -0.014 A 
ATOM     61  C   UNL A   1      45.150  28.307  31.933  1.00  0.00     0.010 A 
ATOM     62  C   UNL A   1      46.981  27.729  30.466  1.00  0.00     0.010 A 
ATOM     63  C   UNL A   1      45.584  27.327  32.835  1.00  0.00     0.020 A 
ATOM     64  C   UNL A   1      47.432  26.764  31.369  1.00  0.00     0.020 A 
ATOM     65  C   UNL A   1      46.727  26.568  32.551  1.00  0.00     0.054 A 
BRANCH  65  66
ATOM     66  S   UNL A   1      47.279  25.346  33.771  1.00  0.00     0.124 S 
ATOM     67  O   UNL A   1      48.591  24.958  33.261  1.00  0.00    -0.237 OA
ATOM     68  O   UNL A   1      47.296  26.126  35.000  1.00  0.00    -0.237 OA
ATOM     69  O   UNL A   1      46.262  24.291  33.699  1.00  0.00    -0.744 OA
ENDBRANCH  65  66
ENDBRANCH  46  60
BRANCH  47  70
ATOM     70  C   UNL A   1      36.659  31.785  30.078  1.00  0.00    -0.014 A 
ATOM     71  C   UNL A   1      35.964  31.602  31.330  1.00  0.00     0.010 A 
ATOM     72  C   UNL A   1      36.183  32.873  29.327  1.00  0.00     0.010 A 
ATOM     73  C   UNL A   1      35.012  32.510  31.862  1.00  0.00     0.020 A 
ATOM     74  C   UNL A   1      35.192  33.779  29.839  1.00  0.00     0.020 A 
ATOM     75  C   UNL A   1      34.654  33.626  31.124  1.00  0.00     0.054 A 
BRANCH  75  76
ATOM     76  S   UNL A   1      33.631  34.930  31.917  1.00  0.00     0.124 S 
ATOM     77  O   UNL A   1      32.957  34.214  32.995  1.00  0.00    -0.237 OA
ATOM     78  O   UNL A   1      34.632  35.907  32.346  1.00  0.00    -0.237 OA
ATOM     79  O   UNL A   1      32.760  35.389  30.837  1.00  0.00    -0.744 OA
ENDBRANCH  75  76
ENDBRANCH  47  70
BRANCH  59  80
ATOM     80  C   UNL A   1      41.603  30.306  33.223  1.00  0.00    -0.014 A 
ATOM     81  C   UNL A   1      41.694  30.474  34.626  1.00  0.00     0.010 A 
ATOM     82  C   UNL A   1      41.434  28.993  32.752  1.00  0.00     0.010 A 
ATOM     83  C   UNL A   1      41.707  29.380  35.504  1.00  0.00     0.020 A 
ATOM     84  C   UNL A   1      41.396  27.896  33.626  1.00  0.00     0.020 A 
ATOM     85  C   UNL A   1      41.572  28.092  34.994  1.00  0.00     0.054 A 
BRANCH  85  86
ATOM     86  S   UNL A   1      41.672  26.682  36.133  1.00  0.00     0.124 S 
ATOM     87  O   UNL A   1      43.115  26.541  36.326  1.00  0.00    -0.237 OA
ATOM     88  O   UNL A   1      40.934  27.154  37.301  1.00  0.00    -0.237 OA
ATOM     89  O   UNL A   1      41.048  25.590  35.391  1.00  0.00    -0.744 OA
ENDBRANCH  85  86
ENDBRANCH  59  80
ENDBRANCH  33  34
ENDBRANCH  25  28
ENDBRANCH  23  24
ENDBRANCH   1  23
TORSDOF 16
ENDMDL
MODEL 3
REMARK VINA RESULT:     -11.4      3.957      9.081
REMARK SMILES Cc1ccc(C)n1-c1ccccc1S[C@H](C)C(=O)NCCCNC(=O)c1ccc(-c2c3nc(c(-c4ccc(S(=O)(=O)[O-])cc4)c4ccc([nH]4)c(-c4ccc(S(=O)(=O)[O-])cc4)c4nc(c(-c5ccc(S(=O)(=O)[O-])cc5)c5ccc2[nH]5)C=C4)C=C3)cc1
REMARK SMILES IDX 21 1 20 2 19 3 17 4 18 5 15 7 16 8 14 9 13 10 8 11 9 12
REMARK SMILES IDX 10 13 12 14 11 15 7 16 1 17 2 18 3 19 4 20 5 21 6 22 22 23
REMARK SMILES IDX 23 24 24 25 25 27 26 28 27 29 85 30 28 31 84 32 29 33 30 34
REMARK SMILES IDX 31 35 78 36 32 37 83 38 77 39 79 40 33 41 82 42 76 43 75 44
REMARK SMILES IDX 34 46 64 47 45 48 63 49 46 50 49 51 62 52 80 53 47 54 48 55
REMARK SMILES IDX 61 57 81 58 50 59 35 60 36 61 44 62 37 63 43 64 38 65 39 66
REMARK SMILES IDX 40 67 41 68 42 69 65 70 66 71 74 72 67 73 73 74 68 75 69 76
REMARK SMILES IDX 70 77 71 78 72 79 51 80 52 81 60 82 53 83 59 84 54 85 55 86
REMARK SMILES IDX 56 87 57 88 58 89
REMARK H PARENT 19 6 23 26 79 45 49 56
REMARK Flexibility Score: inf
ROOT
ATOM      1  C   UNL A   1      33.639  29.629  27.549  1.00  0.00     0.042 C 
ENDROOT
BRANCH   1   2
ATOM      2  C   UNL A   1      32.124  29.561  27.297  1.00  0.00     0.117 C 
BRANCH   2   3
ATOM      3  N   UNL A   1      31.760  29.509  25.888  1.00  0.00    -0.355 N 
ATOM      4  C   UNL A   1      31.356  28.491  25.074  1.00  0.00     0.233 C 
ATOM      5  O   UNL A   1      31.088  28.777  23.902  1.00  0.00    -0.274 OA
ATOM      6  H   UNL A   1      31.814  30.380  25.433  1.00  0.00     0.163 HD
BRANCH   4   7
ATOM      7  C   UNL A   1      31.232  27.038  25.557  1.00  0.00     0.137 C 
ATOM      8  C   UNL A   1      30.109  26.306  24.833  1.00  0.00     0.030 C 
BRANCH   7   9
ATOM      9  S   UNL A   1      32.907  26.284  25.451  1.00  0.00    -0.111 SA
BRANCH   9  10
ATOM     10  C   UNL A   1      32.922  25.099  24.105  1.00  0.00     0.032 A 
ATOM     11  C   UNL A   1      33.209  23.736  24.365  1.00  0.00     0.059 A 
ATOM     12  C   UNL A   1      33.390  22.818  23.313  1.00  0.00     0.028 A 
ATOM     13  C   UNL A   1      33.280  23.237  21.993  1.00  0.00     0.002 A 
ATOM     14  C   UNL A   1      32.757  25.474  22.765  1.00  0.00     0.017 A 
ATOM     15  C   UNL A   1      32.954  24.560  21.720  1.00  0.00     0.001 A 
BRANCH  11  16
ATOM     16  N   UNL A   1      33.370  23.234  25.692  1.00  0.00    -0.317 N 
ATOM     17  C   UNL A   1      35.902  23.576  25.927  1.00  0.00     0.065 C 
ATOM     18  C   UNL A   1      34.561  23.132  26.407  1.00  0.00     0.020 A 
ATOM     19  C   UNL A   1      34.274  22.580  27.641  1.00  0.00     0.023 A 
ATOM     20  C   UNL A   1      32.883  22.401  27.721  1.00  0.00     0.023 A 
ATOM     21  C   UNL A   1      32.331  22.822  26.526  1.00  0.00     0.020 A 
ATOM     22  C   UNL A   1      30.893  22.760  26.137  1.00  0.00     0.065 C 
ENDBRANCH  11  16
ENDBRANCH   9  10
ENDBRANCH   7   9
ENDBRANCH   4   7
ENDBRANCH   2   3
ENDBRANCH   1   2
BRANCH   1  23
ATOM     23  C   UNL A   1      34.330  30.970  27.224  1.00  0.00     0.118 C 
BRANCH  23  24
ATOM     24  N   UNL A   1      34.044  32.017  28.182  1.00  0.00    -0.352 N 
ATOM     25  C   UNL A   1      34.744  32.389  29.317  1.00  0.00     0.251 C 
ATOM     26  H   UNL A   1      33.232  32.541  28.000  1.00  0.00     0.163 HD
ATOM     27  O   UNL A   1      34.245  33.275  30.009  1.00  0.00    -0.269 OA
BRANCH  25  28
ATOM     28  C   UNL A   1      35.979  31.663  29.799  1.00  0.00     0.039 A 
ATOM     29  C   UNL A   1      37.128  31.793  29.034  1.00  0.00     0.014 A 
ATOM     30  C   UNL A   1      36.022  30.688  30.812  1.00  0.00     0.014 A 
ATOM     31  C   UNL A   1      38.297  31.023  29.320  1.00  0.00     0.010 A 
ATOM     32  C   UNL A   1      37.196  29.839  31.044  1.00  0.00     0.010 A 
ATOM     33  C   UNL A   1      38.390  29.970  30.301  1.00  0.00    -0.014 A 
BRANCH  33  34
ATOM     34  C   UNL A   1      39.517  28.831  30.003  1.00  0.00     0.031 A 
ATOM     35  C   UNL A   1      40.254  28.803  31.298  1.00  0.00     0.074 A 
ATOM     36  C   UNL A   1      40.118  28.047  29.012  1.00  0.00     0.049 A 
ATOM     37  N   UNL A   1      40.787  29.913  31.716  1.00  0.00    -0.248 NA
ATOM     38  C   UNL A   1      40.082  27.779  32.327  1.00  0.00     0.031 C 
ATOM     39  C   UNL A   1      39.898  28.088  27.557  1.00  0.00     0.029 A 
ATOM     40  N   UNL A   1      41.102  26.998  29.064  1.00  0.00    -0.354 N 
ATOM     41  C   UNL A   1      41.252  29.683  32.983  1.00  0.00     0.074 A 
ATOM     42  C   UNL A   1      40.614  28.427  33.372  1.00  0.00     0.031 C 
ATOM     43  C   UNL A   1      40.537  27.065  26.910  1.00  0.00     0.029 A 
ATOM     44  C   UNL A   1      41.317  26.246  27.841  1.00  0.00     0.049 A 
ATOM     45  H   UNL A   1      41.605  26.802  29.887  1.00  0.00     0.167 HD
ATOM     46  C   UNL A   1      42.543  30.068  33.192  1.00  0.00     0.031 A 
ATOM     47  C   UNL A   1      42.123  25.135  27.567  1.00  0.00     0.031 A 
ATOM     48  C   UNL A   1      43.448  28.970  32.956  1.00  0.00     0.049 A 
ATOM     49  C   UNL A   1      43.289  25.308  28.447  1.00  0.00     0.074 A 
ATOM     50  C   UNL A   1      43.451  27.658  33.383  1.00  0.00     0.029 A 
ATOM     51  N   UNL A   1      44.230  29.027  31.817  1.00  0.00    -0.354 N 
ATOM     52  N   UNL A   1      44.200  26.201  28.204  1.00  0.00    -0.248 NA
ATOM     53  C   UNL A   1      43.564  24.424  29.574  1.00  0.00     0.031 C 
ATOM     54  C   UNL A   1      43.829  26.908  32.250  1.00  0.00     0.029 A 
ATOM     55  C   UNL A   1      44.393  27.756  31.304  1.00  0.00     0.049 A 
ATOM     56  H   UNL A   1      44.613  29.848  31.432  1.00  0.00     0.167 HD
ATOM     57  C   UNL A   1      44.809  26.349  29.415  1.00  0.00     0.074 A 
ATOM     58  C   UNL A   1      44.600  25.084  30.096  1.00  0.00     0.031 C 
ATOM     59  C   UNL A   1      44.854  27.603  29.938  1.00  0.00     0.031 A 
BRANCH  46  60
ATOM     60  C   UNL A   1      42.843  31.488  32.780  1.00  0.00    -0.014 A 
ATOM     61  C   UNL A   1      44.162  31.952  32.859  1.00  0.00     0.010 A 
ATOM     62  C   UNL A   1      41.833  32.399  32.387  1.00  0.00     0.010 A 
ATOM     63  C   UNL A   1      44.458  33.291  32.576  1.00  0.00     0.020 A 
ATOM     64  C   UNL A   1      42.119  33.740  32.124  1.00  0.00     0.020 A 
ATOM     65  C   UNL A   1      43.434  34.178  32.220  1.00  0.00     0.054 A 
BRANCH  65  66
ATOM     66  S   UNL A   1      43.861  35.913  31.913  1.00  0.00     0.124 S 
ATOM     67  O   UNL A   1      43.169  36.607  32.996  1.00  0.00    -0.237 OA
ATOM     68  O   UNL A   1      45.313  35.895  32.015  1.00  0.00    -0.237 OA
ATOM     69  O   UNL A   1      43.319  36.180  30.576  1.00  0.00    -0.744 OA
ENDBRANCH  65  66
ENDBRANCH  46  60
BRANCH  47  70
ATOM     70  C   UNL A   1      42.422  23.957  26.568  1.00  0.00    -0.014 A 
ATOM     71  C   UNL A   1      43.531  24.058  25.649  1.00  0.00     0.010 A 
ATOM     72  C   UNL A   1      41.957  22.643  26.743  1.00  0.00     0.010 A 
ATOM     73  C   UNL A   1      44.220  22.949  25.096  1.00  0.00     0.020 A 
ATOM     74  C   UNL A   1      42.625  21.513  26.159  1.00  0.00     0.020 A 
ATOM     75  C   UNL A   1      43.784  21.667  25.386  1.00  0.00     0.054 A 
BRANCH  75  76
ATOM     76  S   UNL A   1      44.826  20.235  24.892  1.00  0.00     0.124 S 
ATOM     77  O   UNL A   1      46.160  20.628  25.335  1.00  0.00    -0.237 OA
ATOM     78  O   UNL A   1      44.223  19.128  25.633  1.00  0.00    -0.237 OA
ATOM     79  O   UNL A   1      44.649  20.164  23.443  1.00  0.00    -0.744 OA
ENDBRANCH  75  76
ENDBRANCH  47  70
BRANCH  59  80
ATOM     80  C   UNL A   1      45.189  28.752  28.992  1.00  0.00    -0.014 A 
ATOM     81  C   UNL A   1      46.469  29.336  28.837  1.00  0.00     0.010 A 
ATOM     82  C   UNL A   1      44.135  29.335  28.268  1.00  0.00     0.010 A 
ATOM     83  C   UNL A   1      46.668  30.494  28.071  1.00  0.00     0.020 A 
ATOM     84  C   UNL A   1      44.334  30.464  27.458  1.00  0.00     0.020 A 
ATOM     85  C   UNL A   1      45.592  31.061  27.395  1.00  0.00     0.054 A 
BRANCH  85  86
ATOM     86  S   UNL A   1      45.847  32.604  26.474  1.00  0.00     0.124 S 
ATOM     87  O   UNL A   1      44.924  32.450  25.351  1.00  0.00    -0.237 OA
ATOM     88  O   UNL A   1      45.475  33.628  27.446  1.00  0.00    -0.237 OA
ATOM     89  O   UNL A   1      47.260  32.562  26.110  1.00  0.00    -0.744 OA
ENDBRANCH  85  86
ENDBRANCH  59  80
ENDBRANCH  33  34
ENDBRANCH  25  28
ENDBRANCH  23  24
ENDBRANCH   1  23
TORSDOF 16
ENDMDL
