MODEL 1
REMARK VINA RESULT:     -10.0      0.000      0.000
REMARK SMILES CC[N@@H+](C[C@H]1CCCO1)[C@@H](C)c1ccc(C(=O)NCCCNC(=O)c2ccc(-c3c4nc(c(-c5ccc(S(=O)(=O)[O-])cc5)c5ccc([nH]5)c(-c5ccc(S(=O)(=O)[O-])cc5)c5nc(c(-c6ccc(S(=O)(=O)[O-])cc6)c6ccc3[nH]6)C=C5)C=C4)cc2)o1
REMARK SMILES IDX 19 1 18 2 16 3 17 4 15 6 12 7 13 8 85 9 14 10 10 11 11 12
REMARK SMILES IDX 3 13 2 15 1 16 4 17 5 18 6 19 9 20 7 21 8 22 20 23 21 24
REMARK SMILES IDX 22 25 23 26 24 28 25 29 26 30 84 31 27 32 83 33 28 34 29 35
REMARK SMILES IDX 30 36 77 37 31 38 82 39 76 40 78 41 32 42 81 43 75 44 74 45
REMARK SMILES IDX 33 47 63 48 44 49 62 50 45 51 48 52 61 53 79 54 46 55 47 56
REMARK SMILES IDX 60 58 80 59 49 60 34 61 35 62 43 63 36 64 42 65 37 66 38 67
REMARK SMILES IDX 39 68 40 69 41 70 64 71 65 72 73 73 66 74 72 75 67 76 68 77
REMARK SMILES IDX 69 78 70 79 71 80 50 81 51 82 59 83 52 84 58 85 53 86 54 87
REMARK SMILES IDX 55 88 56 89 57 90
REMARK H PARENT 18 5 3 14 22 27 78 46 48 57
REMARK Flexibility Score: inf
ROOT
ATOM      1  C   UNL A   1      34.425  23.109  25.714  1.00  0.00     0.118 C 
ENDROOT
BRANCH   1   2
ATOM      2  N   UNL A   1      33.319  23.275  26.634  1.00  0.00    -0.349 N 
ATOM      3  C   UNL A   1      32.051  23.787  26.446  1.00  0.00     0.287 C 
ATOM      4  O   UNL A   1      31.322  23.774  27.435  1.00  0.00    -0.266 OA
ATOM      5  H   UNL A   1      33.504  22.968  27.550  1.00  0.00     0.163 HD
BRANCH   3   6
ATOM      6  C   UNL A   1      31.637  24.281  25.141  1.00  0.00     0.191 A 
ATOM      7  C   UNL A   1      31.598  25.759  23.492  1.00  0.00     0.161 A 
ATOM      8  C   UNL A   1      30.708  24.764  23.156  1.00  0.00     0.053 A 
ATOM      9  O   UNL A   1      32.099  25.524  24.741  1.00  0.00    -0.450 OA
ATOM     10  C   UNL A   1      30.861  23.764  24.120  1.00  0.00     0.057 A 
BRANCH   7  11
ATOM     11  C   UNL A   1      32.064  26.937  22.671  1.00  0.00     0.248 C 
ATOM     12  C   UNL A   1      33.582  26.732  22.436  1.00  0.00     0.084 C 
BRANCH  11  13
ATOM     13  N   UNL A   1      31.734  28.279  23.193  1.00  0.00    -0.324 N 
ATOM     14  H   UNL A   1      31.635  28.813  22.330  1.00  0.00     0.348 HD
BRANCH  13  15
ATOM     15  C   UNL A   1      30.432  28.423  23.865  1.00  0.00     0.259 C 
ATOM     16  C   UNL A   1      29.358  29.173  23.077  1.00  0.00     0.071 C 
ENDBRANCH  13  15
BRANCH  13  17
ATOM     17  C   UNL A   1      32.830  28.896  23.998  1.00  0.00     0.295 C 
BRANCH  17  18
ATOM     18  C   UNL A   1      32.734  28.986  25.548  1.00  0.00     0.173 C 
ATOM     19  C   UNL A   1      33.923  28.403  26.331  1.00  0.00     0.040 C 
ATOM     20  O   UNL A   1      32.637  30.367  25.978  1.00  0.00    -0.372 OA
ATOM     21  C   UNL A   1      34.518  29.576  27.066  1.00  0.00     0.031 C 
ATOM     22  C   UNL A   1      33.316  30.462  27.239  1.00  0.00     0.161 C 
ENDBRANCH  17  18
ENDBRANCH  13  17
ENDBRANCH  11  13
ENDBRANCH   7  11
ENDBRANCH   3   6
ENDBRANCH   1   2
BRANCH   1  23
ATOM     23  C   UNL A   1      35.649  23.914  26.152  1.00  0.00     0.042 C 
BRANCH  23  24
ATOM     24  C   UNL A   1      36.777  23.806  25.131  1.00  0.00     0.118 C 
BRANCH  24  25
ATOM     25  N   UNL A   1      37.727  22.768  25.517  1.00  0.00    -0.352 N 
ATOM     26  C   UNL A   1      38.962  22.872  26.095  1.00  0.00     0.251 C 
ATOM     27  H   UNL A   1      37.433  21.846  25.333  1.00  0.00     0.163 HD
ATOM     28  O   UNL A   1      39.719  21.906  26.078  1.00  0.00    -0.269 OA
BRANCH  26  29
ATOM     29  C   UNL A   1      39.371  24.134  26.736  1.00  0.00     0.039 A 
ATOM     30  C   UNL A   1      38.957  24.391  28.044  1.00  0.00     0.014 A 
ATOM     31  C   UNL A   1      40.127  25.076  26.032  1.00  0.00     0.014 A 
ATOM     32  C   UNL A   1      39.340  25.581  28.662  1.00  0.00     0.010 A 
ATOM     33  C   UNL A   1      40.578  26.219  26.677  1.00  0.00     0.010 A 
ATOM     34  C   UNL A   1      40.176  26.489  27.993  1.00  0.00    -0.014 A 
BRANCH  34  35
ATOM     35  C   UNL A   1      40.636  27.734  28.649  1.00  0.00     0.031 A 
ATOM     36  C   UNL A   1      42.023  27.814  29.222  1.00  0.00     0.074 A 
ATOM     37  C   UNL A   1      39.778  28.764  28.779  1.00  0.00     0.049 A 
ATOM     38  N   UNL A   1      42.586  28.794  29.881  1.00  0.00    -0.248 NA
ATOM     39  C   UNL A   1      42.885  26.630  29.056  1.00  0.00     0.031 C 
ATOM     40  C   UNL A   1      38.394  28.780  28.295  1.00  0.00     0.029 A 
ATOM     41  N   UNL A   1      39.942  29.995  29.358  1.00  0.00    -0.354 N 
ATOM     42  C   UNL A   1      43.856  28.340  30.219  1.00  0.00     0.074 A 
ATOM     43  C   UNL A   1      43.961  26.979  29.746  1.00  0.00     0.031 C 
ATOM     44  C   UNL A   1      37.847  29.975  28.569  1.00  0.00     0.029 A 
ATOM     45  C   UNL A   1      38.822  30.789  29.287  1.00  0.00     0.049 A 
ATOM     46  H   UNL A   1      40.781  30.284  29.784  1.00  0.00     0.167 HD
ATOM     47  C   UNL A   1      44.851  29.008  30.848  1.00  0.00     0.031 A 
ATOM     48  C   UNL A   1      38.601  32.031  29.757  1.00  0.00     0.031 A 
ATOM     49  C   UNL A   1      44.736  30.365  31.311  1.00  0.00     0.049 A 
ATOM     50  C   UNL A   1      39.715  32.744  30.471  1.00  0.00     0.074 A 
ATOM     51  C   UNL A   1      45.698  31.152  31.918  1.00  0.00     0.029 A 
ATOM     52  N   UNL A   1      43.586  31.137  31.220  1.00  0.00    -0.354 N 
ATOM     53  N   UNL A   1      40.932  32.323  30.728  1.00  0.00    -0.248 NA
ATOM     54  C   UNL A   1      39.433  34.104  30.947  1.00  0.00     0.031 C 
ATOM     55  C   UNL A   1      45.112  32.378  32.249  1.00  0.00     0.029 A 
ATOM     56  C   UNL A   1      43.807  32.382  31.784  1.00  0.00     0.049 A 
ATOM     57  H   UNL A   1      42.738  30.842  30.815  1.00  0.00     0.167 HD
ATOM     58  C   UNL A   1      41.569  33.378  31.370  1.00  0.00     0.074 A 
ATOM     59  C   UNL A   1      40.610  34.461  31.447  1.00  0.00     0.031 C 
ATOM     60  C   UNL A   1      42.835  33.446  31.852  1.00  0.00     0.031 A 
BRANCH  47  61
ATOM     61  C   UNL A   1      46.149  28.276  31.073  1.00  0.00    -0.014 A 
ATOM     62  C   UNL A   1      46.359  27.507  32.234  1.00  0.00     0.010 A 
ATOM     63  C   UNL A   1      47.161  28.327  30.096  1.00  0.00     0.010 A 
ATOM     64  C   UNL A   1      47.570  26.839  32.432  1.00  0.00     0.020 A 
ATOM     65  C   UNL A   1      48.361  27.633  30.277  1.00  0.00     0.020 A 
ATOM     66  C   UNL A   1      48.565  26.907  31.452  1.00  0.00     0.054 A 
BRANCH  66  67
ATOM     67  S   UNL A   1      50.115  26.006  31.726  1.00  0.00     0.124 S 
ATOM     68  O   UNL A   1      49.936  25.510  33.088  1.00  0.00    -0.237 OA
ATOM     69  O   UNL A   1      50.084  24.989  30.678  1.00  0.00    -0.237 OA
ATOM     70  O   UNL A   1      51.145  27.030  31.568  1.00  0.00    -0.744 OA
ENDBRANCH  66  67
ENDBRANCH  47  61
BRANCH  48  71
ATOM     71  C   UNL A   1      37.278  32.679  29.549  1.00  0.00    -0.014 A 
ATOM     72  C   UNL A   1      36.299  32.646  30.557  1.00  0.00     0.010 A 
ATOM     73  C   UNL A   1      36.997  33.355  28.346  1.00  0.00     0.010 A 
ATOM     74  C   UNL A   1      35.058  33.258  30.360  1.00  0.00     0.020 A 
ATOM     75  C   UNL A   1      35.770  33.995  28.158  1.00  0.00     0.020 A 
ATOM     76  C   UNL A   1      34.802  33.933  29.162  1.00  0.00     0.054 A 
BRANCH  76  77
ATOM     77  S   UNL A   1      33.205  34.766  28.952  1.00  0.00     0.124 S 
ATOM     78  O   UNL A   1      32.655  34.714  30.303  1.00  0.00    -0.237 OA
ATOM     79  O   UNL A   1      33.601  36.090  28.478  1.00  0.00    -0.237 OA
ATOM     80  O   UNL A   1      32.516  33.940  27.963  1.00  0.00    -0.744 OA
ENDBRANCH  76  77
ENDBRANCH  48  71
BRANCH  60  81
ATOM     81  C   UNL A   1      43.270  34.747  32.472  1.00  0.00    -0.014 A 
ATOM     82  C   UNL A   1      43.129  34.985  33.850  1.00  0.00     0.010 A 
ATOM     83  C   UNL A   1      43.885  35.725  31.666  1.00  0.00     0.010 A 
ATOM     84  C   UNL A   1      43.562  36.193  34.406  1.00  0.00     0.020 A 
ATOM     85  C   UNL A   1      44.349  36.917  32.223  1.00  0.00     0.020 A 
ATOM     86  C   UNL A   1      44.172  37.150  33.588  1.00  0.00     0.054 A 
BRANCH  86  87
ATOM     87  S   UNL A   1      44.766  38.687  34.343  1.00  0.00     0.124 S 
ATOM     88  O   UNL A   1      45.378  38.203  35.577  1.00  0.00    -0.237 OA
ATOM     89  O   UNL A   1      45.695  39.198  33.338  1.00  0.00    -0.237 OA
ATOM     90  O   UNL A   1      43.551  39.479  34.520  1.00  0.00    -0.744 OA
ENDBRANCH  86  87
ENDBRANCH  60  81
ENDBRANCH  34  35
ENDBRANCH  26  29
ENDBRANCH  24  25
ENDBRANCH  23  24
ENDBRANCH   1  23
TORSDOF 18
ENDMDL
MODEL 2
REMARK VINA RESULT:      -9.9      0.967      2.144
REMARK SMILES CC[N@@H+](C[C@H]1CCCO1)[C@@H](C)c1ccc(C(=O)NCCCNC(=O)c2ccc(-c3c4nc(c(-c5ccc(S(=O)(=O)[O-])cc5)c5ccc([nH]5)c(-c5ccc(S(=O)(=O)[O-])cc5)c5nc(c(-c6ccc(S(=O)(=O)[O-])cc6)c6ccc3[nH]6)C=C5)C=C4)cc2)o1
REMARK SMILES IDX 19 1 18 2 16 3 17 4 15 6 12 7 13 8 85 9 14 10 10 11 11 12
REMARK SMILES IDX 3 13 2 15 1 16 4 17 5 18 6 19 9 20 7 21 8 22 20 23 21 24
REMARK SMILES IDX 22 25 23 26 24 28 25 29 26 30 84 31 27 32 83 33 28 34 29 35
REMARK SMILES IDX 30 36 77 37 31 38 82 39 76 40 78 41 32 42 81 43 75 44 74 45
REMARK SMILES IDX 33 47 63 48 44 49 62 50 45 51 48 52 61 53 79 54 46 55 47 56
REMARK SMILES IDX 60 58 80 59 49 60 34 61 35 62 43 63 36 64 42 65 37 66 38 67
REMARK SMILES IDX 39 68 40 69 41 70 64 71 65 72 73 73 66 74 72 75 67 76 68 77
REMARK SMILES IDX 69 78 70 79 71 80 50 81 51 82 59 83 52 84 58 85 53 86 54 87
REMARK SMILES IDX 55 88 56 89 57 90
REMARK H PARENT 18 5 3 14 22 27 78 46 48 57
REMARK Flexibility Score: inf
ROOT
ATOM      1  C   UNL A   1      33.839  23.593  25.824  1.00  0.00     0.118 C 
ENDROOT
BRANCH   1   2
ATOM      2  N   UNL A   1      32.632  23.441  26.609  1.00  0.00    -0.349 N 
ATOM      3  C   UNL A   1      31.360  23.944  26.424  1.00  0.00     0.287 C 
ATOM      4  O   UNL A   1      30.531  23.613  27.270  1.00  0.00    -0.266 OA
ATOM      5  H   UNL A   1      32.737  22.882  27.412  1.00  0.00     0.163 HD
BRANCH   3   6
ATOM      6  C   UNL A   1      31.055  24.788  25.279  1.00  0.00     0.191 A 
ATOM      7  C   UNL A   1      31.099  26.686  24.137  1.00  0.00     0.161 A 
ATOM      8  C   UNL A   1      30.312  25.810  23.424  1.00  0.00     0.053 A 
ATOM      9  O   UNL A   1      31.480  26.106  25.313  1.00  0.00    -0.450 OA
ATOM     10  C   UNL A   1      30.423  24.575  24.068  1.00  0.00     0.057 A 
BRANCH   7  11
ATOM     11  C   UNL A   1      31.577  28.065  23.753  1.00  0.00     0.248 C 
ATOM     12  C   UNL A   1      33.109  27.956  23.550  1.00  0.00     0.084 C 
BRANCH  11  13
ATOM     13  N   UNL A   1      31.189  29.173  24.650  1.00  0.00    -0.324 N 
ATOM     14  H   UNL A   1      30.561  28.697  25.298  1.00  0.00     0.348 HD
BRANCH  13  15
ATOM     15  C   UNL A   1      32.249  29.728  25.508  1.00  0.00     0.259 C 
ATOM     16  C   UNL A   1      31.772  30.553  26.702  1.00  0.00     0.071 C 
ENDBRANCH  13  15
BRANCH  13  17
ATOM     17  C   UNL A   1      30.419  30.256  23.969  1.00  0.00     0.295 C 
BRANCH  17  18
ATOM     18  C   UNL A   1      29.147  29.932  23.135  1.00  0.00     0.173 C 
ATOM     19  C   UNL A   1      27.912  30.801  23.428  1.00  0.00     0.040 C 
ATOM     20  O   UNL A   1      29.403  30.102  21.718  1.00  0.00    -0.372 OA
ATOM     21  C   UNL A   1      27.636  31.533  22.140  1.00  0.00     0.031 C 
ATOM     22  C   UNL A   1      28.182  30.568  21.125  1.00  0.00     0.161 C 
ENDBRANCH  17  18
ENDBRANCH  13  17
ENDBRANCH  11  13
ENDBRANCH   7  11
ENDBRANCH   3   6
ENDBRANCH   1   2
BRANCH   1  23
ATOM     23  C   UNL A   1      35.085  23.210  26.623  1.00  0.00     0.042 C 
BRANCH  23  24
ATOM     24  C   UNL A   1      36.346  23.790  25.993  1.00  0.00     0.118 C 
BRANCH  24  25
ATOM     25  N   UNL A   1      37.428  22.810  26.006  1.00  0.00    -0.352 N 
ATOM     26  C   UNL A   1      38.764  22.974  26.248  1.00  0.00     0.251 C 
ATOM     27  H   UNL A   1      37.153  21.886  25.810  1.00  0.00     0.163 HD
ATOM     28  O   UNL A   1      39.547  22.082  25.932  1.00  0.00    -0.269 OA
BRANCH  26  29
ATOM     29  C   UNL A   1      39.252  24.208  26.888  1.00  0.00     0.039 A 
ATOM     30  C   UNL A   1      40.006  25.107  26.131  1.00  0.00     0.014 A 
ATOM     31  C   UNL A   1      38.997  24.457  28.239  1.00  0.00     0.014 A 
ATOM     32  C   UNL A   1      40.471  26.279  26.724  1.00  0.00     0.010 A 
ATOM     33  C   UNL A   1      39.387  25.663  28.803  1.00  0.00     0.010 A 
ATOM     34  C   UNL A   1      40.140  26.579  28.055  1.00  0.00    -0.014 A 
BRANCH  34  35
ATOM     35  C   UNL A   1      40.581  27.842  28.690  1.00  0.00     0.031 A 
ATOM     36  C   UNL A   1      41.966  27.952  29.264  1.00  0.00     0.074 A 
ATOM     37  C   UNL A   1      39.709  28.862  28.799  1.00  0.00     0.049 A 
ATOM     38  N   UNL A   1      42.513  28.951  29.906  1.00  0.00    -0.248 NA
ATOM     39  C   UNL A   1      42.844  26.777  29.123  1.00  0.00     0.031 C 
ATOM     40  C   UNL A   1      38.326  28.850  28.311  1.00  0.00     0.029 A 
ATOM     41  N   UNL A   1      39.854  30.106  29.355  1.00  0.00    -0.354 N 
ATOM     42  C   UNL A   1      43.788  28.521  30.256  1.00  0.00     0.074 A 
ATOM     43  C   UNL A   1      43.913  27.153  29.809  1.00  0.00     0.031 C 
ATOM     44  C   UNL A   1      37.762  30.042  28.562  1.00  0.00     0.029 A 
ATOM     45  C   UNL A   1      38.724  30.883  29.268  1.00  0.00     0.049 A 
ATOM     46  H   UNL A   1      40.688  30.414  29.778  1.00  0.00     0.167 HD
ATOM     47  C   UNL A   1      44.773  29.214  30.875  1.00  0.00     0.031 A 
ATOM     48  C   UNL A   1      38.484  32.130  29.714  1.00  0.00     0.031 A 
ATOM     49  C   UNL A   1      44.637  30.578  31.313  1.00  0.00     0.049 A 
ATOM     50  C   UNL A   1      39.587  32.872  30.417  1.00  0.00     0.074 A 
ATOM     51  C   UNL A   1      45.587  31.388  31.909  1.00  0.00     0.029 A 
ATOM     52  N   UNL A   1      43.477  31.331  31.206  1.00  0.00    -0.354 N 
ATOM     53  N   UNL A   1      40.809  32.472  30.685  1.00  0.00    -0.248 NA
ATOM     54  C   UNL A   1      39.285  34.236  30.868  1.00  0.00     0.031 C 
ATOM     55  C   UNL A   1      44.984  32.612  32.215  1.00  0.00     0.029 A 
ATOM     56  C   UNL A   1      43.679  32.589  31.747  1.00  0.00     0.049 A 
ATOM     57  H   UNL A   1      42.635  31.017  30.804  1.00  0.00     0.167 HD
ATOM     58  C   UNL A   1      41.430  33.547  31.310  1.00  0.00     0.074 A 
ATOM     59  C   UNL A   1      40.455  34.618  31.364  1.00  0.00     0.031 C 
ATOM     60  C   UNL A   1      42.693  33.641  31.794  1.00  0.00     0.031 A 
BRANCH  47  61
ATOM     61  C   UNL A   1      46.080  28.504  31.117  1.00  0.00    -0.014 A 
ATOM     62  C   UNL A   1      47.097  28.500  30.144  1.00  0.00     0.010 A 
ATOM     63  C   UNL A   1      46.310  27.861  32.347  1.00  0.00     0.010 A 
ATOM     64  C   UNL A   1      48.301  27.832  30.380  1.00  0.00     0.020 A 
ATOM     65  C   UNL A   1      47.527  27.220  32.599  1.00  0.00     0.020 A 
ATOM     66  C   UNL A   1      48.509  27.195  31.607  1.00  0.00     0.054 A 
BRANCH  66  67
ATOM     67  S   UNL A   1      50.093  26.360  31.893  1.00  0.00     0.124 S 
ATOM     68  O   UNL A   1      50.090  26.200  33.345  1.00  0.00    -0.237 OA
ATOM     69  O   UNL A   1      49.947  25.125  31.126  1.00  0.00    -0.237 OA
ATOM     70  O   UNL A   1      51.082  27.301  31.374  1.00  0.00    -0.744 OA
ENDBRANCH  66  67
ENDBRANCH  47  61
BRANCH  48  71
ATOM     71  C   UNL A   1      37.153  32.756  29.491  1.00  0.00    -0.014 A 
ATOM     72  C   UNL A   1      36.208  32.816  30.529  1.00  0.00     0.010 A 
ATOM     73  C   UNL A   1      36.830  33.318  28.241  1.00  0.00     0.010 A 
ATOM     74  C   UNL A   1      34.959  33.408  30.318  1.00  0.00     0.020 A 
ATOM     75  C   UNL A   1      35.596  33.938  28.035  1.00  0.00     0.020 A 
ATOM     76  C   UNL A   1      34.662  33.969  29.072  1.00  0.00     0.054 A 
BRANCH  76  77
ATOM     77  S   UNL A   1      33.056  34.778  28.839  1.00  0.00     0.124 S 
ATOM     78  O   UNL A   1      32.497  34.738  30.186  1.00  0.00    -0.237 OA
ATOM     79  O   UNL A   1      33.439  36.100  28.349  1.00  0.00    -0.237 OA
ATOM     80  O   UNL A   1      32.385  33.930  27.857  1.00  0.00    -0.744 OA
ENDBRANCH  76  77
ENDBRANCH  48  71
BRANCH  60  81
ATOM     81  C   UNL A   1      43.109  34.959  32.390  1.00  0.00    -0.014 A 
ATOM     82  C   UNL A   1      43.701  35.964  31.605  1.00  0.00     0.010 A 
ATOM     83  C   UNL A   1      42.845  35.216  33.749  1.00  0.00     0.010 A 
ATOM     84  C   UNL A   1      44.056  37.189  32.177  1.00  0.00     0.020 A 
ATOM     85  C   UNL A   1      43.168  36.450  34.316  1.00  0.00     0.020 A 
ATOM     86  C   UNL A   1      43.784  37.425  33.529  1.00  0.00     0.054 A 
BRANCH  86  87
ATOM     87  S   UNL A   1      44.213  39.039  34.234  1.00  0.00     0.124 S 
ATOM     88  O   UNL A   1      43.039  39.839  33.897  1.00  0.00    -0.237 OA
ATOM     89  O   UNL A   1      44.381  38.734  35.652  1.00  0.00    -0.237 OA
ATOM     90  O   UNL A   1      45.440  39.409  33.532  1.00  0.00    -0.744 OA
ENDBRANCH  86  87
ENDBRANCH  60  81
ENDBRANCH  34  35
ENDBRANCH  26  29
ENDBRANCH  24  25
ENDBRANCH  23  24
ENDBRANCH   1  23
TORSDOF 18
ENDMDL
MODEL 3
REMARK VINA RESULT:      -9.7      3.523      4.227
REMARK SMILES CC[N@@H+](C[C@H]1CCCO1)[C@@H](C)c1ccc(C(=O)NCCCNC(=O)c2ccc(-c3c4nc(c(-c5ccc(S(=O)(=O)[O-])cc5)c5ccc([nH]5)c(-c5ccc(S(=O)(=O)[O-])cc5)c5nc(c(-c6ccc(S(=O)(=O)[O-])cc6)c6ccc3[nH]6)C=C5)C=C4)cc2)o1
REMARK SMILES IDX 19 1 18 2 16 3 17 4 15 6 12 7 13 8 85 9 14 10 10 11 11 12
REMARK SMILES IDX 3 13 2 15 1 16 4 17 5 18 6 19 9 20 7 21 8 22 20 23 21 24
REMARK SMILES IDX 22 25 23 26 24 28 25 29 26 30 84 31 27 32 83 33 28 34 29 35
REMARK SMILES IDX 30 36 77 37 31 38 82 39 76 40 78 41 32 42 81 43 75 44 74 45
REMARK SMILES IDX 33 47 63 48 44 49 62 50 45 51 48 52 61 53 79 54 46 55 47 56
REMARK SMILES IDX 60 58 80 59 49 60 34 61 35 62 43 63 36 64 42 65 37 66 38 67
REMARK SMILES IDX 39 68 40 69 41 70 64 71 65 72 73 73 66 74 72 75 67 76 68 77
REMARK SMILES IDX 69 78 70 79 71 80 50 81 51 82 59 83 52 84 58 85 53 86 54 87
REMARK SMILES IDX 55 88 56 89 57 90
REMARK H PARENT 18 5 3 14 22 27 78 46 48 57
REMARK Flexibility Score: inf
ROOT
ATOM      1  C   UNL A   1      37.107  22.306  25.434  1.00  0.00     0.118 C 
ENDROOT
BRANCH   1   2
ATOM      2  N   UNL A   1      36.177  21.890  26.463  1.00  0.00    -0.349 N 
ATOM      3  C   UNL A   1      34.797  21.898  26.496  1.00  0.00     0.287 C 
ATOM      4  O   UNL A   1      34.289  21.454  27.523  1.00  0.00    -0.266 OA
ATOM      5  H   UNL A   1      36.603  21.542  27.279  1.00  0.00     0.163 HD
BRANCH   3   6
ATOM      6  C   UNL A   1      34.031  22.388  25.360  1.00  0.00     0.191 A 
ATOM      7  C   UNL A   1      32.996  23.952  24.182  1.00  0.00     0.161 A 
ATOM      8  C   UNL A   1      32.764  22.755  23.543  1.00  0.00     0.053 A 
ATOM      9  O   UNL A   1      33.686  23.729  25.340  1.00  0.00    -0.450 OA
ATOM     10  C   UNL A   1      33.552  21.806  24.201  1.00  0.00     0.057 A 
BRANCH   7  11
ATOM     11  C   UNL A   1      32.641  25.351  23.740  1.00  0.00     0.248 C 
ATOM     12  C   UNL A   1      33.747  25.789  22.747  1.00  0.00     0.084 C 
BRANCH  11  13
ATOM     13  N   UNL A   1      32.398  26.341  24.809  1.00  0.00    -0.324 N 
ATOM     14  H   UNL A   1      31.756  26.985  24.346  1.00  0.00     0.348 HD
BRANCH  13  15
ATOM     15  C   UNL A   1      31.653  25.868  25.988  1.00  0.00     0.259 C 
ATOM     16  C   UNL A   1      30.136  26.033  25.925  1.00  0.00     0.071 C 
ENDBRANCH  13  15
BRANCH  13  17
ATOM     17  C   UNL A   1      33.616  27.106  25.208  1.00  0.00     0.295 C 
BRANCH  17  18
ATOM     18  C   UNL A   1      33.567  28.650  25.396  1.00  0.00     0.173 C 
ATOM     19  C   UNL A   1      32.167  29.285  25.384  1.00  0.00     0.040 C 
ATOM     20  O   UNL A   1      34.147  29.031  26.669  1.00  0.00    -0.372 OA
ATOM     21  C   UNL A   1      31.998  29.882  26.757  1.00  0.00     0.031 C 
ATOM     22  C   UNL A   1      33.423  30.182  27.130  1.00  0.00     0.161 C 
ENDBRANCH  17  18
ENDBRANCH  13  17
ENDBRANCH  11  13
ENDBRANCH   7  11
ENDBRANCH   3   6
ENDBRANCH   1   2
BRANCH   1  23
ATOM     23  C   UNL A   1      37.338  23.817  25.457  1.00  0.00     0.042 C 
BRANCH  23  24
ATOM     24  C   UNL A   1      38.236  24.223  26.621  1.00  0.00     0.118 C 
BRANCH  24  25
ATOM     25  N   UNL A   1      39.644  24.083  26.260  1.00  0.00    -0.352 N 
ATOM     26  C   UNL A   1      40.712  24.887  26.549  1.00  0.00     0.251 C 
ATOM     27  H   UNL A   1      39.859  23.285  25.726  1.00  0.00     0.163 HD
ATOM     28  O   UNL A   1      41.757  24.750  25.917  1.00  0.00    -0.269 OA
BRANCH  26  29
ATOM     29  C   UNL A   1      40.606  25.901  27.611  1.00  0.00     0.039 A 
ATOM     30  C   UNL A   1      39.656  25.724  28.620  1.00  0.00     0.014 A 
ATOM     31  C   UNL A   1      41.414  27.041  27.589  1.00  0.00     0.014 A 
ATOM     32  C   UNL A   1      39.548  26.676  29.632  1.00  0.00     0.010 A 
ATOM     33  C   UNL A   1      41.363  27.943  28.643  1.00  0.00     0.010 A 
ATOM     34  C   UNL A   1      40.419  27.776  29.666  1.00  0.00    -0.014 A 
BRANCH  34  35
ATOM     35  C   UNL A   1      40.355  28.772  30.760  1.00  0.00     0.031 A 
ATOM     36  C   UNL A   1      41.257  28.636  31.955  1.00  0.00     0.074 A 
ATOM     37  C   UNL A   1      39.440  29.759  30.698  1.00  0.00     0.049 A 
ATOM     38  N   UNL A   1      41.308  29.372  33.035  1.00  0.00    -0.248 NA
ATOM     39  C   UNL A   1      42.208  27.511  31.950  1.00  0.00     0.031 C 
ATOM     40  C   UNL A   1      38.487  29.962  29.603  1.00  0.00     0.029 A 
ATOM     41  N   UNL A   1      39.160  30.774  31.575  1.00  0.00    -0.354 N 
ATOM     42  C   UNL A   1      42.283  28.793  33.839  1.00  0.00     0.074 A 
ATOM     43  C   UNL A   1      42.755  27.612  33.153  1.00  0.00     0.031 C 
ATOM     44  C   UNL A   1      37.751  31.055  29.859  1.00  0.00     0.029 A 
ATOM     45  C   UNL A   1      38.145  31.600  31.154  1.00  0.00     0.049 A 
ATOM     46  H   UNL A   1      39.640  30.900  32.425  1.00  0.00     0.167 HD
ATOM     47  C   UNL A   1      42.755  29.221  35.034  1.00  0.00     0.031 A 
ATOM     48  C   UNL A   1      37.587  32.671  31.749  1.00  0.00     0.031 A 
ATOM     49  C   UNL A   1      42.279  30.400  35.706  1.00  0.00     0.049 A 
ATOM     50  C   UNL A   1      38.115  33.114  33.085  1.00  0.00     0.074 A 
ATOM     51  C   UNL A   1      42.721  30.949  36.897  1.00  0.00     0.029 A 
ATOM     52  N   UNL A   1      41.250  31.211  35.248  1.00  0.00    -0.354 N 
ATOM     53  N   UNL A   1      39.081  32.591  33.805  1.00  0.00    -0.248 NA
ATOM     54  C   UNL A   1      37.489  34.298  33.685  1.00  0.00     0.031 C 
ATOM     55  C   UNL A   1      41.920  32.058  37.188  1.00  0.00     0.029 A 
ATOM     56  C   UNL A   1      41.026  32.241  36.145  1.00  0.00     0.049 A 
ATOM     57  H   UNL A   1      40.753  31.073  34.409  1.00  0.00     0.167 HD
ATOM     58  C   UNL A   1      39.197  33.400  34.928  1.00  0.00     0.074 A 
ATOM     59  C   UNL A   1      38.215  34.456  34.784  1.00  0.00     0.031 C 
ATOM     60  C   UNL A   1      40.040  33.282  35.984  1.00  0.00     0.031 A 
BRANCH  47  61
ATOM     61  C   UNL A   1      43.840  28.405  35.688  1.00  0.00    -0.014 A 
ATOM     62  C   UNL A   1      43.529  27.363  36.582  1.00  0.00     0.010 A 
ATOM     63  C   UNL A   1      45.189  28.658  35.379  1.00  0.00     0.010 A 
ATOM     64  C   UNL A   1      44.545  26.618  37.186  1.00  0.00     0.020 A 
ATOM     65  C   UNL A   1      46.208  27.894  35.956  1.00  0.00     0.020 A 
ATOM     66  C   UNL A   1      45.880  26.889  36.869  1.00  0.00     0.054 A 
BRANCH  66  67
ATOM     67  S   UNL A   1      47.176  25.888  37.649  1.00  0.00     0.124 S 
ATOM     68  O   UNL A   1      46.742  25.870  39.044  1.00  0.00    -0.237 OA
ATOM     69  O   UNL A   1      47.066  24.615  36.941  1.00  0.00    -0.237 OA
ATOM     70  O   UNL A   1      48.401  26.640  37.389  1.00  0.00    -0.744 OA
ENDBRANCH  66  67
ENDBRANCH  47  61
BRANCH  48  71
ATOM     71  C   UNL A   1      36.481  33.402  31.075  1.00  0.00    -0.014 A 
ATOM     72  C   UNL A   1      36.667  33.963  29.799  1.00  0.00     0.010 A 
ATOM     73  C   UNL A   1      35.224  33.524  31.697  1.00  0.00     0.010 A 
ATOM     74  C   UNL A   1      35.625  34.646  29.166  1.00  0.00     0.020 A 
ATOM     75  C   UNL A   1      34.171  34.178  31.055  1.00  0.00     0.020 A 
ATOM     76  C   UNL A   1      34.381  34.746  29.797  1.00  0.00     0.054 A 
BRANCH  76  77
ATOM     77  S   UNL A   1      33.029  35.591  28.932  1.00  0.00     0.124 S 
ATOM     78  O   UNL A   1      32.231  36.101  30.042  1.00  0.00    -0.237 OA
ATOM     79  O   UNL A   1      33.739  36.597  28.146  1.00  0.00    -0.237 OA
ATOM     80  O   UNL A   1      32.405  34.527  28.149  1.00  0.00    -0.744 OA
ENDBRANCH  76  77
ENDBRANCH  48  71
BRANCH  60  81
ATOM     81  C   UNL A   1      39.966  34.343  37.049  1.00  0.00    -0.014 A 
ATOM     82  C   UNL A   1      40.697  35.540  36.943  1.00  0.00     0.010 A 
ATOM     83  C   UNL A   1      39.104  34.161  38.147  1.00  0.00     0.010 A 
ATOM     84  C   UNL A   1      40.593  36.520  37.934  1.00  0.00     0.020 A 
ATOM     85  C   UNL A   1      38.973  35.152  39.121  1.00  0.00     0.020 A 
ATOM     86  C   UNL A   1      39.729  36.320  39.015  1.00  0.00     0.054 A 
BRANCH  86  87
ATOM     87  S   UNL A   1      39.579  37.628  40.262  1.00  0.00     0.124 S 
ATOM     88  O   UNL A   1      38.266  38.188  39.958  1.00  0.00    -0.237 OA
ATOM     89  O   UNL A   1      39.672  36.886  41.516  1.00  0.00    -0.237 OA
ATOM     90  O   UNL A   1      40.711  38.508  39.980  1.00  0.00    -0.744 OA
ENDBRANCH  86  87
ENDBRANCH  60  81
ENDBRANCH  34  35
ENDBRANCH  26  29
ENDBRANCH  24  25
ENDBRANCH  23  24
ENDBRANCH   1  23
TORSDOF 18
ENDMDL
