MODEL 1
REMARK VINA RESULT:     -12.1      0.000      0.000
REMARK SMILES C[C@H](C1CC1)n1c(SCC(=O)NCCCNC(=O)c2ccc(-c3c4nc(c(-c5ccc(S(=O)(=O)[O-])cc5)c5ccc([nH]5)c(-c5ccc(S(=O)(=O)[O-])cc5)c5nc(c(-c6ccc(S(=O)(=O)[O-])cc6)c6ccc3[nH]6)C=C5)C=C4)cc2)nc2cc(Cl)c(Cl)cc21
REMARK SMILES IDX 13 1 12 2 10 3 11 4 9 6 8 7 7 8 6 9 87 10 79 11 80 12 86 13
REMARK SMILES IDX 81 14 84 15 82 16 85 17 83 18 2 19 1 20 3 21 4 22 5 23 14 24
REMARK SMILES IDX 15 25 16 26 17 27 18 29 19 30 20 31 78 32 21 33 77 34 22 35
REMARK SMILES IDX 23 36 24 37 71 38 25 39 76 40 70 41 72 42 26 43 75 44 69 45
REMARK SMILES IDX 68 46 27 48 57 49 38 50 56 51 39 52 42 53 55 54 73 55 40 56
REMARK SMILES IDX 41 57 54 59 74 60 43 61 28 62 29 63 37 64 30 65 36 66 31 67
REMARK SMILES IDX 32 68 33 69 34 70 35 71 58 72 59 73 67 74 60 75 66 76 61 77
REMARK SMILES IDX 62 78 63 79 64 80 65 81 44 82 45 83 53 84 46 85 52 86 47 87
REMARK SMILES IDX 48 88 49 89 50 90 51 91
REMARK H PARENT 12 5 16 28 72 47 42 58
REMARK Flexibility Score: inf
ROOT
ATOM      1  C   UNL A   1      39.816  21.368  26.178  1.00  0.00     0.117 C 
ENDROOT
BRANCH   1   2
ATOM      2  N   UNL A   1      39.185  22.675  26.135  1.00  0.00    -0.355 N 
ATOM      3  C   UNL A   1      37.925  23.010  25.752  1.00  0.00     0.230 C 
ATOM      4  O   UNL A   1      37.507  24.121  26.094  1.00  0.00    -0.274 OA
ATOM      5  H   UNL A   1      39.751  23.426  26.426  1.00  0.00     0.163 HD
BRANCH   3   6
ATOM      6  C   UNL A   1      37.020  22.055  25.002  1.00  0.00     0.178 C 
BRANCH   6   7
ATOM      7  S   UNL A   1      36.282  22.680  23.508  1.00  0.00    -0.078 SA
BRANCH   7   8
ATOM      8  C   UNL A   1      34.801  23.557  23.685  1.00  0.00     0.169 A 
ATOM      9  N   UNL A   1      33.650  23.338  24.420  1.00  0.00    -0.316 N 
ATOM     10  C   UNL A   1      32.746  24.345  24.078  1.00  0.00     0.071 A 
ATOM     11  N   UNL A   1      34.675  24.640  22.943  1.00  0.00    -0.222 NA
ATOM     12  C   UNL A   1      33.434  25.140  23.172  1.00  0.00     0.091 A 
ATOM     13  C   UNL A   1      31.435  24.654  24.468  1.00  0.00     0.050 A 
ATOM     14  C   UNL A   1      32.830  26.283  22.628  1.00  0.00     0.052 A 
ATOM     15  C   UNL A   1      30.839  25.805  23.930  1.00  0.00     0.061 A 
ATOM     16  C   UNL A   1      31.528  26.612  23.021  1.00  0.00     0.061 A 
ATOM     17  Cl  UNL A   1      29.228  26.167  24.454  1.00  0.00    -0.083 Cl
ATOM     18  Cl  UNL A   1      30.825  28.040  22.344  1.00  0.00    -0.083 Cl
BRANCH   9  19
ATOM     19  C   UNL A   1      33.399  22.352  25.473  1.00  0.00     0.090 C 
ATOM     20  C   UNL A   1      34.160  22.622  26.773  1.00  0.00     0.032 C 
BRANCH  19  21
ATOM     21  C   UNL A   1      33.510  20.951  24.902  1.00  0.00     0.012 C 
ATOM     22  C   UNL A   1      32.520  19.833  25.130  1.00  0.00     0.006 C 
ATOM     23  C   UNL A   1      32.635  20.465  23.771  1.00  0.00     0.006 C 
ENDBRANCH  19  21
ENDBRANCH   9  19
ENDBRANCH   7   8
ENDBRANCH   6   7
ENDBRANCH   3   6
ENDBRANCH   1   2
BRANCH   1  24
ATOM     24  C   UNL A   1      40.795  21.192  27.337  1.00  0.00     0.042 C 
BRANCH  24  25
ATOM     25  C   UNL A   1      42.263  21.009  26.943  1.00  0.00     0.118 C 
BRANCH  25  26
ATOM     26  N   UNL A   1      42.657  21.648  25.702  1.00  0.00    -0.352 N 
ATOM     27  C   UNL A   1      42.947  22.924  25.303  1.00  0.00     0.251 C 
ATOM     28  H   UNL A   1      42.735  21.003  24.963  1.00  0.00     0.163 HD
ATOM     29  O   UNL A   1      43.421  23.019  24.166  1.00  0.00    -0.269 OA
BRANCH  27  30
ATOM     30  C   UNL A   1      42.702  24.171  26.082  1.00  0.00     0.039 A 
ATOM     31  C   UNL A   1      43.225  24.470  27.338  1.00  0.00     0.014 A 
ATOM     32  C   UNL A   1      41.826  25.105  25.488  1.00  0.00     0.014 A 
ATOM     33  C   UNL A   1      42.833  25.635  28.005  1.00  0.00     0.010 A 
ATOM     34  C   UNL A   1      41.441  26.274  26.146  1.00  0.00     0.010 A 
ATOM     35  C   UNL A   1      41.922  26.529  27.424  1.00  0.00    -0.014 A 
BRANCH  35  36
ATOM     36  C   UNL A   1      41.612  27.770  28.140  1.00  0.00     0.031 A 
ATOM     37  C   UNL A   1      42.622  28.857  28.001  1.00  0.00     0.074 A 
ATOM     38  C   UNL A   1      40.471  28.043  28.808  1.00  0.00     0.049 A 
ATOM     39  N   UNL A   1      43.370  29.361  28.927  1.00  0.00    -0.248 NA
ATOM     40  C   UNL A   1      42.883  29.390  26.657  1.00  0.00     0.031 C 
ATOM     41  C   UNL A   1      39.230  27.267  28.843  1.00  0.00     0.029 A 
ATOM     42  N   UNL A   1      40.159  29.156  29.539  1.00  0.00    -0.354 N 
ATOM     43  C   UNL A   1      44.081  30.398  28.330  1.00  0.00     0.074 A 
ATOM     44  C   UNL A   1      43.835  30.289  26.912  1.00  0.00     0.031 C 
ATOM     45  C   UNL A   1      38.242  28.031  29.364  1.00  0.00     0.029 A 
ATOM     46  C   UNL A   1      38.807  29.287  29.831  1.00  0.00     0.049 A 
ATOM     47  H   UNL A   1      40.834  29.808  29.834  1.00  0.00     0.167 HD
ATOM     48  C   UNL A   1      44.685  31.379  29.059  1.00  0.00     0.031 A 
ATOM     49  C   UNL A   1      38.191  30.372  30.366  1.00  0.00     0.031 A 
ATOM     50  C   UNL A   1      44.814  31.020  30.447  1.00  0.00     0.049 A 
ATOM     51  C   UNL A   1      39.214  31.157  31.095  1.00  0.00     0.074 A 
ATOM     52  C   UNL A   1      45.409  29.972  31.124  1.00  0.00     0.029 A 
ATOM     53  N   UNL A   1      43.967  31.617  31.349  1.00  0.00    -0.354 N 
ATOM     54  N   UNL A   1      39.794  30.753  32.190  1.00  0.00    -0.248 NA
ATOM     55  C   UNL A   1      39.874  32.252  30.405  1.00  0.00     0.031 C 
ATOM     56  C   UNL A   1      44.529  29.692  32.209  1.00  0.00     0.029 A 
ATOM     57  C   UNL A   1      43.489  30.622  32.165  1.00  0.00     0.049 A 
ATOM     58  H   UNL A   1      43.745  32.575  31.401  1.00  0.00     0.167 HD
ATOM     59  C   UNL A   1      41.092  31.227  32.094  1.00  0.00     0.074 A 
ATOM     60  C   UNL A   1      41.048  32.237  31.039  1.00  0.00     0.031 C 
ATOM     61  C   UNL A   1      42.135  30.569  32.680  1.00  0.00     0.031 A 
BRANCH  48  62
ATOM     62  C   UNL A   1      44.888  32.792  28.573  1.00  0.00    -0.014 A 
ATOM     63  C   UNL A   1      43.837  33.586  28.072  1.00  0.00     0.010 A 
ATOM     64  C   UNL A   1      46.108  33.447  28.842  1.00  0.00     0.010 A 
ATOM     65  C   UNL A   1      43.989  34.953  27.831  1.00  0.00     0.020 A 
ATOM     66  C   UNL A   1      46.257  34.829  28.651  1.00  0.00     0.020 A 
ATOM     67  C   UNL A   1      45.196  35.571  28.138  1.00  0.00     0.054 A 
BRANCH  67  68
ATOM     68  S   UNL A   1      45.314  37.364  27.927  1.00  0.00     0.124 S 
ATOM     69  O   UNL A   1      44.033  37.676  27.297  1.00  0.00    -0.237 OA
ATOM     70  O   UNL A   1      45.472  37.832  29.301  1.00  0.00    -0.237 OA
ATOM     71  O   UNL A   1      46.487  37.532  27.074  1.00  0.00    -0.744 OA
ENDBRANCH  67  68
ENDBRANCH  48  62
BRANCH  49  72
ATOM     72  C   UNL A   1      36.890  30.970  29.959  1.00  0.00    -0.014 A 
ATOM     73  C   UNL A   1      36.675  31.353  28.620  1.00  0.00     0.010 A 
ATOM     74  C   UNL A   1      36.004  31.470  30.935  1.00  0.00     0.010 A 
ATOM     75  C   UNL A   1      35.691  32.287  28.282  1.00  0.00     0.020 A 
ATOM     76  C   UNL A   1      35.020  32.416  30.604  1.00  0.00     0.020 A 
ATOM     77  C   UNL A   1      34.905  32.853  29.283  1.00  0.00     0.054 A 
BRANCH  77  78
ATOM     78  S   UNL A   1      33.822  34.242  28.845  1.00  0.00     0.124 S 
ATOM     79  O   UNL A   1      33.228  34.578  30.140  1.00  0.00    -0.237 OA
ATOM     80  O   UNL A   1      34.773  35.229  28.325  1.00  0.00    -0.237 OA
ATOM     81  O   UNL A   1      32.911  33.682  27.863  1.00  0.00    -0.744 OA
ENDBRANCH  77  78
ENDBRANCH  49  72
BRANCH  61  82
ATOM     82  C   UNL A   1      41.861  29.492  33.711  1.00  0.00    -0.014 A 
ATOM     83  C   UNL A   1      42.099  29.812  35.062  1.00  0.00     0.010 A 
ATOM     84  C   UNL A   1      41.574  28.151  33.388  1.00  0.00     0.010 A 
ATOM     85  C   UNL A   1      42.094  28.826  36.051  1.00  0.00     0.020 A 
ATOM     86  C   UNL A   1      41.536  27.160  34.381  1.00  0.00     0.020 A 
ATOM     87  C   UNL A   1      41.824  27.502  35.703  1.00  0.00     0.054 A 
BRANCH  87  88
ATOM     88  S   UNL A   1      41.893  26.242  37.006  1.00  0.00     0.124 S 
ATOM     89  O   UNL A   1      42.913  26.780  37.903  1.00  0.00    -0.237 OA
ATOM     90  O   UNL A   1      40.531  26.251  37.536  1.00  0.00    -0.237 OA
ATOM     91  O   UNL A   1      42.272  25.020  36.299  1.00  0.00    -0.744 OA
ENDBRANCH  87  88
ENDBRANCH  61  82
ENDBRANCH  35  36
ENDBRANCH  27  30
ENDBRANCH  25  26
ENDBRANCH  24  25
ENDBRANCH   1  24
TORSDOF 17
ENDMDL
MODEL 2
REMARK VINA RESULT:     -11.8      2.530      3.964
REMARK SMILES C[C@H](C1CC1)n1c(SCC(=O)NCCCNC(=O)c2ccc(-c3c4nc(c(-c5ccc(S(=O)(=O)[O-])cc5)c5ccc([nH]5)c(-c5ccc(S(=O)(=O)[O-])cc5)c5nc(c(-c6ccc(S(=O)(=O)[O-])cc6)c6ccc3[nH]6)C=C5)C=C4)cc2)nc2cc(Cl)c(Cl)cc21
REMARK SMILES IDX 13 1 12 2 10 3 11 4 9 6 8 7 7 8 6 9 87 10 79 11 80 12 86 13
REMARK SMILES IDX 81 14 84 15 82 16 85 17 83 18 2 19 1 20 3 21 4 22 5 23 14 24
REMARK SMILES IDX 15 25 16 26 17 27 18 29 19 30 20 31 78 32 21 33 77 34 22 35
REMARK SMILES IDX 23 36 24 37 71 38 25 39 76 40 70 41 72 42 26 43 75 44 69 45
REMARK SMILES IDX 68 46 27 48 57 49 38 50 56 51 39 52 42 53 55 54 73 55 40 56
REMARK SMILES IDX 41 57 54 59 74 60 43 61 28 62 29 63 37 64 30 65 36 66 31 67
REMARK SMILES IDX 32 68 33 69 34 70 35 71 58 72 59 73 67 74 60 75 66 76 61 77
REMARK SMILES IDX 62 78 63 79 64 80 65 81 44 82 45 83 53 84 46 85 52 86 47 87
REMARK SMILES IDX 48 88 49 89 50 90 51 91
REMARK H PARENT 12 5 16 28 72 47 42 58
REMARK Flexibility Score: inf
ROOT
ATOM      1  C   UNL A   1      34.579  21.958  25.289  1.00  0.00     0.117 C 
ENDROOT
BRANCH   1   2
ATOM      2  N   UNL A   1      34.466  22.199  23.861  1.00  0.00    -0.355 N 
ATOM      3  C   UNL A   1      33.655  23.064  23.196  1.00  0.00     0.230 C 
ATOM      4  O   UNL A   1      33.949  23.327  22.025  1.00  0.00    -0.274 OA
ATOM      5  H   UNL A   1      35.063  21.659  23.294  1.00  0.00     0.163 HD
BRANCH   3   6
ATOM      6  C   UNL A   1      32.478  23.749  23.857  1.00  0.00     0.178 C 
BRANCH   6   7
ATOM      7  S   UNL A   1      31.882  25.228  23.065  1.00  0.00    -0.078 SA
BRANCH   7   8
ATOM      8  C   UNL A   1      31.942  26.684  23.999  1.00  0.00     0.169 A 
ATOM      9  N   UNL A   1      31.057  27.732  24.181  1.00  0.00    -0.316 N 
ATOM     10  C   UNL A   1      31.703  28.680  24.975  1.00  0.00     0.071 A 
ATOM     11  N   UNL A   1      33.067  26.912  24.648  1.00  0.00    -0.222 NA
ATOM     12  C   UNL A   1      32.941  28.120  25.254  1.00  0.00     0.091 A 
ATOM     13  C   UNL A   1      31.341  29.936  25.486  1.00  0.00     0.050 A 
ATOM     14  C   UNL A   1      33.862  28.798  26.067  1.00  0.00     0.052 A 
ATOM     15  C   UNL A   1      32.261  30.605  26.307  1.00  0.00     0.061 A 
ATOM     16  C   UNL A   1      33.507  30.044  26.597  1.00  0.00     0.061 A 
ATOM     17  Cl  UNL A   1      31.768  32.141  26.939  1.00  0.00    -0.083 Cl
ATOM     18  Cl  UNL A   1      34.660  30.840  27.609  1.00  0.00    -0.083 Cl
BRANCH   9  19
ATOM     19  C   UNL A   1      29.655  27.839  23.775  1.00  0.00     0.090 C 
ATOM     20  C   UNL A   1      28.838  26.566  24.013  1.00  0.00     0.032 C 
BRANCH  19  21
ATOM     21  C   UNL A   1      29.566  28.450  22.390  1.00  0.00     0.012 C 
ATOM     22  C   UNL A   1      28.868  29.747  22.049  1.00  0.00     0.006 C 
ATOM     23  C   UNL A   1      30.367  29.666  21.988  1.00  0.00     0.006 C 
ENDBRANCH  19  21
ENDBRANCH   9  19
ENDBRANCH   7   8
ENDBRANCH   6   7
ENDBRANCH   3   6
ENDBRANCH   1   2
BRANCH   1  24
ATOM     24  C   UNL A   1      35.840  22.547  25.917  1.00  0.00     0.042 C 
BRANCH  24  25
ATOM     25  C   UNL A   1      37.057  22.644  24.994  1.00  0.00     0.118 C 
BRANCH  25  26
ATOM     26  N   UNL A   1      38.233  21.919  25.440  1.00  0.00    -0.352 N 
ATOM     27  C   UNL A   1      39.263  22.158  26.306  1.00  0.00     0.251 C 
ATOM     28  H   UNL A   1      38.306  21.036  25.012  1.00  0.00     0.163 HD
ATOM     29  O   UNL A   1      39.987  21.182  26.537  1.00  0.00    -0.269 OA
BRANCH  27  30
ATOM     30  C   UNL A   1      39.603  23.464  26.938  1.00  0.00     0.039 A 
ATOM     31  C   UNL A   1      38.848  24.633  26.862  1.00  0.00     0.014 A 
ATOM     32  C   UNL A   1      40.826  23.508  27.642  1.00  0.00     0.014 A 
ATOM     33  C   UNL A   1      39.334  25.821  27.417  1.00  0.00     0.010 A 
ATOM     34  C   UNL A   1      41.308  24.690  28.206  1.00  0.00     0.010 A 
ATOM     35  C   UNL A   1      40.574  25.861  28.069  1.00  0.00    -0.014 A 
BRANCH  35  36
ATOM     36  C   UNL A   1      40.990  27.119  28.698  1.00  0.00     0.031 A 
ATOM     37  C   UNL A   1      42.202  27.756  28.111  1.00  0.00     0.074 A 
ATOM     38  C   UNL A   1      40.325  27.786  29.666  1.00  0.00     0.049 A 
ATOM     39  N   UNL A   1      43.351  27.933  28.676  1.00  0.00    -0.248 NA
ATOM     40  C   UNL A   1      42.151  28.174  26.703  1.00  0.00     0.031 C 
ATOM     41  C   UNL A   1      38.986  27.524  30.195  1.00  0.00     0.029 A 
ATOM     42  N   UNL A   1      40.700  28.924  30.325  1.00  0.00    -0.354 N 
ATOM     43  C   UNL A   1      44.128  28.642  27.763  1.00  0.00     0.074 A 
ATOM     44  C   UNL A   1      43.384  28.652  26.527  1.00  0.00     0.031 C 
ATOM     45  C   UNL A   1      38.577  28.593  30.919  1.00  0.00     0.029 A 
ATOM     46  C   UNL A   1      39.672  29.543  31.026  1.00  0.00     0.049 A 
ATOM     47  H   UNL A   1      41.619  29.275  30.305  1.00  0.00     0.167 HD
ATOM     48  C   UNL A   1      45.252  29.318  28.136  1.00  0.00     0.031 A 
ATOM     49  C   UNL A   1      39.705  30.771  31.603  1.00  0.00     0.031 A 
ATOM     50  C   UNL A   1      45.719  28.917  29.437  1.00  0.00     0.049 A 
ATOM     51  C   UNL A   1      41.124  31.111  31.861  1.00  0.00     0.074 A 
ATOM     52  C   UNL A   1      46.101  27.714  29.999  1.00  0.00     0.029 A 
ATOM     53  N   UNL A   1      45.506  29.772  30.491  1.00  0.00    -0.354 N 
ATOM     54  N   UNL A   1      41.865  30.505  32.745  1.00  0.00    -0.248 NA
ATOM     55  C   UNL A   1      41.844  31.893  30.871  1.00  0.00     0.031 C 
ATOM     56  C   UNL A   1      45.614  27.764  31.336  1.00  0.00     0.029 A 
ATOM     57  C   UNL A   1      45.022  29.014  31.528  1.00  0.00     0.049 A 
ATOM     58  H   UNL A   1      45.667  30.744  30.501  1.00  0.00     0.167 HD
ATOM     59  C   UNL A   1      43.127  30.466  32.175  1.00  0.00     0.074 A 
ATOM     60  C   UNL A   1      43.079  31.434  31.083  1.00  0.00     0.031 C 
ATOM     61  C   UNL A   1      44.005  29.459  32.460  1.00  0.00     0.031 A 
BRANCH  48  62
ATOM     62  C   UNL A   1      45.757  30.562  27.450  1.00  0.00    -0.014 A 
ATOM     63  C   UNL A   1      44.922  31.651  27.130  1.00  0.00     0.010 A 
ATOM     64  C   UNL A   1      47.147  30.770  27.331  1.00  0.00     0.010 A 
ATOM     65  C   UNL A   1      45.433  32.877  26.698  1.00  0.00     0.020 A 
ATOM     66  C   UNL A   1      47.674  32.012  26.946  1.00  0.00     0.020 A 
ATOM     67  C   UNL A   1      46.810  33.056  26.623  1.00  0.00     0.054 A 
BRANCH  67  68
ATOM     68  S   UNL A   1      47.435  34.694  26.177  1.00  0.00     0.124 S 
ATOM     69  O   UNL A   1      46.196  35.445  25.988  1.00  0.00    -0.237 OA
ATOM     70  O   UNL A   1      48.222  35.059  27.351  1.00  0.00    -0.237 OA
ATOM     71  O   UNL A   1      48.207  34.447  24.963  1.00  0.00    -0.744 OA
ENDBRANCH  67  68
ENDBRANCH  48  62
BRANCH  49  72
ATOM     72  C   UNL A   1      38.644  31.815  31.576  1.00  0.00    -0.014 A 
ATOM     73  C   UNL A   1      37.926  32.125  32.748  1.00  0.00     0.010 A 
ATOM     74  C   UNL A   1      38.114  32.255  30.345  1.00  0.00     0.010 A 
ATOM     75  C   UNL A   1      36.674  32.745  32.688  1.00  0.00     0.020 A 
ATOM     76  C   UNL A   1      36.853  32.869  30.278  1.00  0.00     0.020 A 
ATOM     77  C   UNL A   1      36.122  33.065  31.450  1.00  0.00     0.054 A 
BRANCH  77  78
ATOM     78  S   UNL A   1      34.396  33.628  31.398  1.00  0.00     0.124 S 
ATOM     79  O   UNL A   1      33.778  32.793  32.430  1.00  0.00    -0.237 OA
ATOM     80  O   UNL A   1      34.519  35.047  31.741  1.00  0.00    -0.237 OA
ATOM     81  O   UNL A   1      33.979  33.353  30.034  1.00  0.00    -0.744 OA
ENDBRANCH  77  78
ENDBRANCH  49  72
BRANCH  61  82
ATOM     82  C   UNL A   1      43.745  28.546  33.642  1.00  0.00    -0.014 A 
ATOM     83  C   UNL A   1      42.739  27.572  33.499  1.00  0.00     0.010 A 
ATOM     84  C   UNL A   1      44.305  28.740  34.920  1.00  0.00     0.010 A 
ATOM     85  C   UNL A   1      42.275  26.844  34.596  1.00  0.00     0.020 A 
ATOM     86  C   UNL A   1      43.866  27.989  36.022  1.00  0.00     0.020 A 
ATOM     87  C   UNL A   1      42.833  27.065  35.857  1.00  0.00     0.054 A 
BRANCH  87  88
ATOM     88  S   UNL A   1      42.157  26.148  37.267  1.00  0.00     0.124 S 
ATOM     89  O   UNL A   1      43.130  26.436  38.319  1.00  0.00    -0.237 OA
ATOM     90  O   UNL A   1      40.842  26.759  37.450  1.00  0.00    -0.237 OA
ATOM     91  O   UNL A   1      42.135  24.760  36.810  1.00  0.00    -0.744 OA
ENDBRANCH  87  88
ENDBRANCH  61  82
ENDBRANCH  35  36
ENDBRANCH  27  30
ENDBRANCH  25  26
ENDBRANCH  24  25
ENDBRANCH   1  24
TORSDOF 17
ENDMDL
MODEL 3
REMARK VINA RESULT:     -11.8      3.011      9.532
REMARK SMILES C[C@H](C1CC1)n1c(SCC(=O)NCCCNC(=O)c2ccc(-c3c4nc(c(-c5ccc(S(=O)(=O)[O-])cc5)c5ccc([nH]5)c(-c5ccc(S(=O)(=O)[O-])cc5)c5nc(c(-c6ccc(S(=O)(=O)[O-])cc6)c6ccc3[nH]6)C=C5)C=C4)cc2)nc2cc(Cl)c(Cl)cc21
REMARK SMILES IDX 13 1 12 2 10 3 11 4 9 6 8 7 7 8 6 9 87 10 79 11 80 12 86 13
REMARK SMILES IDX 81 14 84 15 82 16 85 17 83 18 2 19 1 20 3 21 4 22 5 23 14 24
REMARK SMILES IDX 15 25 16 26 17 27 18 29 19 30 20 31 78 32 21 33 77 34 22 35
REMARK SMILES IDX 23 36 24 37 71 38 25 39 76 40 70 41 72 42 26 43 75 44 69 45
REMARK SMILES IDX 68 46 27 48 57 49 38 50 56 51 39 52 42 53 55 54 73 55 40 56
REMARK SMILES IDX 41 57 54 59 74 60 43 61 28 62 29 63 37 64 30 65 36 66 31 67
REMARK SMILES IDX 32 68 33 69 34 70 35 71 58 72 59 73 67 74 60 75 66 76 61 77
REMARK SMILES IDX 62 78 63 79 64 80 65 81 44 82 45 83 53 84 46 85 52 86 47 87
REMARK SMILES IDX 48 88 49 89 50 90 51 91
REMARK H PARENT 12 5 16 28 72 47 42 58
REMARK Flexibility Score: inf
ROOT
ATOM      1  C   UNL A   1      32.132  29.554  25.264  1.00  0.00     0.117 C 
ENDROOT
BRANCH   1   2
ATOM      2  N   UNL A   1      33.237  29.541  24.323  1.00  0.00    -0.355 N 
ATOM      3  C   UNL A   1      33.662  28.538  23.508  1.00  0.00     0.230 C 
ATOM      4  O   UNL A   1      34.409  28.848  22.574  1.00  0.00    -0.274 OA
ATOM      5  H   UNL A   1      33.753  30.377  24.266  1.00  0.00     0.163 HD
BRANCH   3   6
ATOM      6  C   UNL A   1      33.195  27.107  23.666  1.00  0.00     0.178 C 
BRANCH   6   7
ATOM      7  S   UNL A   1      33.741  26.259  25.134  1.00  0.00    -0.078 SA
BRANCH   7   8
ATOM      8  C   UNL A   1      34.101  24.575  24.967  1.00  0.00     0.169 A 
ATOM      9  N   UNL A   1      33.315  23.446  24.819  1.00  0.00    -0.316 N 
ATOM     10  C   UNL A   1      34.172  22.345  24.837  1.00  0.00     0.071 A 
ATOM     11  N   UNL A   1      35.375  24.243  25.041  1.00  0.00    -0.222 NA
ATOM     12  C   UNL A   1      35.442  22.890  24.958  1.00  0.00     0.091 A 
ATOM     13  C   UNL A   1      33.981  20.959  24.742  1.00  0.00     0.050 A 
ATOM     14  C   UNL A   1      36.572  22.060  24.981  1.00  0.00     0.052 A 
ATOM     15  C   UNL A   1      35.116  20.133  24.753  1.00  0.00     0.061 A 
ATOM     16  C   UNL A   1      36.398  20.676  24.870  1.00  0.00     0.061 A 
ATOM     17  Cl  UNL A   1      34.842  18.429  24.610  1.00  0.00    -0.083 Cl
ATOM     18  Cl  UNL A   1      37.817  19.688  24.882  1.00  0.00    -0.083 Cl
BRANCH   9  19
ATOM     19  C   UNL A   1      31.879  23.349  24.552  1.00  0.00     0.090 C 
ATOM     20  C   UNL A   1      31.450  23.964  23.218  1.00  0.00     0.032 C 
BRANCH  19  21
ATOM     21  C   UNL A   1      31.098  23.780  25.778  1.00  0.00     0.012 C 
ATOM     22  C   UNL A   1      30.244  22.873  26.635  1.00  0.00     0.006 C 
ATOM     23  C   UNL A   1      31.531  23.426  27.181  1.00  0.00     0.006 C 
ENDBRANCH  19  21
ENDBRANCH   9  19
ENDBRANCH   7   8
ENDBRANCH   6   7
ENDBRANCH   3   6
ENDBRANCH   1   2
BRANCH   1  24
ATOM     24  C   UNL A   1      32.297  30.565  26.397  1.00  0.00     0.042 C 
BRANCH  24  25
ATOM     25  C   UNL A   1      33.670  30.585  27.072  1.00  0.00     0.118 C 
BRANCH  25  26
ATOM     26  N   UNL A   1      33.795  31.493  28.198  1.00  0.00    -0.352 N 
ATOM     27  C   UNL A   1      34.805  31.895  29.027  1.00  0.00     0.251 C 
ATOM     28  H   UNL A   1      32.940  31.927  28.419  1.00  0.00     0.163 HD
ATOM     29  O   UNL A   1      34.524  32.843  29.769  1.00  0.00    -0.269 OA
BRANCH  27  30
ATOM     30  C   UNL A   1      36.156  31.276  29.140  1.00  0.00     0.039 A 
ATOM     31  C   UNL A   1      37.362  31.959  29.286  1.00  0.00     0.014 A 
ATOM     32  C   UNL A   1      36.197  29.869  29.051  1.00  0.00     0.014 A 
ATOM     33  C   UNL A   1      38.573  31.259  29.278  1.00  0.00     0.010 A 
ATOM     34  C   UNL A   1      37.404  29.166  29.053  1.00  0.00     0.010 A 
ATOM     35  C   UNL A   1      38.601  29.865  29.137  1.00  0.00    -0.014 A 
BRANCH  35  36
ATOM     36  C   UNL A   1      39.897  29.183  29.215  1.00  0.00     0.031 A 
ATOM     37  C   UNL A   1      40.415  28.952  30.592  1.00  0.00     0.074 A 
ATOM     38  C   UNL A   1      40.591  28.666  28.178  1.00  0.00     0.049 A 
ATOM     39  N   UNL A   1      41.469  29.467  31.135  1.00  0.00    -0.248 NA
ATOM     40  C   UNL A   1      39.622  28.106  31.496  1.00  0.00     0.031 C 
ATOM     41  C   UNL A   1      40.164  28.509  26.787  1.00  0.00     0.029 A 
ATOM     42  N   UNL A   1      41.826  28.078  28.190  1.00  0.00    -0.354 N 
ATOM     43  C   UNL A   1      41.581  28.885  32.395  1.00  0.00     0.074 A 
ATOM     44  C   UNL A   1      40.355  28.155  32.610  1.00  0.00     0.031 C 
ATOM     45  C   UNL A   1      41.021  27.675  26.151  1.00  0.00     0.029 A 
ATOM     46  C   UNL A   1      42.129  27.362  27.039  1.00  0.00     0.049 A 
ATOM     47  H   UNL A   1      42.447  28.156  28.950  1.00  0.00     0.167 HD
ATOM     48  C   UNL A   1      42.746  28.903  33.103  1.00  0.00     0.031 A 
ATOM     49  C   UNL A   1      43.184  26.529  26.852  1.00  0.00     0.031 A 
ATOM     50  C   UNL A   1      43.678  29.871  32.587  1.00  0.00     0.049 A 
ATOM     51  C   UNL A   1      44.240  26.917  27.816  1.00  0.00     0.074 A 
ATOM     52  C   UNL A   1      43.636  31.236  32.373  1.00  0.00     0.029 A 
ATOM     53  N   UNL A   1      44.752  29.411  31.864  1.00  0.00    -0.354 N 
ATOM     54  N   UNL A   1      44.910  28.032  27.748  1.00  0.00    -0.248 NA
ATOM     55  C   UNL A   1      44.309  26.222  29.091  1.00  0.00     0.031 C 
ATOM     56  C   UNL A   1      44.357  31.437  31.161  1.00  0.00     0.029 A 
ATOM     57  C   UNL A   1      44.846  30.198  30.744  1.00  0.00     0.049 A 
ATOM     58  H   UNL A   1      45.342  28.659  32.104  1.00  0.00     0.167 HD
ATOM     59  C   UNL A   1      45.115  28.399  29.068  1.00  0.00     0.074 A 
ATOM     60  C   UNL A   1      44.829  27.195  29.844  1.00  0.00     0.031 C 
ATOM     61  C   UNL A   1      45.226  29.710  29.433  1.00  0.00     0.031 A 
BRANCH  48  62
ATOM     62  C   UNL A   1      43.160  27.831  34.079  1.00  0.00    -0.014 A 
ATOM     63  C   UNL A   1      43.647  26.573  33.671  1.00  0.00     0.010 A 
ATOM     64  C   UNL A   1      43.304  28.157  35.444  1.00  0.00     0.010 A 
ATOM     65  C   UNL A   1      44.228  25.676  34.569  1.00  0.00     0.020 A 
ATOM     66  C   UNL A   1      43.931  27.284  36.346  1.00  0.00     0.020 A 
ATOM     67  C   UNL A   1      44.382  26.043  35.901  1.00  0.00     0.054 A 
BRANCH  67  68
ATOM     68  S   UNL A   1      45.250  24.904  37.006  1.00  0.00     0.124 S 
ATOM     69  O   UNL A   1      44.709  25.282  38.309  1.00  0.00    -0.237 OA
ATOM     70  O   UNL A   1      44.832  23.599  36.503  1.00  0.00    -0.237 OA
ATOM     71  O   UNL A   1      46.658  25.230  36.796  1.00  0.00    -0.744 OA
ENDBRANCH  67  68
ENDBRANCH  48  62
BRANCH  49  72
ATOM     72  C   UNL A   1      43.182  25.196  26.189  1.00  0.00    -0.014 A 
ATOM     73  C   UNL A   1      42.716  24.061  26.881  1.00  0.00     0.010 A 
ATOM     74  C   UNL A   1      43.942  24.987  25.019  1.00  0.00     0.010 A 
ATOM     75  C   UNL A   1      43.089  22.771  26.492  1.00  0.00     0.020 A 
ATOM     76  C   UNL A   1      44.329  23.694  24.629  1.00  0.00     0.020 A 
ATOM     77  C   UNL A   1      43.937  22.598  25.400  1.00  0.00     0.054 A 
BRANCH  77  78
ATOM     78  S   UNL A   1      44.604  20.940  25.083  1.00  0.00     0.124 S 
ATOM     79  O   UNL A   1      45.947  21.045  25.656  1.00  0.00    -0.237 OA
ATOM     80  O   UNL A   1      43.678  20.082  25.826  1.00  0.00    -0.237 OA
ATOM     81  O   UNL A   1      44.547  20.809  23.638  1.00  0.00    -0.744 OA
ENDBRANCH  77  78
ENDBRANCH  49  72
BRANCH  61  82
ATOM     82  C   UNL A   1      45.451  30.770  28.372  1.00  0.00    -0.014 A 
ATOM     83  C   UNL A   1      46.748  31.304  28.254  1.00  0.00     0.010 A 
ATOM     84  C   UNL A   1      44.412  31.382  27.643  1.00  0.00     0.010 A 
ATOM     85  C   UNL A   1      46.998  32.433  27.471  1.00  0.00     0.020 A 
ATOM     86  C   UNL A   1      44.661  32.498  26.828  1.00  0.00     0.020 A 
ATOM     87  C   UNL A   1      45.949  33.032  26.771  1.00  0.00     0.054 A 
BRANCH  87  88
ATOM     88  S   UNL A   1      46.302  34.534  25.819  1.00  0.00     0.124 S 
ATOM     89  O   UNL A   1      45.942  35.590  26.763  1.00  0.00    -0.237 OA
ATOM     90  O   UNL A   1      47.731  34.411  25.538  1.00  0.00    -0.237 OA
ATOM     91  O   UNL A   1      45.432  34.427  24.650  1.00  0.00    -0.744 OA
ENDBRANCH  87  88
ENDBRANCH  61  82
ENDBRANCH  35  36
ENDBRANCH  27  30
ENDBRANCH  25  26
ENDBRANCH  24  25
ENDBRANCH   1  24
TORSDOF 17
ENDMDL
