MODEL 1
REMARK VINA RESULT:     -12.8      0.000      0.000
REMARK SMILES Cc1ccc(C(=O)NCCCNC(=O)c2ccc(-c3c4nc(c(-c5ccc(S(=O)(=O)[O-])cc5)c5ccc([nH]5)c(-c5ccc(S(=O)(=O)[O-])cc5)c5nc(c(-c6ccc(S(=O)(=O)[O-])cc6)c6ccc3[nH]6)C=C5)C=C4)cc2)cc1NC(=O)C(=O)NC[C@@H](c1ccccc1)[NH+]1CC[NH+](C)CC1
REMARK SMILES IDX 9 1 8 2 6 3 7 4 5 6 1 7 2 8 3 9 76 10 4 11 75 12 77 13 78 14
REMARK SMILES IDX 79 16 80 17 81 18 82 19 83 21 84 22 91 23 92 24 97 25 93 27
REMARK SMILES IDX 96 28 94 29 95 30 85 32 86 33 90 34 87 35 89 36 88 37 10 38
REMARK SMILES IDX 11 39 12 40 13 41 14 43 15 44 16 45 74 46 17 47 73 48 18 49
REMARK SMILES IDX 19 50 20 51 67 52 21 53 72 54 66 55 68 56 22 57 71 58 65 59
REMARK SMILES IDX 64 60 23 62 53 63 34 64 52 65 35 66 38 67 51 68 69 69 36 70
REMARK SMILES IDX 37 71 50 73 70 74 39 75 24 76 25 77 33 78 26 79 32 80 27 81
REMARK SMILES IDX 28 82 29 83 30 84 31 85 54 86 55 87 63 88 56 89 62 90 57 91
REMARK SMILES IDX 58 92 59 93 60 94 61 95 40 96 41 97 49 98 42 99 48 100
REMARK SMILES IDX 43 101 44 102 45 103 46 104 47 105
REMARK H PARENT 8 5 77 15 82 20 91 26 94 31 12 42 68 61 38 72
REMARK Flexibility Score: inf
ROOT
ATOM      1  C   UNL A   1      31.805  31.789  27.057  1.00  0.00     0.118 C 
ENDROOT
BRANCH   1   2
ATOM      2  N   UNL A   1      32.870  30.745  27.053  1.00  0.00    -0.352 N 
ATOM      3  C   UNL A   1      32.891  29.562  26.319  1.00  0.00     0.251 C 
ATOM      4  O   UNL A   1      33.866  28.814  26.319  1.00  0.00    -0.269 OA
ATOM      5  H   UNL A   1      33.646  30.912  27.636  1.00  0.00     0.163 HD
BRANCH   3   6
ATOM      6  C   UNL A   1      31.640  29.127  25.628  1.00  0.00     0.041 A 
ATOM      7  C   UNL A   1      28.803  27.680  22.772  1.00  0.00     0.046 C 
ATOM      8  C   UNL A   1      29.833  28.111  23.782  1.00  0.00    -0.027 A 
ATOM      9  C   UNL A   1      30.114  29.497  23.824  1.00  0.00     0.006 A 
ATOM     10  C   UNL A   1      30.459  27.228  24.697  1.00  0.00     0.045 A 
ATOM     11  C   UNL A   1      31.069  29.997  24.700  1.00  0.00     0.014 A 
ATOM     12  C   UNL A   1      31.178  27.804  25.726  1.00  0.00     0.040 A 
BRANCH  10  13
ATOM     13  N   UNL A   1      30.381  25.828  24.490  1.00  0.00    -0.318 N 
ATOM     14  C   UNL A   1      30.783  24.650  25.105  1.00  0.00     0.313 C 
ATOM     15  H   UNL A   1      29.897  25.631  23.655  1.00  0.00     0.170 HD
ATOM     16  O   UNL A   1      30.503  23.593  24.531  1.00  0.00    -0.263 OA
BRANCH  14  17
ATOM     17  C   UNL A   1      31.576  24.509  26.404  1.00  0.00     0.309 C 
ATOM     18  O   UNL A   1      31.085  23.931  27.363  1.00  0.00    -0.264 OA
ATOM     19  N   UNL A   1      32.899  24.961  26.378  1.00  0.00    -0.341 N 
ATOM     20  H   UNL A   1      33.077  25.926  26.457  1.00  0.00     0.164 HD
BRANCH  19  21
ATOM     21  C   UNL A   1      34.034  24.036  26.236  1.00  0.00     0.186 C 
BRANCH  21  22
ATOM     22  C   UNL A   1      34.705  23.989  24.789  1.00  0.00     0.235 C 
BRANCH  22  23
ATOM     23  N   UNL A   1      36.177  24.078  24.645  1.00  0.00    -0.318 N 
ATOM     24  C   UNL A   1      36.730  23.451  23.443  1.00  0.00     0.325 C 
ATOM     25  C   UNL A   1      36.992  23.724  25.808  1.00  0.00     0.325 C 
ATOM     26  H   UNL A   1      36.260  25.091  24.547  1.00  0.00     0.349 HD
ATOM     27  C   UNL A   1      36.990  21.935  23.569  1.00  0.00     0.324 C 
ATOM     28  C   UNL A   1      37.180  22.214  26.011  1.00  0.00     0.324 C 
ATOM     29  N   UNL A   1      37.654  21.495  24.815  1.00  0.00    -0.328 N 
ATOM     30  C   UNL A   1      37.459  20.057  24.997  1.00  0.00     0.333 C 
ATOM     31  H   UNL A   1      38.646  21.713  24.711  1.00  0.00     0.348 HD
ENDBRANCH  22  23
BRANCH  22  32
ATOM     32  C   UNL A   1      34.015  24.905  23.757  1.00  0.00     0.011 A 
ATOM     33  C   UNL A   1      34.103  26.303  23.919  1.00  0.00     0.010 A 
ATOM     34  C   UNL A   1      33.321  24.421  22.638  1.00  0.00     0.010 A 
ATOM     35  C   UNL A   1      33.570  27.179  22.968  1.00  0.00     0.001 A 
ATOM     36  C   UNL A   1      32.807  25.297  21.676  1.00  0.00     0.001 A 
ATOM     37  C   UNL A   1      32.939  26.674  21.835  1.00  0.00     0.000 A 
ENDBRANCH  22  32
ENDBRANCH  21  22
ENDBRANCH  19  21
ENDBRANCH  14  17
ENDBRANCH  10  13
ENDBRANCH   3   6
ENDBRANCH   1   2
BRANCH   1  38
ATOM     38  C   UNL A   1      32.146  33.300  27.222  1.00  0.00     0.042 C 
BRANCH  38  39
ATOM     39  C   UNL A   1      33.260  33.832  28.300  1.00  0.00     0.118 C 
BRANCH  39  40
ATOM     40  N   UNL A   1      34.148  33.124  29.546  1.00  0.00    -0.352 N 
ATOM     41  C   UNL A   1      35.322  32.261  29.955  1.00  0.00     0.251 C 
ATOM     42  H   UNL A   1      33.704  33.392  30.383  1.00  0.00     0.163 HD
ATOM     43  O   UNL A   1      36.149  32.918  30.624  1.00  0.00    -0.269 OA
BRANCH  41  44
ATOM     44  C   UNL A   1      35.861  30.713  29.739  1.00  0.00     0.039 A 
ATOM     45  C   UNL A   1      36.312  29.914  30.828  1.00  0.00     0.014 A 
ATOM     46  C   UNL A   1      36.082  30.045  28.554  1.00  0.00     0.014 A 
ATOM     47  C   UNL A   1      37.565  29.222  30.714  1.00  0.00     0.010 A 
ATOM     48  C   UNL A   1      37.320  29.357  28.410  1.00  0.00     0.010 A 
ATOM     49  C   UNL A   1      38.211  29.200  29.486  1.00  0.00    -0.014 A 
BRANCH  49  50
ATOM     50  C   UNL A   1      39.724  29.128  29.309  1.00  0.00     0.031 A 
ATOM     51  C   UNL A   1      40.306  27.908  28.796  1.00  0.00     0.074 A 
ATOM     52  C   UNL A   1      40.700  30.086  29.434  1.00  0.00     0.049 A 
ATOM     53  N   UNL A   1      41.179  27.211  29.442  1.00  0.00    -0.248 NA
ATOM     54  C   UNL A   1      39.972  27.419  27.468  1.00  0.00     0.031 C 
ATOM     55  C   UNL A   1      42.158  30.108  29.177  1.00  0.00     0.029 A 
ATOM     56  N   UNL A   1      40.538  31.406  29.784  1.00  0.00    -0.354 N 
ATOM     57  C   UNL A   1      41.725  26.377  28.500  1.00  0.00     0.074 A 
ATOM     58  C   UNL A   1      40.800  26.379  27.383  1.00  0.00     0.031 C 
ATOM     59  C   UNL A   1      42.709  31.194  29.774  1.00  0.00     0.029 A 
ATOM     60  C   UNL A   1      41.647  31.911  30.445  1.00  0.00     0.049 A 
ATOM     61  H   UNL A   1      39.729  31.931  29.589  1.00  0.00     0.167 HD
ATOM     62  C   UNL A   1      43.029  25.991  28.577  1.00  0.00     0.031 A 
ATOM     63  C   UNL A   1      41.495  32.277  31.755  1.00  0.00     0.031 A 
ATOM     64  C   UNL A   1      43.788  26.787  29.553  1.00  0.00     0.049 A 
ATOM     65  C   UNL A   1      42.191  31.295  32.640  1.00  0.00     0.074 A 
ATOM     66  C   UNL A   1      44.741  27.782  29.384  1.00  0.00     0.029 A 
ATOM     67  N   UNL A   1      43.391  26.860  30.885  1.00  0.00    -0.354 N 
ATOM     68  N   UNL A   1      42.753  30.221  32.176  1.00  0.00    -0.248 NA
ATOM     69  C   UNL A   1      42.303  31.394  34.089  1.00  0.00     0.031 C 
ATOM     70  C   UNL A   1      44.865  28.494  30.604  1.00  0.00     0.029 A 
ATOM     71  C   UNL A   1      44.013  27.917  31.530  1.00  0.00     0.049 A 
ATOM     72  H   UNL A   1      42.752  26.244  31.313  1.00  0.00     0.167 HD
ATOM     73  C   UNL A   1      43.211  29.450  33.190  1.00  0.00     0.074 A 
ATOM     74  C   UNL A   1      42.955  30.251  34.375  1.00  0.00     0.031 C 
ATOM     75  C   UNL A   1      43.724  28.215  32.933  1.00  0.00     0.031 A 
BRANCH  62  76
ATOM     76  C   UNL A   1      43.681  25.144  27.507  1.00  0.00    -0.014 A 
ATOM     77  C   UNL A   1      44.059  23.818  27.783  1.00  0.00     0.010 A 
ATOM     78  C   UNL A   1      43.900  25.592  26.188  1.00  0.00     0.010 A 
ATOM     79  C   UNL A   1      44.696  23.016  26.826  1.00  0.00     0.020 A 
ATOM     80  C   UNL A   1      44.586  24.826  25.239  1.00  0.00     0.020 A 
ATOM     81  C   UNL A   1      44.975  23.533  25.563  1.00  0.00     0.054 A 
BRANCH  81  82
ATOM     82  S   UNL A   1      45.786  22.480  24.336  1.00  0.00     0.124 S 
ATOM     83  O   UNL A   1      44.677  22.088  23.470  1.00  0.00    -0.237 OA
ATOM     84  O   UNL A   1      46.759  23.390  23.740  1.00  0.00    -0.237 OA
ATOM     85  O   UNL A   1      46.360  21.395  25.131  1.00  0.00    -0.744 OA
ENDBRANCH  81  82
ENDBRANCH  62  76
BRANCH  63  86
ATOM     86  C   UNL A   1      40.165  32.973  32.055  1.00  0.00    -0.014 A 
ATOM     87  C   UNL A   1      39.085  32.073  32.084  1.00  0.00     0.010 A 
ATOM     88  C   UNL A   1      40.155  33.858  33.115  1.00  0.00     0.010 A 
ATOM     89  C   UNL A   1      38.721  31.478  33.320  1.00  0.00     0.020 A 
ATOM     90  C   UNL A   1      39.561  33.396  34.316  1.00  0.00     0.020 A 
ATOM     91  C   UNL A   1      39.121  32.076  34.515  1.00  0.00     0.054 A 
BRANCH  91  92
ATOM     92  S   UNL A   1      39.497  30.955  36.277  1.00  0.00     0.124 S 
ATOM     93  O   UNL A   1      38.240  30.751  36.982  1.00  0.00    -0.237 OA
ATOM     94  O   UNL A   1      39.868  29.623  35.813  1.00  0.00    -0.237 OA
ATOM     95  O   UNL A   1      40.465  31.664  37.050  1.00  0.00    -0.744 OA
ENDBRANCH  91  92
ENDBRANCH  63  86
BRANCH  75  96
ATOM     96  C   UNL A   1      44.089  27.206  33.979  1.00  0.00    -0.014 A 
ATOM     97  C   UNL A   1      43.154  26.459  34.709  1.00  0.00     0.010 A 
ATOM     98  C   UNL A   1      45.457  26.924  34.193  1.00  0.00     0.010 A 
ATOM     99  C   UNL A   1      43.567  25.547  35.683  1.00  0.00     0.020 A 
ATOM    100  C   UNL A   1      45.879  25.975  35.119  1.00  0.00     0.020 A 
ATOM    101  C   UNL A   1      44.928  25.321  35.890  1.00  0.00     0.054 A 
BRANCH 101 102
ATOM    102  S   UNL A   1      45.443  24.143  37.157  1.00  0.00     0.124 S 
ATOM    103  O   UNL A   1      44.599  24.532  38.286  1.00  0.00    -0.237 OA
ATOM    104  O   UNL A   1      45.121  22.853  36.551  1.00  0.00    -0.237 OA
ATOM    105  O   UNL A   1      46.870  24.409  37.320  1.00  0.00    -0.744 OA
ENDBRANCH 101 102
ENDBRANCH  75  96
ENDBRANCH  49  50
ENDBRANCH  41  44
ENDBRANCH  39  40
ENDBRANCH  38  39
ENDBRANCH   1  38
TORSDOF 19
ENDMDL
MODEL 2
REMARK VINA RESULT:     -12.8      1.655      2.340
REMARK SMILES Cc1ccc(C(=O)NCCCNC(=O)c2ccc(-c3c4nc(c(-c5ccc(S(=O)(=O)[O-])cc5)c5ccc([nH]5)c(-c5ccc(S(=O)(=O)[O-])cc5)c5nc(c(-c6ccc(S(=O)(=O)[O-])cc6)c6ccc3[nH]6)C=C5)C=C4)cc2)cc1NC(=O)C(=O)NC[C@@H](c1ccccc1)[NH+]1CC[NH+](C)CC1
REMARK SMILES IDX 9 1 8 2 6 3 7 4 5 6 1 7 2 8 3 9 76 10 4 11 75 12 77 13 78 14
REMARK SMILES IDX 79 16 80 17 81 18 82 19 83 21 84 22 91 23 92 24 97 25 93 27
REMARK SMILES IDX 96 28 94 29 95 30 85 32 86 33 90 34 87 35 89 36 88 37 10 38
REMARK SMILES IDX 11 39 12 40 13 41 14 43 15 44 16 45 74 46 17 47 73 48 18 49
REMARK SMILES IDX 19 50 20 51 67 52 21 53 72 54 66 55 68 56 22 57 71 58 65 59
REMARK SMILES IDX 64 60 23 62 53 63 34 64 52 65 35 66 38 67 51 68 69 69 36 70
REMARK SMILES IDX 37 71 50 73 70 74 39 75 24 76 25 77 33 78 26 79 32 80 27 81
REMARK SMILES IDX 28 82 29 83 30 84 31 85 54 86 55 87 63 88 56 89 62 90 57 91
REMARK SMILES IDX 58 92 59 93 60 94 61 95 40 96 41 97 49 98 42 99 48 100
REMARK SMILES IDX 43 101 44 102 45 103 46 104 47 105
REMARK H PARENT 8 5 77 15 82 20 91 26 94 31 12 42 68 61 38 72
REMARK Flexibility Score: inf
ROOT
ATOM      1  C   UNL A   1      33.293  31.487  27.534  1.00  0.00     0.118 C 
ENDROOT
BRANCH   1   2
ATOM      2  N   UNL A   1      34.174  30.292  27.671  1.00  0.00    -0.352 N 
ATOM      3  C   UNL A   1      34.028  29.057  27.044  1.00  0.00     0.251 C 
ATOM      4  O   UNL A   1      34.868  28.168  27.157  1.00  0.00    -0.269 OA
ATOM      5  H   UNL A   1      34.946  30.387  28.275  1.00  0.00     0.163 HD
BRANCH   3   6
ATOM      6  C   UNL A   1      32.748  28.765  26.332  1.00  0.00     0.041 A 
ATOM      7  C   UNL A   1      29.701  27.023  23.886  1.00  0.00     0.046 C 
ATOM      8  C   UNL A   1      30.767  27.569  24.798  1.00  0.00    -0.027 A 
ATOM      9  C   UNL A   1      31.629  28.537  24.231  1.00  0.00     0.006 A 
ATOM     10  C   UNL A   1      30.894  27.214  26.164  1.00  0.00     0.045 A 
ATOM     11  C   UNL A   1      32.664  29.084  24.977  1.00  0.00     0.014 A 
ATOM     12  C   UNL A   1      31.745  27.985  26.933  1.00  0.00     0.040 A 
BRANCH  10  13
ATOM     13  N   UNL A   1      30.216  26.073  26.661  1.00  0.00    -0.318 N 
ATOM     14  C   UNL A   1      30.344  24.690  26.659  1.00  0.00     0.313 C 
ATOM     15  H   UNL A   1      29.409  26.342  27.157  1.00  0.00     0.170 HD
ATOM     16  O   UNL A   1      29.461  24.044  27.233  1.00  0.00    -0.263 OA
BRANCH  14  17
ATOM     17  C   UNL A   1      31.440  23.863  25.988  1.00  0.00     0.309 C 
ATOM     18  O   UNL A   1      31.211  23.271  24.943  1.00  0.00    -0.264 OA
ATOM     19  N   UNL A   1      32.712  23.932  26.565  1.00  0.00    -0.341 N 
ATOM     20  H   UNL A   1      32.901  23.399  27.371  1.00  0.00     0.164 HD
BRANCH  19  21
ATOM     21  C   UNL A   1      33.777  24.778  26.004  1.00  0.00     0.186 C 
BRANCH  21  22
ATOM     22  C   UNL A   1      34.544  24.172  24.744  1.00  0.00     0.235 C 
BRANCH  22  23
ATOM     23  N   UNL A   1      36.025  24.175  24.698  1.00  0.00    -0.318 N 
ATOM     24  C   UNL A   1      36.618  23.568  23.505  1.00  0.00     0.325 C 
ATOM     25  C   UNL A   1      36.738  23.719  25.891  1.00  0.00     0.325 C 
ATOM     26  H   UNL A   1      36.175  25.183  24.654  1.00  0.00     0.349 HD
ATOM     27  C   UNL A   1      36.778  22.034  23.574  1.00  0.00     0.324 C 
ATOM     28  C   UNL A   1      36.821  22.193  26.034  1.00  0.00     0.324 C 
ATOM     29  N   UNL A   1      37.330  21.498  24.837  1.00  0.00    -0.328 N 
ATOM     30  C   UNL A   1      37.038  20.068  24.937  1.00  0.00     0.333 C 
ATOM     31  H   UNL A   1      38.338  21.658  24.807  1.00  0.00     0.348 HD
ENDBRANCH  22  23
BRANCH  22  32
ATOM     32  C   UNL A   1      33.971  24.637  23.388  1.00  0.00     0.011 A 
ATOM     33  C   UNL A   1      33.532  23.666  22.464  1.00  0.00     0.010 A 
ATOM     34  C   UNL A   1      33.835  25.986  23.030  1.00  0.00     0.010 A 
ATOM     35  C   UNL A   1      32.926  24.033  21.259  1.00  0.00     0.001 A 
ATOM     36  C   UNL A   1      33.210  26.353  21.834  1.00  0.00     0.001 A 
ATOM     37  C   UNL A   1      32.747  25.379  20.954  1.00  0.00     0.000 A 
ENDBRANCH  22  32
ENDBRANCH  21  22
ENDBRANCH  19  21
ENDBRANCH  14  17
ENDBRANCH  10  13
ENDBRANCH   3   6
ENDBRANCH   1   2
BRANCH   1  38
ATOM     38  C   UNL A   1      33.726  32.885  28.071  1.00  0.00     0.042 C 
BRANCH  38  39
ATOM     39  C   UNL A   1      34.637  33.057  29.422  1.00  0.00     0.118 C 
BRANCH  39  40
ATOM     40  N   UNL A   1      36.074  32.380  29.988  1.00  0.00    -0.352 N 
ATOM     41  C   UNL A   1      37.209  31.405  29.762  1.00  0.00     0.251 C 
ATOM     42  H   UNL A   1      36.256  32.812  30.854  1.00  0.00     0.163 HD
ATOM     43  O   UNL A   1      38.301  32.005  29.657  1.00  0.00    -0.269 OA
BRANCH  41  44
ATOM     44  C   UNL A   1      37.429  29.778  29.563  1.00  0.00     0.039 A 
ATOM     45  C   UNL A   1      37.843  28.938  30.636  1.00  0.00     0.014 A 
ATOM     46  C   UNL A   1      37.393  29.050  28.394  1.00  0.00     0.014 A 
ATOM     47  C   UNL A   1      38.928  28.022  30.426  1.00  0.00     0.010 A 
ATOM     48  C   UNL A   1      38.460  28.139  28.155  1.00  0.00     0.010 A 
ATOM     49  C   UNL A   1      39.420  27.847  29.140  1.00  0.00    -0.014 A 
BRANCH  49  50
ATOM     50  C   UNL A   1      40.866  27.489  28.811  1.00  0.00     0.031 A 
ATOM     51  C   UNL A   1      41.173  26.132  28.419  1.00  0.00     0.074 A 
ATOM     52  C   UNL A   1      41.989  28.269  28.689  1.00  0.00     0.049 A 
ATOM     53  N   UNL A   1      42.002  25.378  29.060  1.00  0.00    -0.248 NA
ATOM     54  C   UNL A   1      40.594  25.549  27.220  1.00  0.00     0.031 C 
ATOM     55  C   UNL A   1      43.386  28.003  28.274  1.00  0.00     0.029 A 
ATOM     56  N   UNL A   1      42.088  29.630  28.861  1.00  0.00    -0.354 N 
ATOM     57  C   UNL A   1      42.279  24.351  28.195  1.00  0.00     0.074 A 
ATOM     58  C   UNL A   1      41.227  24.377  27.196  1.00  0.00     0.031 C 
ATOM     59  C   UNL A   1      44.177  29.040  28.645  1.00  0.00     0.029 A 
ATOM     60  C   UNL A   1      43.340  30.010  29.317  1.00  0.00     0.049 A 
ATOM     61  H   UNL A   1      41.353  30.261  28.681  1.00  0.00     0.167 HD
ATOM     62  C   UNL A   1      43.504  23.755  28.183  1.00  0.00     0.031 A 
ATOM     63  C   UNL A   1      43.422  30.557  30.569  1.00  0.00     0.031 A 
ATOM     64  C   UNL A   1      44.501  24.519  28.946  1.00  0.00     0.049 A 
ATOM     65  C   UNL A   1      44.063  29.585  31.505  1.00  0.00     0.074 A 
ATOM     66  C   UNL A   1      45.571  25.303  28.532  1.00  0.00     0.029 A 
ATOM     67  N   UNL A   1      44.300  24.826  30.288  1.00  0.00    -0.354 N 
ATOM     68  N   UNL A   1      44.382  28.380  31.143  1.00  0.00    -0.248 NA
ATOM     69  C   UNL A   1      44.379  29.841  32.904  1.00  0.00     0.031 C 
ATOM     70  C   UNL A   1      45.966  26.128  29.616  1.00  0.00     0.029 A 
ATOM     71  C   UNL A   1      45.162  25.829  30.702  1.00  0.00     0.049 A 
ATOM     72  H   UNL A   1      43.634  24.389  30.868  1.00  0.00     0.167 HD
ATOM     73  C   UNL A   1      44.840  27.672  32.202  1.00  0.00     0.074 A 
ATOM     74  C   UNL A   1      44.874  28.646  33.279  1.00  0.00     0.031 C 
ATOM     75  C   UNL A   1      45.111  26.344  32.071  1.00  0.00     0.031 A 
BRANCH  62  76
ATOM     76  C   UNL A   1      43.866  22.681  27.183  1.00  0.00    -0.014 A 
ATOM     77  C   UNL A   1      45.077  22.749  26.471  1.00  0.00     0.010 A 
ATOM     78  C   UNL A   1      43.065  21.545  26.939  1.00  0.00     0.010 A 
ATOM     79  C   UNL A   1      45.428  21.789  25.512  1.00  0.00     0.020 A 
ATOM     80  C   UNL A   1      43.372  20.609  25.945  1.00  0.00     0.020 A 
ATOM     81  C   UNL A   1      44.562  20.734  25.240  1.00  0.00     0.054 A 
BRANCH  81  82
ATOM     82  S   UNL A   1      45.036  19.497  24.008  1.00  0.00     0.124 S 
ATOM     83  O   UNL A   1      44.565  20.092  22.761  1.00  0.00    -0.237 OA
ATOM     84  O   UNL A   1      46.486  19.436  24.170  1.00  0.00    -0.237 OA
ATOM     85  O   UNL A   1      44.317  18.293  24.427  1.00  0.00    -0.744 OA
ENDBRANCH  81  82
ENDBRANCH  62  76
BRANCH  63  86
ATOM     86  C   UNL A   1      42.271  31.507  30.909  1.00  0.00    -0.014 A 
ATOM     87  C   UNL A   1      41.061  30.825  31.128  1.00  0.00     0.010 A 
ATOM     88  C   UNL A   1      42.525  32.470  31.866  1.00  0.00     0.010 A 
ATOM     89  C   UNL A   1      40.732  30.418  32.448  1.00  0.00     0.020 A 
ATOM     90  C   UNL A   1      41.990  32.232  33.156  1.00  0.00     0.020 A 
ATOM     91  C   UNL A   1      41.353  31.037  33.532  1.00  0.00     0.054 A 
BRANCH  91  92
ATOM     92  S   UNL A   1      41.713  30.029  35.363  1.00  0.00     0.124 S 
ATOM     93  O   UNL A   1      42.902  30.593  35.986  1.00  0.00    -0.237 OA
ATOM     94  O   UNL A   1      40.623  30.432  36.245  1.00  0.00    -0.237 OA
ATOM     95  O   UNL A   1      41.835  28.635  35.081  1.00  0.00    -0.744 OA
ENDBRANCH  91  92
ENDBRANCH  63  86
BRANCH  75  96
ATOM     96  C   UNL A   1      45.446  25.424  33.205  1.00  0.00    -0.014 A 
ATOM     97  C   UNL A   1      46.673  25.426  33.883  1.00  0.00     0.010 A 
ATOM     98  C   UNL A   1      44.441  24.552  33.682  1.00  0.00     0.010 A 
ATOM     99  C   UNL A   1      46.921  24.526  34.922  1.00  0.00     0.020 A 
ATOM    100  C   UNL A   1      44.658  23.692  34.754  1.00  0.00     0.020 A 
ATOM    101  C   UNL A   1      45.915  23.655  35.342  1.00  0.00     0.054 A 
BRANCH 101 102
ATOM    102  S   UNL A   1      46.257  22.496  36.682  1.00  0.00     0.124 S 
ATOM    103  O   UNL A   1      45.410  23.019  37.752  1.00  0.00    -0.237 OA
ATOM    104  O   UNL A   1      45.834  21.216  36.118  1.00  0.00    -0.237 OA
ATOM    105  O   UNL A   1      47.695  22.629  36.898  1.00  0.00    -0.744 OA
ENDBRANCH 101 102
ENDBRANCH  75  96
ENDBRANCH  49  50
ENDBRANCH  41  44
ENDBRANCH  39  40
ENDBRANCH  38  39
ENDBRANCH   1  38
TORSDOF 19
ENDMDL
MODEL 3
REMARK VINA RESULT:     -12.7      1.845      3.209
REMARK SMILES Cc1ccc(C(=O)NCCCNC(=O)c2ccc(-c3c4nc(c(-c5ccc(S(=O)(=O)[O-])cc5)c5ccc([nH]5)c(-c5ccc(S(=O)(=O)[O-])cc5)c5nc(c(-c6ccc(S(=O)(=O)[O-])cc6)c6ccc3[nH]6)C=C5)C=C4)cc2)cc1NC(=O)C(=O)NC[C@@H](c1ccccc1)[NH+]1CC[NH+](C)CC1
REMARK SMILES IDX 9 1 8 2 6 3 7 4 5 6 1 7 2 8 3 9 76 10 4 11 75 12 77 13 78 14
REMARK SMILES IDX 79 16 80 17 81 18 82 19 83 21 84 22 91 23 92 24 97 25 93 27
REMARK SMILES IDX 96 28 94 29 95 30 85 32 86 33 90 34 87 35 89 36 88 37 10 38
REMARK SMILES IDX 11 39 12 40 13 41 14 43 15 44 16 45 74 46 17 47 73 48 18 49
REMARK SMILES IDX 19 50 20 51 67 52 21 53 72 54 66 55 68 56 22 57 71 58 65 59
REMARK SMILES IDX 64 60 23 62 53 63 34 64 52 65 35 66 38 67 51 68 69 69 36 70
REMARK SMILES IDX 37 71 50 73 70 74 39 75 24 76 25 77 33 78 26 79 32 80 27 81
REMARK SMILES IDX 28 82 29 83 30 84 31 85 54 86 55 87 63 88 56 89 62 90 57 91
REMARK SMILES IDX 58 92 59 93 60 94 61 95 40 96 41 97 49 98 42 99 48 100
REMARK SMILES IDX 43 101 44 102 45 103 46 104 47 105
REMARK H PARENT 8 5 77 15 82 20 91 26 94 31 12 42 68 61 38 72
REMARK Flexibility Score: inf
ROOT
ATOM      1  C   UNL A   1      32.828  31.456  27.616  1.00  0.00     0.118 C 
ENDROOT
BRANCH   1   2
ATOM      2  N   UNL A   1      33.694  30.248  27.495  1.00  0.00    -0.352 N 
ATOM      3  C   UNL A   1      33.510  29.157  26.650  1.00  0.00     0.251 C 
ATOM      4  O   UNL A   1      34.339  28.254  26.564  1.00  0.00    -0.269 OA
ATOM      5  H   UNL A   1      34.486  30.219  28.079  1.00  0.00     0.163 HD
BRANCH   3   6
ATOM      6  C   UNL A   1      32.203  29.016  25.939  1.00  0.00     0.041 A 
ATOM      7  C   UNL A   1      29.162  28.523  22.972  1.00  0.00     0.046 C 
ATOM      8  C   UNL A   1      30.255  28.616  24.003  1.00  0.00    -0.027 A 
ATOM      9  C   UNL A   1      30.694  29.924  24.322  1.00  0.00     0.006 A 
ATOM     10  C   UNL A   1      30.794  27.497  24.685  1.00  0.00     0.045 A 
ATOM     11  C   UNL A   1      31.717  30.120  25.239  1.00  0.00     0.014 A 
ATOM     12  C   UNL A   1      31.595  27.760  25.779  1.00  0.00     0.040 A 
BRANCH  10  13
ATOM     13  N   UNL A   1      30.553  26.190  24.193  1.00  0.00    -0.318 N 
ATOM     14  C   UNL A   1      31.251  25.138  23.615  1.00  0.00     0.313 C 
ATOM     15  H   UNL A   1      29.601  25.958  24.288  1.00  0.00     0.170 HD
ATOM     16  O   UNL A   1      30.601  24.134  23.308  1.00  0.00    -0.263 OA
BRANCH  14  17
ATOM     17  C   UNL A   1      32.740  25.094  23.274  1.00  0.00     0.309 C 
ATOM     18  O   UNL A   1      33.330  26.118  22.960  1.00  0.00    -0.264 OA
ATOM     19  N   UNL A   1      33.386  23.867  23.463  1.00  0.00    -0.341 N 
ATOM     20  H   UNL A   1      33.281  23.162  22.784  1.00  0.00     0.164 HD
BRANCH  19  21
ATOM     21  C   UNL A   1      34.215  23.599  24.647  1.00  0.00     0.186 C 
BRANCH  21  22
ATOM     22  C   UNL A   1      34.686  22.085  24.829  1.00  0.00     0.235 C 
BRANCH  22  23
ATOM     23  N   UNL A   1      33.913  21.160  25.689  1.00  0.00    -0.318 N 
ATOM     24  C   UNL A   1      32.611  20.749  25.159  1.00  0.00     0.325 C 
ATOM     25  C   UNL A   1      33.784  21.505  27.105  1.00  0.00     0.325 C 
ATOM     26  H   UNL A   1      34.543  20.358  25.656  1.00  0.00     0.349 HD
ATOM     27  C   UNL A   1      31.458  21.733  25.447  1.00  0.00     0.324 C 
ATOM     28  C   UNL A   1      32.709  22.560  27.404  1.00  0.00     0.324 C 
ATOM     29  N   UNL A   1      31.386  22.258  26.828  1.00  0.00    -0.328 N 
ATOM     30  C   UNL A   1      30.552  23.460  26.856  1.00  0.00     0.333 C 
ATOM     31  H   UNL A   1      30.974  21.521  27.401  1.00  0.00     0.348 HD
ENDBRANCH  22  23
BRANCH  22  32
ATOM     32  C   UNL A   1      36.196  21.937  25.113  1.00  0.00     0.011 A 
ATOM     33  C   UNL A   1      36.897  23.029  25.665  1.00  0.00     0.010 A 
ATOM     34  C   UNL A   1      36.913  20.754  24.875  1.00  0.00     0.010 A 
ATOM     35  C   UNL A   1      38.244  22.920  26.021  1.00  0.00     0.001 A 
ATOM     36  C   UNL A   1      38.255  20.640  25.252  1.00  0.00     0.001 A 
ATOM     37  C   UNL A   1      38.918  21.717  25.833  1.00  0.00     0.000 A 
ENDBRANCH  22  32
ENDBRANCH  21  22
ENDBRANCH  19  21
ENDBRANCH  14  17
ENDBRANCH  10  13
ENDBRANCH   3   6
ENDBRANCH   1   2
BRANCH   1  38
ATOM     38  C   UNL A   1      33.436  32.881  27.781  1.00  0.00     0.042 C 
BRANCH  38  39
ATOM     39  C   UNL A   1      34.966  33.122  28.316  1.00  0.00     0.118 C 
BRANCH  39  40
ATOM     40  N   UNL A   1      35.989  32.335  29.402  1.00  0.00    -0.352 N 
ATOM     41  C   UNL A   1      37.082  31.314  29.624  1.00  0.00     0.251 C 
ATOM     42  H   UNL A   1      35.780  32.707  30.290  1.00  0.00     0.163 HD
ATOM     43  O   UNL A   1      38.123  31.858  30.055  1.00  0.00    -0.269 OA
BRANCH  41  44
ATOM     44  C   UNL A   1      37.328  29.691  29.420  1.00  0.00     0.039 A 
ATOM     45  C   UNL A   1      37.719  28.848  30.499  1.00  0.00     0.014 A 
ATOM     46  C   UNL A   1      37.335  28.971  28.246  1.00  0.00     0.014 A 
ATOM     47  C   UNL A   1      38.821  27.945  30.315  1.00  0.00     0.010 A 
ATOM     48  C   UNL A   1      38.420  28.075  28.032  1.00  0.00     0.010 A 
ATOM     49  C   UNL A   1      39.354  27.786  29.043  1.00  0.00    -0.014 A 
BRANCH  49  50
ATOM     50  C   UNL A   1      40.813  27.447  28.756  1.00  0.00     0.031 A 
ATOM     51  C   UNL A   1      41.144  26.104  28.336  1.00  0.00     0.074 A 
ATOM     52  C   UNL A   1      41.934  28.238  28.696  1.00  0.00     0.049 A 
ATOM     53  N   UNL A   1      41.955  25.338  28.984  1.00  0.00    -0.248 NA
ATOM     54  C   UNL A   1      40.612  25.552  27.101  1.00  0.00     0.031 C 
ATOM     55  C   UNL A   1      43.346  27.994  28.323  1.00  0.00     0.029 A 
ATOM     56  N   UNL A   1      42.015  29.595  28.910  1.00  0.00    -0.354 N 
ATOM     57  C   UNL A   1      42.271  24.338  28.100  1.00  0.00     0.074 A 
ATOM     58  C   UNL A   1      41.254  24.385  27.066  1.00  0.00     0.031 C 
ATOM     59  C   UNL A   1      44.115  29.025  28.750  1.00  0.00     0.029 A 
ATOM     60  C   UNL A   1      43.248  29.970  29.420  1.00  0.00     0.049 A 
ATOM     61  H   UNL A   1      41.283  30.225  28.722  1.00  0.00     0.167 HD
ATOM     62  C   UNL A   1      43.500  23.751  28.115  1.00  0.00     0.031 A 
ATOM     63  C   UNL A   1      43.282  30.480  30.689  1.00  0.00     0.031 A 
ATOM     64  C   UNL A   1      44.464  24.500  28.934  1.00  0.00     0.049 A 
ATOM     65  C   UNL A   1      43.897  29.486  31.619  1.00  0.00     0.074 A 
ATOM     66  C   UNL A   1      45.541  25.302  28.580  1.00  0.00     0.029 A 
ATOM     67  N   UNL A   1      44.213  24.766  30.276  1.00  0.00    -0.354 N 
ATOM     68  N   UNL A   1      44.237  28.294  31.234  1.00  0.00    -0.248 NA
ATOM     69  C   UNL A   1      44.162  29.705  33.035  1.00  0.00     0.031 C 
ATOM     70  C   UNL A   1      45.891  26.098  29.700  1.00  0.00     0.029 A 
ATOM     71  C   UNL A   1      45.053  25.763  30.749  1.00  0.00     0.049 A 
ATOM     72  H   UNL A   1      43.531  24.309  30.819  1.00  0.00     0.167 HD
ATOM     73  C   UNL A   1      44.664  27.560  32.288  1.00  0.00     0.074 A 
ATOM     74  C   UNL A   1      44.653  28.502  33.393  1.00  0.00     0.031 C 
ATOM     75  C   UNL A   1      44.950  26.237  32.129  1.00  0.00     0.031 A 
BRANCH  62  76
ATOM     76  C   UNL A   1      43.905  22.708  27.097  1.00  0.00    -0.014 A 
ATOM     77  C   UNL A   1      43.003  21.700  26.714  1.00  0.00     0.010 A 
ATOM     78  C   UNL A   1      45.156  22.705  26.445  1.00  0.00     0.010 A 
ATOM     79  C   UNL A   1      43.356  20.698  25.800  1.00  0.00     0.020 A 
ATOM     80  C   UNL A   1      45.545  21.680  25.574  1.00  0.00     0.020 A 
ATOM     81  C   UNL A   1      44.636  20.682  25.250  1.00  0.00     0.054 A 
BRANCH  81  82
ATOM     82  S   UNL A   1      45.072  19.390  24.062  1.00  0.00     0.124 S 
ATOM     83  O   UNL A   1      46.532  19.404  24.099  1.00  0.00    -0.237 OA
ATOM     84  O   UNL A   1      44.438  18.209  24.641  1.00  0.00    -0.237 OA
ATOM     85  O   UNL A   1      44.482  19.855  22.807  1.00  0.00    -0.744 OA
ENDBRANCH  81  82
ENDBRANCH  62  76
BRANCH  63  86
ATOM     86  C   UNL A   1      42.112  31.413  31.016  1.00  0.00    -0.014 A 
ATOM     87  C   UNL A   1      40.905  30.715  31.193  1.00  0.00     0.010 A 
ATOM     88  C   UNL A   1      42.332  32.362  31.994  1.00  0.00     0.010 A 
ATOM     89  C   UNL A   1      40.548  30.283  32.497  1.00  0.00     0.020 A 
ATOM     90  C   UNL A   1      41.768  32.098  33.266  1.00  0.00     0.020 A 
ATOM     91  C   UNL A   1      41.134  30.890  33.606  1.00  0.00     0.054 A 
BRANCH  91  92
ATOM     92  S   UNL A   1      41.459  29.855  35.430  1.00  0.00     0.124 S 
ATOM     93  O   UNL A   1      42.634  30.413  36.085  1.00  0.00    -0.237 OA
ATOM     94  O   UNL A   1      40.350  30.243  36.294  1.00  0.00    -0.237 OA
ATOM     95  O   UNL A   1      41.590  28.467  35.129  1.00  0.00    -0.744 OA
ENDBRANCH  91  92
ENDBRANCH  63  86
BRANCH  75  96
ATOM     96  C   UNL A   1      45.251  25.287  33.248  1.00  0.00    -0.014 A 
ATOM     97  C   UNL A   1      44.980  23.913  33.206  1.00  0.00     0.010 A 
ATOM     98  C   UNL A   1      45.924  25.783  34.387  1.00  0.00     0.010 A 
ATOM     99  C   UNL A   1      45.272  23.089  34.296  1.00  0.00     0.020 A 
ATOM    100  C   UNL A   1      46.273  24.960  35.454  1.00  0.00     0.020 A 
ATOM    101  C   UNL A   1      45.906  23.622  35.418  1.00  0.00     0.054 A 
BRANCH 101 102
ATOM    102  S   UNL A   1      46.270  22.544  36.819  1.00  0.00     0.124 S 
ATOM    103  O   UNL A   1      47.687  22.822  37.048  1.00  0.00    -0.237 OA
ATOM    104  O   UNL A   1      45.361  23.035  37.851  1.00  0.00    -0.237 OA
ATOM    105  O   UNL A   1      45.967  21.207  36.315  1.00  0.00    -0.744 OA
ENDBRANCH 101 102
ENDBRANCH  75  96
ENDBRANCH  49  50
ENDBRANCH  41  44
ENDBRANCH  39  40
ENDBRANCH  38  39
ENDBRANCH   1  38
TORSDOF 19
ENDMDL
