MODEL 1
REMARK VINA RESULT:     -14.4      0.000      0.000
REMARK SMILES Cc1ccccc1NC(=O)CSc1nc(C(=O)NCCCNC(=O)c2ccc(-c3c4nc(c(-c5ccc(S(=O)(=O)[O-])cc5)c5ccc([nH]5)c(-c5ccc(S(=O)(=O)[O-])cc5)c5nc(c(-c6ccc(S(=O)(=O)[O-])cc6)c6ccc3[nH]6)C=C5)C=C4)cc2)c2ccccc2n1
REMARK SMILES IDX 19 1 18 2 16 3 17 4 15 6 13 7 14 8 91 9 90 10 85 11 89 12
REMARK SMILES IDX 86 13 88 14 87 15 12 16 11 17 9 18 8 19 10 21 7 22 1 23 2 24
REMARK SMILES IDX 3 25 4 26 6 27 5 28 20 29 21 30 22 31 23 32 24 34 25 35
REMARK SMILES IDX 26 36 84 37 27 38 83 39 28 40 29 41 30 42 77 43 31 44 82 45
REMARK SMILES IDX 76 46 78 47 32 48 81 49 75 50 74 51 33 53 63 54 44 55 62 56
REMARK SMILES IDX 45 57 48 58 61 59 79 60 46 61 47 62 60 64 80 65 49 66 34 67
REMARK SMILES IDX 35 68 43 69 36 70 42 71 37 72 38 73 39 74 40 75 41 76 64 77
REMARK SMILES IDX 65 78 73 79 66 80 72 81 67 82 68 83 69 84 70 85 71 86 50 87
REMARK SMILES IDX 51 88 59 89 52 90 58 91 53 92 54 93 55 94 56 95 57 96
REMARK H PARENT 18 5 8 20 22 33 78 52 48 63
REMARK Flexibility Score: inf
ROOT
ATOM      1  C   UNL A   1      32.536  29.909  26.438  1.00  0.00     0.118 C 
ENDROOT
BRANCH   1   2
ATOM      2  N   UNL A   1      33.255  29.583  25.215  1.00  0.00    -0.351 N 
ATOM      3  C   UNL A   1      32.911  28.985  24.022  1.00  0.00     0.270 C 
ATOM      4  O   UNL A   1      33.756  28.998  23.122  1.00  0.00    -0.267 OA
ATOM      5  H   UNL A   1      34.202  29.852  25.247  1.00  0.00     0.163 HD
BRANCH   3   6
ATOM      6  C   UNL A   1      31.641  28.214  23.798  1.00  0.00     0.140 A 
ATOM      7  C   UNL A   1      30.541  26.322  24.446  1.00  0.00     0.189 A 
ATOM      8  N   UNL A   1      31.667  27.020  24.443  1.00  0.00    -0.217 NA
ATOM      9  N   UNL A   1      29.367  26.767  23.989  1.00  0.00    -0.222 NA
ATOM     10  C   UNL A   1      29.366  27.931  23.335  1.00  0.00     0.076 A 
ATOM     11  C   UNL A   1      30.526  28.667  23.083  1.00  0.00     0.032 A 
ATOM     12  C   UNL A   1      28.149  28.437  22.896  1.00  0.00     0.029 A 
ATOM     13  C   UNL A   1      30.458  29.756  22.176  1.00  0.00     0.013 A 
ATOM     14  C   UNL A   1      28.065  29.616  22.154  1.00  0.00     0.002 A 
ATOM     15  C   UNL A   1      29.228  30.256  21.757  1.00  0.00     0.001 A 
BRANCH   7  16
ATOM     16  S   UNL A   1      30.562  24.703  25.148  1.00  0.00    -0.076 SA
BRANCH  16  17
ATOM     17  C   UNL A   1      32.048  24.838  26.191  1.00  0.00     0.178 C 
BRANCH  17  18
ATOM     18  C   UNL A   1      32.503  23.530  26.804  1.00  0.00     0.234 C 
ATOM     19  N   UNL A   1      33.640  22.853  26.479  1.00  0.00    -0.325 N 
ATOM     20  H   UNL A   1      33.724  22.012  26.982  1.00  0.00     0.169 HD
ATOM     21  O   UNL A   1      31.790  22.972  27.651  1.00  0.00    -0.274 OA
BRANCH  19  22
ATOM     22  C   UNL A   1      34.726  23.053  25.604  1.00  0.00     0.044 A 
ATOM     23  C   UNL A   1      33.325  22.161  23.607  1.00  0.00     0.046 C 
ATOM     24  C   UNL A   1      34.594  22.666  24.249  1.00  0.00    -0.027 A 
ATOM     25  C   UNL A   1      35.723  22.714  23.404  1.00  0.00     0.005 A 
ATOM     26  C   UNL A   1      36.949  23.183  23.863  1.00  0.00     0.000 A 
ATOM     27  C   UNL A   1      35.942  23.606  26.014  1.00  0.00     0.026 A 
ATOM     28  C   UNL A   1      37.049  23.654  25.162  1.00  0.00     0.002 A 
ENDBRANCH  19  22
ENDBRANCH  17  18
ENDBRANCH  16  17
ENDBRANCH   7  16
ENDBRANCH   3   6
ENDBRANCH   1   2
BRANCH   1  29
ATOM     29  C   UNL A   1      33.333  30.699  27.451  1.00  0.00     0.042 C 
BRANCH  29  30
ATOM     30  C   UNL A   1      34.812  30.360  27.371  1.00  0.00     0.118 C 
BRANCH  30  31
ATOM     31  N   UNL A   1      35.718  31.379  27.914  1.00  0.00    -0.352 N 
ATOM     32  C   UNL A   1      37.000  31.170  28.419  1.00  0.00     0.251 C 
ATOM     33  H   UNL A   1      35.386  32.305  27.921  1.00  0.00     0.163 HD
ATOM     34  O   UNL A   1      37.664  32.040  28.946  1.00  0.00    -0.269 OA
BRANCH  32  35
ATOM     35  C   UNL A   1      37.546  29.809  28.222  1.00  0.00     0.039 A 
ATOM     36  C   UNL A   1      37.584  28.991  29.358  1.00  0.00     0.014 A 
ATOM     37  C   UNL A   1      38.424  29.629  27.159  1.00  0.00     0.014 A 
ATOM     38  C   UNL A   1      38.680  28.161  29.549  1.00  0.00     0.010 A 
ATOM     39  C   UNL A   1      39.560  28.880  27.399  1.00  0.00     0.010 A 
ATOM     40  C   UNL A   1      39.724  28.217  28.629  1.00  0.00    -0.014 A 
BRANCH  40  41
ATOM     41  C   UNL A   1      41.057  27.688  28.898  1.00  0.00     0.031 A 
ATOM     42  C   UNL A   1      41.314  26.254  28.617  1.00  0.00     0.074 A 
ATOM     43  C   UNL A   1      42.062  28.490  29.329  1.00  0.00     0.049 A 
ATOM     44  N   UNL A   1      42.309  25.581  29.087  1.00  0.00    -0.248 NA
ATOM     45  C   UNL A   1      40.389  25.426  27.838  1.00  0.00     0.031 C 
ATOM     46  C   UNL A   1      43.487  28.158  29.354  1.00  0.00     0.029 A 
ATOM     47  N   UNL A   1      42.000  29.697  30.037  1.00  0.00    -0.354 N 
ATOM     48  C   UNL A   1      42.346  24.385  28.411  1.00  0.00     0.074 A 
ATOM     49  C   UNL A   1      41.062  24.275  27.770  1.00  0.00     0.031 C 
ATOM     50  C   UNL A   1      44.095  28.923  30.274  1.00  0.00     0.029 A 
ATOM     51  C   UNL A   1      43.050  29.648  30.974  1.00  0.00     0.049 A 
ATOM     52  H   UNL A   1      41.356  30.430  29.906  1.00  0.00     0.167 HD
ATOM     53  C   UNL A   1      43.523  23.705  28.329  1.00  0.00     0.031 A 
ATOM     54  C   UNL A   1      42.876  29.634  32.330  1.00  0.00     0.031 A 
ATOM     55  C   UNL A   1      44.486  24.198  29.315  1.00  0.00     0.049 A 
ATOM     56  C   UNL A   1      43.477  28.410  32.999  1.00  0.00     0.074 A 
ATOM     57  C   UNL A   1      45.644  24.951  29.233  1.00  0.00     0.029 A 
ATOM     58  N   UNL A   1      44.134  24.167  30.664  1.00  0.00    -0.354 N 
ATOM     59  N   UNL A   1      43.854  27.337  32.358  1.00  0.00    -0.248 NA
ATOM     60  C   UNL A   1      43.665  28.280  34.444  1.00  0.00     0.031 C 
ATOM     61  C   UNL A   1      45.913  25.474  30.531  1.00  0.00     0.029 A 
ATOM     62  C   UNL A   1      44.951  24.997  31.405  1.00  0.00     0.049 A 
ATOM     63  H   UNL A   1      43.402  23.624  31.036  1.00  0.00     0.167 HD
ATOM     64  C   UNL A   1      44.306  26.394  33.246  1.00  0.00     0.074 A 
ATOM     65  C   UNL A   1      44.185  27.043  34.540  1.00  0.00     0.031 C 
ATOM     66  C   UNL A   1      44.726  25.157  32.841  1.00  0.00     0.031 A 
BRANCH  53  67
ATOM     67  C   UNL A   1      43.869  22.772  27.179  1.00  0.00    -0.014 A 
ATOM     68  C   UNL A   1      42.957  21.768  26.785  1.00  0.00     0.010 A 
ATOM     69  C   UNL A   1      45.123  22.736  26.535  1.00  0.00     0.010 A 
ATOM     70  C   UNL A   1      43.298  20.779  25.841  1.00  0.00     0.020 A 
ATOM     71  C   UNL A   1      45.470  21.775  25.578  1.00  0.00     0.020 A 
ATOM     72  C   UNL A   1      44.560  20.785  25.247  1.00  0.00     0.054 A 
BRANCH  72  73
ATOM     73  S   UNL A   1      45.024  19.483  24.077  1.00  0.00     0.124 S 
ATOM     74  O   UNL A   1      46.480  19.459  24.196  1.00  0.00    -0.237 OA
ATOM     75  O   UNL A   1      44.326  18.315  24.606  1.00  0.00    -0.237 OA
ATOM     76  O   UNL A   1      44.520  19.973  22.794  1.00  0.00    -0.744 OA
ENDBRANCH  72  73
ENDBRANCH  53  67
BRANCH  54  77
ATOM     77  C   UNL A   1      41.679  30.379  32.810  1.00  0.00    -0.014 A 
ATOM     78  C   UNL A   1      40.502  29.633  33.029  1.00  0.00     0.010 A 
ATOM     79  C   UNL A   1      41.816  31.632  33.432  1.00  0.00     0.010 A 
ATOM     80  C   UNL A   1      39.577  30.034  33.996  1.00  0.00     0.020 A 
ATOM     81  C   UNL A   1      40.883  32.040  34.398  1.00  0.00     0.020 A 
ATOM     82  C   UNL A   1      39.814  31.199  34.724  1.00  0.00     0.054 A 
BRANCH  82  83
ATOM     83  S   UNL A   1      38.845  31.459  36.243  1.00  0.00     0.124 S 
ATOM     84  O   UNL A   1      38.345  30.119  36.529  1.00  0.00    -0.237 OA
ATOM     85  O   UNL A   1      39.865  31.962  37.164  1.00  0.00    -0.237 OA
ATOM     86  O   UNL A   1      37.841  32.436  35.836  1.00  0.00    -0.744 OA
ENDBRANCH  82  83
ENDBRANCH  54  77
BRANCH  66  87
ATOM     87  C   UNL A   1      45.031  23.981  33.748  1.00  0.00    -0.014 A 
ATOM     88  C   UNL A   1      44.090  23.014  34.140  1.00  0.00     0.010 A 
ATOM     89  C   UNL A   1      46.373  23.753  34.142  1.00  0.00     0.010 A 
ATOM     90  C   UNL A   1      44.454  21.920  34.942  1.00  0.00     0.020 A 
ATOM     91  C   UNL A   1      46.756  22.640  34.898  1.00  0.00     0.020 A 
ATOM     92  C   UNL A   1      45.784  21.743  35.320  1.00  0.00     0.054 A 
BRANCH  92  93
ATOM     93  S   UNL A   1      46.253  20.297  36.305  1.00  0.00     0.124 S 
ATOM     94  O   UNL A   1      45.505  19.229  35.648  1.00  0.00    -0.237 OA
ATOM     95  O   UNL A   1      47.704  20.239  36.135  1.00  0.00    -0.237 OA
ATOM     96  O   UNL A   1      45.806  20.641  37.652  1.00  0.00    -0.744 OA
ENDBRANCH  92  93
ENDBRANCH  66  87
ENDBRANCH  40  41
ENDBRANCH  32  35
ENDBRANCH  30  31
ENDBRANCH  29  30
ENDBRANCH   1  29
TORSDOF 17
ENDMDL
MODEL 2
REMARK VINA RESULT:     -13.7      1.487      2.354
REMARK SMILES Cc1ccccc1NC(=O)CSc1nc(C(=O)NCCCNC(=O)c2ccc(-c3c4nc(c(-c5ccc(S(=O)(=O)[O-])cc5)c5ccc([nH]5)c(-c5ccc(S(=O)(=O)[O-])cc5)c5nc(c(-c6ccc(S(=O)(=O)[O-])cc6)c6ccc3[nH]6)C=C5)C=C4)cc2)c2ccccc2n1
REMARK SMILES IDX 19 1 18 2 16 3 17 4 15 6 13 7 14 8 91 9 90 10 85 11 89 12
REMARK SMILES IDX 86 13 88 14 87 15 12 16 11 17 9 18 8 19 10 21 7 22 1 23 2 24
REMARK SMILES IDX 3 25 4 26 6 27 5 28 20 29 21 30 22 31 23 32 24 34 25 35
REMARK SMILES IDX 26 36 84 37 27 38 83 39 28 40 29 41 30 42 77 43 31 44 82 45
REMARK SMILES IDX 76 46 78 47 32 48 81 49 75 50 74 51 33 53 63 54 44 55 62 56
REMARK SMILES IDX 45 57 48 58 61 59 79 60 46 61 47 62 60 64 80 65 49 66 34 67
REMARK SMILES IDX 35 68 43 69 36 70 42 71 37 72 38 73 39 74 40 75 41 76 64 77
REMARK SMILES IDX 65 78 73 79 66 80 72 81 67 82 68 83 69 84 70 85 71 86 50 87
REMARK SMILES IDX 51 88 59 89 52 90 58 91 53 92 54 93 55 94 56 95 57 96
REMARK H PARENT 18 5 8 20 22 33 78 52 48 63
REMARK Flexibility Score: inf
ROOT
ATOM      1  C   UNL A   1      32.856  29.635  25.875  1.00  0.00     0.118 C 
ENDROOT
BRANCH   1   2
ATOM      2  N   UNL A   1      32.122  28.534  26.483  1.00  0.00    -0.351 N 
ATOM      3  C   UNL A   1      32.186  27.162  26.388  1.00  0.00     0.270 C 
ATOM      4  O   UNL A   1      31.492  26.510  27.174  1.00  0.00    -0.267 OA
ATOM      5  H   UNL A   1      31.422  28.841  27.104  1.00  0.00     0.163 HD
BRANCH   3   6
ATOM      6  C   UNL A   1      32.935  26.423  25.315  1.00  0.00     0.140 A 
ATOM      7  C   UNL A   1      34.578  24.869  25.005  1.00  0.00     0.189 A 
ATOM      8  N   UNL A   1      33.947  25.683  25.837  1.00  0.00    -0.217 NA
ATOM      9  N   UNL A   1      34.204  24.625  23.746  1.00  0.00    -0.222 NA
ATOM     10  C   UNL A   1      33.225  25.380  23.241  1.00  0.00     0.076 A 
ATOM     11  C   UNL A   1      32.616  26.417  23.952  1.00  0.00     0.032 A 
ATOM     12  C   UNL A   1      32.786  25.110  21.951  1.00  0.00     0.029 A 
ATOM     13  C   UNL A   1      31.767  27.313  23.254  1.00  0.00     0.013 A 
ATOM     14  C   UNL A   1      31.809  25.887  21.327  1.00  0.00     0.002 A 
ATOM     15  C   UNL A   1      31.328  27.019  21.965  1.00  0.00     0.001 A 
BRANCH   7  16
ATOM     16  S   UNL A   1      35.988  23.991  25.602  1.00  0.00    -0.076 SA
BRANCH  16  17
ATOM     17  C   UNL A   1      35.992  22.587  24.443  1.00  0.00     0.178 C 
BRANCH  17  18
ATOM     18  C   UNL A   1      35.545  21.274  25.051  1.00  0.00     0.234 C 
ATOM     19  N   UNL A   1      34.319  21.025  25.591  1.00  0.00    -0.325 N 
ATOM     20  H   UNL A   1      34.255  20.112  25.952  1.00  0.00     0.169 HD
ATOM     21  O   UNL A   1      36.344  20.328  25.117  1.00  0.00    -0.274 OA
BRANCH  19  22
ATOM     22  C   UNL A   1      33.121  21.744  25.763  1.00  0.00     0.044 A 
ATOM     23  C   UNL A   1      32.454  21.292  23.295  1.00  0.00     0.046 C 
ATOM     24  C   UNL A   1      32.262  21.922  24.653  1.00  0.00    -0.027 A 
ATOM     25  C   UNL A   1      31.142  22.772  24.774  1.00  0.00     0.005 A 
ATOM     26  C   UNL A   1      30.837  23.396  25.978  1.00  0.00     0.000 A 
ATOM     27  C   UNL A   1      32.740  22.309  26.984  1.00  0.00     0.026 A 
ATOM     28  C   UNL A   1      31.623  23.141  27.090  1.00  0.00     0.002 A 
ENDBRANCH  19  22
ENDBRANCH  17  18
ENDBRANCH  16  17
ENDBRANCH   7  16
ENDBRANCH   3   6
ENDBRANCH   1   2
BRANCH   1  29
ATOM     29  C   UNL A   1      33.317  30.701  26.844  1.00  0.00     0.042 C 
BRANCH  29  30
ATOM     30  C   UNL A   1      34.515  30.230  27.650  1.00  0.00     0.118 C 
BRANCH  30  31
ATOM     31  N   UNL A   1      35.452  31.285  28.052  1.00  0.00    -0.352 N 
ATOM     32  C   UNL A   1      36.776  31.114  28.452  1.00  0.00     0.251 C 
ATOM     33  H   UNL A   1      35.110  32.207  28.039  1.00  0.00     0.163 HD
ATOM     34  O   UNL A   1      37.474  32.018  28.869  1.00  0.00    -0.269 OA
BRANCH  32  35
ATOM     35  C   UNL A   1      37.320  29.749  28.283  1.00  0.00     0.039 A 
ATOM     36  C   UNL A   1      37.411  28.975  29.446  1.00  0.00     0.014 A 
ATOM     37  C   UNL A   1      38.153  29.532  27.190  1.00  0.00     0.014 A 
ATOM     38  C   UNL A   1      38.519  28.156  29.620  1.00  0.00     0.010 A 
ATOM     39  C   UNL A   1      39.302  28.797  27.409  1.00  0.00     0.010 A 
ATOM     40  C   UNL A   1      39.522  28.180  28.654  1.00  0.00    -0.014 A 
BRANCH  40  41
ATOM     41  C   UNL A   1      40.868  27.667  28.886  1.00  0.00     0.031 A 
ATOM     42  C   UNL A   1      41.123  26.227  28.630  1.00  0.00     0.074 A 
ATOM     43  C   UNL A   1      41.882  28.485  29.258  1.00  0.00     0.049 A 
ATOM     44  N   UNL A   1      42.140  25.572  29.079  1.00  0.00    -0.248 NA
ATOM     45  C   UNL A   1      40.176  25.375  27.907  1.00  0.00     0.031 C 
ATOM     46  C   UNL A   1      43.310  28.163  29.237  1.00  0.00     0.029 A 
ATOM     47  N   UNL A   1      41.840  29.709  29.938  1.00  0.00    -0.354 N 
ATOM     48  C   UNL A   1      42.160  24.361  28.431  1.00  0.00     0.074 A 
ATOM     49  C   UNL A   1      40.853  24.227  27.843  1.00  0.00     0.031 C 
ATOM     50  C   UNL A   1      43.947  28.953  30.114  1.00  0.00     0.029 A 
ATOM     51  C   UNL A   1      42.924  29.689  30.835  1.00  0.00     0.049 A 
ATOM     52  H   UNL A   1      41.186  30.435  29.813  1.00  0.00     0.167 HD
ATOM     53  C   UNL A   1      43.338  23.685  28.321  1.00  0.00     0.031 A 
ATOM     54  C   UNL A   1      42.802  29.708  32.197  1.00  0.00     0.031 A 
ATOM     55  C   UNL A   1      44.334  24.209  29.257  1.00  0.00     0.049 A 
ATOM     56  C   UNL A   1      43.437  28.505  32.873  1.00  0.00     0.074 A 
ATOM     57  C   UNL A   1      45.483  24.966  29.113  1.00  0.00     0.029 A 
ATOM     58  N   UNL A   1      44.034  24.209  30.619  1.00  0.00    -0.354 N 
ATOM     59  N   UNL A   1      43.796  27.419  32.244  1.00  0.00    -0.248 NA
ATOM     60  C   UNL A   1      43.680  28.413  34.312  1.00  0.00     0.031 C 
ATOM     61  C   UNL A   1      45.798  25.523  30.386  1.00  0.00     0.029 A 
ATOM     62  C   UNL A   1      44.873  25.062  31.308  1.00  0.00     0.049 A 
ATOM     63  H   UNL A   1      43.321  23.672  31.032  1.00  0.00     0.167 HD
ATOM     64  C   UNL A   1      44.289  26.501  33.137  1.00  0.00     0.074 A 
ATOM     65  C   UNL A   1      44.212  27.181  34.418  1.00  0.00     0.031 C 
ATOM     66  C   UNL A   1      44.701  25.257  32.747  1.00  0.00     0.031 A 
BRANCH  53  67
ATOM     67  C   UNL A   1      43.646  22.726  27.183  1.00  0.00    -0.014 A 
ATOM     68  C   UNL A   1      42.852  21.575  26.994  1.00  0.00     0.010 A 
ATOM     69  C   UNL A   1      44.780  22.822  26.348  1.00  0.00     0.010 A 
ATOM     70  C   UNL A   1      43.195  20.575  26.062  1.00  0.00     0.020 A 
ATOM     71  C   UNL A   1      45.122  21.850  25.400  1.00  0.00     0.020 A 
ATOM     72  C   UNL A   1      44.337  20.716  25.274  1.00  0.00     0.054 A 
BRANCH  72  73
ATOM     73  S   UNL A   1      44.814  19.409  24.115  1.00  0.00     0.124 S 
ATOM     74  O   UNL A   1      44.605  20.048  22.818  1.00  0.00    -0.237 OA
ATOM     75  O   UNL A   1      46.205  19.153  24.478  1.00  0.00    -0.237 OA
ATOM     76  O   UNL A   1      43.887  18.319  24.419  1.00  0.00    -0.744 OA
ENDBRANCH  72  73
ENDBRANCH  53  67
BRANCH  54  77
ATOM     77  C   UNL A   1      41.619  30.457  32.704  1.00  0.00    -0.014 A 
ATOM     78  C   UNL A   1      40.412  29.740  32.838  1.00  0.00     0.010 A 
ATOM     79  C   UNL A   1      41.782  31.655  33.421  1.00  0.00     0.010 A 
ATOM     80  C   UNL A   1      39.476  30.100  33.810  1.00  0.00     0.020 A 
ATOM     81  C   UNL A   1      40.839  32.022  34.394  1.00  0.00     0.020 A 
ATOM     82  C   UNL A   1      39.734  31.199  34.630  1.00  0.00     0.054 A 
BRANCH  82  83
ATOM     83  S   UNL A   1      38.735  31.379  36.141  1.00  0.00     0.124 S 
ATOM     84  O   UNL A   1      37.620  32.199  35.684  1.00  0.00    -0.237 OA
ATOM     85  O   UNL A   1      38.409  29.986  36.450  1.00  0.00    -0.237 OA
ATOM     86  O   UNL A   1      39.654  32.023  37.074  1.00  0.00    -0.744 OA
ENDBRANCH  82  83
ENDBRANCH  54  77
BRANCH  66  87
ATOM     87  C   UNL A   1      45.048  24.105  33.671  1.00  0.00    -0.014 A 
ATOM     88  C   UNL A   1      44.168  23.065  34.009  1.00  0.00     0.010 A 
ATOM     89  C   UNL A   1      46.380  23.984  34.139  1.00  0.00     0.010 A 
ATOM     90  C   UNL A   1      44.573  21.999  34.831  1.00  0.00     0.020 A 
ATOM     91  C   UNL A   1      46.808  22.903  34.917  1.00  0.00     0.020 A 
ATOM     92  C   UNL A   1      45.890  21.929  35.284  1.00  0.00     0.054 A 
BRANCH  92  93
ATOM     93  S   UNL A   1      46.418  20.522  36.295  1.00  0.00     0.124 S 
ATOM     94  O   UNL A   1      47.667  20.136  35.645  1.00  0.00    -0.237 OA
ATOM     95  O   UNL A   1      46.561  21.108  37.627  1.00  0.00    -0.237 OA
ATOM     96  O   UNL A   1      45.318  19.571  36.158  1.00  0.00    -0.744 OA
ENDBRANCH  92  93
ENDBRANCH  66  87
ENDBRANCH  40  41
ENDBRANCH  32  35
ENDBRANCH  30  31
ENDBRANCH  29  30
ENDBRANCH   1  29
TORSDOF 17
ENDMDL
MODEL 3
REMARK VINA RESULT:     -13.6      2.575      3.672
REMARK SMILES Cc1ccccc1NC(=O)CSc1nc(C(=O)NCCCNC(=O)c2ccc(-c3c4nc(c(-c5ccc(S(=O)(=O)[O-])cc5)c5ccc([nH]5)c(-c5ccc(S(=O)(=O)[O-])cc5)c5nc(c(-c6ccc(S(=O)(=O)[O-])cc6)c6ccc3[nH]6)C=C5)C=C4)cc2)c2ccccc2n1
REMARK SMILES IDX 19 1 18 2 16 3 17 4 15 6 13 7 14 8 91 9 90 10 85 11 89 12
REMARK SMILES IDX 86 13 88 14 87 15 12 16 11 17 9 18 8 19 10 21 7 22 1 23 2 24
REMARK SMILES IDX 3 25 4 26 6 27 5 28 20 29 21 30 22 31 23 32 24 34 25 35
REMARK SMILES IDX 26 36 84 37 27 38 83 39 28 40 29 41 30 42 77 43 31 44 82 45
REMARK SMILES IDX 76 46 78 47 32 48 81 49 75 50 74 51 33 53 63 54 44 55 62 56
REMARK SMILES IDX 45 57 48 58 61 59 79 60 46 61 47 62 60 64 80 65 49 66 34 67
REMARK SMILES IDX 35 68 43 69 36 70 42 71 37 72 38 73 39 74 40 75 41 76 64 77
REMARK SMILES IDX 65 78 73 79 66 80 72 81 67 82 68 83 69 84 70 85 71 86 50 87
REMARK SMILES IDX 51 88 59 89 52 90 58 91 53 92 54 93 55 94 56 95 57 96
REMARK H PARENT 18 5 8 20 22 33 78 52 48 63
REMARK Flexibility Score: inf
ROOT
ATOM      1  C   UNL A   1      31.527  28.409  26.395  1.00  0.00     0.118 C 
ENDROOT
BRANCH   1   2
ATOM      2  N   UNL A   1      31.214  27.050  26.815  1.00  0.00    -0.351 N 
ATOM      3  C   UNL A   1      31.741  25.808  26.536  1.00  0.00     0.270 C 
ATOM      4  O   UNL A   1      31.313  24.855  27.195  1.00  0.00    -0.267 OA
ATOM      5  H   UNL A   1      30.455  27.010  27.440  1.00  0.00     0.163 HD
BRANCH   3   6
ATOM      6  C   UNL A   1      32.692  25.527  25.408  1.00  0.00     0.140 A 
ATOM      7  C   UNL A   1      34.639  24.440  24.916  1.00  0.00     0.189 A 
ATOM      8  N   UNL A   1      33.801  24.878  25.845  1.00  0.00    -0.217 NA
ATOM      9  N   UNL A   1      34.401  24.468  23.602  1.00  0.00    -0.222 NA
ATOM     10  C   UNL A   1      33.320  25.134  23.188  1.00  0.00     0.076 A 
ATOM     11  C   UNL A   1      32.466  25.818  24.057  1.00  0.00     0.032 A 
ATOM     12  C   UNL A   1      33.027  25.132  21.831  1.00  0.00     0.029 A 
ATOM     13  C   UNL A   1      31.493  26.691  23.507  1.00  0.00     0.013 A 
ATOM     14  C   UNL A   1      31.950  25.851  21.308  1.00  0.00     0.002 A 
ATOM     15  C   UNL A   1      31.205  26.667  22.144  1.00  0.00     0.001 A 
BRANCH   7  16
ATOM     16  S   UNL A   1      36.161  23.715  25.437  1.00  0.00    -0.076 SA
BRANCH  16  17
ATOM     17  C   UNL A   1      35.797  21.962  25.107  1.00  0.00     0.178 C 
BRANCH  17  18
ATOM     18  C   UNL A   1      34.872  21.314  26.117  1.00  0.00     0.234 C 
ATOM     19  N   UNL A   1      33.995  20.306  25.857  1.00  0.00    -0.325 N 
ATOM     20  H   UNL A   1      33.475  20.056  26.654  1.00  0.00     0.169 HD
ATOM     21  O   UNL A   1      34.852  21.734  27.283  1.00  0.00    -0.274 OA
BRANCH  19  22
ATOM     22  C   UNL A   1      33.644  19.528  24.736  1.00  0.00     0.044 A 
ATOM     23  C   UNL A   1      32.159  21.453  23.824  1.00  0.00     0.046 C 
ATOM     24  C   UNL A   1      32.722  20.053  23.800  1.00  0.00    -0.027 A 
ATOM     25  C   UNL A   1      32.243  19.225  22.762  1.00  0.00     0.005 A 
ATOM     26  C   UNL A   1      32.698  17.921  22.612  1.00  0.00     0.000 A 
ATOM     27  C   UNL A   1      34.154  18.247  24.507  1.00  0.00     0.026 A 
ATOM     28  C   UNL A   1      33.675  17.442  23.470  1.00  0.00     0.002 A 
ENDBRANCH  19  22
ENDBRANCH  17  18
ENDBRANCH  16  17
ENDBRANCH   7  16
ENDBRANCH   3   6
ENDBRANCH   1   2
BRANCH   1  29
ATOM     29  C   UNL A   1      32.439  29.167  27.333  1.00  0.00     0.042 C 
BRANCH  29  30
ATOM     30  C   UNL A   1      33.540  29.884  26.570  1.00  0.00     0.118 C 
BRANCH  30  31
ATOM     31  N   UNL A   1      34.016  31.130  27.181  1.00  0.00    -0.352 N 
ATOM     32  C   UNL A   1      35.108  31.275  28.034  1.00  0.00     0.251 C 
ATOM     33  H   UNL A   1      33.512  31.947  26.966  1.00  0.00     0.163 HD
ATOM     34  O   UNL A   1      35.394  32.318  28.587  1.00  0.00    -0.269 OA
BRANCH  32  35
ATOM     35  C   UNL A   1      35.957  30.074  28.189  1.00  0.00     0.039 A 
ATOM     36  C   UNL A   1      36.065  29.559  29.486  1.00  0.00     0.014 A 
ATOM     37  C   UNL A   1      36.952  29.877  27.237  1.00  0.00     0.014 A 
ATOM     38  C   UNL A   1      37.294  29.076  29.915  1.00  0.00     0.010 A 
ATOM     39  C   UNL A   1      38.197  29.492  27.696  1.00  0.00     0.010 A 
ATOM     40  C   UNL A   1      38.383  29.173  29.053  1.00  0.00    -0.014 A 
BRANCH  40  41
ATOM     41  C   UNL A   1      39.768  29.048  29.497  1.00  0.00     0.031 A 
ATOM     42  C   UNL A   1      40.502  27.802  29.165  1.00  0.00     0.074 A 
ATOM     43  C   UNL A   1      40.400  30.063  30.136  1.00  0.00     0.049 A 
ATOM     44  N   UNL A   1      41.588  27.415  29.743  1.00  0.00    -0.248 NA
ATOM     45  C   UNL A   1      39.999  26.827  28.194  1.00  0.00     0.031 C 
ATOM     46  C   UNL A   1      41.841  30.181  30.367  1.00  0.00     0.029 A 
ATOM     47  N   UNL A   1      39.865  31.106  30.904  1.00  0.00    -0.354 N 
ATOM     48  C   UNL A   1      42.092  26.373  29.003  1.00  0.00     0.074 A 
ATOM     49  C   UNL A   1      41.006  25.950  28.159  1.00  0.00     0.031 C 
ATOM     50  C   UNL A   1      42.047  30.984  31.422  1.00  0.00     0.029 A 
ATOM     51  C   UNL A   1      40.743  31.272  31.992  1.00  0.00     0.049 A 
ATOM     52  H   UNL A   1      39.045  31.618  30.721  1.00  0.00     0.167 HD
ATOM     53  C   UNL A   1      43.424  26.096  29.065  1.00  0.00     0.031 A 
ATOM     54  C   UNL A   1      40.406  31.052  33.298  1.00  0.00     0.031 A 
ATOM     55  C   UNL A   1      44.042  26.744  30.224  1.00  0.00     0.049 A 
ATOM     56  C   UNL A   1      41.272  30.001  33.972  1.00  0.00     0.074 A 
ATOM     57  C   UNL A   1      44.901  27.817  30.380  1.00  0.00     0.029 A 
ATOM     58  N   UNL A   1      43.545  26.454  31.494  1.00  0.00    -0.354 N 
ATOM     59  N   UNL A   1      42.051  29.174  33.329  1.00  0.00    -0.248 NA
ATOM     60  C   UNL A   1      41.299  29.771  35.416  1.00  0.00     0.031 C 
ATOM     61  C   UNL A   1      44.817  28.247  31.735  1.00  0.00     0.029 A 
ATOM     62  C   UNL A   1      43.950  27.403  32.411  1.00  0.00     0.049 A 
ATOM     63  H   UNL A   1      42.981  25.675  31.707  1.00  0.00     0.167 HD
ATOM     64  C   UNL A   1      42.659  28.319  34.213  1.00  0.00     0.074 A 
ATOM     65  C   UNL A   1      42.169  28.748  35.511  1.00  0.00     0.031 C 
ATOM     66  C   UNL A   1      43.500  27.322  33.799  1.00  0.00     0.031 A 
BRANCH  53  67
ATOM     67  C   UNL A   1      44.197  25.450  27.926  1.00  0.00    -0.014 A 
ATOM     68  C   UNL A   1      43.806  25.678  26.589  1.00  0.00     0.010 A 
ATOM     69  C   UNL A   1      45.227  24.502  28.103  1.00  0.00     0.010 A 
ATOM     70  C   UNL A   1      44.384  24.975  25.513  1.00  0.00     0.020 A 
ATOM     71  C   UNL A   1      45.828  23.813  27.042  1.00  0.00     0.020 A 
ATOM     72  C   UNL A   1      45.388  24.037  25.748  1.00  0.00     0.054 A 
BRANCH  72  73
ATOM     73  S   UNL A   1      46.093  23.090  24.375  1.00  0.00     0.124 S 
ATOM     74  O   UNL A   1      44.952  22.950  23.473  1.00  0.00    -0.237 OA
ATOM     75  O   UNL A   1      47.168  23.959  23.906  1.00  0.00    -0.237 OA
ATOM     76  O   UNL A   1      46.536  21.845  25.002  1.00  0.00    -0.744 OA
ENDBRANCH  72  73
ENDBRANCH  53  67
BRANCH  54  77
ATOM     77  C   UNL A   1      38.982  31.337  33.629  1.00  0.00    -0.014 A 
ATOM     78  C   UNL A   1      38.665  32.650  34.034  1.00  0.00     0.010 A 
ATOM     79  C   UNL A   1      37.955  30.506  33.149  1.00  0.00     0.010 A 
ATOM     80  C   UNL A   1      37.401  33.186  33.781  1.00  0.00     0.020 A 
ATOM     81  C   UNL A   1      36.681  31.041  32.901  1.00  0.00     0.020 A 
ATOM     82  C   UNL A   1      36.441  32.396  33.150  1.00  0.00     0.054 A 
BRANCH  82  83
ATOM     83  S   UNL A   1      34.983  33.234  32.451  1.00  0.00     0.124 S 
ATOM     84  O   UNL A   1      34.395  32.195  31.614  1.00  0.00    -0.237 OA
ATOM     85  O   UNL A   1      34.228  33.574  33.658  1.00  0.00    -0.237 OA
ATOM     86  O   UNL A   1      35.560  34.370  31.740  1.00  0.00    -0.744 OA
ENDBRANCH  82  83
ENDBRANCH  54  77
BRANCH  66  87
ATOM     87  C   UNL A   1      44.041  26.199  34.663  1.00  0.00    -0.014 A 
ATOM     88  C   UNL A   1      43.554  24.882  34.651  1.00  0.00     0.010 A 
ATOM     89  C   UNL A   1      45.192  26.441  35.453  1.00  0.00     0.010 A 
ATOM     90  C   UNL A   1      44.137  23.878  35.441  1.00  0.00     0.020 A 
ATOM     91  C   UNL A   1      45.811  25.437  36.205  1.00  0.00     0.020 A 
ATOM     92  C   UNL A   1      45.259  24.163  36.217  1.00  0.00     0.054 A 
BRANCH  92  93
ATOM     93  S   UNL A   1      46.039  22.847  37.187  1.00  0.00     0.124 S 
ATOM     94  O   UNL A   1      47.458  23.108  36.962  1.00  0.00    -0.237 OA
ATOM     95  O   UNL A   1      45.562  23.110  38.543  1.00  0.00    -0.237 OA
ATOM     96  O   UNL A   1      45.522  21.623  36.581  1.00  0.00    -0.744 OA
ENDBRANCH  92  93
ENDBRANCH  66  87
ENDBRANCH  40  41
ENDBRANCH  32  35
ENDBRANCH  30  31
ENDBRANCH  29  30
ENDBRANCH   1  29
TORSDOF 17
ENDMDL
