MODEL 1
REMARK VINA RESULT:     -10.5      0.000      0.000
REMARK SMILES CCc1ccc(S(=O)(=O)CC(=O)NCCCNC(=O)c2ccc(-c3c4nc(c(-c5ccc(S(=O)(=O)[O-])cc5)c5ccc([nH]5)c(-c5ccc(S(=O)(=O)[O-])cc5)c5nc(c(-c6ccc(S(=O)(=O)[O-])cc6)c6ccc3[nH]6)C=C5)C=C4)cc2)cc1
REMARK SMILES IDX 15 1 14 2 13 3 11 4 12 5 10 7 7 8 8 9 9 10 6 11 3 12 4 13
REMARK SMILES IDX 81 14 5 15 80 16 2 17 1 18 16 19 17 20 18 21 19 23 20 24
REMARK SMILES IDX 21 25 79 26 22 27 78 28 23 29 24 30 25 31 72 32 26 33 77 34
REMARK SMILES IDX 71 35 73 36 27 37 76 38 70 39 69 40 28 42 58 43 39 44 57 45
REMARK SMILES IDX 40 46 43 47 56 48 74 49 41 50 42 51 55 53 75 54 44 55 29 56
REMARK SMILES IDX 30 57 38 58 31 59 37 60 32 61 33 62 34 63 35 64 36 65 59 66
REMARK SMILES IDX 60 67 68 68 61 69 67 70 62 71 63 72 64 73 65 74 66 75 45 76
REMARK SMILES IDX 46 77 54 78 47 79 53 80 48 81 49 82 50 83 51 84 52 85
REMARK H PARENT 13 6 17 22 73 41 43 52
REMARK Flexibility Score: inf
ROOT
ATOM      1  C   UNL A   1      33.172  28.021  25.634  1.00  0.00     0.042 C 
ENDROOT
BRANCH   1   2
ATOM      2  C   UNL A   1      31.826  27.345  25.389  1.00  0.00     0.117 C 
BRANCH   2   3
ATOM      3  N   UNL A   1      31.150  27.905  24.230  1.00  0.00    -0.355 N 
ATOM      4  C   UNL A   1      31.027  27.422  22.967  1.00  0.00     0.235 C 
ATOM      5  O   UNL A   1      30.443  28.133  22.146  1.00  0.00    -0.274 OA
ATOM      6  H   UNL A   1      30.711  28.771  24.387  1.00  0.00     0.163 HD
BRANCH   4   7
ATOM      7  C   UNL A   1      31.457  26.040  22.603  1.00  0.00     0.241 C 
BRANCH   7   8
ATOM      8  S   UNL A   1      33.156  25.868  22.207  1.00  0.00     0.187 S 
ATOM      9  O   UNL A   1      33.778  27.152  22.484  1.00  0.00    -0.223 OA
ATOM     10  O   UNL A   1      33.229  25.316  20.866  1.00  0.00    -0.223 OA
BRANCH   8  11
ATOM     11  C   UNL A   1      33.956  24.711  23.285  1.00  0.00     0.067 A 
ATOM     12  C   UNL A   1      35.296  22.812  24.872  1.00  0.00    -0.048 A 
ATOM     13  C   UNL A   1      34.625  22.424  23.701  1.00  0.00     0.005 A 
ATOM     14  C   UNL A   1      35.282  24.167  25.229  1.00  0.00     0.005 A 
ATOM     15  C   UNL A   1      33.950  23.363  22.918  1.00  0.00     0.020 A 
ATOM     16  C   UNL A   1      34.629  25.118  24.435  1.00  0.00     0.020 A 
BRANCH  12  17
ATOM     17  C   UNL A   1      36.057  21.754  25.641  1.00  0.00     0.032 C 
ATOM     18  C   UNL A   1      36.220  20.398  24.965  1.00  0.00     0.009 C 
ENDBRANCH  12  17
ENDBRANCH   8  11
ENDBRANCH   7   8
ENDBRANCH   4   7
ENDBRANCH   2   3
ENDBRANCH   1   2
BRANCH   1  19
ATOM     19  C   UNL A   1      33.463  28.329  27.099  1.00  0.00     0.118 C 
BRANCH  19  20
ATOM     20  N   UNL A   1      33.403  29.752  27.400  1.00  0.00    -0.352 N 
ATOM     21  C   UNL A   1      34.329  30.566  28.007  1.00  0.00     0.251 C 
ATOM     22  H   UNL A   1      32.570  30.201  27.126  1.00  0.00     0.163 HD
ATOM     23  O   UNL A   1      34.006  31.705  28.333  1.00  0.00    -0.269 OA
BRANCH  21  24
ATOM     24  C   UNL A   1      35.697  30.076  28.287  1.00  0.00     0.039 A 
ATOM     25  C   UNL A   1      36.655  30.131  27.269  1.00  0.00     0.014 A 
ATOM     26  C   UNL A   1      36.035  29.539  29.532  1.00  0.00     0.014 A 
ATOM     27  C   UNL A   1      37.966  29.717  27.524  1.00  0.00     0.010 A 
ATOM     28  C   UNL A   1      37.357  29.194  29.806  1.00  0.00     0.010 A 
ATOM     29  C   UNL A   1      38.337  29.280  28.806  1.00  0.00    -0.014 A 
BRANCH  29  30
ATOM     30  C   UNL A   1      39.743  28.919  29.126  1.00  0.00     0.031 A 
ATOM     31  C   UNL A   1      40.668  29.938  29.736  1.00  0.00     0.074 A 
ATOM     32  C   UNL A   1      40.210  27.697  28.796  1.00  0.00     0.049 A 
ATOM     33  N   UNL A   1      41.947  29.837  29.998  1.00  0.00    -0.248 NA
ATOM     34  C   UNL A   1      40.086  31.246  30.076  1.00  0.00     0.031 C 
ATOM     35  C   UNL A   1      39.425  26.630  28.170  1.00  0.00     0.029 A 
ATOM     36  N   UNL A   1      41.461  27.151  28.932  1.00  0.00    -0.354 N 
ATOM     37  C   UNL A   1      42.326  31.071  30.514  1.00  0.00     0.074 A 
ATOM     38  C   UNL A   1      41.152  31.917  30.487  1.00  0.00     0.031 C 
ATOM     39  C   UNL A   1      40.207  25.554  27.995  1.00  0.00     0.029 A 
ATOM     40  C   UNL A   1      41.558  25.865  28.452  1.00  0.00     0.049 A 
ATOM     41  H   UNL A   1      42.219  27.633  29.333  1.00  0.00     0.167 HD
ATOM     42  C   UNL A   1      43.537  31.462  30.980  1.00  0.00     0.031 A 
ATOM     43  C   UNL A   1      42.615  25.033  28.376  1.00  0.00     0.031 A 
ATOM     44  C   UNL A   1      44.700  30.615  31.016  1.00  0.00     0.049 A 
ATOM     45  C   UNL A   1      43.953  25.494  28.882  1.00  0.00     0.074 A 
ATOM     46  C   UNL A   1      45.956  30.902  31.521  1.00  0.00     0.029 A 
ATOM     47  N   UNL A   1      44.751  29.318  30.528  1.00  0.00    -0.354 N 
ATOM     48  N   UNL A   1      44.277  26.647  29.417  1.00  0.00    -0.248 NA
ATOM     49  C   UNL A   1      45.067  24.542  28.779  1.00  0.00     0.031 C 
ATOM     50  C   UNL A   1      46.781  29.796  31.295  1.00  0.00     0.029 A 
ATOM     51  C   UNL A   1      46.024  28.800  30.697  1.00  0.00     0.049 A 
ATOM     52  H   UNL A   1      43.995  28.837  30.121  1.00  0.00     0.167 HD
ATOM     53  C   UNL A   1      45.627  26.550  29.737  1.00  0.00     0.074 A 
ATOM     54  C   UNL A   1      46.055  25.222  29.346  1.00  0.00     0.031 C 
ATOM     55  C   UNL A   1      46.437  27.477  30.303  1.00  0.00     0.031 A 
BRANCH  42  56
ATOM     56  C   UNL A   1      43.666  32.875  31.483  1.00  0.00    -0.014 A 
ATOM     57  C   UNL A   1      44.039  33.922  30.618  1.00  0.00     0.010 A 
ATOM     58  C   UNL A   1      43.375  33.169  32.827  1.00  0.00     0.010 A 
ATOM     59  C   UNL A   1      44.160  35.227  31.100  1.00  0.00     0.020 A 
ATOM     60  C   UNL A   1      43.469  34.479  33.306  1.00  0.00     0.020 A 
ATOM     61  C   UNL A   1      43.879  35.498  32.443  1.00  0.00     0.054 A 
BRANCH  61  62
ATOM     62  S   UNL A   1      44.031  37.205  33.037  1.00  0.00     0.124 S 
ATOM     63  O   UNL A   1      42.831  37.342  33.860  1.00  0.00    -0.237 OA
ATOM     64  O   UNL A   1      45.294  37.179  33.770  1.00  0.00    -0.237 OA
ATOM     65  O   UNL A   1      44.039  37.999  31.812  1.00  0.00    -0.744 OA
ENDBRANCH  61  62
ENDBRANCH  42  56
BRANCH  43  66
ATOM     66  C   UNL A   1      42.446  23.671  27.799  1.00  0.00    -0.014 A 
ATOM     67  C   UNL A   1      42.690  23.441  26.434  1.00  0.00     0.010 A 
ATOM     68  C   UNL A   1      42.055  22.594  28.615  1.00  0.00     0.010 A 
ATOM     69  C   UNL A   1      42.533  22.163  25.892  1.00  0.00     0.020 A 
ATOM     70  C   UNL A   1      41.921  21.309  28.082  1.00  0.00     0.020 A 
ATOM     71  C   UNL A   1      42.151  21.104  26.720  1.00  0.00     0.054 A 
BRANCH  71  72
ATOM     72  S   UNL A   1      42.002  19.443  26.005  1.00  0.00     0.124 S 
ATOM     73  O   UNL A   1      40.572  19.359  25.726  1.00  0.00    -0.237 OA
ATOM     74  O   UNL A   1      42.872  19.523  24.835  1.00  0.00    -0.237 OA
ATOM     75  O   UNL A   1      42.486  18.568  27.073  1.00  0.00    -0.744 OA
ENDBRANCH  71  72
ENDBRANCH  43  66
BRANCH  55  76
ATOM     76  C   UNL A   1      47.867  27.085  30.562  1.00  0.00    -0.014 A 
ATOM     77  C   UNL A   1      48.888  27.418  29.657  1.00  0.00     0.010 A 
ATOM     78  C   UNL A   1      48.200  26.433  31.765  1.00  0.00     0.010 A 
ATOM     79  C   UNL A   1      50.217  27.090  29.939  1.00  0.00     0.020 A 
ATOM     80  C   UNL A   1      49.530  26.125  32.061  1.00  0.00     0.020 A 
ATOM     81  C   UNL A   1      50.530  26.447  31.141  1.00  0.00     0.054 A 
BRANCH  81  82
ATOM     82  S   UNL A   1      52.268  26.087  31.512  1.00  0.00     0.124 S 
ATOM     83  O   UNL A   1      52.895  26.233  30.201  1.00  0.00    -0.237 OA
ATOM     84  O   UNL A   1      52.608  27.118  32.489  1.00  0.00    -0.237 OA
ATOM     85  O   UNL A   1      52.235  24.726  32.039  1.00  0.00    -0.744 OA
ENDBRANCH  81  82
ENDBRANCH  55  76
ENDBRANCH  29  30
ENDBRANCH  21  24
ENDBRANCH  19  20
ENDBRANCH   1  19
TORSDOF 16
ENDMDL
MODEL 2
REMARK VINA RESULT:     -10.3      1.540      2.234
REMARK SMILES CCc1ccc(S(=O)(=O)CC(=O)NCCCNC(=O)c2ccc(-c3c4nc(c(-c5ccc(S(=O)(=O)[O-])cc5)c5ccc([nH]5)c(-c5ccc(S(=O)(=O)[O-])cc5)c5nc(c(-c6ccc(S(=O)(=O)[O-])cc6)c6ccc3[nH]6)C=C5)C=C4)cc2)cc1
REMARK SMILES IDX 15 1 14 2 13 3 11 4 12 5 10 7 7 8 8 9 9 10 6 11 3 12 4 13
REMARK SMILES IDX 81 14 5 15 80 16 2 17 1 18 16 19 17 20 18 21 19 23 20 24
REMARK SMILES IDX 21 25 79 26 22 27 78 28 23 29 24 30 25 31 72 32 26 33 77 34
REMARK SMILES IDX 71 35 73 36 27 37 76 38 70 39 69 40 28 42 58 43 39 44 57 45
REMARK SMILES IDX 40 46 43 47 56 48 74 49 41 50 42 51 55 53 75 54 44 55 29 56
REMARK SMILES IDX 30 57 38 58 31 59 37 60 32 61 33 62 34 63 35 64 36 65 59 66
REMARK SMILES IDX 60 67 68 68 61 69 67 70 62 71 63 72 64 73 65 74 66 75 45 76
REMARK SMILES IDX 46 77 54 78 47 79 53 80 48 81 49 82 50 83 51 84 52 85
REMARK H PARENT 13 6 17 22 73 41 43 52
REMARK Flexibility Score: inf
ROOT
ATOM      1  C   UNL A   1      33.332  27.275  25.425  1.00  0.00     0.042 C 
ENDROOT
BRANCH   1   2
ATOM      2  C   UNL A   1      31.830  27.018  25.510  1.00  0.00     0.117 C 
BRANCH   2   3
ATOM      3  N   UNL A   1      31.519  25.999  26.500  1.00  0.00    -0.355 N 
ATOM      4  C   UNL A   1      31.352  24.659  26.359  1.00  0.00     0.235 C 
ATOM      5  O   UNL A   1      31.030  24.022  27.364  1.00  0.00    -0.274 OA
ATOM      6  H   UNL A   1      31.411  26.335  27.419  1.00  0.00     0.163 HD
BRANCH   4   7
ATOM      7  C   UNL A   1      31.669  23.953  25.083  1.00  0.00     0.241 C 
BRANCH   7   8
ATOM      8  S   UNL A   1      33.350  23.499  24.881  1.00  0.00     0.187 S 
ATOM      9  O   UNL A   1      34.021  23.828  26.127  1.00  0.00    -0.223 OA
ATOM     10  O   UNL A   1      33.811  24.104  23.643  1.00  0.00    -0.223 OA
BRANCH   8  11
ATOM     11  C   UNL A   1      33.528  21.745  24.694  1.00  0.00     0.067 A 
ATOM     12  C   UNL A   1      33.891  18.960  24.530  1.00  0.00    -0.048 A 
ATOM     13  C   UNL A   1      34.974  19.810  24.802  1.00  0.00     0.005 A 
ATOM     14  C   UNL A   1      32.625  19.533  24.343  1.00  0.00     0.005 A 
ATOM     15  C   UNL A   1      34.799  21.194  24.873  1.00  0.00     0.020 A 
ATOM     16  C   UNL A   1      32.437  20.917  24.438  1.00  0.00     0.020 A 
BRANCH  12  17
ATOM     17  C   UNL A   1      34.139  17.467  24.526  1.00  0.00     0.032 C 
ATOM     18  C   UNL A   1      33.987  16.749  23.191  1.00  0.00     0.009 C 
ENDBRANCH  12  17
ENDBRANCH   8  11
ENDBRANCH   7   8
ENDBRANCH   4   7
ENDBRANCH   2   3
ENDBRANCH   1   2
BRANCH   1  19
ATOM     19  C   UNL A   1      33.952  27.809  26.712  1.00  0.00     0.118 C 
BRANCH  19  20
ATOM     20  N   UNL A   1      33.605  29.198  26.973  1.00  0.00    -0.352 N 
ATOM     21  C   UNL A   1      34.308  30.173  27.639  1.00  0.00     0.251 C 
ATOM     22  H   UNL A   1      32.733  29.484  26.616  1.00  0.00     0.163 HD
ATOM     23  O   UNL A   1      33.755  31.235  27.909  1.00  0.00    -0.269 OA
BRANCH  21  24
ATOM     24  C   UNL A   1      35.712  29.945  28.050  1.00  0.00     0.039 A 
ATOM     25  C   UNL A   1      35.973  29.533  29.361  1.00  0.00     0.014 A 
ATOM     26  C   UNL A   1      36.771  30.160  27.164  1.00  0.00     0.014 A 
ATOM     27  C   UNL A   1      37.287  29.267  29.759  1.00  0.00     0.010 A 
ATOM     28  C   UNL A   1      38.071  29.826  27.540  1.00  0.00     0.010 A 
ATOM     29  C   UNL A   1      38.343  29.375  28.840  1.00  0.00    -0.014 A 
BRANCH  29  30
ATOM     30  C   UNL A   1      39.735  29.013  29.213  1.00  0.00     0.031 A 
ATOM     31  C   UNL A   1      40.632  30.024  29.876  1.00  0.00     0.074 A 
ATOM     32  C   UNL A   1      40.218  27.796  28.887  1.00  0.00     0.049 A 
ATOM     33  N   UNL A   1      41.899  29.921  30.189  1.00  0.00    -0.248 NA
ATOM     34  C   UNL A   1      40.034  31.326  30.209  1.00  0.00     0.031 C 
ATOM     35  C   UNL A   1      39.462  26.736  28.214  1.00  0.00     0.029 A 
ATOM     36  N   UNL A   1      41.463  27.249  29.067  1.00  0.00    -0.354 N 
ATOM     37  C   UNL A   1      42.254  31.149  30.737  1.00  0.00     0.074 A 
ATOM     38  C   UNL A   1      41.080  31.994  30.673  1.00  0.00     0.031 C 
ATOM     39  C   UNL A   1      40.253  25.664  28.057  1.00  0.00     0.029 A 
ATOM     40  C   UNL A   1      41.583  25.970  28.574  1.00  0.00     0.049 A 
ATOM     41  H   UNL A   1      42.203  27.727  29.506  1.00  0.00     0.167 HD
ATOM     42  C   UNL A   1      43.443  31.535  31.258  1.00  0.00     0.031 A 
ATOM     43  C   UNL A   1      42.644  25.141  28.531  1.00  0.00     0.031 A 
ATOM     44  C   UNL A   1      44.605  30.690  31.332  1.00  0.00     0.049 A 
ATOM     45  C   UNL A   1      43.959  25.598  29.099  1.00  0.00     0.074 A 
ATOM     46  C   UNL A   1      45.839  30.971  31.893  1.00  0.00     0.029 A 
ATOM     47  N   UNL A   1      44.680  29.400  30.829  1.00  0.00    -0.354 N 
ATOM     48  N   UNL A   1      44.258  26.744  29.663  1.00  0.00    -0.248 NA
ATOM     49  C   UNL A   1      45.078  24.648  29.029  1.00  0.00     0.031 C 
ATOM     50  C   UNL A   1      46.675  29.869  31.685  1.00  0.00     0.029 A 
ATOM     51  C   UNL A   1      45.946  28.881  31.043  1.00  0.00     0.049 A 
ATOM     52  H   UNL A   1      43.942  28.923  30.384  1.00  0.00     0.167 HD
ATOM     53  C   UNL A   1      45.593  26.643  30.037  1.00  0.00     0.074 A 
ATOM     54  C   UNL A   1      46.041  25.322  29.646  1.00  0.00     0.031 C 
ATOM     55  C   UNL A   1      46.377  27.564  30.649  1.00  0.00     0.031 A 
BRANCH  42  56
ATOM     56  C   UNL A   1      43.549  32.941  31.785  1.00  0.00    -0.014 A 
ATOM     57  C   UNL A   1      43.935  34.004  30.946  1.00  0.00     0.010 A 
ATOM     58  C   UNL A   1      43.221  33.213  33.126  1.00  0.00     0.010 A 
ATOM     59  C   UNL A   1      44.034  35.303  31.450  1.00  0.00     0.020 A 
ATOM     60  C   UNL A   1      43.293  34.516  33.627  1.00  0.00     0.020 A 
ATOM     61  C   UNL A   1      43.716  35.551  32.789  1.00  0.00     0.054 A 
BRANCH  61  62
ATOM     62  S   UNL A   1      43.839  37.250  33.413  1.00  0.00     0.124 S 
ATOM     63  O   UNL A   1      45.126  37.222  34.105  1.00  0.00    -0.237 OA
ATOM     64  O   UNL A   1      43.802  38.045  32.189  1.00  0.00    -0.237 OA
ATOM     65  O   UNL A   1      42.671  37.387  34.278  1.00  0.00    -0.744 OA
ENDBRANCH  61  62
ENDBRANCH  42  56
BRANCH  43  66
ATOM     66  C   UNL A   1      42.502  23.787  27.929  1.00  0.00    -0.014 A 
ATOM     67  C   UNL A   1      42.261  22.668  28.745  1.00  0.00     0.010 A 
ATOM     68  C   UNL A   1      42.591  23.611  26.536  1.00  0.00     0.010 A 
ATOM     69  C   UNL A   1      42.127  21.396  28.181  1.00  0.00     0.020 A 
ATOM     70  C   UNL A   1      42.431  22.346  25.967  1.00  0.00     0.020 A 
ATOM     71  C   UNL A   1      42.211  21.243  26.794  1.00  0.00     0.054 A 
BRANCH  71  72
ATOM     72  S   UNL A   1      41.982  19.591  26.081  1.00  0.00     0.124 S 
ATOM     73  O   UNL A   1      42.863  19.638  24.918  1.00  0.00    -0.237 OA
ATOM     74  O   UNL A   1      42.412  18.715  27.166  1.00  0.00    -0.237 OA
ATOM     75  O   UNL A   1      40.551  19.544  25.783  1.00  0.00    -0.744 OA
ENDBRANCH  71  72
ENDBRANCH  43  66
BRANCH  55  76
ATOM     76  C   UNL A   1      47.796  27.170  30.962  1.00  0.00    -0.014 A 
ATOM     77  C   UNL A   1      48.113  26.469  32.137  1.00  0.00     0.010 A 
ATOM     78  C   UNL A   1      48.814  27.448  30.031  1.00  0.00     0.010 A 
ATOM     79  C   UNL A   1      49.428  26.067  32.387  1.00  0.00     0.020 A 
ATOM     80  C   UNL A   1      50.125  27.027  30.266  1.00  0.00     0.020 A 
ATOM     81  C   UNL A   1      50.426  26.347  31.448  1.00  0.00     0.054 A 
BRANCH  81  82
ATOM     82  S   UNL A   1      52.113  25.763  31.766  1.00  0.00     0.124 S 
ATOM     83  O   UNL A   1      51.892  24.354  32.084  1.00  0.00    -0.237 OA
ATOM     84  O   UNL A   1      52.788  26.022  30.497  1.00  0.00    -0.237 OA
ATOM     85  O   UNL A   1      52.562  26.591  32.883  1.00  0.00    -0.744 OA
ENDBRANCH  81  82
ENDBRANCH  55  76
ENDBRANCH  29  30
ENDBRANCH  21  24
ENDBRANCH  19  20
ENDBRANCH   1  19
TORSDOF 16
ENDMDL
MODEL 3
REMARK VINA RESULT:     -10.1      2.687      9.287
REMARK SMILES CCc1ccc(S(=O)(=O)CC(=O)NCCCNC(=O)c2ccc(-c3c4nc(c(-c5ccc(S(=O)(=O)[O-])cc5)c5ccc([nH]5)c(-c5ccc(S(=O)(=O)[O-])cc5)c5nc(c(-c6ccc(S(=O)(=O)[O-])cc6)c6ccc3[nH]6)C=C5)C=C4)cc2)cc1
REMARK SMILES IDX 15 1 14 2 13 3 11 4 12 5 10 7 7 8 8 9 9 10 6 11 3 12 4 13
REMARK SMILES IDX 81 14 5 15 80 16 2 17 1 18 16 19 17 20 18 21 19 23 20 24
REMARK SMILES IDX 21 25 79 26 22 27 78 28 23 29 24 30 25 31 72 32 26 33 77 34
REMARK SMILES IDX 71 35 73 36 27 37 76 38 70 39 69 40 28 42 58 43 39 44 57 45
REMARK SMILES IDX 40 46 43 47 56 48 74 49 41 50 42 51 55 53 75 54 44 55 29 56
REMARK SMILES IDX 30 57 38 58 31 59 37 60 32 61 33 62 34 63 35 64 36 65 59 66
REMARK SMILES IDX 60 67 68 68 61 69 67 70 62 71 63 72 64 73 65 74 66 75 45 76
REMARK SMILES IDX 46 77 54 78 47 79 53 80 48 81 49 82 50 83 51 84 52 85
REMARK H PARENT 13 6 17 22 73 41 43 52
REMARK Flexibility Score: inf
ROOT
ATOM      1  C   UNL A   1      35.382  23.424  25.927  1.00  0.00     0.042 C 
ENDROOT
BRANCH   1   2
ATOM      2  C   UNL A   1      34.157  24.160  25.390  1.00  0.00     0.117 C 
BRANCH   2   3
ATOM      3  N   UNL A   1      34.260  24.396  23.959  1.00  0.00    -0.355 N 
ATOM      4  C   UNL A   1      33.291  24.499  23.014  1.00  0.00     0.235 C 
ATOM      5  O   UNL A   1      33.656  24.644  21.845  1.00  0.00    -0.274 OA
ATOM      6  H   UNL A   1      35.179  24.497  23.622  1.00  0.00     0.163 HD
BRANCH   4   7
ATOM      7  C   UNL A   1      31.843  24.567  23.370  1.00  0.00     0.241 C 
BRANCH   7   8
ATOM      8  S   UNL A   1      31.215  26.183  23.627  1.00  0.00     0.187 S 
ATOM      9  O   UNL A   1      29.896  26.026  24.217  1.00  0.00    -0.223 OA
ATOM     10  O   UNL A   1      31.351  26.900  22.371  1.00  0.00    -0.223 OA
BRANCH   8  11
ATOM     11  C   UNL A   1      32.171  27.065  24.830  1.00  0.00     0.067 A 
ATOM     12  C   UNL A   1      33.697  28.584  26.642  1.00  0.00    -0.048 A 
ATOM     13  C   UNL A   1      34.078  28.478  25.295  1.00  0.00     0.005 A 
ATOM     14  C   UNL A   1      32.539  27.914  27.061  1.00  0.00     0.005 A 
ATOM     15  C   UNL A   1      33.329  27.716  24.396  1.00  0.00     0.020 A 
ATOM     16  C   UNL A   1      31.768  27.170  26.160  1.00  0.00     0.020 A 
BRANCH  12  17
ATOM     17  C   UNL A   1      34.520  29.473  27.548  1.00  0.00     0.032 C 
ATOM     18  C   UNL A   1      34.116  30.941  27.620  1.00  0.00     0.009 C 
ENDBRANCH  12  17
ENDBRANCH   8  11
ENDBRANCH   7   8
ENDBRANCH   4   7
ENDBRANCH   2   3
ENDBRANCH   1   2
BRANCH   1  19
ATOM     19  C   UNL A   1      36.696  23.823  25.262  1.00  0.00     0.118 C 
BRANCH  19  20
ATOM     20  N   UNL A   1      37.761  22.860  25.494  1.00  0.00    -0.352 N 
ATOM     21  C   UNL A   1      38.991  23.030  26.083  1.00  0.00     0.251 C 
ATOM     22  H   UNL A   1      37.572  21.946  25.181  1.00  0.00     0.163 HD
ATOM     23  O   UNL A   1      39.820  22.126  26.014  1.00  0.00    -0.269 OA
BRANCH  21  24
ATOM     24  C   UNL A   1      39.329  24.292  26.777  1.00  0.00     0.039 A 
ATOM     25  C   UNL A   1      38.885  24.481  28.089  1.00  0.00     0.014 A 
ATOM     26  C   UNL A   1      40.055  25.300  26.136  1.00  0.00     0.014 A 
ATOM     27  C   UNL A   1      39.231  25.646  28.781  1.00  0.00     0.010 A 
ATOM     28  C   UNL A   1      40.459  26.427  26.849  1.00  0.00     0.010 A 
ATOM     29  C   UNL A   1      40.053  26.612  28.179  1.00  0.00    -0.014 A 
BRANCH  29  30
ATOM     30  C   UNL A   1      40.508  27.816  28.923  1.00  0.00     0.031 A 
ATOM     31  C   UNL A   1      41.849  27.825  29.606  1.00  0.00     0.074 A 
ATOM     32  C   UNL A   1      39.681  28.874  29.048  1.00  0.00     0.049 A 
ATOM     33  N   UNL A   1      42.376  28.743  30.375  1.00  0.00    -0.248 NA
ATOM     34  C   UNL A   1      42.699  26.638  29.417  1.00  0.00     0.031 C 
ATOM     35  C   UNL A   1      38.342  28.979  28.463  1.00  0.00     0.029 A 
ATOM     36  N   UNL A   1      39.841  30.060  29.720  1.00  0.00    -0.354 N 
ATOM     37  C   UNL A   1      43.608  28.239  30.778  1.00  0.00     0.074 A 
ATOM     38  C   UNL A   1      43.730  26.917  30.203  1.00  0.00     0.031 C 
ATOM     39  C   UNL A   1      37.813  30.170  28.785  1.00  0.00     0.029 A 
ATOM     40  C   UNL A   1      38.752  30.896  29.635  1.00  0.00     0.049 A 
ATOM     41  H   UNL A   1      40.658  30.291  30.218  1.00  0.00     0.167 HD
ATOM     42  C   UNL A   1      44.557  28.827  31.546  1.00  0.00     0.031 A 
ATOM     43  C   UNL A   1      38.526  32.104  30.187  1.00  0.00     0.031 A 
ATOM     44  C   UNL A   1      44.438  30.146  32.107  1.00  0.00     0.049 A 
ATOM     45  C   UNL A   1      39.586  32.729  31.050  1.00  0.00     0.074 A 
ATOM     46  C   UNL A   1      45.369  30.850  32.851  1.00  0.00     0.029 A 
ATOM     47  N   UNL A   1      43.322  30.960  31.989  1.00  0.00    -0.354 N 
ATOM     48  N   UNL A   1      40.767  32.258  31.373  1.00  0.00    -0.248 NA
ATOM     49  C   UNL A   1      39.285  34.050  31.620  1.00  0.00     0.031 C 
ATOM     50  C   UNL A   1      44.797  32.071  33.224  1.00  0.00     0.029 A 
ATOM     51  C   UNL A   1      43.530  32.149  32.667  1.00  0.00     0.049 A 
ATOM     52  H   UNL A   1      42.502  30.727  31.496  1.00  0.00     0.167 HD
ATOM     53  C   UNL A   1      41.360  33.236  32.164  1.00  0.00     0.074 A 
ATOM     54  C   UNL A   1      40.414  34.328  32.261  1.00  0.00     0.031 C 
ATOM     55  C   UNL A   1      42.579  33.228  32.756  1.00  0.00     0.031 A 
BRANCH  42  56
ATOM     56  C   UNL A   1      45.808  28.039  31.830  1.00  0.00    -0.014 A 
ATOM     57  C   UNL A   1      45.883  27.167  32.932  1.00  0.00     0.010 A 
ATOM     58  C   UNL A   1      46.912  28.142  30.963  1.00  0.00     0.010 A 
ATOM     59  C   UNL A   1      47.052  26.447  33.187  1.00  0.00     0.020 A 
ATOM     60  C   UNL A   1      48.074  27.402  31.199  1.00  0.00     0.020 A 
ATOM     61  C   UNL A   1      48.143  26.572  32.321  1.00  0.00     0.054 A 
BRANCH  61  62
ATOM     62  S   UNL A   1      49.644  25.614  32.667  1.00  0.00     0.124 S 
ATOM     63  O   UNL A   1      49.167  24.664  33.669  1.00  0.00    -0.237 OA
ATOM     64  O   UNL A   1      49.968  25.041  31.363  1.00  0.00    -0.237 OA
ATOM     65  O   UNL A   1      50.588  26.614  33.158  1.00  0.00    -0.744 OA
ENDBRANCH  61  62
ENDBRANCH  42  56
BRANCH  43  66
ATOM     66  C   UNL A   1      37.238  32.805  29.933  1.00  0.00    -0.014 A 
ATOM     67  C   UNL A   1      37.062  33.571  28.767  1.00  0.00     0.010 A 
ATOM     68  C   UNL A   1      36.174  32.698  30.848  1.00  0.00     0.010 A 
ATOM     69  C   UNL A   1      35.853  34.229  28.527  1.00  0.00     0.020 A 
ATOM     70  C   UNL A   1      34.955  33.334  30.599  1.00  0.00     0.020 A 
ATOM     71  C   UNL A   1      34.805  34.105  29.445  1.00  0.00     0.054 A 
BRANCH  71  72
ATOM     72  S   UNL A   1      33.227  34.926  29.087  1.00  0.00     0.124 S 
ATOM     73  O   UNL A   1      32.665  34.065  28.051  1.00  0.00    -0.237 OA
ATOM     74  O   UNL A   1      32.550  34.886  30.380  1.00  0.00    -0.237 OA
ATOM     75  O   UNL A   1      33.630  36.260  28.644  1.00  0.00    -0.744 OA
ENDBRANCH  71  72
ENDBRANCH  43  66
BRANCH  55  76
ATOM     76  C   UNL A   1      42.978  34.448  33.542  1.00  0.00    -0.014 A 
ATOM     77  C   UNL A   1      42.803  34.505  34.935  1.00  0.00     0.010 A 
ATOM     78  C   UNL A   1      43.599  35.526  32.882  1.00  0.00     0.010 A 
ATOM     79  C   UNL A   1      43.226  35.626  35.654  1.00  0.00     0.020 A 
ATOM     80  C   UNL A   1      44.045  36.637  33.601  1.00  0.00     0.020 A 
ATOM     81  C   UNL A   1      43.846  36.684  34.983  1.00  0.00     0.054 A 
BRANCH  81  82
ATOM     82  S   UNL A   1      44.441  38.101  35.947  1.00  0.00     0.124 S 
ATOM     83  O   UNL A   1      45.873  37.830  36.035  1.00  0.00    -0.237 OA
ATOM     84  O   UNL A   1      44.067  39.239  35.110  1.00  0.00    -0.237 OA
ATOM     85  O   UNL A   1      43.708  37.996  37.206  1.00  0.00    -0.744 OA
ENDBRANCH  81  82
ENDBRANCH  55  76
ENDBRANCH  29  30
ENDBRANCH  21  24
ENDBRANCH  19  20
ENDBRANCH   1  19
TORSDOF 16
ENDMDL
