MODEL 1
REMARK VINA RESULT:     -11.4      0.000      0.000
REMARK SMILES Cn1ccc(S(=O)(=O)N2CCO[C@H](CC(=O)NCCCNC(=O)c3ccc(-c4c5nc(c(-c6ccc(S(=O)(=O)[O-])cc6)c6ccc([nH]6)c(-c6ccc(S(=O)(=O)[O-])cc6)c6nc(c(-c7ccc(S(=O)(=O)[O-])cc7)c7ccc4[nH]7)C=C6)C=C5)cc3)C2)c1
REMARK SMILES IDX 19 1 18 2 17 3 15 4 16 5 14 7 13 8 9 9 10 10 84 11 11 12
REMARK SMILES IDX 12 13 6 14 7 15 8 16 5 17 1 18 2 19 3 20 85 21 4 22 20 23
REMARK SMILES IDX 21 24 22 25 23 27 24 28 25 29 83 30 26 31 82 32 27 33 28 34
REMARK SMILES IDX 29 35 76 36 30 37 81 38 75 39 77 40 31 41 80 42 74 43 73 44
REMARK SMILES IDX 32 46 62 47 43 48 61 49 44 50 47 51 60 52 78 53 45 54 46 55
REMARK SMILES IDX 59 57 79 58 48 59 33 60 34 61 42 62 35 63 41 64 36 65 37 66
REMARK SMILES IDX 38 67 39 68 40 69 63 70 64 71 72 72 65 73 71 74 66 75 67 76
REMARK SMILES IDX 68 77 69 78 70 79 49 80 50 81 58 82 51 83 57 84 52 85 53 86
REMARK SMILES IDX 54 87 55 88 56 89
REMARK H PARENT 17 6 21 26 77 45 47 56
REMARK Flexibility Score: inf
ROOT
ATOM      1  C   UNL A   1      38.169  23.751  26.493  1.00  0.00     0.042 C 
ENDROOT
BRANCH   1   2
ATOM      2  C   UNL A   1      37.746  22.516  25.705  1.00  0.00     0.117 C 
BRANCH   2   3
ATOM      3  N   UNL A   1      37.469  22.816  24.310  1.00  0.00    -0.356 N 
ATOM      4  C   UNL A   1      36.283  22.819  23.645  1.00  0.00     0.222 C 
ATOM      5  O   UNL A   1      36.280  23.046  22.437  1.00  0.00    -0.275 OA
ATOM      6  H   UNL A   1      38.256  23.049  23.768  1.00  0.00     0.163 HD
BRANCH   4   7
ATOM      7  C   UNL A   1      35.007  22.532  24.392  1.00  0.00     0.133 C 
BRANCH   7   8
ATOM      8  C   UNL A   1      33.802  22.612  23.449  1.00  0.00     0.142 C 
ATOM      9  N   UNL A   1      32.308  23.801  24.959  1.00  0.00    -0.193 NA
ATOM     10  C   UNL A   1      31.389  22.652  25.025  1.00  0.00     0.131 C 
ATOM     11  C   UNL A   1      32.988  23.909  23.658  1.00  0.00     0.135 C 
ATOM     12  C   UNL A   1      32.223  21.385  24.805  1.00  0.00     0.177 C 
ATOM     13  O   UNL A   1      32.969  21.433  23.575  1.00  0.00    -0.375 OA
BRANCH   9  14
ATOM     14  S   UNL A   1      32.050  25.137  25.921  1.00  0.00     0.244 S 
ATOM     15  O   UNL A   1      33.305  25.824  26.122  1.00  0.00    -0.207 OA
ATOM     16  O   UNL A   1      31.160  24.795  27.008  1.00  0.00    -0.207 OA
BRANCH  14  17
ATOM     17  C   UNL A   1      31.108  26.231  24.960  1.00  0.00     0.100 A 
ATOM     18  C   UNL A   1      30.239  29.463  23.585  1.00  0.00     0.149 C 
ATOM     19  N   UNL A   1      30.363  28.079  23.979  1.00  0.00    -0.356 N 
ATOM     20  C   UNL A   1      29.480  27.080  23.660  1.00  0.00     0.086 A 
ATOM     21  C   UNL A   1      31.371  27.571  24.749  1.00  0.00     0.106 A 
ATOM     22  C   UNL A   1      29.920  25.914  24.257  1.00  0.00     0.041 A 
ENDBRANCH  14  17
ENDBRANCH   9  14
ENDBRANCH   7   8
ENDBRANCH   4   7
ENDBRANCH   2   3
ENDBRANCH   1   2
BRANCH   1  23
ATOM     23  C   UNL A   1      39.644  23.775  26.887  1.00  0.00     0.118 C 
BRANCH  23  24
ATOM     24  N   UNL A   1      40.462  24.552  25.967  1.00  0.00    -0.352 N 
ATOM     25  C   UNL A   1      40.988  25.813  26.100  1.00  0.00     0.251 C 
ATOM     26  H   UNL A   1      40.672  24.103  25.116  1.00  0.00     0.163 HD
ATOM     27  O   UNL A   1      41.507  26.355  25.128  1.00  0.00    -0.269 OA
BRANCH  25  28
ATOM     28  C   UNL A   1      40.908  26.531  27.392  1.00  0.00     0.039 A 
ATOM     29  C   UNL A   1      41.882  27.490  27.688  1.00  0.00     0.014 A 
ATOM     30  C   UNL A   1      39.897  26.255  28.317  1.00  0.00     0.014 A 
ATOM     31  C   UNL A   1      41.795  28.227  28.872  1.00  0.00     0.010 A 
ATOM     32  C   UNL A   1      39.776  27.032  29.467  1.00  0.00     0.010 A 
ATOM     33  C   UNL A   1      40.716  28.034  29.750  1.00  0.00    -0.014 A 
BRANCH  33  34
ATOM     34  C   UNL A   1      40.533  28.897  30.946  1.00  0.00     0.031 A 
ATOM     35  C   UNL A   1      39.484  29.973  30.961  1.00  0.00     0.074 A 
ATOM     36  C   UNL A   1      41.370  28.757  31.995  1.00  0.00     0.049 A 
ATOM     37  N   UNL A   1      39.241  30.871  31.881  1.00  0.00    -0.248 NA
ATOM     38  C   UNL A   1      38.607  30.066  29.783  1.00  0.00     0.031 C 
ATOM     39  C   UNL A   1      42.456  27.778  32.088  1.00  0.00     0.029 A 
ATOM     40  N   UNL A   1      41.448  29.451  33.176  1.00  0.00    -0.354 N 
ATOM     41  C   UNL A   1      38.198  31.647  31.389  1.00  0.00     0.074 A 
ATOM     42  C   UNL A   1      37.875  31.133  30.075  1.00  0.00     0.031 C 
ATOM     43  C   UNL A   1      43.083  27.926  33.266  1.00  0.00     0.029 A 
ATOM     44  C   UNL A   1      42.471  29.031  33.995  1.00  0.00     0.049 A 
ATOM     45  H   UNL A   1      40.831  30.180  33.414  1.00  0.00     0.167 HD
ATOM     46  C   UNL A   1      37.559  32.684  31.981  1.00  0.00     0.031 A 
ATOM     47  C   UNL A   1      42.882  29.493  35.192  1.00  0.00     0.031 A 
ATOM     48  C   UNL A   1      37.869  33.185  33.294  1.00  0.00     0.049 A 
ATOM     49  C   UNL A   1      42.160  30.650  35.824  1.00  0.00     0.074 A 
ATOM     50  C   UNL A   1      37.232  34.190  34.002  1.00  0.00     0.029 A 
ATOM     51  N   UNL A   1      38.901  32.725  34.096  1.00  0.00    -0.354 N 
ATOM     52  N   UNL A   1      41.135  31.328  35.367  1.00  0.00    -0.248 NA
ATOM     53  C   UNL A   1      42.648  31.099  37.135  1.00  0.00     0.031 C 
ATOM     54  C   UNL A   1      37.906  34.365  35.216  1.00  0.00     0.029 A 
ATOM     55  C   UNL A   1      38.935  33.440  35.281  1.00  0.00     0.049 A 
ATOM     56  H   UNL A   1      39.520  31.996  33.858  1.00  0.00     0.167 HD
ATOM     57  C   UNL A   1      40.846  32.275  36.343  1.00  0.00     0.074 A 
ATOM     58  C   UNL A   1      41.791  32.070  37.422  1.00  0.00     0.031 C 
ATOM     59  C   UNL A   1      39.885  33.229  36.343  1.00  0.00     0.031 A 
BRANCH  46  60
ATOM     60  C   UNL A   1      36.455  33.355  31.210  1.00  0.00    -0.014 A 
ATOM     61  C   UNL A   1      35.150  33.422  31.727  1.00  0.00     0.010 A 
ATOM     62  C   UNL A   1      36.740  33.982  29.983  1.00  0.00     0.010 A 
ATOM     63  C   UNL A   1      34.141  34.076  31.017  1.00  0.00     0.020 A 
ATOM     64  C   UNL A   1      35.738  34.657  29.280  1.00  0.00     0.020 A 
ATOM     65  C   UNL A   1      34.440  34.687  29.796  1.00  0.00     0.054 A 
BRANCH  65  66
ATOM     66  S   UNL A   1      33.120  35.563  28.911  1.00  0.00     0.124 S 
ATOM     67  O   UNL A   1      33.882  36.508  28.097  1.00  0.00    -0.237 OA
ATOM     68  O   UNL A   1      32.460  34.490  28.173  1.00  0.00    -0.237 OA
ATOM     69  O   UNL A   1      32.324  36.162  29.980  1.00  0.00    -0.744 OA
ENDBRANCH  65  66
ENDBRANCH  46  60
BRANCH  47  70
ATOM     70  C   UNL A   1      44.045  28.863  35.871  1.00  0.00    -0.014 A 
ATOM     71  C   UNL A   1      43.857  27.778  36.745  1.00  0.00     0.010 A 
ATOM     72  C   UNL A   1      45.348  29.342  35.642  1.00  0.00     0.010 A 
ATOM     73  C   UNL A   1      44.949  27.197  37.395  1.00  0.00     0.020 A 
ATOM     74  C   UNL A   1      46.443  28.748  36.272  1.00  0.00     0.020 A 
ATOM     75  C   UNL A   1      46.236  27.686  37.154  1.00  0.00     0.054 A 
BRANCH  75  76
ATOM     76  S   UNL A   1      47.648  26.888  37.968  1.00  0.00     0.124 S 
ATOM     77  O   UNL A   1      48.780  27.507  37.285  1.00  0.00    -0.237 OA
ATOM     78  O   UNL A   1      47.468  27.268  39.367  1.00  0.00    -0.237 OA
ATOM     79  O   UNL A   1      47.443  25.469  37.686  1.00  0.00    -0.744 OA
ENDBRANCH  75  76
ENDBRANCH  47  70
BRANCH  59  80
ATOM     80  C   UNL A   1      39.793  34.114  37.556  1.00  0.00    -0.014 A 
ATOM     81  C   UNL A   1      38.972  33.767  38.643  1.00  0.00     0.010 A 
ATOM     82  C   UNL A   1      40.572  35.283  37.627  1.00  0.00     0.010 A 
ATOM     83  C   UNL A   1      38.909  34.590  39.770  1.00  0.00     0.020 A 
ATOM     84  C   UNL A   1      40.528  36.097  38.761  1.00  0.00     0.020 A 
ATOM     85  C   UNL A   1      39.685  35.752  39.821  1.00  0.00     0.054 A 
BRANCH  85  86
ATOM     86  S   UNL A   1      39.618  36.785  41.310  1.00  0.00     0.124 S 
ATOM     87  O   UNL A   1      41.032  36.929  41.644  1.00  0.00    -0.237 OA
ATOM     88  O   UNL A   1      38.959  37.999  40.832  1.00  0.00    -0.237 OA
ATOM     89  O   UNL A   1      38.834  35.987  42.249  1.00  0.00    -0.744 OA
ENDBRANCH  85  86
ENDBRANCH  59  80
ENDBRANCH  33  34
ENDBRANCH  25  28
ENDBRANCH  23  24
ENDBRANCH   1  23
TORSDOF 16
ENDMDL
MODEL 2
REMARK VINA RESULT:     -11.4      6.227      8.658
REMARK SMILES Cn1ccc(S(=O)(=O)N2CCO[C@H](CC(=O)NCCCNC(=O)c3ccc(-c4c5nc(c(-c6ccc(S(=O)(=O)[O-])cc6)c6ccc([nH]6)c(-c6ccc(S(=O)(=O)[O-])cc6)c6nc(c(-c7ccc(S(=O)(=O)[O-])cc7)c7ccc4[nH]7)C=C6)C=C5)cc3)C2)c1
REMARK SMILES IDX 19 1 18 2 17 3 15 4 16 5 14 7 13 8 9 9 10 10 84 11 11 12
REMARK SMILES IDX 12 13 6 14 7 15 8 16 5 17 1 18 2 19 3 20 85 21 4 22 20 23
REMARK SMILES IDX 21 24 22 25 23 27 24 28 25 29 83 30 26 31 82 32 27 33 28 34
REMARK SMILES IDX 29 35 76 36 30 37 81 38 75 39 77 40 31 41 80 42 74 43 73 44
REMARK SMILES IDX 32 46 62 47 43 48 61 49 44 50 47 51 60 52 78 53 45 54 46 55
REMARK SMILES IDX 59 57 79 58 48 59 33 60 34 61 42 62 35 63 41 64 36 65 37 66
REMARK SMILES IDX 38 67 39 68 40 69 63 70 64 71 72 72 65 73 71 74 66 75 67 76
REMARK SMILES IDX 68 77 69 78 70 79 49 80 50 81 58 82 51 83 57 84 52 85 53 86
REMARK SMILES IDX 54 87 55 88 56 89
REMARK H PARENT 17 6 21 26 77 45 47 56
REMARK Flexibility Score: inf
ROOT
ATOM      1  C   UNL A   1      37.950  20.692  24.891  1.00  0.00     0.042 C 
ENDROOT
BRANCH   1   2
ATOM      2  C   UNL A   1      36.561  21.081  25.387  1.00  0.00     0.117 C 
BRANCH   2   3
ATOM      3  N   UNL A   1      35.579  20.035  25.159  1.00  0.00    -0.356 N 
ATOM      4  C   UNL A   1      34.232  20.134  25.000  1.00  0.00     0.222 C 
ATOM      5  O   UNL A   1      33.571  19.104  24.877  1.00  0.00    -0.275 OA
ATOM      6  H   UNL A   1      35.941  19.122  25.115  1.00  0.00     0.163 HD
BRANCH   4   7
ATOM      7  C   UNL A   1      33.578  21.490  24.994  1.00  0.00     0.133 C 
BRANCH   7   8
ATOM      8  C   UNL A   1      32.162  21.403  24.413  1.00  0.00     0.142 C 
ATOM      9  N   UNL A   1      31.952  23.739  23.762  1.00  0.00    -0.193 NA
ATOM     10  C   UNL A   1      30.867  23.958  24.733  1.00  0.00     0.131 C 
ATOM     11  C   UNL A   1      31.963  22.369  23.223  1.00  0.00     0.135 C 
ATOM     12  C   UNL A   1      31.086  22.981  25.893  1.00  0.00     0.177 C 
ATOM     13  O   UNL A   1      31.167  21.616  25.445  1.00  0.00    -0.375 OA
BRANCH   9  14
ATOM     14  S   UNL A   1      32.574  25.021  22.896  1.00  0.00     0.244 S 
ATOM     15  O   UNL A   1      31.570  25.497  21.972  1.00  0.00    -0.207 OA
ATOM     16  O   UNL A   1      33.933  24.731  22.499  1.00  0.00    -0.207 OA
BRANCH  14  17
ATOM     17  C   UNL A   1      32.756  26.312  24.039  1.00  0.00     0.100 A 
ATOM     18  C   UNL A   1      32.024  29.565  25.446  1.00  0.00     0.149 C 
ATOM     19  N   UNL A   1      32.501  28.244  25.103  1.00  0.00    -0.356 N 
ATOM     20  C   UNL A   1      33.532  27.587  25.722  1.00  0.00     0.086 A 
ATOM     21  C   UNL A   1      32.004  27.470  24.094  1.00  0.00     0.106 A 
ATOM     22  C   UNL A   1      33.714  26.377  25.081  1.00  0.00     0.041 A 
ENDBRANCH  14  17
ENDBRANCH   9  14
ENDBRANCH   7   8
ENDBRANCH   4   7
ENDBRANCH   2   3
ENDBRANCH   1   2
BRANCH   1  23
ATOM     23  C   UNL A   1      39.065  20.888  25.916  1.00  0.00     0.118 C 
BRANCH  23  24
ATOM     24  N   UNL A   1      39.984  19.761  25.973  1.00  0.00    -0.352 N 
ATOM     25  C   UNL A   1      41.348  19.738  26.130  1.00  0.00     0.251 C 
ATOM     26  H   UNL A   1      39.561  18.875  25.886  1.00  0.00     0.163 HD
ATOM     27  O   UNL A   1      41.954  18.681  25.976  1.00  0.00    -0.269 OA
BRANCH  25  28
ATOM     28  C   UNL A   1      42.090  20.976  26.454  1.00  0.00     0.039 A 
ATOM     29  C   UNL A   1      42.509  21.802  25.406  1.00  0.00     0.014 A 
ATOM     30  C   UNL A   1      42.391  21.320  27.775  1.00  0.00     0.014 A 
ATOM     31  C   UNL A   1      43.156  23.008  25.686  1.00  0.00     0.010 A 
ATOM     32  C   UNL A   1      42.981  22.551  28.056  1.00  0.00     0.010 A 
ATOM     33  C   UNL A   1      43.358  23.413  27.016  1.00  0.00    -0.014 A 
BRANCH  33  34
ATOM     34  C   UNL A   1      43.922  24.749  27.337  1.00  0.00     0.031 A 
ATOM     35  C   UNL A   1      43.032  25.864  27.809  1.00  0.00     0.074 A 
ATOM     36  C   UNL A   1      45.235  24.978  27.127  1.00  0.00     0.049 A 
ATOM     37  N   UNL A   1      43.338  27.113  28.053  1.00  0.00    -0.248 NA
ATOM     38  C   UNL A   1      41.611  25.541  28.015  1.00  0.00     0.031 C 
ATOM     39  C   UNL A   1      46.199  23.991  26.633  1.00  0.00     0.029 A 
ATOM     40  N   UNL A   1      45.982  26.118  27.289  1.00  0.00    -0.354 N 
ATOM     41  C   UNL A   1      42.148  27.731  28.423  1.00  0.00     0.074 A 
ATOM     42  C   UNL A   1      41.109  26.725  28.342  1.00  0.00     0.031 C 
ATOM     43  C   UNL A   1      47.410  24.565  26.544  1.00  0.00     0.029 A 
ATOM     44  C   UNL A   1      47.303  25.966  26.936  1.00  0.00     0.049 A 
ATOM     45  H   UNL A   1      45.608  26.964  27.625  1.00  0.00     0.167 HD
ATOM     46  C   UNL A   1      41.942  29.013  28.807  1.00  0.00     0.031 A 
ATOM     47  C   UNL A   1      48.313  26.857  26.915  1.00  0.00     0.031 A 
ATOM     48  C   UNL A   1      42.977  30.008  28.904  1.00  0.00     0.049 A 
ATOM     49  C   UNL A   1      48.056  28.275  27.340  1.00  0.00     0.074 A 
ATOM     50  C   UNL A   1      42.872  31.315  29.346  1.00  0.00     0.029 A 
ATOM     51  N   UNL A   1      44.302  29.811  28.552  1.00  0.00    -0.354 N 
ATOM     52  N   UNL A   1      46.935  28.820  27.747  1.00  0.00    -0.248 NA
ATOM     53  C   UNL A   1      49.200  29.196  27.307  1.00  0.00     0.031 C 
ATOM     54  C   UNL A   1      44.127  31.921  29.222  1.00  0.00     0.029 A 
ATOM     55  C   UNL A   1      45.022  30.978  28.743  1.00  0.00     0.049 A 
ATOM     56  H   UNL A   1      44.678  28.965  28.214  1.00  0.00     0.167 HD
ATOM     57  C   UNL A   1      47.244  30.145  28.033  1.00  0.00     0.074 A 
ATOM     58  C   UNL A   1      48.659  30.314  27.772  1.00  0.00     0.031 C 
ATOM     59  C   UNL A   1      46.428  31.133  28.473  1.00  0.00     0.031 A 
BRANCH  46  60
ATOM     60  C   UNL A   1      40.535  29.419  29.153  1.00  0.00    -0.014 A 
ATOM     61  C   UNL A   1      40.144  29.603  30.490  1.00  0.00     0.010 A 
ATOM     62  C   UNL A   1      39.610  29.681  28.125  1.00  0.00     0.010 A 
ATOM     63  C   UNL A   1      38.845  30.012  30.797  1.00  0.00     0.020 A 
ATOM     64  C   UNL A   1      38.316  30.112  28.427  1.00  0.00     0.020 A 
ATOM     65  C   UNL A   1      37.937  30.262  29.763  1.00  0.00     0.054 A 
BRANCH  65  66
ATOM     66  S   UNL A   1      36.266  30.828  30.187  1.00  0.00     0.124 S 
ATOM     67  O   UNL A   1      35.944  29.978  31.332  1.00  0.00    -0.237 OA
ATOM     68  O   UNL A   1      36.473  32.241  30.493  1.00  0.00    -0.237 OA
ATOM     69  O   UNL A   1      35.492  30.563  28.977  1.00  0.00    -0.744 OA
ENDBRANCH  65  66
ENDBRANCH  46  60
BRANCH  47  70
ATOM     70  C   UNL A   1      49.666  26.433  26.468  1.00  0.00    -0.014 A 
ATOM     71  C   UNL A   1      50.029  26.523  25.112  1.00  0.00     0.010 A 
ATOM     72  C   UNL A   1      50.602  25.943  27.397  1.00  0.00     0.010 A 
ATOM     73  C   UNL A   1      51.295  26.110  24.690  1.00  0.00     0.020 A 
ATOM     74  C   UNL A   1      51.877  25.552  26.982  1.00  0.00     0.020 A 
ATOM     75  C   UNL A   1      52.212  25.626  25.629  1.00  0.00     0.054 A 
BRANCH  75  76
ATOM     76  S   UNL A   1      53.869  25.141  25.071  1.00  0.00     0.124 S 
ATOM     77  O   UNL A   1      54.696  25.528  26.210  1.00  0.00    -0.237 OA
ATOM     78  O   UNL A   1      53.725  23.703  24.854  1.00  0.00    -0.237 OA
ATOM     79  O   UNL A   1      54.061  25.929  23.856  1.00  0.00    -0.744 OA
ENDBRANCH  75  76
ENDBRANCH  47  70
BRANCH  59  80
ATOM     80  C   UNL A   1      47.048  32.481  28.716  1.00  0.00    -0.014 A 
ATOM     81  C   UNL A   1      47.070  33.459  27.707  1.00  0.00     0.010 A 
ATOM     82  C   UNL A   1      47.576  32.788  29.984  1.00  0.00     0.010 A 
ATOM     83  C   UNL A   1      47.635  34.713  27.952  1.00  0.00     0.020 A 
ATOM     84  C   UNL A   1      48.122  34.047  30.239  1.00  0.00     0.020 A 
ATOM     85  C   UNL A   1      48.161  34.998  29.216  1.00  0.00     0.054 A 
BRANCH  85  86
ATOM     86  S   UNL A   1      48.854  36.646  29.525  1.00  0.00     0.124 S 
ATOM     87  O   UNL A   1      49.505  36.946  28.253  1.00  0.00    -0.237 OA
ATOM     88  O   UNL A   1      47.669  37.444  29.828  1.00  0.00    -0.237 OA
ATOM     89  O   UNL A   1      49.758  36.433  30.653  1.00  0.00    -0.744 OA
ENDBRANCH  85  86
ENDBRANCH  59  80
ENDBRANCH  33  34
ENDBRANCH  25  28
ENDBRANCH  23  24
ENDBRANCH   1  23
TORSDOF 16
ENDMDL
MODEL 3
REMARK VINA RESULT:     -11.3      3.578      5.469
REMARK SMILES Cn1ccc(S(=O)(=O)N2CCO[C@H](CC(=O)NCCCNC(=O)c3ccc(-c4c5nc(c(-c6ccc(S(=O)(=O)[O-])cc6)c6ccc([nH]6)c(-c6ccc(S(=O)(=O)[O-])cc6)c6nc(c(-c7ccc(S(=O)(=O)[O-])cc7)c7ccc4[nH]7)C=C6)C=C5)cc3)C2)c1
REMARK SMILES IDX 19 1 18 2 17 3 15 4 16 5 14 7 13 8 9 9 10 10 84 11 11 12
REMARK SMILES IDX 12 13 6 14 7 15 8 16 5 17 1 18 2 19 3 20 85 21 4 22 20 23
REMARK SMILES IDX 21 24 22 25 23 27 24 28 25 29 83 30 26 31 82 32 27 33 28 34
REMARK SMILES IDX 29 35 76 36 30 37 81 38 75 39 77 40 31 41 80 42 74 43 73 44
REMARK SMILES IDX 32 46 62 47 43 48 61 49 44 50 47 51 60 52 78 53 45 54 46 55
REMARK SMILES IDX 59 57 79 58 48 59 33 60 34 61 42 62 35 63 41 64 36 65 37 66
REMARK SMILES IDX 38 67 39 68 40 69 63 70 64 71 72 72 65 73 71 74 66 75 67 76
REMARK SMILES IDX 68 77 69 78 70 79 49 80 50 81 58 82 51 83 57 84 52 85 53 86
REMARK SMILES IDX 54 87 55 88 56 89
REMARK H PARENT 17 6 21 26 77 45 47 56
REMARK Flexibility Score: inf
ROOT
ATOM      1  C   UNL A   1      45.287  25.334  27.639  1.00  0.00     0.042 C 
ENDROOT
BRANCH   1   2
ATOM      2  C   UNL A   1      46.486  24.445  27.327  1.00  0.00     0.117 C 
BRANCH   2   3
ATOM      3  N   UNL A   1      46.734  24.331  25.900  1.00  0.00    -0.356 N 
ATOM      4  C   UNL A   1      46.385  23.338  25.038  1.00  0.00     0.222 C 
ATOM      5  O   UNL A   1      46.752  23.412  23.867  1.00  0.00    -0.275 OA
ATOM      6  H   UNL A   1      47.228  25.081  25.499  1.00  0.00     0.163 HD
BRANCH   4   7
ATOM      7  C   UNL A   1      45.578  22.168  25.534  1.00  0.00     0.133 C 
BRANCH   7   8
ATOM      8  C   UNL A   1      44.514  21.773  24.505  1.00  0.00     0.142 C 
ATOM      9  N   UNL A   1      42.946  20.748  26.060  1.00  0.00    -0.193 NA
ATOM     10  C   UNL A   1      43.136  19.423  25.446  1.00  0.00     0.131 C 
ATOM     11  C   UNL A   1      43.085  21.846  25.090  1.00  0.00     0.135 C 
ATOM     12  C   UNL A   1      44.555  19.384  24.868  1.00  0.00     0.177 C 
ATOM     13  O   UNL A   1      44.795  20.465  23.948  1.00  0.00    -0.375 OA
BRANCH   9  14
ATOM     14  S   UNL A   1      42.016  20.910  27.433  1.00  0.00     0.244 S 
ATOM     15  O   UNL A   1      42.672  21.822  28.342  1.00  0.00    -0.207 OA
ATOM     16  O   UNL A   1      41.517  19.617  27.843  1.00  0.00    -0.207 OA
BRANCH  14  17
ATOM     17  C   UNL A   1      40.586  21.753  26.933  1.00  0.00     0.100 A 
ATOM     18  C   UNL A   1      37.474  22.132  25.124  1.00  0.00     0.149 C 
ATOM     19  N   UNL A   1      38.659  22.244  25.944  1.00  0.00    -0.356 N 
ATOM     20  C   UNL A   1      39.055  23.371  26.617  1.00  0.00     0.086 A 
ATOM     21  C   UNL A   1      39.568  21.245  26.148  1.00  0.00     0.106 A 
ATOM     22  C   UNL A   1      40.254  23.094  27.245  1.00  0.00     0.041 A 
ENDBRANCH  14  17
ENDBRANCH   9  14
ENDBRANCH   7   8
ENDBRANCH   4   7
ENDBRANCH   2   3
ENDBRANCH   1   2
BRANCH   1  23
ATOM     23  C   UNL A   1      43.932  24.657  27.449  1.00  0.00     0.118 C 
BRANCH  23  24
ATOM     24  N   UNL A   1      43.234  25.114  26.255  1.00  0.00    -0.352 N 
ATOM     25  C   UNL A   1      42.245  26.056  26.114  1.00  0.00     0.251 C 
ATOM     26  H   UNL A   1      43.516  24.679  25.417  1.00  0.00     0.163 HD
ATOM     27  O   UNL A   1      41.669  26.167  25.035  1.00  0.00    -0.269 OA
BRANCH  25  28
ATOM     28  C   UNL A   1      41.854  26.914  27.254  1.00  0.00     0.039 A 
ATOM     29  C   UNL A   1      40.853  26.464  28.120  1.00  0.00     0.014 A 
ATOM     30  C   UNL A   1      42.450  28.161  27.464  1.00  0.00     0.014 A 
ATOM     31  C   UNL A   1      40.508  27.225  29.240  1.00  0.00     0.010 A 
ATOM     32  C   UNL A   1      42.149  28.890  28.614  1.00  0.00     0.010 A 
ATOM     33  C   UNL A   1      41.185  28.424  29.519  1.00  0.00    -0.014 A 
BRANCH  33  34
ATOM     34  C   UNL A   1      40.927  29.180  30.772  1.00  0.00     0.031 A 
ATOM     35  C   UNL A   1      39.832  30.208  30.835  1.00  0.00     0.074 A 
ATOM     36  C   UNL A   1      41.736  28.991  31.835  1.00  0.00     0.049 A 
ATOM     37  N   UNL A   1      39.521  31.019  31.814  1.00  0.00    -0.248 NA
ATOM     38  C   UNL A   1      38.989  30.359  29.638  1.00  0.00     0.031 C 
ATOM     39  C   UNL A   1      42.860  28.052  31.888  1.00  0.00     0.029 A 
ATOM     40  N   UNL A   1      41.747  29.590  33.069  1.00  0.00    -0.354 N 
ATOM     41  C   UNL A   1      38.462  31.789  31.349  1.00  0.00     0.074 A 
ATOM     42  C   UNL A   1      38.203  31.369  29.987  1.00  0.00     0.031 C 
ATOM     43  C   UNL A   1      43.442  28.131  33.096  1.00  0.00     0.029 A 
ATOM     44  C   UNL A   1      42.761  29.149  33.888  1.00  0.00     0.049 A 
ATOM     45  H   UNL A   1      41.092  30.273  33.342  1.00  0.00     0.167 HD
ATOM     46  C   UNL A   1      37.761  32.749  31.998  1.00  0.00     0.031 A 
ATOM     47  C   UNL A   1      43.113  29.530  35.130  1.00  0.00     0.031 A 
ATOM     48  C   UNL A   1      38.007  33.155  33.356  1.00  0.00     0.049 A 
ATOM     49  C   UNL A   1      42.323  30.602  35.826  1.00  0.00     0.074 A 
ATOM     50  C   UNL A   1      37.306  34.073  34.118  1.00  0.00     0.029 A 
ATOM     51  N   UNL A   1      39.032  32.674  34.155  1.00  0.00    -0.354 N 
ATOM     52  N   UNL A   1      41.284  31.272  35.388  1.00  0.00    -0.248 NA
ATOM     53  C   UNL A   1      42.749  30.964  37.185  1.00  0.00     0.031 C 
ATOM     54  C   UNL A   1      37.933  34.178  35.365  1.00  0.00     0.029 A 
ATOM     55  C   UNL A   1      38.998  33.293  35.393  1.00  0.00     0.049 A 
ATOM     56  H   UNL A   1      39.689  31.992  33.882  1.00  0.00     0.167 HD
ATOM     57  C   UNL A   1      40.924  32.126  36.425  1.00  0.00     0.074 A 
ATOM     58  C   UNL A   1      41.842  31.874  37.517  1.00  0.00     0.031 C 
ATOM     59  C   UNL A   1      39.923  33.037  36.467  1.00  0.00     0.031 A 
BRANCH  46  60
ATOM     60  C   UNL A   1      36.653  33.434  31.244  1.00  0.00    -0.014 A 
ATOM     61  C   UNL A   1      36.878  33.984  29.971  1.00  0.00     0.010 A 
ATOM     62  C   UNL A   1      35.356  33.471  31.789  1.00  0.00     0.010 A 
ATOM     63  C   UNL A   1      35.835  34.588  29.267  1.00  0.00     0.020 A 
ATOM     64  C   UNL A   1      34.304  34.056  31.079  1.00  0.00     0.020 A 
ATOM     65  C   UNL A   1      34.553  34.623  29.827  1.00  0.00     0.054 A 
BRANCH  65  66
ATOM     66  S   UNL A   1      33.206  35.380  28.876  1.00  0.00     0.124 S 
ATOM     67  O   UNL A   1      33.931  36.337  28.041  1.00  0.00    -0.237 OA
ATOM     68  O   UNL A   1      32.631  34.240  28.168  1.00  0.00    -0.237 OA
ATOM     69  O   UNL A   1      32.349  35.972  29.900  1.00  0.00    -0.744 OA
ENDBRANCH  65  66
ENDBRANCH  46  60
BRANCH  47  70
ATOM     70  C   UNL A   1      44.281  28.895  35.797  1.00  0.00    -0.014 A 
ATOM     71  C   UNL A   1      44.105  27.768  36.620  1.00  0.00     0.010 A 
ATOM     72  C   UNL A   1      45.575  29.412  35.609  1.00  0.00     0.010 A 
ATOM     73  C   UNL A   1      45.201  27.182  37.259  1.00  0.00     0.020 A 
ATOM     74  C   UNL A   1      46.676  28.814  36.228  1.00  0.00     0.020 A 
ATOM     75  C   UNL A   1      46.480  27.710  37.059  1.00  0.00     0.054 A 
BRANCH  75  76
ATOM     76  S   UNL A   1      47.898  26.906  37.857  1.00  0.00     0.124 S 
ATOM     77  O   UNL A   1      47.687  27.245  39.261  1.00  0.00    -0.237 OA
ATOM     78  O   UNL A   1      47.706  25.500  37.509  1.00  0.00    -0.237 OA
ATOM     79  O   UNL A   1      49.049  27.544  37.222  1.00  0.00    -0.744 OA
ENDBRANCH  75  76
ENDBRANCH  47  70
BRANCH  59  80
ATOM     80  C   UNL A   1      39.755  33.817  37.742  1.00  0.00    -0.014 A 
ATOM     81  C   UNL A   1      40.404  35.051  37.924  1.00  0.00     0.010 A 
ATOM     82  C   UNL A   1      38.904  33.331  38.751  1.00  0.00     0.010 A 
ATOM     83  C   UNL A   1      40.227  35.773  39.107  1.00  0.00     0.020 A 
ATOM     84  C   UNL A   1      38.708  34.060  39.926  1.00  0.00     0.020 A 
ATOM     85  C   UNL A   1      39.382  35.271  40.102  1.00  0.00     0.054 A 
BRANCH  85  86
ATOM     86  S   UNL A   1      39.134  36.243  41.613  1.00  0.00     0.124 S 
ATOM     87  O   UNL A   1      37.925  35.642  42.167  1.00  0.00    -0.237 OA
ATOM     88  O   UNL A   1      40.362  35.991  42.365  1.00  0.00    -0.237 OA
ATOM     89  O   UNL A   1      38.982  37.611  41.122  1.00  0.00    -0.744 OA
ENDBRANCH  85  86
ENDBRANCH  59  80
ENDBRANCH  33  34
ENDBRANCH  25  28
ENDBRANCH  23  24
ENDBRANCH   1  23
TORSDOF 16
ENDMDL
