MODEL 1
REMARK VINA RESULT:     -12.1      0.000      0.000
REMARK SMILES Cc1ccc(S(=O)(=O)Nc2ccc(C(=O)CCC(=O)NCCCNC(=O)c3ccc(-c4c5nc(c(-c6ccc(S(=O)(=O)[O-])cc6)c6ccc([nH]6)c(-c6ccc(S(=O)(=O)[O-])cc6)c6nc(c(-c7ccc(S(=O)(=O)[O-])cc7)c7ccc4[nH]7)C=C6)C=C5)cc3)cc2)c(C)c1
REMARK SMILES IDX 18 1 19 2 20 3 17 5 16 6 14 7 15 8 13 9 10 10 11 11 88 12
REMARK SMILES IDX 12 13 87 14 9 15 6 17 7 18 8 19 5 20 1 21 2 22 3 23 91 24
REMARK SMILES IDX 4 25 89 26 90 27 21 28 22 29 23 30 24 31 25 32 26 34 27 35
REMARK SMILES IDX 28 36 86 37 29 38 85 39 30 40 31 41 32 42 79 43 33 44 84 45
REMARK SMILES IDX 78 46 80 47 34 48 83 49 77 50 76 51 35 53 65 54 46 55 64 56
REMARK SMILES IDX 47 57 50 58 63 59 81 60 48 61 49 62 62 64 82 65 51 66 36 67
REMARK SMILES IDX 37 68 45 69 38 70 44 71 39 72 40 73 41 74 42 75 43 76 66 77
REMARK SMILES IDX 67 78 75 79 68 80 74 81 69 82 70 83 71 84 72 85 73 86 52 87
REMARK SMILES IDX 53 88 61 89 54 90 60 91 55 92 56 93 57 94 58 95 59 96
REMARK H PARENT 20 4 9 16 24 33 80 52 50 63
REMARK Flexibility Score: inf
ROOT
ATOM      1  C   UNL A   1      36.240  22.896  23.863  1.00  0.00     0.220 C 
ATOM      2  O   UNL A   1      36.463  22.725  22.665  1.00  0.00    -0.275 OA
ATOM      3  N   UNL A   1      37.133  23.656  24.584  1.00  0.00    -0.356 N 
ATOM      4  H   UNL A   1      37.710  24.262  24.065  1.00  0.00     0.163 HD
ENDROOT
BRANCH   1   5
ATOM      5  C   UNL A   1      35.005  22.269  24.542  1.00  0.00     0.108 C 
BRANCH   5   6
ATOM      6  C   UNL A   1      35.147  20.778  24.975  1.00  0.00     0.091 C 
BRANCH   6   7
ATOM      7  C   UNL A   1      33.914  19.850  24.734  1.00  0.00     0.163 C 
ATOM      8  O   UNL A   1      34.030  18.644  24.544  1.00  0.00    -0.294 OA
BRANCH   7   9
ATOM      9  C   UNL A   1      32.558  20.488  24.473  1.00  0.00     0.018 A 
ATOM     10  C   UNL A   1      31.174  23.807  23.917  1.00  0.00     0.049 A 
ATOM     11  C   UNL A   1      31.864  22.834  22.507  1.00  0.00     0.027 A 
ATOM     12  C   UNL A   1      31.187  23.093  25.564  1.00  0.00     0.027 A 
ATOM     13  C   UNL A   1      32.487  21.158  22.783  1.00  0.00     0.014 A 
ATOM     14  C   UNL A   1      31.860  21.429  25.826  1.00  0.00     0.014 A 
BRANCH  10  15
ATOM     15  N   UNL A   1      30.142  24.760  23.568  1.00  0.00    -0.280 N 
ATOM     16  H   UNL A   1      29.241  24.418  23.369  1.00  0.00     0.180 HD
BRANCH  15  17
ATOM     17  S   UNL A   1      30.405  26.430  23.486  1.00  0.00     0.262 S 
ATOM     18  O   UNL A   1      29.178  27.095  23.865  1.00  0.00    -0.201 OA
ATOM     19  O   UNL A   1      31.028  26.672  22.204  1.00  0.00    -0.201 OA
BRANCH  17  20
ATOM     20  C   UNL A   1      31.622  26.759  24.729  1.00  0.00     0.090 A 
ATOM     21  C   UNL A   1      34.167  29.057  27.264  1.00  0.00     0.044 C 
ATOM     22  C   UNL A   1      33.324  28.148  26.424  1.00  0.00    -0.051 A 
ATOM     23  C   UNL A   1      32.030  27.841  26.839  1.00  0.00     0.005 A 
ATOM     24  C   UNL A   1      33.817  27.579  25.241  1.00  0.00     0.008 A 
ATOM     25  C   UNL A   1      31.190  27.118  26.004  1.00  0.00     0.023 A 
ATOM     26  C   UNL A   1      32.973  26.868  24.376  1.00  0.00    -0.030 A 
ATOM     27  C   UNL A   1      33.555  26.134  23.200  1.00  0.00     0.046 C 
ENDBRANCH  17  20
ENDBRANCH  15  17
ENDBRANCH  10  15
ENDBRANCH   7   9
ENDBRANCH   6   7
ENDBRANCH   5   6
ENDBRANCH   1   5
BRANCH   3  28
ATOM     28  C   UNL A   1      37.321  23.664  26.040  1.00  0.00     0.117 C 
BRANCH  28  29
ATOM     29  C   UNL A   1      38.540  22.598  26.370  1.00  0.00     0.042 C 
BRANCH  29  30
ATOM     30  C   UNL A   1      39.192  20.591  25.815  1.00  0.00     0.118 C 
BRANCH  30  31
ATOM     31  N   UNL A   1      40.707  19.915  25.989  1.00  0.00    -0.352 N 
ATOM     32  C   UNL A   1      41.990  20.266  26.174  1.00  0.00     0.251 C 
ATOM     33  H   UNL A   1      40.638  18.934  25.940  1.00  0.00     0.163 HD
ATOM     34  O   UNL A   1      42.831  19.370  26.103  1.00  0.00    -0.269 OA
BRANCH  32  35
ATOM     35  C   UNL A   1      42.385  21.611  26.497  1.00  0.00     0.039 A 
ATOM     36  C   UNL A   1      42.492  22.500  25.425  1.00  0.00     0.014 A 
ATOM     37  C   UNL A   1      42.786  21.933  27.791  1.00  0.00     0.014 A 
ATOM     38  C   UNL A   1      43.005  23.752  25.659  1.00  0.00     0.010 A 
ATOM     39  C   UNL A   1      43.216  23.211  28.043  1.00  0.00     0.010 A 
ATOM     40  C   UNL A   1      43.346  24.099  26.971  1.00  0.00    -0.014 A 
BRANCH  40  41
ATOM     41  C   UNL A   1      43.872  25.425  27.250  1.00  0.00     0.031 A 
ATOM     42  C   UNL A   1      45.317  25.680  26.999  1.00  0.00     0.074 A 
ATOM     43  C   UNL A   1      43.010  26.303  27.784  1.00  0.00     0.049 A 
ATOM     44  N   UNL A   1      46.003  26.759  27.230  1.00  0.00    -0.248 NA
ATOM     45  C   UNL A   1      46.113  24.558  26.459  1.00  0.00     0.031 C 
ATOM     46  C   UNL A   1      41.597  26.024  28.081  1.00  0.00     0.029 A 
ATOM     47  N   UNL A   1      43.183  27.593  28.165  1.00  0.00    -0.354 N 
ATOM     48  C   UNL A   1      47.311  26.444  26.888  1.00  0.00     0.074 A 
ATOM     49  C   UNL A   1      47.339  25.056  26.496  1.00  0.00     0.031 C 
ATOM     50  C   UNL A   1      41.021  27.136  28.558  1.00  0.00     0.029 A 
ATOM     51  C   UNL A   1      42.034  28.178  28.634  1.00  0.00     0.049 A 
ATOM     52  H   UNL A   1      44.047  28.064  28.110  1.00  0.00     0.167 HD
ATOM     53  C   UNL A   1      48.377  27.273  26.886  1.00  0.00     0.031 A 
ATOM     54  C   UNL A   1      41.843  29.434  29.064  1.00  0.00     0.031 A 
ATOM     55  C   UNL A   1      48.260  28.651  27.279  1.00  0.00     0.049 A 
ATOM     56  C   UNL A   1      43.033  30.345  29.003  1.00  0.00     0.074 A 
ATOM     57  C   UNL A   1      49.226  29.637  27.295  1.00  0.00     0.029 A 
ATOM     58  N   UNL A   1      47.074  29.236  27.718  1.00  0.00    -0.354 N 
ATOM     59  N   UNL A   1      44.264  30.062  28.635  1.00  0.00    -0.248 NA
ATOM     60  C   UNL A   1      42.813  31.741  29.380  1.00  0.00     0.031 C 
ATOM     61  C   UNL A   1      48.631  30.806  27.783  1.00  0.00     0.029 A 
ATOM     62  C   UNL A   1      47.281  30.567  28.012  1.00  0.00     0.049 A 
ATOM     63  H   UNL A   1      46.214  28.766  27.806  1.00  0.00     0.167 HD
ATOM     64  C   UNL A   1      44.966  31.253  28.706  1.00  0.00     0.074 A 
ATOM     65  C   UNL A   1      44.008  32.261  29.138  1.00  0.00     0.031 C 
ATOM     66  C   UNL A   1      46.274  31.508  28.445  1.00  0.00     0.031 A 
BRANCH  53  67
ATOM     67  C   UNL A   1      49.705  26.705  26.465  1.00  0.00    -0.014 A 
ATOM     68  C   UNL A   1      50.118  26.733  25.117  1.00  0.00     0.010 A 
ATOM     69  C   UNL A   1      50.556  26.124  27.421  1.00  0.00     0.010 A 
ATOM     70  C   UNL A   1      51.331  26.155  24.730  1.00  0.00     0.020 A 
ATOM     71  C   UNL A   1      51.786  25.572  27.042  1.00  0.00     0.020 A 
ATOM     72  C   UNL A   1      52.158  25.577  25.697  1.00  0.00     0.054 A 
BRANCH  72  73
ATOM     73  S   UNL A   1      53.742  24.865  25.171  1.00  0.00     0.124 S 
ATOM     74  O   UNL A   1      54.009  25.597  23.936  1.00  0.00    -0.237 OA
ATOM     75  O   UNL A   1      54.623  25.185  26.292  1.00  0.00    -0.237 OA
ATOM     76  O   UNL A   1      53.444  23.445  25.001  1.00  0.00    -0.744 OA
ENDBRANCH  72  73
ENDBRANCH  53  67
BRANCH  54  77
ATOM     77  C   UNL A   1      40.493  29.870  29.501  1.00  0.00    -0.014 A 
ATOM     78  C   UNL A   1      40.249  30.190  30.847  1.00  0.00     0.010 A 
ATOM     79  C   UNL A   1      39.461  30.047  28.561  1.00  0.00     0.010 A 
ATOM     80  C   UNL A   1      38.991  30.648  31.250  1.00  0.00     0.020 A 
ATOM     81  C   UNL A   1      38.211  30.533  28.953  1.00  0.00     0.020 A 
ATOM     82  C   UNL A   1      37.979  30.816  30.300  1.00  0.00     0.054 A 
BRANCH  82  83
ATOM     83  S   UNL A   1      36.365  31.439  30.844  1.00  0.00     0.124 S 
ATOM     84  O   UNL A   1      35.642  31.549  29.581  1.00  0.00    -0.237 OA
ATOM     85  O   UNL A   1      35.908  30.385  31.746  1.00  0.00    -0.237 OA
ATOM     86  O   UNL A   1      36.688  32.708  31.493  1.00  0.00    -0.744 OA
ENDBRANCH  82  83
ENDBRANCH  54  77
BRANCH  66  87
ATOM     87  C   UNL A   1      46.707  32.934  28.589  1.00  0.00    -0.014 A 
ATOM     88  C   UNL A   1      46.615  33.831  27.512  1.00  0.00     0.010 A 
ATOM     89  C   UNL A   1      47.168  33.386  29.838  1.00  0.00     0.010 A 
ATOM     90  C   UNL A   1      47.022  35.154  27.672  1.00  0.00     0.020 A 
ATOM     91  C   UNL A   1      47.540  34.717  30.010  1.00  0.00     0.020 A 
ATOM     92  C   UNL A   1      47.481  35.586  28.920  1.00  0.00     0.054 A 
BRANCH  92  93
ATOM     93  S   UNL A   1      47.968  37.320  29.109  1.00  0.00     0.124 S 
ATOM     94  O   UNL A   1      46.858  38.017  28.468  1.00  0.00    -0.237 OA
ATOM     95  O   UNL A   1      48.053  37.470  30.560  1.00  0.00    -0.237 OA
ATOM     96  O   UNL A   1      49.247  37.398  28.405  1.00  0.00    -0.744 OA
ENDBRANCH  92  93
ENDBRANCH  66  87
ENDBRANCH  40  41
ENDBRANCH  32  35
ENDBRANCH  30  31
ENDBRANCH  29  30
ENDBRANCH  28  29
ENDBRANCH   3  28
TORSDOF 19
ENDMDL
MODEL 2
REMARK VINA RESULT:     -12.0      5.528      7.480
REMARK SMILES Cc1ccc(S(=O)(=O)Nc2ccc(C(=O)CCC(=O)NCCCNC(=O)c3ccc(-c4c5nc(c(-c6ccc(S(=O)(=O)[O-])cc6)c6ccc([nH]6)c(-c6ccc(S(=O)(=O)[O-])cc6)c6nc(c(-c7ccc(S(=O)(=O)[O-])cc7)c7ccc4[nH]7)C=C6)C=C5)cc3)cc2)c(C)c1
REMARK SMILES IDX 18 1 19 2 20 3 17 5 16 6 14 7 15 8 13 9 10 10 11 11 88 12
REMARK SMILES IDX 12 13 87 14 9 15 6 17 7 18 8 19 5 20 1 21 2 22 3 23 91 24
REMARK SMILES IDX 4 25 89 26 90 27 21 28 22 29 23 30 24 31 25 32 26 34 27 35
REMARK SMILES IDX 28 36 86 37 29 38 85 39 30 40 31 41 32 42 79 43 33 44 84 45
REMARK SMILES IDX 78 46 80 47 34 48 83 49 77 50 76 51 35 53 65 54 46 55 64 56
REMARK SMILES IDX 47 57 50 58 63 59 81 60 48 61 49 62 62 64 82 65 51 66 36 67
REMARK SMILES IDX 37 68 45 69 38 70 44 71 39 72 40 73 41 74 42 75 43 76 66 77
REMARK SMILES IDX 67 78 75 79 68 80 74 81 69 82 70 83 71 84 72 85 73 86 52 87
REMARK SMILES IDX 53 88 61 89 54 90 60 91 55 92 56 93 57 94 58 95 59 96
REMARK H PARENT 20 4 9 16 24 33 80 52 50 63
REMARK Flexibility Score: inf
ROOT
ATOM      1  C   UNL A   1      36.272  21.962  24.541  1.00  0.00     0.220 C 
ATOM      2  O   UNL A   1      35.772  22.592  23.608  1.00  0.00    -0.275 OA
ATOM      3  N   UNL A   1      37.632  22.056  24.727  1.00  0.00    -0.356 N 
ATOM      4  H   UNL A   1      38.076  22.835  24.322  1.00  0.00     0.163 HD
ENDROOT
BRANCH   1   5
ATOM      5  C   UNL A   1      35.403  21.085  25.465  1.00  0.00     0.108 C 
BRANCH   5   6
ATOM      6  C   UNL A   1      34.798  19.802  24.819  1.00  0.00     0.091 C 
BRANCH   6   7
ATOM      7  C   UNL A   1      33.321  19.453  25.190  1.00  0.00     0.163 C 
ATOM      8  O   UNL A   1      32.993  18.341  25.592  1.00  0.00    -0.294 OA
BRANCH   7   9
ATOM      9  C   UNL A   1      32.219  20.428  24.803  1.00  0.00     0.018 A 
ATOM     10  C   UNL A   1      31.906  23.873  23.676  1.00  0.00     0.049 A 
ATOM     11  C   UNL A   1      32.210  22.516  22.461  1.00  0.00     0.027 A 
ATOM     12  C   UNL A   1      31.758  23.471  25.419  1.00  0.00     0.027 A 
ATOM     13  C   UNL A   1      32.296  20.799  23.024  1.00  0.00     0.014 A 
ATOM     14  C   UNL A   1      31.895  21.747  25.968  1.00  0.00     0.014 A 
BRANCH  10  15
ATOM     15  N   UNL A   1      31.206  25.028  23.156  1.00  0.00    -0.280 N 
ATOM     16  H   UNL A   1      30.222  25.021  23.169  1.00  0.00     0.180 HD
BRANCH  15  17
ATOM     17  S   UNL A   1      31.992  26.388  22.526  1.00  0.00     0.262 S 
ATOM     18  O   UNL A   1      31.047  27.110  21.702  1.00  0.00    -0.201 OA
ATOM     19  O   UNL A   1      33.247  25.911  21.991  1.00  0.00    -0.201 OA
BRANCH  17  20
ATOM     20  C   UNL A   1      32.371  27.386  23.939  1.00  0.00     0.090 A 
ATOM     21  C   UNL A   1      31.877  30.441  26.872  1.00  0.00     0.044 C 
ATOM     22  C   UNL A   1      32.159  29.341  25.896  1.00  0.00    -0.051 A 
ATOM     23  C   UNL A   1      31.610  28.079  26.114  1.00  0.00     0.005 A 
ATOM     24  C   UNL A   1      32.985  29.546  24.781  1.00  0.00     0.008 A 
ATOM     25  C   UNL A   1      31.745  27.092  25.148  1.00  0.00     0.023 A 
ATOM     26  C   UNL A   1      33.109  28.566  23.785  1.00  0.00    -0.030 A 
ATOM     27  C   UNL A   1      34.119  28.743  22.686  1.00  0.00     0.046 C 
ENDBRANCH  17  20
ENDBRANCH  15  17
ENDBRANCH  10  15
ENDBRANCH   7   9
ENDBRANCH   6   7
ENDBRANCH   5   6
ENDBRANCH   1   5
BRANCH   3  28
ATOM     28  C   UNL A   1      38.495  21.123  25.464  1.00  0.00     0.117 C 
BRANCH  28  29
ATOM     29  C   UNL A   1      39.400  22.032  26.507  1.00  0.00     0.042 C 
BRANCH  29  30
ATOM     30  C   UNL A   1      41.350  23.006  26.604  1.00  0.00     0.118 C 
BRANCH  30  31
ATOM     31  N   UNL A   1      41.913  24.277  25.682  1.00  0.00    -0.352 N 
ATOM     32  C   UNL A   1      42.106  25.605  25.743  1.00  0.00     0.251 C 
ATOM     33  H   UNL A   1      42.197  23.944  24.799  1.00  0.00     0.163 HD
ATOM     34  O   UNL A   1      42.442  26.170  24.703  1.00  0.00    -0.269 OA
BRANCH  32  35
ATOM     35  C   UNL A   1      41.989  26.346  26.970  1.00  0.00     0.039 A 
ATOM     36  C   UNL A   1      40.963  25.956  27.834  1.00  0.00     0.014 A 
ATOM     37  C   UNL A   1      42.763  27.484  27.180  1.00  0.00     0.014 A 
ATOM     38  C   UNL A   1      40.714  26.722  28.947  1.00  0.00     0.010 A 
ATOM     39  C   UNL A   1      42.576  28.200  28.335  1.00  0.00     0.010 A 
ATOM     40  C   UNL A   1      41.536  27.827  29.193  1.00  0.00    -0.014 A 
BRANCH  40  41
ATOM     41  C   UNL A   1      41.308  28.642  30.375  1.00  0.00     0.031 A 
ATOM     42  C   UNL A   1      42.199  28.444  31.552  1.00  0.00     0.074 A 
ATOM     43  C   UNL A   1      40.254  29.469  30.329  1.00  0.00     0.049 A 
ATOM     44  N   UNL A   1      42.141  29.013  32.719  1.00  0.00    -0.248 NA
ATOM     45  C   UNL A   1      43.272  27.437  31.421  1.00  0.00     0.031 C 
ATOM     46  C   UNL A   1      39.346  29.617  29.182  1.00  0.00     0.029 A 
ATOM     47  N   UNL A   1      39.770  30.339  31.252  1.00  0.00    -0.354 N 
ATOM     48  C   UNL A   1      43.149  28.423  33.468  1.00  0.00     0.074 A 
ATOM     49  C   UNL A   1      43.762  27.405  32.650  1.00  0.00     0.031 C 
ATOM     50  C   UNL A   1      38.439  30.563  29.460  1.00  0.00     0.029 A 
ATOM     51  C   UNL A   1      38.683  31.048  30.809  1.00  0.00     0.049 A 
ATOM     52  H   UNL A   1      40.160  30.449  32.150  1.00  0.00     0.167 HD
ATOM     53  C   UNL A   1      43.526  28.741  34.724  1.00  0.00     0.031 A 
ATOM     54  C   UNL A   1      37.981  31.998  31.446  1.00  0.00     0.031 A 
ATOM     55  C   UNL A   1      42.869  29.782  35.468  1.00  0.00     0.049 A 
ATOM     56  C   UNL A   1      38.455  32.366  32.820  1.00  0.00     0.074 A 
ATOM     57  C   UNL A   1      43.151  30.261  36.731  1.00  0.00     0.029 A 
ATOM     58  N   UNL A   1      41.789  30.517  34.985  1.00  0.00    -0.354 N 
ATOM     59  N   UNL A   1      39.440  31.839  33.515  1.00  0.00    -0.248 NA
ATOM     60  C   UNL A   1      37.757  33.464  33.485  1.00  0.00     0.031 C 
ATOM     61  C   UNL A   1      42.214  31.258  37.026  1.00  0.00     0.029 A 
ATOM     62  C   UNL A   1      41.387  31.444  35.924  1.00  0.00     0.049 A 
ATOM     63  H   UNL A   1      41.372  30.393  34.102  1.00  0.00     0.167 HD
ATOM     64  C   UNL A   1      39.503  32.563  34.694  1.00  0.00     0.074 A 
ATOM     65  C   UNL A   1      38.461  33.575  34.603  1.00  0.00     0.031 C 
ATOM     66  C   UNL A   1      40.333  32.417  35.759  1.00  0.00     0.031 A 
BRANCH  53  67
ATOM     67  C   UNL A   1      44.661  27.962  35.334  1.00  0.00    -0.014 A 
ATOM     68  C   UNL A   1      46.004  28.285  35.052  1.00  0.00     0.010 A 
ATOM     69  C   UNL A   1      44.391  26.884  36.194  1.00  0.00     0.010 A 
ATOM     70  C   UNL A   1      47.048  27.520  35.582  1.00  0.00     0.020 A 
ATOM     71  C   UNL A   1      45.434  26.135  36.753  1.00  0.00     0.020 A 
ATOM     72  C   UNL A   1      46.755  26.450  36.430  1.00  0.00     0.054 A 
BRANCH  72  73
ATOM     73  S   UNL A   1      48.130  25.497  37.131  1.00  0.00     0.124 S 
ATOM     74  O   UNL A   1      47.664  24.123  36.965  1.00  0.00    -0.237 OA
ATOM     75  O   UNL A   1      49.253  25.885  36.280  1.00  0.00    -0.237 OA
ATOM     76  O   UNL A   1      48.209  25.965  38.513  1.00  0.00    -0.744 OA
ENDBRANCH  72  73
ENDBRANCH  53  67
BRANCH  54  77
ATOM     77  C   UNL A   1      36.848  32.667  30.758  1.00  0.00    -0.014 A 
ATOM     78  C   UNL A   1      35.528  32.239  30.978  1.00  0.00     0.010 A 
ATOM     79  C   UNL A   1      37.073  33.790  29.941  1.00  0.00     0.010 A 
ATOM     80  C   UNL A   1      34.458  32.901  30.369  1.00  0.00     0.020 A 
ATOM     81  C   UNL A   1      36.004  34.474  29.355  1.00  0.00     0.020 A 
ATOM     82  C   UNL A   1      34.703  34.014  29.561  1.00  0.00     0.054 A 
BRANCH  82  83
ATOM     83  S   UNL A   1      33.294  34.872  28.806  1.00  0.00     0.124 S 
ATOM     84  O   UNL A   1      33.943  36.006  28.156  1.00  0.00    -0.237 OA
ATOM     85  O   UNL A   1      32.749  33.855  27.911  1.00  0.00    -0.237 OA
ATOM     86  O   UNL A   1      32.445  35.207  29.947  1.00  0.00    -0.744 OA
ENDBRANCH  82  83
ENDBRANCH  54  77
BRANCH  66  87
ATOM     87  C   UNL A   1      40.153  33.405  36.872  1.00  0.00    -0.014 A 
ATOM     88  C   UNL A   1      40.989  34.528  36.985  1.00  0.00     0.010 A 
ATOM     89  C   UNL A   1      39.099  33.221  37.784  1.00  0.00     0.010 A 
ATOM     90  C   UNL A   1      40.800  35.433  38.026  1.00  0.00     0.020 A 
ATOM     91  C   UNL A   1      38.885  34.145  38.805  1.00  0.00     0.020 A 
ATOM     92  C   UNL A   1      39.749  35.235  38.928  1.00  0.00     0.054 A 
BRANCH  92  93
ATOM     93  S   UNL A   1      39.504  36.447  40.250  1.00  0.00     0.124 S 
ATOM     94  O   UNL A   1      38.688  37.458  39.585  1.00  0.00    -0.237 OA
ATOM     95  O   UNL A   1      38.822  35.663  41.278  1.00  0.00    -0.237 OA
ATOM     96  O   UNL A   1      40.862  36.865  40.592  1.00  0.00    -0.744 OA
ENDBRANCH  92  93
ENDBRANCH  66  87
ENDBRANCH  40  41
ENDBRANCH  32  35
ENDBRANCH  30  31
ENDBRANCH  29  30
ENDBRANCH  28  29
ENDBRANCH   3  28
TORSDOF 19
ENDMDL
MODEL 3
REMARK VINA RESULT:     -11.9      1.459      8.287
REMARK SMILES Cc1ccc(S(=O)(=O)Nc2ccc(C(=O)CCC(=O)NCCCNC(=O)c3ccc(-c4c5nc(c(-c6ccc(S(=O)(=O)[O-])cc6)c6ccc([nH]6)c(-c6ccc(S(=O)(=O)[O-])cc6)c6nc(c(-c7ccc(S(=O)(=O)[O-])cc7)c7ccc4[nH]7)C=C6)C=C5)cc3)cc2)c(C)c1
REMARK SMILES IDX 18 1 19 2 20 3 17 5 16 6 14 7 15 8 13 9 10 10 11 11 88 12
REMARK SMILES IDX 12 13 87 14 9 15 6 17 7 18 8 19 5 20 1 21 2 22 3 23 91 24
REMARK SMILES IDX 4 25 89 26 90 27 21 28 22 29 23 30 24 31 25 32 26 34 27 35
REMARK SMILES IDX 28 36 86 37 29 38 85 39 30 40 31 41 32 42 79 43 33 44 84 45
REMARK SMILES IDX 78 46 80 47 34 48 83 49 77 50 76 51 35 53 65 54 46 55 64 56
REMARK SMILES IDX 47 57 50 58 63 59 81 60 48 61 49 62 62 64 82 65 51 66 36 67
REMARK SMILES IDX 37 68 45 69 38 70 44 71 39 72 40 73 41 74 42 75 43 76 66 77
REMARK SMILES IDX 67 78 75 79 68 80 74 81 69 82 70 83 71 84 72 85 73 86 52 87
REMARK SMILES IDX 53 88 61 89 54 90 60 91 55 92 56 93 57 94 58 95 59 96
REMARK H PARENT 20 4 9 16 24 33 80 52 50 63
REMARK Flexibility Score: inf
ROOT
ATOM      1  C   UNL A   1      36.616  22.757  24.367  1.00  0.00     0.220 C 
ATOM      2  O   UNL A   1      36.580  22.608  23.146  1.00  0.00    -0.275 OA
ATOM      3  N   UNL A   1      37.438  23.739  24.872  1.00  0.00    -0.356 N 
ATOM      4  H   UNL A   1      37.704  24.451  24.247  1.00  0.00     0.163 HD
ENDROOT
BRANCH   1   5
ATOM      5  C   UNL A   1      35.778  21.865  25.305  1.00  0.00     0.108 C 
BRANCH   5   6
ATOM      6  C   UNL A   1      35.561  20.395  24.836  1.00  0.00     0.091 C 
BRANCH   6   7
ATOM      7  C   UNL A   1      34.102  19.839  24.899  1.00  0.00     0.163 C 
ATOM      8  O   UNL A   1      33.859  18.637  24.881  1.00  0.00    -0.294 OA
BRANCH   7   9
ATOM      9  C   UNL A   1      32.942  20.807  24.722  1.00  0.00     0.018 A 
ATOM     10  C   UNL A   1      32.424  24.379  24.260  1.00  0.00     0.049 A 
ATOM     11  C   UNL A   1      32.761  23.287  22.808  1.00  0.00     0.027 A 
ATOM     12  C   UNL A   1      32.348  23.655  25.900  1.00  0.00     0.027 A 
ATOM     13  C   UNL A   1      32.949  21.503  23.041  1.00  0.00     0.014 A 
ATOM     14  C   UNL A   1      32.586  21.869  26.117  1.00  0.00     0.014 A 
BRANCH  10  15
ATOM     15  N   UNL A   1      31.653  25.569  23.976  1.00  0.00    -0.280 N 
ATOM     16  H   UNL A   1      30.833  25.476  23.439  1.00  0.00     0.180 HD
BRANCH  15  17
ATOM     17  S   UNL A   1      32.087  27.113  24.519  1.00  0.00     0.262 S 
ATOM     18  O   UNL A   1      33.166  27.594  23.684  1.00  0.00    -0.201 OA
ATOM     19  O   UNL A   1      32.236  27.003  25.952  1.00  0.00    -0.201 OA
BRANCH  17  20
ATOM     20  C   UNL A   1      30.661  28.117  24.216  1.00  0.00     0.090 A 
ATOM     21  C   UNL A   1      27.923  30.542  22.024  1.00  0.00     0.044 C 
ATOM     22  C   UNL A   1      28.813  29.710  22.894  1.00  0.00    -0.051 A 
ATOM     23  C   UNL A   1      28.649  28.326  22.913  1.00  0.00     0.005 A 
ATOM     24  C   UNL A   1      29.793  30.294  23.710  1.00  0.00     0.008 A 
ATOM     25  C   UNL A   1      29.555  27.533  23.602  1.00  0.00     0.023 A 
ATOM     26  C   UNL A   1      30.730  29.504  24.390  1.00  0.00    -0.030 A 
ATOM     27  C   UNL A   1      31.666  30.141  25.381  1.00  0.00     0.046 C 
ENDBRANCH  17  20
ENDBRANCH  15  17
ENDBRANCH  10  15
ENDBRANCH   7   9
ENDBRANCH   6   7
ENDBRANCH   5   6
ENDBRANCH   1   5
BRANCH   3  28
ATOM     28  C   UNL A   1      37.964  23.841  26.240  1.00  0.00     0.117 C 
BRANCH  28  29
ATOM     29  C   UNL A   1      39.108  22.659  26.402  1.00  0.00     0.042 C 
BRANCH  29  30
ATOM     30  C   UNL A   1      39.347  20.517  26.066  1.00  0.00     0.118 C 
BRANCH  30  31
ATOM     31  N   UNL A   1      40.757  19.625  26.065  1.00  0.00    -0.352 N 
ATOM     32  C   UNL A   1      42.090  19.783  26.075  1.00  0.00     0.251 C 
ATOM     33  H   UNL A   1      40.539  18.665  26.053  1.00  0.00     0.163 HD
ATOM     34  O   UNL A   1      42.775  18.772  25.924  1.00  0.00    -0.269 OA
BRANCH  32  35
ATOM     35  C   UNL A   1      42.715  21.058  26.308  1.00  0.00     0.039 A 
ATOM     36  C   UNL A   1      42.831  21.457  27.642  1.00  0.00     0.014 A 
ATOM     37  C   UNL A   1      43.028  21.893  25.239  1.00  0.00     0.014 A 
ATOM     38  C   UNL A   1      43.284  22.726  27.911  1.00  0.00     0.010 A 
ATOM     39  C   UNL A   1      43.564  23.127  25.507  1.00  0.00     0.010 A 
ATOM     40  C   UNL A   1      43.661  23.541  26.839  1.00  0.00    -0.014 A 
BRANCH  40  41
ATOM     41  C   UNL A   1      44.165  24.880  27.097  1.00  0.00     0.031 A 
ATOM     42  C   UNL A   1      43.203  25.920  27.557  1.00  0.00     0.074 A 
ATOM     43  C   UNL A   1      45.462  25.087  26.826  1.00  0.00     0.049 A 
ATOM     44  N   UNL A   1      43.419  27.180  27.788  1.00  0.00    -0.248 NA
ATOM     45  C   UNL A   1      41.798  25.501  27.741  1.00  0.00     0.031 C 
ATOM     46  C   UNL A   1      46.390  24.067  26.317  1.00  0.00     0.029 A 
ATOM     47  N   UNL A   1      46.223  26.203  26.944  1.00  0.00    -0.354 N 
ATOM     48  C   UNL A   1      42.181  27.712  28.121  1.00  0.00     0.074 A 
ATOM     49  C   UNL A   1      41.205  26.656  27.999  1.00  0.00     0.031 C 
ATOM     50  C   UNL A   1      47.614  24.603  26.211  1.00  0.00     0.029 A 
ATOM     51  C   UNL A   1      47.536  26.001  26.603  1.00  0.00     0.049 A 
ATOM     52  H   UNL A   1      45.869  27.073  27.242  1.00  0.00     0.167 HD
ATOM     53  C   UNL A   1      41.915  28.975  28.516  1.00  0.00     0.031 A 
ATOM     54  C   UNL A   1      48.556  26.872  26.628  1.00  0.00     0.031 A 
ATOM     55  C   UNL A   1      42.951  29.965  28.625  1.00  0.00     0.049 A 
ATOM     56  C   UNL A   1      48.239  28.253  27.119  1.00  0.00     0.074 A 
ATOM     57  C   UNL A   1      42.862  31.275  29.049  1.00  0.00     0.029 A 
ATOM     58  N   UNL A   1      44.287  29.729  28.309  1.00  0.00    -0.354 N 
ATOM     59  N   UNL A   1      47.075  28.748  27.479  1.00  0.00    -0.248 NA
ATOM     60  C   UNL A   1      49.361  29.183  27.239  1.00  0.00     0.031 C 
ATOM     61  C   UNL A   1      44.139  31.841  28.950  1.00  0.00     0.029 A 
ATOM     62  C   UNL A   1      45.035  30.867  28.525  1.00  0.00     0.049 A 
ATOM     63  H   UNL A   1      44.645  28.873  27.980  1.00  0.00     0.167 HD
ATOM     64  C   UNL A   1      47.324  30.043  27.900  1.00  0.00     0.074 A 
ATOM     65  C   UNL A   1      48.760  30.242  27.762  1.00  0.00     0.031 C 
ATOM     66  C   UNL A   1      46.465  30.988  28.357  1.00  0.00     0.031 A 
BRANCH  53  67
ATOM     67  C   UNL A   1      40.485  29.322  28.835  1.00  0.00    -0.014 A 
ATOM     68  C   UNL A   1      39.535  29.517  27.812  1.00  0.00     0.010 A 
ATOM     69  C   UNL A   1      40.078  29.466  30.172  1.00  0.00     0.010 A 
ATOM     70  C   UNL A   1      38.223  29.892  28.119  1.00  0.00     0.020 A 
ATOM     71  C   UNL A   1      38.758  29.809  30.486  1.00  0.00     0.020 A 
ATOM     72  C   UNL A   1      37.843  30.034  29.456  1.00  0.00     0.054 A 
BRANCH  72  73
ATOM     73  S   UNL A   1      36.125  30.486  29.826  1.00  0.00     0.124 S 
ATOM     74  O   UNL A   1      35.916  29.848  31.123  1.00  0.00    -0.237 OA
ATOM     75  O   UNL A   1      36.177  31.946  29.847  1.00  0.00    -0.237 OA
ATOM     76  O   UNL A   1      35.367  29.908  28.718  1.00  0.00    -0.744 OA
ENDBRANCH  72  73
ENDBRANCH  53  67
BRANCH  54  77
ATOM     77  C   UNL A   1      49.920  26.426  26.246  1.00  0.00    -0.014 A 
ATOM     78  C   UNL A   1      50.419  26.683  24.958  1.00  0.00     0.010 A 
ATOM     79  C   UNL A   1      50.761  25.813  27.193  1.00  0.00     0.010 A 
ATOM     80  C   UNL A   1      51.721  26.308  24.614  1.00  0.00     0.020 A 
ATOM     81  C   UNL A   1      52.073  25.462  26.864  1.00  0.00     0.020 A 
ATOM     82  C   UNL A   1      52.540  25.698  25.570  1.00  0.00     0.054 A 
BRANCH  82  83
ATOM     83  S   UNL A   1      54.234  25.247  25.106  1.00  0.00     0.124 S 
ATOM     84  O   UNL A   1      54.140  23.795  24.993  1.00  0.00    -0.237 OA
ATOM     85  O   UNL A   1      54.422  25.969  23.851  1.00  0.00    -0.237 OA
ATOM     86  O   UNL A   1      55.038  25.736  26.225  1.00  0.00    -0.744 OA
ENDBRANCH  82  83
ENDBRANCH  54  77
BRANCH  66  87
ATOM     87  C   UNL A   1      47.079  32.292  28.768  1.00  0.00    -0.014 A 
ATOM     88  C   UNL A   1      47.556  32.488  30.074  1.00  0.00     0.010 A 
ATOM     89  C   UNL A   1      47.217  33.313  27.811  1.00  0.00     0.010 A 
ATOM     90  C   UNL A   1      48.126  33.708  30.430  1.00  0.00     0.020 A 
ATOM     91  C   UNL A   1      47.820  34.520  28.155  1.00  0.00     0.020 A 
ATOM     92  C   UNL A   1      48.254  34.715  29.468  1.00  0.00     0.054 A 
BRANCH  92  93
ATOM     93  S   UNL A   1      49.032  36.277  29.949  1.00  0.00     0.124 S 
ATOM     94  O   UNL A   1      49.291  36.061  31.368  1.00  0.00    -0.237 OA
ATOM     95  O   UNL A   1      50.215  36.320  29.092  1.00  0.00    -0.237 OA
ATOM     96  O   UNL A   1      48.012  37.279  29.644  1.00  0.00    -0.744 OA
ENDBRANCH  92  93
ENDBRANCH  66  87
ENDBRANCH  40  41
ENDBRANCH  32  35
ENDBRANCH  30  31
ENDBRANCH  29  30
ENDBRANCH  28  29
ENDBRANCH   3  28
TORSDOF 19
ENDMDL
