MODEL 1
REMARK VINA RESULT:     -13.3      0.000      0.000
REMARK SMILES CS(=O)(=O)c1ccc(-n2nc(C(F)(F)F)cc2-c2ccc(CC(=O)NCCCNC(=O)c3ccc(-c4c5nc(c(-c6ccc(S(=O)(=O)[O-])cc6)c6ccc([nH]6)c(-c6ccc(S(=O)(=O)[O-])cc6)c6nc(c(-c7ccc(S(=O)(=O)[O-])cc7)c7ccc4[nH]7)C=C6)C=C5)cc3)cc2)cc1
REMARK SMILES IDX 26 1 25 2 23 3 24 4 22 6 21 7 18 8 19 9 93 10 20 11 92 12
REMARK SMILES IDX 17 13 9 14 10 15 11 16 16 17 8 18 5 19 6 20 95 21 7 22 94 23
REMARK SMILES IDX 2 24 1 25 3 26 4 27 12 28 13 29 14 30 15 31 27 32 28 33
REMARK SMILES IDX 29 34 30 35 31 37 32 38 33 39 91 40 34 41 90 42 35 43 36 44
REMARK SMILES IDX 37 45 84 46 38 47 89 48 83 49 85 50 39 51 88 52 82 53 81 54
REMARK SMILES IDX 40 56 70 57 51 58 69 59 52 60 55 61 68 62 86 63 53 64 54 65
REMARK SMILES IDX 67 67 87 68 56 69 41 70 42 71 50 72 43 73 49 74 44 75 45 76
REMARK SMILES IDX 46 77 47 78 48 79 71 80 72 81 80 82 73 83 79 84 74 85 75 86
REMARK SMILES IDX 76 87 77 88 78 89 57 90 58 91 66 92 59 93 65 94 60 95 61 96
REMARK SMILES IDX 62 97 63 98 64 99
REMARK H PARENT 25 5 29 36 85 55 55 66
REMARK Flexibility Score: inf
ROOT
ATOM      1  C   UNL A   1      40.749  21.286  27.274  1.00  0.00     0.117 C 
ENDROOT
BRANCH   1   2
ATOM      2  N   UNL A   1      39.773  20.659  26.402  1.00  0.00    -0.356 N 
ATOM      3  C   UNL A   1      38.767  21.234  25.680  1.00  0.00     0.224 C 
ATOM      4  O   UNL A   1      38.039  20.507  25.005  1.00  0.00    -0.275 OA
ATOM      5  H   UNL A   1      39.848  19.680  26.318  1.00  0.00     0.163 HD
BRANCH   3   6
ATOM      6  C   UNL A   1      38.606  22.743  25.671  1.00  0.00     0.135 C 
BRANCH   6   7
ATOM      7  C   UNL A   1      37.221  23.225  25.305  1.00  0.00    -0.039 A 
ATOM      8  C   UNL A   1      34.617  24.110  24.654  1.00  0.00     0.000 A 
ATOM      9  C   UNL A   1      35.532  23.755  23.646  1.00  0.00     0.010 A 
ATOM     10  C   UNL A   1      35.024  24.022  25.987  1.00  0.00     0.010 A 
ATOM     11  C   UNL A   1      36.820  23.308  23.967  1.00  0.00     0.005 A 
ATOM     12  C   UNL A   1      36.316  23.602  26.307  1.00  0.00     0.005 A 
BRANCH   8  13
ATOM     13  C   UNL A   1      33.249  24.539  24.341  1.00  0.00     0.075 A 
ATOM     14  N   UNL A   1      32.225  23.698  23.947  1.00  0.00    -0.233 N 
ATOM     15  N   UNL A   1      31.119  24.351  23.549  1.00  0.00    -0.163 NA
ATOM     16  C   UNL A   1      31.355  25.633  23.853  1.00  0.00     0.167 A 
ATOM     17  C   UNL A   1      32.688  25.801  24.312  1.00  0.00     0.064 A 
BRANCH  14  18
ATOM     18  C   UNL A   1      32.233  22.303  23.933  1.00  0.00     0.065 A 
ATOM     19  C   UNL A   1      32.499  19.617  23.832  1.00  0.00     0.067 A 
ATOM     20  C   UNL A   1      32.514  20.247  25.083  1.00  0.00     0.022 A 
ATOM     21  C   UNL A   1      32.297  20.298  22.641  1.00  0.00     0.022 A 
ATOM     22  C   UNL A   1      32.405  21.615  25.135  1.00  0.00     0.030 A 
ATOM     23  C   UNL A   1      32.120  21.661  22.696  1.00  0.00     0.030 A 
BRANCH  19  24
ATOM     24  S   UNL A   1      32.613  17.879  23.723  1.00  0.00     0.175 S 
ATOM     25  C   UNL A   1      34.334  17.596  24.003  1.00  0.00     0.163 C 
ATOM     26  O   UNL A   1      32.313  17.471  22.380  1.00  0.00    -0.224 OA
ATOM     27  O   UNL A   1      31.833  17.442  24.874  1.00  0.00    -0.224 OA
ENDBRANCH  19  24
ENDBRANCH  14  18
BRANCH  16  28
ATOM     28  C   UNL A   1      30.295  26.678  23.687  1.00  0.00     0.435 C 
ATOM     29  F   UNL A   1      29.047  26.207  23.942  1.00  0.00    -0.164 F 
ATOM     30  F   UNL A   1      30.497  27.742  24.509  1.00  0.00    -0.164 F 
ATOM     31  F   UNL A   1      30.273  27.172  22.420  1.00  0.00    -0.164 F 
ENDBRANCH  16  28
ENDBRANCH   8  13
ENDBRANCH   6   7
ENDBRANCH   3   6
ENDBRANCH   1   2
BRANCH   1  32
ATOM     32  C   UNL A   1      42.066  20.511  27.321  1.00  0.00     0.042 C 
BRANCH  32  33
ATOM     33  C   UNL A   1      42.275  19.664  26.070  1.00  0.00     0.118 C 
BRANCH  33  34
ATOM     34  N   UNL A   1      43.689  19.474  25.720  1.00  0.00    -0.352 N 
ATOM     35  C   UNL A   1      44.569  20.377  25.132  1.00  0.00     0.251 C 
ATOM     36  H   UNL A   1      44.064  18.588  25.931  1.00  0.00     0.163 HD
ATOM     37  O   UNL A   1      45.581  19.982  24.565  1.00  0.00    -0.269 OA
BRANCH  35  38
ATOM     38  C   UNL A   1      44.314  21.825  25.307  1.00  0.00     0.039 A 
ATOM     39  C   UNL A   1      43.449  22.643  24.563  1.00  0.00     0.014 A 
ATOM     40  C   UNL A   1      45.084  22.429  26.271  1.00  0.00     0.014 A 
ATOM     41  C   UNL A   1      43.382  24.033  24.872  1.00  0.00     0.010 A 
ATOM     42  C   UNL A   1      44.569  23.552  26.829  1.00  0.00     0.010 A 
ATOM     43  C   UNL A   1      44.072  24.525  25.999  1.00  0.00    -0.014 A 
BRANCH  43  44
ATOM     44  C   UNL A   1      43.833  25.755  26.791  1.00  0.00     0.031 A 
ATOM     45  C   UNL A   1      44.879  26.807  26.456  1.00  0.00     0.074 A 
ATOM     46  C   UNL A   1      42.637  25.972  27.464  1.00  0.00     0.049 A 
ATOM     47  N   UNL A   1      45.716  27.332  27.274  1.00  0.00    -0.248 NA
ATOM     48  C   UNL A   1      45.233  27.207  25.079  1.00  0.00     0.031 C 
ATOM     49  C   UNL A   1      41.501  25.051  27.727  1.00  0.00     0.029 A 
ATOM     50  N   UNL A   1      42.148  27.109  28.095  1.00  0.00    -0.354 N 
ATOM     51  C   UNL A   1      46.375  28.367  26.606  1.00  0.00     0.074 A 
ATOM     52  C   UNL A   1      46.110  28.204  25.225  1.00  0.00     0.031 C 
ATOM     53  C   UNL A   1      40.425  25.706  28.263  1.00  0.00     0.029 A 
ATOM     54  C   UNL A   1      40.775  27.095  28.515  1.00  0.00     0.049 A 
ATOM     55  H   UNL A   1      42.721  27.894  28.247  1.00  0.00     0.167 HD
ATOM     56  C   UNL A   1      46.913  29.383  27.321  1.00  0.00     0.031 A 
ATOM     57  C   UNL A   1      40.063  28.053  29.229  1.00  0.00     0.031 A 
ATOM     58  C   UNL A   1      47.011  28.974  28.696  1.00  0.00     0.049 A 
ATOM     59  C   UNL A   1      41.090  28.889  29.900  1.00  0.00     0.074 A 
ATOM     60  C   UNL A   1      47.658  27.916  29.306  1.00  0.00     0.029 A 
ATOM     61  N   UNL A   1      45.898  29.266  29.446  1.00  0.00    -0.354 N 
ATOM     62  N   UNL A   1      41.862  28.393  30.827  1.00  0.00    -0.248 NA
ATOM     63  C   UNL A   1      41.634  29.982  29.107  1.00  0.00     0.031 C 
ATOM     64  C   UNL A   1      46.654  27.311  30.113  1.00  0.00     0.029 A 
ATOM     65  C   UNL A   1      45.530  28.141  30.137  1.00  0.00     0.049 A 
ATOM     66  H   UNL A   1      45.441  30.138  29.480  1.00  0.00     0.167 HD
ATOM     67  C   UNL A   1      43.133  28.751  30.419  1.00  0.00     0.074 A 
ATOM     68  C   UNL A   1      42.928  29.733  29.338  1.00  0.00     0.031 C 
ATOM     69  C   UNL A   1      44.214  27.962  30.702  1.00  0.00     0.031 A 
BRANCH  56  70
ATOM     70  C   UNL A   1      46.928  30.828  26.920  1.00  0.00    -0.014 A 
ATOM     71  C   UNL A   1      48.116  31.535  27.184  1.00  0.00     0.010 A 
ATOM     72  C   UNL A   1      45.774  31.582  26.610  1.00  0.00     0.010 A 
ATOM     73  C   UNL A   1      48.154  32.929  27.178  1.00  0.00     0.020 A 
ATOM     74  C   UNL A   1      45.812  32.990  26.575  1.00  0.00     0.020 A 
ATOM     75  C   UNL A   1      47.004  33.651  26.870  1.00  0.00     0.054 A 
BRANCH  75  76
ATOM     76  S   UNL A   1      47.129  35.460  26.865  1.00  0.00     0.124 S 
ATOM     77  O   UNL A   1      48.092  35.703  25.795  1.00  0.00    -0.237 OA
ATOM     78  O   UNL A   1      45.754  35.857  26.570  1.00  0.00    -0.237 OA
ATOM     79  O   UNL A   1      47.590  35.784  28.212  1.00  0.00    -0.744 OA
ENDBRANCH  75  76
ENDBRANCH  56  70
BRANCH  57  80
ATOM     80  C   UNL A   1      38.649  28.621  29.089  1.00  0.00    -0.014 A 
ATOM     81  C   UNL A   1      37.800  28.995  30.180  1.00  0.00     0.010 A 
ATOM     82  C   UNL A   1      38.265  29.121  27.837  1.00  0.00     0.010 A 
ATOM     83  C   UNL A   1      36.671  29.859  30.017  1.00  0.00     0.020 A 
ATOM     84  C   UNL A   1      37.163  29.988  27.668  1.00  0.00     0.020 A 
ATOM     85  C   UNL A   1      36.378  30.376  28.753  1.00  0.00     0.054 A 
BRANCH  85  86
ATOM     86  S   UNL A   1      35.070  31.642  28.512  1.00  0.00     0.124 S 
ATOM     87  O   UNL A   1      33.983  30.874  27.910  1.00  0.00    -0.237 OA
ATOM     88  O   UNL A   1      34.823  32.124  29.867  1.00  0.00    -0.237 OA
ATOM     89  O   UNL A   1      35.698  32.616  27.620  1.00  0.00    -0.744 OA
ENDBRANCH  85  86
ENDBRANCH  57  80
BRANCH  69  90
ATOM     90  C   UNL A   1      44.063  26.783  31.638  1.00  0.00    -0.014 A 
ATOM     91  C   UNL A   1      44.194  25.415  31.312  1.00  0.00     0.010 A 
ATOM     92  C   UNL A   1      43.975  27.135  32.993  1.00  0.00     0.010 A 
ATOM     93  C   UNL A   1      44.191  24.435  32.328  1.00  0.00     0.020 A 
ATOM     94  C   UNL A   1      44.003  26.179  34.000  1.00  0.00     0.020 A 
ATOM     95  C   UNL A   1      44.085  24.831  33.667  1.00  0.00     0.054 A 
BRANCH  95  96
ATOM     96  S   UNL A   1      44.057  23.595  34.996  1.00  0.00     0.124 S 
ATOM     97  O   UNL A   1      45.168  24.020  35.844  1.00  0.00    -0.237 OA
ATOM     98  O   UNL A   1      42.726  23.762  35.571  1.00  0.00    -0.237 OA
ATOM     99  O   UNL A   1      44.266  22.328  34.296  1.00  0.00    -0.744 OA
ENDBRANCH  95  96
ENDBRANCH  69  90
ENDBRANCH  43  44
ENDBRANCH  35  38
ENDBRANCH  33  34
ENDBRANCH  32  33
ENDBRANCH   1  32
TORSDOF 18
ENDMDL
MODEL 2
REMARK VINA RESULT:     -12.6      3.155      9.262
REMARK SMILES CS(=O)(=O)c1ccc(-n2nc(C(F)(F)F)cc2-c2ccc(CC(=O)NCCCNC(=O)c3ccc(-c4c5nc(c(-c6ccc(S(=O)(=O)[O-])cc6)c6ccc([nH]6)c(-c6ccc(S(=O)(=O)[O-])cc6)c6nc(c(-c7ccc(S(=O)(=O)[O-])cc7)c7ccc4[nH]7)C=C6)C=C5)cc3)cc2)cc1
REMARK SMILES IDX 26 1 25 2 23 3 24 4 22 6 21 7 18 8 19 9 93 10 20 11 92 12
REMARK SMILES IDX 17 13 9 14 10 15 11 16 16 17 8 18 5 19 6 20 95 21 7 22 94 23
REMARK SMILES IDX 2 24 1 25 3 26 4 27 12 28 13 29 14 30 15 31 27 32 28 33
REMARK SMILES IDX 29 34 30 35 31 37 32 38 33 39 91 40 34 41 90 42 35 43 36 44
REMARK SMILES IDX 37 45 84 46 38 47 89 48 83 49 85 50 39 51 88 52 82 53 81 54
REMARK SMILES IDX 40 56 70 57 51 58 69 59 52 60 55 61 68 62 86 63 53 64 54 65
REMARK SMILES IDX 67 67 87 68 56 69 41 70 42 71 50 72 43 73 49 74 44 75 45 76
REMARK SMILES IDX 46 77 47 78 48 79 71 80 72 81 80 82 73 83 79 84 74 85 75 86
REMARK SMILES IDX 76 87 77 88 78 89 57 90 58 91 66 92 59 93 65 94 60 95 61 96
REMARK SMILES IDX 62 97 63 98 64 99
REMARK H PARENT 25 5 29 36 85 55 55 66
REMARK Flexibility Score: inf
ROOT
ATOM      1  C   UNL A   1      32.194  28.657  25.489  1.00  0.00     0.117 C 
ENDROOT
BRANCH   1   2
ATOM      2  N   UNL A   1      31.942  28.444  24.075  1.00  0.00    -0.356 N 
ATOM      3  C   UNL A   1      31.644  27.284  23.418  1.00  0.00     0.224 C 
ATOM      4  O   UNL A   1      31.477  27.328  22.199  1.00  0.00    -0.275 OA
ATOM      5  H   UNL A   1      31.994  29.249  23.511  1.00  0.00     0.163 HD
BRANCH   3   6
ATOM      6  C   UNL A   1      31.462  25.995  24.197  1.00  0.00     0.135 C 
BRANCH   6   7
ATOM      7  C   UNL A   1      32.747  25.265  24.512  1.00  0.00    -0.039 A 
ATOM      8  C   UNL A   1      35.152  23.917  25.136  1.00  0.00     0.000 A 
ATOM      9  C   UNL A   1      34.830  24.242  23.806  1.00  0.00     0.010 A 
ATOM     10  C   UNL A   1      34.254  24.270  26.145  1.00  0.00     0.010 A 
ATOM     11  C   UNL A   1      33.643  24.917  23.496  1.00  0.00     0.005 A 
ATOM     12  C   UNL A   1      33.058  24.919  25.835  1.00  0.00     0.005 A 
BRANCH   8  13
ATOM     13  C   UNL A   1      36.411  23.249  25.486  1.00  0.00     0.075 A 
ATOM     14  N   UNL A   1      36.599  21.881  25.520  1.00  0.00    -0.233 N 
ATOM     15  N   UNL A   1      37.785  21.516  26.041  1.00  0.00    -0.163 NA
ATOM     16  C   UNL A   1      38.458  22.664  26.186  1.00  0.00     0.167 A 
ATOM     17  C   UNL A   1      37.623  23.775  25.889  1.00  0.00     0.064 A 
BRANCH  14  18
ATOM     18  C   UNL A   1      35.718  20.893  25.080  1.00  0.00     0.065 A 
ATOM     19  C   UNL A   1      34.014  18.888  24.473  1.00  0.00     0.067 A 
ATOM     20  C   UNL A   1      33.498  20.178  24.646  1.00  0.00     0.022 A 
ATOM     21  C   UNL A   1      35.368  18.595  24.540  1.00  0.00     0.022 A 
ATOM     22  C   UNL A   1      34.359  21.194  24.981  1.00  0.00     0.030 A 
ATOM     23  C   UNL A   1      36.240  19.624  24.809  1.00  0.00     0.030 A 
BRANCH  19  24
ATOM     24  S   UNL A   1      32.957  17.573  24.026  1.00  0.00     0.175 S 
ATOM     25  C   UNL A   1      33.936  16.155  24.410  1.00  0.00     0.163 C 
ATOM     26  O   UNL A   1      32.753  17.595  22.606  1.00  0.00    -0.224 OA
ATOM     27  O   UNL A   1      31.865  17.710  24.982  1.00  0.00    -0.224 OA
ENDBRANCH  19  24
ENDBRANCH  14  18
BRANCH  16  28
ATOM     28  C   UNL A   1      39.892  22.674  26.616  1.00  0.00     0.435 C 
ATOM     29  F   UNL A   1      40.361  23.926  26.858  1.00  0.00    -0.164 F 
ATOM     30  F   UNL A   1      40.089  21.947  27.749  1.00  0.00    -0.164 F 
ATOM     31  F   UNL A   1      40.703  22.131  25.668  1.00  0.00    -0.164 F 
ENDBRANCH  16  28
ENDBRANCH   8  13
ENDBRANCH   6   7
ENDBRANCH   3   6
ENDBRANCH   1   2
BRANCH   1  32
ATOM     32  C   UNL A   1      33.683  28.820  25.794  1.00  0.00     0.042 C 
BRANCH  32  33
ATOM     33  C   UNL A   1      33.919  29.524  27.125  1.00  0.00     0.118 C 
BRANCH  33  34
ATOM     34  N   UNL A   1      34.450  30.886  26.983  1.00  0.00    -0.352 N 
ATOM     35  C   UNL A   1      35.443  31.515  27.730  1.00  0.00     0.251 C 
ATOM     36  H   UNL A   1      34.051  31.426  26.262  1.00  0.00     0.163 HD
ATOM     37  O   UNL A   1      35.523  32.738  27.754  1.00  0.00    -0.269 OA
BRANCH  35  38
ATOM     38  C   UNL A   1      36.463  30.675  28.396  1.00  0.00     0.039 A 
ATOM     39  C   UNL A   1      36.285  29.417  28.993  1.00  0.00     0.014 A 
ATOM     40  C   UNL A   1      37.705  31.253  28.493  1.00  0.00     0.014 A 
ATOM     41  C   UNL A   1      37.401  28.791  29.622  1.00  0.00     0.010 A 
ATOM     42  C   UNL A   1      38.754  30.399  28.595  1.00  0.00     0.010 A 
ATOM     43  C   UNL A   1      38.678  29.378  29.508  1.00  0.00    -0.014 A 
BRANCH  43  44
ATOM     44  C   UNL A   1      40.018  28.760  29.650  1.00  0.00     0.031 A 
ATOM     45  C   UNL A   1      40.394  28.649  31.120  1.00  0.00     0.074 A 
ATOM     46  C   UNL A   1      40.638  28.104  28.593  1.00  0.00     0.049 A 
ATOM     47  N   UNL A   1      41.403  29.199  31.688  1.00  0.00    -0.248 NA
ATOM     48  C   UNL A   1      39.510  28.074  32.153  1.00  0.00     0.031 C 
ATOM     49  C   UNL A   1      40.274  28.043  27.153  1.00  0.00     0.029 A 
ATOM     50  N   UNL A   1      41.780  27.315  28.564  1.00  0.00    -0.354 N 
ATOM     51  C   UNL A   1      41.478  28.709  32.994  1.00  0.00     0.074 A 
ATOM     52  C   UNL A   1      40.240  28.081  33.272  1.00  0.00     0.031 C 
ATOM     53  C   UNL A   1      41.036  27.134  26.471  1.00  0.00     0.029 A 
ATOM     54  C   UNL A   1      42.052  26.587  27.356  1.00  0.00     0.049 A 
ATOM     55  H   UNL A   1      42.381  27.257  29.341  1.00  0.00     0.167 HD
ATOM     56  C   UNL A   1      42.669  28.709  33.638  1.00  0.00     0.031 A 
ATOM     57  C   UNL A   1      43.151  25.797  27.032  1.00  0.00     0.031 A 
ATOM     58  C   UNL A   1      43.567  29.588  32.937  1.00  0.00     0.049 A 
ATOM     59  C   UNL A   1      44.226  26.216  27.966  1.00  0.00     0.074 A 
ATOM     60  C   UNL A   1      43.493  30.931  32.622  1.00  0.00     0.029 A 
ATOM     61  N   UNL A   1      44.296  28.970  31.951  1.00  0.00    -0.354 N 
ATOM     62  N   UNL A   1      44.739  27.414  27.908  1.00  0.00    -0.248 NA
ATOM     63  C   UNL A   1      44.226  25.564  29.266  1.00  0.00     0.031 C 
ATOM     64  C   UNL A   1      43.763  30.977  31.224  1.00  0.00     0.029 A 
ATOM     65  C   UNL A   1      44.203  29.719  30.806  1.00  0.00     0.049 A 
ATOM     66  H   UNL A   1      44.800  28.130  32.050  1.00  0.00     0.167 HD
ATOM     67  C   UNL A   1      44.669  27.863  29.214  1.00  0.00     0.074 A 
ATOM     68  C   UNL A   1      44.334  26.669  30.013  1.00  0.00     0.031 C 
ATOM     69  C   UNL A   1      44.502  29.190  29.496  1.00  0.00     0.031 A 
BRANCH  56  70
ATOM     70  C   UNL A   1      43.165  27.642  34.566  1.00  0.00    -0.014 A 
ATOM     71  C   UNL A   1      43.810  28.086  35.736  1.00  0.00     0.010 A 
ATOM     72  C   UNL A   1      43.319  26.283  34.212  1.00  0.00     0.010 A 
ATOM     73  C   UNL A   1      44.602  27.233  36.503  1.00  0.00     0.020 A 
ATOM     74  C   UNL A   1      44.096  25.409  34.997  1.00  0.00     0.020 A 
ATOM     75  C   UNL A   1      44.739  25.897  36.134  1.00  0.00     0.054 A 
BRANCH  75  76
ATOM     76  S   UNL A   1      45.771  24.840  37.185  1.00  0.00     0.124 S 
ATOM     77  O   UNL A   1      47.121  25.227  36.786  1.00  0.00    -0.237 OA
ATOM     78  O   UNL A   1      45.370  25.263  38.525  1.00  0.00    -0.237 OA
ATOM     79  O   UNL A   1      45.372  23.484  36.820  1.00  0.00    -0.744 OA
ENDBRANCH  75  76
ENDBRANCH  56  70
BRANCH  57  80
ATOM     80  C   UNL A   1      43.294  24.448  26.326  1.00  0.00    -0.014 A 
ATOM     81  C   UNL A   1      43.591  24.273  24.936  1.00  0.00     0.010 A 
ATOM     82  C   UNL A   1      43.476  23.308  27.122  1.00  0.00     0.010 A 
ATOM     83  C   UNL A   1      44.089  23.041  24.404  1.00  0.00     0.020 A 
ATOM     84  C   UNL A   1      43.982  22.094  26.610  1.00  0.00     0.020 A 
ATOM     85  C   UNL A   1      44.309  21.961  25.260  1.00  0.00     0.054 A 
BRANCH  85  86
ATOM     86  S   UNL A   1      45.129  20.424  24.679  1.00  0.00     0.124 S 
ATOM     87  O   UNL A   1      46.542  20.699  24.923  1.00  0.00    -0.237 OA
ATOM     88  O   UNL A   1      44.534  19.393  25.523  1.00  0.00    -0.237 OA
ATOM     89  O   UNL A   1      44.754  20.350  23.267  1.00  0.00    -0.744 OA
ENDBRANCH  85  86
ENDBRANCH  57  80
BRANCH  69  90
ATOM     90  C   UNL A   1      44.589  30.215  28.387  1.00  0.00    -0.014 A 
ATOM     91  C   UNL A   1      43.595  30.523  27.432  1.00  0.00     0.010 A 
ATOM     92  C   UNL A   1      45.710  31.054  28.469  1.00  0.00     0.010 A 
ATOM     93  C   UNL A   1      43.757  31.623  26.561  1.00  0.00     0.020 A 
ATOM     94  C   UNL A   1      45.862  32.155  27.636  1.00  0.00     0.020 A 
ATOM     95  C   UNL A   1      44.901  32.423  26.668  1.00  0.00     0.054 A 
BRANCH  95  96
ATOM     96  S   UNL A   1      45.149  33.831  25.550  1.00  0.00     0.124 S 
ATOM     97  O   UNL A   1      44.544  33.356  24.308  1.00  0.00    -0.237 OA
ATOM     98  O   UNL A   1      44.437  34.913  26.224  1.00  0.00    -0.237 OA
ATOM     99  O   UNL A   1      46.603  33.989  25.507  1.00  0.00    -0.744 OA
ENDBRANCH  95  96
ENDBRANCH  69  90
ENDBRANCH  43  44
ENDBRANCH  35  38
ENDBRANCH  33  34
ENDBRANCH  32  33
ENDBRANCH   1  32
TORSDOF 18
ENDMDL
MODEL 3
REMARK VINA RESULT:     -12.4      3.356      5.528
REMARK SMILES CS(=O)(=O)c1ccc(-n2nc(C(F)(F)F)cc2-c2ccc(CC(=O)NCCCNC(=O)c3ccc(-c4c5nc(c(-c6ccc(S(=O)(=O)[O-])cc6)c6ccc([nH]6)c(-c6ccc(S(=O)(=O)[O-])cc6)c6nc(c(-c7ccc(S(=O)(=O)[O-])cc7)c7ccc4[nH]7)C=C6)C=C5)cc3)cc2)cc1
REMARK SMILES IDX 26 1 25 2 23 3 24 4 22 6 21 7 18 8 19 9 93 10 20 11 92 12
REMARK SMILES IDX 17 13 9 14 10 15 11 16 16 17 8 18 5 19 6 20 95 21 7 22 94 23
REMARK SMILES IDX 2 24 1 25 3 26 4 27 12 28 13 29 14 30 15 31 27 32 28 33
REMARK SMILES IDX 29 34 30 35 31 37 32 38 33 39 91 40 34 41 90 42 35 43 36 44
REMARK SMILES IDX 37 45 84 46 38 47 89 48 83 49 85 50 39 51 88 52 82 53 81 54
REMARK SMILES IDX 40 56 70 57 51 58 69 59 52 60 55 61 68 62 86 63 53 64 54 65
REMARK SMILES IDX 67 67 87 68 56 69 41 70 42 71 50 72 43 73 49 74 44 75 45 76
REMARK SMILES IDX 46 77 47 78 48 79 71 80 72 81 80 82 73 83 79 84 74 85 75 86
REMARK SMILES IDX 76 87 77 88 78 89 57 90 58 91 66 92 59 93 65 94 60 95 61 96
REMARK SMILES IDX 62 97 63 98 64 99
REMARK H PARENT 25 5 29 36 85 55 55 66
REMARK Flexibility Score: inf
ROOT
ATOM      1  C   UNL A   1      35.809  22.116  24.541  1.00  0.00     0.117 C 
ENDROOT
BRANCH   1   2
ATOM      2  N   UNL A   1      34.710  21.666  25.375  1.00  0.00    -0.356 N 
ATOM      3  C   UNL A   1      33.431  22.140  25.447  1.00  0.00     0.224 C 
ATOM      4  O   UNL A   1      32.654  21.611  26.241  1.00  0.00    -0.275 OA
ATOM      5  H   UNL A   1      34.916  20.911  25.973  1.00  0.00     0.163 HD
BRANCH   3   6
ATOM      6  C   UNL A   1      32.980  23.250  24.516  1.00  0.00     0.135 C 
BRANCH   6   7
ATOM      7  C   UNL A   1      33.165  24.645  25.066  1.00  0.00    -0.039 A 
ATOM      8  C   UNL A   1      33.550  27.252  26.087  1.00  0.00     0.000 A 
ATOM      9  C   UNL A   1      32.526  26.426  26.584  1.00  0.00     0.010 A 
ATOM     10  C   UNL A   1      34.373  26.759  25.073  1.00  0.00     0.010 A 
ATOM     11  C   UNL A   1      32.339  25.131  26.084  1.00  0.00     0.005 A 
ATOM     12  C   UNL A   1      34.171  25.479  24.556  1.00  0.00     0.005 A 
BRANCH   8  13
ATOM     13  C   UNL A   1      33.791  28.595  26.627  1.00  0.00     0.075 A 
ATOM     14  N   UNL A   1      33.181  29.751  26.177  1.00  0.00    -0.233 N 
ATOM     15  N   UNL A   1      33.699  30.872  26.711  1.00  0.00    -0.163 NA
ATOM     16  C   UNL A   1      34.539  30.439  27.659  1.00  0.00     0.167 A 
ATOM     17  C   UNL A   1      34.657  29.024  27.614  1.00  0.00     0.064 A 
BRANCH  14  18
ATOM     18  C   UNL A   1      32.127  29.855  25.270  1.00  0.00     0.065 A 
ATOM     19  C   UNL A   1      29.974  29.855  23.638  1.00  0.00     0.067 A 
ATOM     20  C   UNL A   1      30.054  30.825  24.644  1.00  0.00     0.022 A 
ATOM     21  C   UNL A   1      30.975  28.925  23.398  1.00  0.00     0.022 A 
ATOM     22  C   UNL A   1      31.135  30.811  25.492  1.00  0.00     0.030 A 
ATOM     23  C   UNL A   1      32.091  28.951  24.203  1.00  0.00     0.030 A 
BRANCH  19  24
ATOM     24  S   UNL A   1      28.629  29.850  22.528  1.00  0.00     0.175 S 
ATOM     25  C   UNL A   1      27.794  31.351  22.939  1.00  0.00     0.163 C 
ATOM     26  O   UNL A   1      27.755  28.758  22.851  1.00  0.00    -0.224 OA
ATOM     27  O   UNL A   1      29.290  29.975  21.235  1.00  0.00    -0.224 OA
ENDBRANCH  19  24
ENDBRANCH  14  18
BRANCH  16  28
ATOM     28  C   UNL A   1      35.222  31.395  28.587  1.00  0.00     0.435 C 
ATOM     29  F   UNL A   1      34.393  32.371  29.041  1.00  0.00    -0.164 F 
ATOM     30  F   UNL A   1      35.737  30.767  29.677  1.00  0.00    -0.164 F 
ATOM     31  F   UNL A   1      36.265  32.023  27.979  1.00  0.00    -0.164 F 
ENDBRANCH  16  28
ENDBRANCH   8  13
ENDBRANCH   6   7
ENDBRANCH   3   6
ENDBRANCH   1   2
BRANCH   1  32
ATOM     32  C   UNL A   1      37.118  21.398  24.870  1.00  0.00     0.042 C 
BRANCH  32  33
ATOM     33  C   UNL A   1      38.139  22.334  25.505  1.00  0.00     0.118 C 
BRANCH  33  34
ATOM     34  N   UNL A   1      39.010  21.673  26.487  1.00  0.00    -0.352 N 
ATOM     35  C   UNL A   1      40.068  22.213  27.213  1.00  0.00     0.251 C 
ATOM     36  H   UNL A   1      38.819  20.722  26.654  1.00  0.00     0.163 HD
ATOM     37  O   UNL A   1      40.925  21.484  27.699  1.00  0.00    -0.269 OA
BRANCH  35  38
ATOM     38  C   UNL A   1      40.070  23.668  27.480  1.00  0.00     0.039 A 
ATOM     39  C   UNL A   1      38.961  24.515  27.645  1.00  0.00     0.014 A 
ATOM     40  C   UNL A   1      41.315  24.247  27.491  1.00  0.00     0.014 A 
ATOM     41  C   UNL A   1      39.185  25.907  27.856  1.00  0.00     0.010 A 
ATOM     42  C   UNL A   1      41.438  25.388  28.212  1.00  0.00     0.010 A 
ATOM     43  C   UNL A   1      40.502  26.376  28.034  1.00  0.00    -0.014 A 
BRANCH  43  44
ATOM     44  C   UNL A   1      40.983  27.616  28.691  1.00  0.00     0.031 A 
ATOM     45  C   UNL A   1      42.144  28.209  27.908  1.00  0.00     0.074 A 
ATOM     46  C   UNL A   1      40.239  28.262  29.671  1.00  0.00     0.049 A 
ATOM     47  N   UNL A   1      43.335  28.398  28.344  1.00  0.00    -0.248 NA
ATOM     48  C   UNL A   1      42.121  28.440  26.450  1.00  0.00     0.031 C 
ATOM     49  C   UNL A   1      39.019  27.824  30.397  1.00  0.00     0.029 A 
ATOM     50  N   UNL A   1      40.414  29.504  30.266  1.00  0.00    -0.354 N 
ATOM     51  C   UNL A   1      44.038  29.114  27.373  1.00  0.00     0.074 A 
ATOM     52  C   UNL A   1      43.280  29.047  26.179  1.00  0.00     0.031 C 
ATOM     53  C   UNL A   1      38.483  28.831  31.152  1.00  0.00     0.029 A 
ATOM     54  C   UNL A   1      39.350  29.997  31.095  1.00  0.00     0.049 A 
ATOM     55  H   UNL A   1      41.236  30.027  30.126  1.00  0.00     0.167 HD
ATOM     56  C   UNL A   1      45.100  29.869  27.740  1.00  0.00     0.031 A 
ATOM     57  C   UNL A   1      39.297  31.157  31.863  1.00  0.00     0.031 A 
ATOM     58  C   UNL A   1      45.515  29.464  29.057  1.00  0.00     0.049 A 
ATOM     59  C   UNL A   1      40.710  31.564  32.060  1.00  0.00     0.074 A 
ATOM     60  C   UNL A   1      45.928  28.248  29.567  1.00  0.00     0.029 A 
ATOM     61  N   UNL A   1      44.896  30.150  30.072  1.00  0.00    -0.354 N 
ATOM     62  N   UNL A   1      41.533  30.828  32.755  1.00  0.00    -0.248 NA
ATOM     63  C   UNL A   1      41.289  32.375  30.999  1.00  0.00     0.031 C 
ATOM     64  C   UNL A   1      45.118  28.060  30.722  1.00  0.00     0.029 A 
ATOM     65  C   UNL A   1      44.425  29.244  30.987  1.00  0.00     0.049 A 
ATOM     66  H   UNL A   1      44.804  31.129  30.133  1.00  0.00     0.167 HD
ATOM     67  C   UNL A   1      42.630  30.692  31.925  1.00  0.00     0.074 A 
ATOM     68  C   UNL A   1      42.417  31.671  30.842  1.00  0.00     0.031 C 
ATOM     69  C   UNL A   1      43.403  29.565  31.956  1.00  0.00     0.031 A 
BRANCH  56  70
ATOM     70  C   UNL A   1      45.470  31.205  27.167  1.00  0.00    -0.014 A 
ATOM     71  C   UNL A   1      46.828  31.390  26.846  1.00  0.00     0.010 A 
ATOM     72  C   UNL A   1      44.650  32.354  27.228  1.00  0.00     0.010 A 
ATOM     73  C   UNL A   1      47.361  32.659  26.631  1.00  0.00     0.020 A 
ATOM     74  C   UNL A   1      45.177  33.637  26.985  1.00  0.00     0.020 A 
ATOM     75  C   UNL A   1      46.534  33.778  26.697  1.00  0.00     0.054 A 
BRANCH  75  76
ATOM     76  S   UNL A   1      47.291  35.397  26.391  1.00  0.00     0.124 S 
ATOM     77  O   UNL A   1      48.270  35.091  25.352  1.00  0.00    -0.237 OA
ATOM     78  O   UNL A   1      46.143  36.189  25.954  1.00  0.00    -0.237 OA
ATOM     79  O   UNL A   1      47.846  35.776  27.687  1.00  0.00    -0.744 OA
ENDBRANCH  75  76
ENDBRANCH  56  70
BRANCH  57  80
ATOM     80  C   UNL A   1      38.204  32.201  32.101  1.00  0.00    -0.014 A 
ATOM     81  C   UNL A   1      37.711  33.115  31.115  1.00  0.00     0.010 A 
ATOM     82  C   UNL A   1      37.396  32.057  33.237  1.00  0.00     0.010 A 
ATOM     83  C   UNL A   1      36.458  33.793  31.252  1.00  0.00     0.020 A 
ATOM     84  C   UNL A   1      36.151  32.708  33.374  1.00  0.00     0.020 A 
ATOM     85  C   UNL A   1      35.669  33.558  32.379  1.00  0.00     0.054 A 
BRANCH  85  86
ATOM     86  S   UNL A   1      33.969  34.239  32.522  1.00  0.00     0.124 S 
ATOM     87  O   UNL A   1      33.223  33.130  33.111  1.00  0.00    -0.237 OA
ATOM     88  O   UNL A   1      34.150  35.402  33.385  1.00  0.00    -0.237 OA
ATOM     89  O   UNL A   1      33.609  34.553  31.140  1.00  0.00    -0.744 OA
ENDBRANCH  85  86
ENDBRANCH  57  80
BRANCH  69  90
ATOM     90  C   UNL A   1      43.188  28.531  33.039  1.00  0.00    -0.014 A 
ATOM     91  C   UNL A   1      44.001  28.303  34.172  1.00  0.00     0.010 A 
ATOM     92  C   UNL A   1      41.945  27.885  32.975  1.00  0.00     0.010 A 
ATOM     93  C   UNL A   1      43.580  27.413  35.185  1.00  0.00     0.020 A 
ATOM     94  C   UNL A   1      41.511  27.033  33.982  1.00  0.00     0.020 A 
ATOM     95  C   UNL A   1      42.338  26.778  35.071  1.00  0.00     0.054 A 
BRANCH  95  96
ATOM     96  S   UNL A   1      41.778  25.613  36.346  1.00  0.00     0.124 S 
ATOM     97  O   UNL A   1      42.067  26.337  37.581  1.00  0.00    -0.237 OA
ATOM     98  O   UNL A   1      40.362  25.442  36.032  1.00  0.00    -0.237 OA
ATOM     99  O   UNL A   1      42.602  24.426  36.119  1.00  0.00    -0.744 OA
ENDBRANCH  95  96
ENDBRANCH  69  90
ENDBRANCH  43  44
ENDBRANCH  35  38
ENDBRANCH  33  34
ENDBRANCH  32  33
ENDBRANCH   1  32
TORSDOF 18
ENDMDL
