MODEL 1
REMARK VINA RESULT:      -9.8      0.000      0.000
REMARK SMILES CCCCCCOC(=O)Nc1cccc(-c2ccc([C@@H](C)C(=O)NCCCNC(=O)c3ccc(-c4c5nc(c(-c6ccc(S(=O)(=O)[O-])cc6)c6ccc([nH]6)c(-c6ccc(S(=O)(=O)[O-])cc6)c6nc(c(-c7ccc(S(=O)(=O)[O-])cc7)c7ccc4[nH]7)C=C6)C=C5)cc3)cc2F)c1
REMARK SMILES IDX 20 1 21 2 19 3 16 4 17 5 92 6 18 7 91 8 93 9 15 10 11 11
REMARK SMILES IDX 12 12 94 13 13 14 14 15 10 16 8 17 9 18 7 20 6 21 5 22 4 23
REMARK SMILES IDX 3 24 2 25 1 26 22 27 23 28 24 29 25 31 26 32 27 33 28 34
REMARK SMILES IDX 29 35 30 37 31 38 32 39 90 40 33 41 89 42 34 43 35 44 36 45
REMARK SMILES IDX 83 46 37 47 88 48 82 49 84 50 38 51 87 52 81 53 80 54 39 56
REMARK SMILES IDX 69 57 50 58 68 59 51 60 54 61 67 62 85 63 52 64 53 65 66 67
REMARK SMILES IDX 86 68 55 69 40 70 41 71 49 72 42 73 48 74 43 75 44 76 45 77
REMARK SMILES IDX 46 78 47 79 70 80 71 81 79 82 72 83 78 84 73 85 74 86 75 87
REMARK SMILES IDX 76 88 77 89 56 90 57 91 65 92 58 93 64 94 59 95 60 96 61 97
REMARK SMILES IDX 62 98 63 99
REMARK H PARENT 10 19 24 30 28 36 84 55 54 66
REMARK Flexibility Score: inf
ROOT
ATOM      1  C   UNL A   1      30.972  26.186  23.651  1.00  0.00     0.105 C 
ATOM      2  C   UNL A   1      29.961  26.239  24.796  1.00  0.00     0.023 C 
ENDROOT
BRANCH   1   3
ATOM      3  C   UNL A   1      32.321  25.574  23.986  1.00  0.00    -0.033 A 
ATOM      4  C   UNL A   1      34.758  24.245  24.690  1.00  0.00     0.018 A 
ATOM      5  C   UNL A   1      34.485  24.629  23.370  1.00  0.00     0.012 A 
ATOM      6  C   UNL A   1      33.797  24.594  25.654  1.00  0.00     0.131 A 
ATOM      7  C   UNL A   1      33.306  25.309  23.030  1.00  0.00     0.005 A 
ATOM      8  C   UNL A   1      32.596  25.221  25.314  1.00  0.00     0.044 A 
ATOM      9  F   UNL A   1      34.004  24.334  26.955  1.00  0.00    -0.206 F 
BRANCH   4  10
ATOM     10  C   UNL A   1      35.989  23.500  25.034  1.00  0.00    -0.013 A 
ATOM     11  C   UNL A   1      37.272  21.410  25.020  1.00  0.00     0.045 A 
ATOM     12  C   UNL A   1      38.271  22.005  25.784  1.00  0.00     0.026 A 
ATOM     13  C   UNL A   1      36.153  22.160  24.639  1.00  0.00     0.035 A 
ATOM     14  C   UNL A   1      38.168  23.350  26.131  1.00  0.00     0.003 A 
ATOM     15  C   UNL A   1      37.034  24.085  25.770  1.00  0.00     0.009 A 
BRANCH  11  16
ATOM     16  N   UNL A   1      37.358  20.037  24.756  1.00  0.00    -0.291 N 
ATOM     17  C   UNL A   1      36.375  19.095  24.905  1.00  0.00     0.411 C 
ATOM     18  O   UNL A   1      36.644  17.923  25.110  1.00  0.00    -0.224 OA
ATOM     19  H   UNL A   1      38.226  19.711  24.424  1.00  0.00     0.173 HD
BRANCH  17  20
ATOM     20  O   UNL A   1      35.130  19.592  24.677  1.00  0.00    -0.449 OA
BRANCH  20  21
ATOM     21  C   UNL A   1      34.040  18.665  24.569  1.00  0.00     0.235 C 
BRANCH  21  22
ATOM     22  C   UNL A   1      32.768  19.322  24.022  1.00  0.00     0.042 C 
BRANCH  22  23
ATOM     23  C   UNL A   1      32.718  20.853  24.103  1.00  0.00     0.003 C 
BRANCH  23  24
ATOM     24  C   UNL A   1      32.175  21.418  25.422  1.00  0.00    -0.000 C 
BRANCH  24  25
ATOM     25  C   UNL A   1      30.926  22.287  25.288  1.00  0.00    -0.003 C 
ATOM     26  C   UNL A   1      30.333  22.673  26.633  1.00  0.00     0.004 C 
ENDBRANCH  24  25
ENDBRANCH  23  24
ENDBRANCH  22  23
ENDBRANCH  21  22
ENDBRANCH  20  21
ENDBRANCH  17  20
ENDBRANCH  11  16
ENDBRANCH   4  10
ENDBRANCH   1   3
BRANCH   1  27
ATOM     27  C   UNL A   1      31.071  27.480  22.830  1.00  0.00     0.227 C 
ATOM     28  O   UNL A   1      30.633  27.510  21.673  1.00  0.00    -0.274 OA
ATOM     29  N   UNL A   1      31.614  28.638  23.297  1.00  0.00    -0.356 N 
ATOM     30  H   UNL A   1      31.567  29.388  22.661  1.00  0.00     0.163 HD
BRANCH  29  31
ATOM     31  C   UNL A   1      32.246  28.970  24.558  1.00  0.00     0.117 C 
BRANCH  31  32
ATOM     32  C   UNL A   1      33.703  28.519  24.622  1.00  0.00     0.042 C 
BRANCH  32  33
ATOM     33  C   UNL A   1      34.268  28.427  26.036  1.00  0.00     0.118 C 
BRANCH  33  34
ATOM     34  N   UNL A   1      33.907  29.580  26.849  1.00  0.00    -0.352 N 
ATOM     35  C   UNL A   1      34.585  30.225  27.853  1.00  0.00     0.251 C 
ATOM     36  H   UNL A   1      33.023  29.962  26.643  1.00  0.00     0.163 HD
ATOM     37  O   UNL A   1      33.972  31.042  28.538  1.00  0.00    -0.269 OA
BRANCH  35  38
ATOM     38  C   UNL A   1      36.016  29.960  28.132  1.00  0.00     0.039 A 
ATOM     39  C   UNL A   1      36.367  29.462  29.391  1.00  0.00     0.014 A 
ATOM     40  C   UNL A   1      37.022  30.259  27.208  1.00  0.00     0.014 A 
ATOM     41  C   UNL A   1      37.707  29.221  29.704  1.00  0.00     0.010 A 
ATOM     42  C   UNL A   1      38.353  29.944  27.492  1.00  0.00     0.010 A 
ATOM     43  C   UNL A   1      38.712  29.432  28.746  1.00  0.00    -0.014 A 
BRANCH  43  44
ATOM     44  C   UNL A   1      40.131  29.109  29.050  1.00  0.00     0.031 A 
ATOM     45  C   UNL A   1      40.707  27.761  28.706  1.00  0.00     0.074 A 
ATOM     46  C   UNL A   1      40.897  30.027  29.674  1.00  0.00     0.049 A 
ATOM     47  N   UNL A   1      41.923  27.313  28.891  1.00  0.00    -0.248 NA
ATOM     48  C   UNL A   1      39.796  26.781  28.092  1.00  0.00     0.031 C 
ATOM     49  C   UNL A   1      40.445  31.351  30.109  1.00  0.00     0.029 A 
ATOM     50  N   UNL A   1      42.217  29.989  30.048  1.00  0.00    -0.354 N 
ATOM     51  C   UNL A   1      41.921  26.000  28.433  1.00  0.00     0.074 A 
ATOM     52  C   UNL A   1      40.570  25.709  28.004  1.00  0.00     0.031 C 
ATOM     53  C   UNL A   1      41.478  32.011  30.657  1.00  0.00     0.029 A 
ATOM     54  C   UNL A   1      42.654  31.148  30.647  1.00  0.00     0.049 A 
ATOM     55  H   UNL A   1      42.796  29.207  29.903  1.00  0.00     0.167 HD
ATOM     56  C   UNL A   1      42.951  25.124  28.356  1.00  0.00     0.031 A 
ATOM     57  C   UNL A   1      43.866  31.483  31.130  1.00  0.00     0.031 A 
ATOM     58  C   UNL A   1      44.297  25.419  28.775  1.00  0.00     0.049 A 
ATOM     59  C   UNL A   1      44.995  30.498  31.027  1.00  0.00     0.074 A 
ATOM     60  C   UNL A   1      45.423  24.618  28.683  1.00  0.00     0.029 A 
ATOM     61  N   UNL A   1      44.699  26.605  29.369  1.00  0.00    -0.354 N 
ATOM     62  N   UNL A   1      44.987  29.288  30.521  1.00  0.00    -0.248 NA
ATOM     63  C   UNL A   1      46.299  30.929  31.546  1.00  0.00     0.031 C 
ATOM     64  C   UNL A   1      46.495  25.303  29.265  1.00  0.00     0.029 A 
ATOM     65  C   UNL A   1      46.050  26.551  29.671  1.00  0.00     0.049 A 
ATOM     66  H   UNL A   1      44.110  27.374  29.549  1.00  0.00     0.167 HD
ATOM     67  C   UNL A   1      46.290  28.818  30.645  1.00  0.00     0.074 A 
ATOM     68  C   UNL A   1      47.062  29.883  31.253  1.00  0.00     0.031 C 
ATOM     69  C   UNL A   1      46.801  27.614  30.290  1.00  0.00     0.031 A 
BRANCH  56  70
ATOM     70  C   UNL A   1      42.660  23.753  27.800  1.00  0.00    -0.014 A 
ATOM     71  C   UNL A   1      42.836  23.473  26.432  1.00  0.00     0.010 A 
ATOM     72  C   UNL A   1      42.242  22.720  28.659  1.00  0.00     0.010 A 
ATOM     73  C   UNL A   1      42.558  22.199  25.928  1.00  0.00     0.020 A 
ATOM     74  C   UNL A   1      41.990  21.438  28.163  1.00  0.00     0.020 A 
ATOM     75  C   UNL A   1      42.131  21.191  26.797  1.00  0.00     0.054 A 
BRANCH  75  76
ATOM     76  S   UNL A   1      41.792  19.543  26.118  1.00  0.00     0.124 S 
ATOM     77  O   UNL A   1      42.647  19.523  24.934  1.00  0.00    -0.237 OA
ATOM     78  O   UNL A   1      42.205  18.657  27.203  1.00  0.00    -0.237 OA
ATOM     79  O   UNL A   1      40.356  19.567  25.850  1.00  0.00    -0.744 OA
ENDBRANCH  75  76
ENDBRANCH  56  70
BRANCH  57  80
ATOM     80  C   UNL A   1      44.072  32.826  31.739  1.00  0.00    -0.014 A 
ATOM     81  C   UNL A   1      43.885  33.020  33.118  1.00  0.00     0.010 A 
ATOM     82  C   UNL A   1      44.485  33.910  30.943  1.00  0.00     0.010 A 
ATOM     83  C   UNL A   1      44.096  34.279  33.690  1.00  0.00     0.020 A 
ATOM     84  C   UNL A   1      44.722  35.163  31.516  1.00  0.00     0.020 A 
ATOM     85  C   UNL A   1      44.516  35.342  32.885  1.00  0.00     0.054 A 
BRANCH  85  86
ATOM     86  S   UNL A   1      44.849  36.950  33.658  1.00  0.00     0.124 S 
ATOM     87  O   UNL A   1      44.872  37.842  32.503  1.00  0.00    -0.237 OA
ATOM     88  O   UNL A   1      43.711  37.110  34.560  1.00  0.00    -0.237 OA
ATOM     89  O   UNL A   1      46.135  36.749  34.322  1.00  0.00    -0.744 OA
ENDBRANCH  85  86
ENDBRANCH  57  80
BRANCH  69  90
ATOM     90  C   UNL A   1      48.269  27.391  30.537  1.00  0.00    -0.014 A 
ATOM     91  C   UNL A   1      48.719  26.720  31.688  1.00  0.00     0.010 A 
ATOM     92  C   UNL A   1      49.209  27.832  29.588  1.00  0.00     0.010 A 
ATOM     93  C   UNL A   1      50.086  26.531  31.906  1.00  0.00     0.020 A 
ATOM     94  C   UNL A   1      50.576  27.619  29.789  1.00  0.00     0.020 A 
ATOM     95  C   UNL A   1      51.006  26.986  30.958  1.00  0.00     0.054 A 
BRANCH  95  96
ATOM     96  S   UNL A   1      52.773  26.707  31.251  1.00  0.00     0.124 S 
ATOM     97  O   UNL A   1      53.213  26.172  29.965  1.00  0.00    -0.237 OA
ATOM     98  O   UNL A   1      53.263  28.044  31.577  1.00  0.00    -0.237 OA
ATOM     99  O   UNL A   1      52.794  25.755  32.360  1.00  0.00    -0.744 OA
ENDBRANCH  95  96
ENDBRANCH  69  90
ENDBRANCH  43  44
ENDBRANCH  35  38
ENDBRANCH  33  34
ENDBRANCH  32  33
ENDBRANCH  31  32
ENDBRANCH  29  31
ENDBRANCH   1  27
TORSDOF 22
ENDMDL
MODEL 2
REMARK VINA RESULT:      -9.7      1.144      7.973
REMARK SMILES CCCCCCOC(=O)Nc1cccc(-c2ccc([C@@H](C)C(=O)NCCCNC(=O)c3ccc(-c4c5nc(c(-c6ccc(S(=O)(=O)[O-])cc6)c6ccc([nH]6)c(-c6ccc(S(=O)(=O)[O-])cc6)c6nc(c(-c7ccc(S(=O)(=O)[O-])cc7)c7ccc4[nH]7)C=C6)C=C5)cc3)cc2F)c1
REMARK SMILES IDX 20 1 21 2 19 3 16 4 17 5 92 6 18 7 91 8 93 9 15 10 11 11
REMARK SMILES IDX 12 12 94 13 13 14 14 15 10 16 8 17 9 18 7 20 6 21 5 22 4 23
REMARK SMILES IDX 3 24 2 25 1 26 22 27 23 28 24 29 25 31 26 32 27 33 28 34
REMARK SMILES IDX 29 35 30 37 31 38 32 39 90 40 33 41 89 42 34 43 35 44 36 45
REMARK SMILES IDX 83 46 37 47 88 48 82 49 84 50 38 51 87 52 81 53 80 54 39 56
REMARK SMILES IDX 69 57 50 58 68 59 51 60 54 61 67 62 85 63 52 64 53 65 66 67
REMARK SMILES IDX 86 68 55 69 40 70 41 71 49 72 42 73 48 74 43 75 44 76 45 77
REMARK SMILES IDX 46 78 47 79 70 80 71 81 79 82 72 83 78 84 73 85 74 86 75 87
REMARK SMILES IDX 76 88 77 89 56 90 57 91 65 92 58 93 64 94 59 95 60 96 61 97
REMARK SMILES IDX 62 98 63 99
REMARK H PARENT 10 19 24 30 28 36 84 55 54 66
REMARK Flexibility Score: inf
ROOT
ATOM      1  C   UNL A   1      31.099  26.338  25.654  1.00  0.00     0.105 C 
ATOM      2  C   UNL A   1      31.023  27.346  26.800  1.00  0.00     0.023 C 
ENDROOT
BRANCH   1   3
ATOM      3  C   UNL A   1      32.333  25.452  25.632  1.00  0.00    -0.033 A 
ATOM      4  C   UNL A   1      34.779  23.964  25.570  1.00  0.00     0.018 A 
ATOM      5  C   UNL A   1      33.920  23.921  26.678  1.00  0.00     0.012 A 
ATOM      6  C   UNL A   1      34.350  24.733  24.476  1.00  0.00     0.131 A 
ATOM      7  C   UNL A   1      32.706  24.624  26.694  1.00  0.00     0.005 A 
ATOM      8  C   UNL A   1      33.169  25.479  24.508  1.00  0.00     0.044 A 
ATOM      9  F   UNL A   1      35.069  24.776  23.343  1.00  0.00    -0.206 F 
BRANCH   4  10
ATOM     10  C   UNL A   1      36.072  23.245  25.574  1.00  0.00    -0.013 A 
ATOM     11  C   UNL A   1      37.354  21.193  25.176  1.00  0.00     0.045 A 
ATOM     12  C   UNL A   1      38.500  21.796  25.687  1.00  0.00     0.026 A 
ATOM     13  C   UNL A   1      36.161  21.921  25.108  1.00  0.00     0.035 A 
ATOM     14  C   UNL A   1      38.458  23.128  26.091  1.00  0.00     0.003 A 
ATOM     15  C   UNL A   1      37.254  23.840  26.046  1.00  0.00     0.009 A 
BRANCH  11  16
ATOM     16  N   UNL A   1      37.400  19.830  24.855  1.00  0.00    -0.291 N 
ATOM     17  C   UNL A   1      36.380  18.920  24.928  1.00  0.00     0.411 C 
ATOM     18  O   UNL A   1      36.598  17.731  25.091  1.00  0.00    -0.224 OA
ATOM     19  H   UNL A   1      38.268  19.486  24.540  1.00  0.00     0.173 HD
BRANCH  17  20
ATOM     20  O   UNL A   1      35.163  19.473  24.679  1.00  0.00    -0.449 OA
BRANCH  20  21
ATOM     21  C   UNL A   1      34.029  18.598  24.576  1.00  0.00     0.235 C 
BRANCH  21  22
ATOM     22  C   UNL A   1      32.728  19.275  25.023  1.00  0.00     0.042 C 
BRANCH  22  23
ATOM     23  C   UNL A   1      32.823  20.776  25.319  1.00  0.00     0.003 C 
BRANCH  23  24
ATOM     24  C   UNL A   1      31.625  21.610  24.845  1.00  0.00    -0.000 C 
BRANCH  24  25
ATOM     25  C   UNL A   1      31.836  22.351  23.524  1.00  0.00    -0.003 C 
ATOM     26  C   UNL A   1      32.119  21.411  22.364  1.00  0.00     0.004 C 
ENDBRANCH  24  25
ENDBRANCH  23  24
ENDBRANCH  22  23
ENDBRANCH  21  22
ENDBRANCH  20  21
ENDBRANCH  17  20
ENDBRANCH  11  16
ENDBRANCH   4  10
ENDBRANCH   1   3
BRANCH   1  27
ATOM     27  C   UNL A   1      30.730  26.911  24.277  1.00  0.00     0.227 C 
ATOM     28  O   UNL A   1      30.026  26.249  23.504  1.00  0.00    -0.274 OA
ATOM     29  N   UNL A   1      31.123  28.136  23.833  1.00  0.00    -0.356 N 
ATOM     30  H   UNL A   1      30.771  28.373  22.944  1.00  0.00     0.163 HD
BRANCH  29  31
ATOM     31  C   UNL A   1      31.963  29.157  24.427  1.00  0.00     0.117 C 
BRANCH  31  32
ATOM     32  C   UNL A   1      33.449  28.814  24.349  1.00  0.00     0.042 C 
BRANCH  32  33
ATOM     33  C   UNL A   1      34.156  28.787  25.700  1.00  0.00     0.118 C 
BRANCH  33  34
ATOM     34  N   UNL A   1      33.807  29.935  26.527  1.00  0.00    -0.352 N 
ATOM     35  C   UNL A   1      34.439  30.494  27.609  1.00  0.00     0.251 C 
ATOM     36  H   UNL A   1      32.973  30.387  26.263  1.00  0.00     0.163 HD
ATOM     37  O   UNL A   1      33.828  31.329  28.274  1.00  0.00    -0.269 OA
BRANCH  35  38
ATOM     38  C   UNL A   1      35.819  30.116  27.996  1.00  0.00     0.039 A 
ATOM     39  C   UNL A   1      36.045  29.670  29.303  1.00  0.00     0.014 A 
ATOM     40  C   UNL A   1      36.903  30.261  27.124  1.00  0.00     0.014 A 
ATOM     41  C   UNL A   1      37.334  29.327  29.716  1.00  0.00     0.010 A 
ATOM     42  C   UNL A   1      38.178  29.843  27.512  1.00  0.00     0.010 A 
ATOM     43  C   UNL A   1      38.410  29.382  28.814  1.00  0.00    -0.014 A 
BRANCH  43  44
ATOM     44  C   UNL A   1      39.771  28.950  29.229  1.00  0.00     0.031 A 
ATOM     45  C   UNL A   1      40.670  29.874  30.008  1.00  0.00     0.074 A 
ATOM     46  C   UNL A   1      40.214  27.728  28.870  1.00  0.00     0.049 A 
ATOM     47  N   UNL A   1      41.881  29.659  30.457  1.00  0.00    -0.248 NA
ATOM     48  C   UNL A   1      40.152  31.219  30.303  1.00  0.00     0.031 C 
ATOM     49  C   UNL A   1      39.462  26.757  28.070  1.00  0.00     0.029 A 
ATOM     50  N   UNL A   1      41.401  27.090  29.132  1.00  0.00    -0.354 N 
ATOM     51  C   UNL A   1      42.274  30.842  31.074  1.00  0.00     0.074 A 
ATOM     52  C   UNL A   1      41.192  31.786  30.900  1.00  0.00     0.031 C 
ATOM     53  C   UNL A   1      40.189  25.638  27.938  1.00  0.00     0.029 A 
ATOM     54  C   UNL A   1      41.472  25.820  28.610  1.00  0.00     0.049 A 
ATOM     55  H   UNL A   1      42.133  27.504  29.645  1.00  0.00     0.167 HD
ATOM     56  C   UNL A   1      43.422  31.113  31.741  1.00  0.00     0.031 A 
ATOM     57  C   UNL A   1      42.455  24.901  28.667  1.00  0.00     0.031 A 
ATOM     58  C   UNL A   1      44.495  30.169  31.922  1.00  0.00     0.049 A 
ATOM     59  C   UNL A   1      43.714  25.221  29.420  1.00  0.00     0.074 A 
ATOM     60  C   UNL A   1      45.671  30.329  32.633  1.00  0.00     0.029 A 
ATOM     61  N   UNL A   1      44.524  28.893  31.384  1.00  0.00    -0.354 N 
ATOM     62  N   UNL A   1      44.034  26.320  30.060  1.00  0.00    -0.248 NA
ATOM     63  C   UNL A   1      44.740  24.171  29.472  1.00  0.00     0.031 C 
ATOM     64  C   UNL A   1      46.434  29.165  32.485  1.00  0.00     0.029 A 
ATOM     65  C   UNL A   1      45.708  28.260  31.726  1.00  0.00     0.049 A 
ATOM     66  H   UNL A   1      43.808  28.492  30.838  1.00  0.00     0.167 HD
ATOM     67  C   UNL A   1      45.292  26.088  30.605  1.00  0.00     0.074 A 
ATOM     68  C   UNL A   1      45.663  24.736  30.238  1.00  0.00     0.031 C 
ATOM     69  C   UNL A   1      46.070  26.919  31.341  1.00  0.00     0.031 A 
BRANCH  56  70
ATOM     70  C   UNL A   1      43.579  32.494  32.326  1.00  0.00    -0.014 A 
ATOM     71  C   UNL A   1      43.102  32.795  33.615  1.00  0.00     0.010 A 
ATOM     72  C   UNL A   1      44.245  33.494  31.595  1.00  0.00     0.010 A 
ATOM     73  C   UNL A   1      43.249  34.081  34.143  1.00  0.00     0.020 A 
ATOM     74  C   UNL A   1      44.419  34.774  32.131  1.00  0.00     0.020 A 
ATOM     75  C   UNL A   1      43.903  35.063  33.395  1.00  0.00     0.054 A 
BRANCH  75  76
ATOM     76  S   UNL A   1      44.093  36.720  34.111  1.00  0.00     0.124 S 
ATOM     77  O   UNL A   1      44.438  36.410  35.496  1.00  0.00    -0.237 OA
ATOM     78  O   UNL A   1      45.172  37.294  33.310  1.00  0.00    -0.237 OA
ATOM     79  O   UNL A   1      42.783  37.335  33.917  1.00  0.00    -0.744 OA
ENDBRANCH  75  76
ENDBRANCH  56  70
BRANCH  57  80
ATOM     80  C   UNL A   1      42.271  23.581  28.004  1.00  0.00    -0.014 A 
ATOM     81  C   UNL A   1      42.617  23.407  26.653  1.00  0.00     0.010 A 
ATOM     82  C   UNL A   1      41.776  22.483  28.732  1.00  0.00     0.010 A 
ATOM     83  C   UNL A   1      42.459  22.162  26.037  1.00  0.00     0.020 A 
ATOM     84  C   UNL A   1      41.642  21.231  28.126  1.00  0.00     0.020 A 
ATOM     85  C   UNL A   1      41.975  21.081  26.778  1.00  0.00     0.054 A 
BRANCH  85  86
ATOM     86  S   UNL A   1      41.841  19.457  25.979  1.00  0.00     0.124 S 
ATOM     87  O   UNL A   1      42.198  18.553  27.068  1.00  0.00    -0.237 OA
ATOM     88  O   UNL A   1      40.442  19.424  25.560  1.00  0.00    -0.237 OA
ATOM     89  O   UNL A   1      42.807  19.536  24.885  1.00  0.00    -0.744 OA
ENDBRANCH  85  86
ENDBRANCH  57  80
BRANCH  69  90
ATOM     90  C   UNL A   1      47.395  26.382  31.812  1.00  0.00    -0.014 A 
ATOM     91  C   UNL A   1      47.504  25.673  33.022  1.00  0.00     0.010 A 
ATOM     92  C   UNL A   1      48.541  26.560  31.015  1.00  0.00     0.010 A 
ATOM     93  C   UNL A   1      48.745  25.191  33.447  1.00  0.00     0.020 A 
ATOM     94  C   UNL A   1      49.777  26.054  31.424  1.00  0.00     0.020 A 
ATOM     95  C   UNL A   1      49.874  25.388  32.648  1.00  0.00     0.054 A 
BRANCH  95  96
ATOM     96  S   UNL A   1      51.468  24.730  33.210  1.00  0.00     0.124 S 
ATOM     97  O   UNL A   1      51.057  23.777  34.237  1.00  0.00    -0.237 OA
ATOM     98  O   UNL A   1      52.022  24.143  31.992  1.00  0.00    -0.237 OA
ATOM     99  O   UNL A   1      52.175  25.910  33.703  1.00  0.00    -0.744 OA
ENDBRANCH  95  96
ENDBRANCH  69  90
ENDBRANCH  43  44
ENDBRANCH  35  38
ENDBRANCH  33  34
ENDBRANCH  32  33
ENDBRANCH  31  32
ENDBRANCH  29  31
ENDBRANCH   1  27
TORSDOF 22
ENDMDL
MODEL 3
REMARK VINA RESULT:      -9.7      4.016     11.144
REMARK SMILES CCCCCCOC(=O)Nc1cccc(-c2ccc([C@@H](C)C(=O)NCCCNC(=O)c3ccc(-c4c5nc(c(-c6ccc(S(=O)(=O)[O-])cc6)c6ccc([nH]6)c(-c6ccc(S(=O)(=O)[O-])cc6)c6nc(c(-c7ccc(S(=O)(=O)[O-])cc7)c7ccc4[nH]7)C=C6)C=C5)cc3)cc2F)c1
REMARK SMILES IDX 20 1 21 2 19 3 16 4 17 5 92 6 18 7 91 8 93 9 15 10 11 11
REMARK SMILES IDX 12 12 94 13 13 14 14 15 10 16 8 17 9 18 7 20 6 21 5 22 4 23
REMARK SMILES IDX 3 24 2 25 1 26 22 27 23 28 24 29 25 31 26 32 27 33 28 34
REMARK SMILES IDX 29 35 30 37 31 38 32 39 90 40 33 41 89 42 34 43 35 44 36 45
REMARK SMILES IDX 83 46 37 47 88 48 82 49 84 50 38 51 87 52 81 53 80 54 39 56
REMARK SMILES IDX 69 57 50 58 68 59 51 60 54 61 67 62 85 63 52 64 53 65 66 67
REMARK SMILES IDX 86 68 55 69 40 70 41 71 49 72 42 73 48 74 43 75 44 76 45 77
REMARK SMILES IDX 46 78 47 79 70 80 71 81 79 82 72 83 78 84 73 85 74 86 75 87
REMARK SMILES IDX 76 88 77 89 56 90 57 91 65 92 58 93 64 94 59 95 60 96 61 97
REMARK SMILES IDX 62 98 63 99
REMARK H PARENT 10 19 24 30 28 36 84 55 54 66
REMARK Flexibility Score: inf
ROOT
ATOM      1  C   UNL A   1      37.276  33.132  32.994  1.00  0.00     0.105 C 
ATOM      2  C   UNL A   1      36.867  34.096  34.108  1.00  0.00     0.023 C 
ENDROOT
BRANCH   1   3
ATOM      3  C   UNL A   1      38.413  32.182  33.325  1.00  0.00    -0.033 A 
ATOM      4  C   UNL A   1      40.590  30.367  33.735  1.00  0.00     0.018 A 
ATOM      5  C   UNL A   1      40.633  31.686  34.210  1.00  0.00     0.012 A 
ATOM      6  C   UNL A   1      39.403  29.971  33.095  1.00  0.00     0.131 A 
ATOM      7  C   UNL A   1      39.553  32.565  34.038  1.00  0.00     0.005 A 
ATOM      8  C   UNL A   1      38.348  30.858  32.872  1.00  0.00     0.044 A 
ATOM      9  F   UNL A   1      39.240  28.707  32.672  1.00  0.00    -0.206 F 
BRANCH   4  10
ATOM     10  C   UNL A   1      41.745  29.456  33.893  1.00  0.00    -0.013 A 
ATOM     11  C   UNL A   1      43.808  28.837  35.064  1.00  0.00     0.045 A 
ATOM     12  C   UNL A   1      44.036  27.815  34.148  1.00  0.00     0.026 A 
ATOM     13  C   UNL A   1      42.665  29.635  34.942  1.00  0.00     0.035 A 
ATOM     14  C   UNL A   1      43.107  27.571  33.140  1.00  0.00     0.003 A 
ATOM     15  C   UNL A   1      41.981  28.391  33.007  1.00  0.00     0.009 A 
BRANCH  11  16
ATOM     16  N   UNL A   1      44.797  29.116  36.017  1.00  0.00    -0.291 N 
ATOM     17  C   UNL A   1      44.747  28.880  37.365  1.00  0.00     0.411 C 
ATOM     18  O   UNL A   1      45.397  29.549  38.152  1.00  0.00    -0.224 OA
ATOM     19  H   UNL A   1      45.624  29.530  35.678  1.00  0.00     0.173 HD
BRANCH  17  20
ATOM     20  O   UNL A   1      44.017  27.778  37.680  1.00  0.00    -0.449 OA
BRANCH  20  21
ATOM     21  C   UNL A   1      44.716  26.546  37.916  1.00  0.00     0.235 C 
BRANCH  21  22
ATOM     22  C   UNL A   1      44.694  25.620  36.694  1.00  0.00     0.042 C 
BRANCH  22  23
ATOM     23  C   UNL A   1      43.490  24.675  36.593  1.00  0.00     0.003 C 
BRANCH  23  24
ATOM     24  C   UNL A   1      43.129  24.231  35.170  1.00  0.00    -0.000 C 
BRANCH  24  25
ATOM     25  C   UNL A   1      44.308  24.150  34.200  1.00  0.00    -0.003 C 
ATOM     26  C   UNL A   1      44.062  23.175  33.059  1.00  0.00     0.004 C 
ENDBRANCH  24  25
ENDBRANCH  23  24
ENDBRANCH  22  23
ENDBRANCH  21  22
ENDBRANCH  20  21
ENDBRANCH  17  20
ENDBRANCH  11  16
ENDBRANCH   4  10
ENDBRANCH   1   3
BRANCH   1  27
ATOM     27  C   UNL A   1      37.400  33.780  31.607  1.00  0.00     0.227 C 
ATOM     28  O   UNL A   1      38.424  34.410  31.312  1.00  0.00    -0.274 OA
ATOM     29  N   UNL A   1      36.443  33.703  30.642  1.00  0.00    -0.356 N 
ATOM     30  H   UNL A   1      36.691  34.139  29.794  1.00  0.00     0.163 HD
BRANCH  29  31
ATOM     31  C   UNL A   1      35.126  33.097  30.632  1.00  0.00     0.117 C 
BRANCH  31  32
ATOM     32  C   UNL A   1      34.262  33.591  29.474  1.00  0.00     0.042 C 
BRANCH  32  33
ATOM     33  C   UNL A   1      34.608  32.967  28.125  1.00  0.00     0.118 C 
BRANCH  33  34
ATOM     34  N   UNL A   1      33.912  31.706  27.908  1.00  0.00    -0.352 N 
ATOM     35  C   UNL A   1      34.382  30.420  27.810  1.00  0.00     0.251 C 
ATOM     36  H   UNL A   1      32.936  31.791  27.814  1.00  0.00     0.163 HD
ATOM     37  O   UNL A   1      33.616  29.549  27.403  1.00  0.00    -0.269 OA
BRANCH  35  38
ATOM     38  C   UNL A   1      35.774  30.062  28.172  1.00  0.00     0.039 A 
ATOM     39  C   UNL A   1      36.748  30.085  27.168  1.00  0.00     0.014 A 
ATOM     40  C   UNL A   1      36.124  29.636  29.457  1.00  0.00     0.014 A 
ATOM     41  C   UNL A   1      38.068  29.731  27.460  1.00  0.00     0.010 A 
ATOM     42  C   UNL A   1      37.457  29.359  29.768  1.00  0.00     0.010 A 
ATOM     43  C   UNL A   1      38.442  29.393  28.772  1.00  0.00    -0.014 A 
BRANCH  43  44
ATOM     44  C   UNL A   1      39.859  29.085  29.102  1.00  0.00     0.031 A 
ATOM     45  C   UNL A   1      40.739  30.116  29.759  1.00  0.00     0.074 A 
ATOM     46  C   UNL A   1      40.365  27.879  28.775  1.00  0.00     0.049 A 
ATOM     47  N   UNL A   1      41.992  30.015  30.124  1.00  0.00    -0.248 NA
ATOM     48  C   UNL A   1      40.143  31.436  30.022  1.00  0.00     0.031 C 
ATOM     49  C   UNL A   1      39.633  26.812  28.089  1.00  0.00     0.029 A 
ATOM     50  N   UNL A   1      41.613  27.345  28.979  1.00  0.00    -0.354 N 
ATOM     51  C   UNL A   1      42.339  31.258  30.645  1.00  0.00     0.074 A 
ATOM     52  C   UNL A   1      41.177  32.109  30.505  1.00  0.00     0.031 C 
ATOM     53  C   UNL A   1      40.431  25.741  27.961  1.00  0.00     0.029 A 
ATOM     54  C   UNL A   1      41.742  26.055  28.521  1.00  0.00     0.049 A 
ATOM     55  H   UNL A   1      42.347  27.839  29.411  1.00  0.00     0.167 HD
ATOM     56  C   UNL A   1      43.508  31.649  31.206  1.00  0.00     0.031 A 
ATOM     57  C   UNL A   1      42.793  25.214  28.551  1.00  0.00     0.031 A 
ATOM     58  C   UNL A   1      44.660  30.797  31.353  1.00  0.00     0.049 A 
ATOM     59  C   UNL A   1      44.077  25.666  29.187  1.00  0.00     0.074 A 
ATOM     60  C   UNL A   1      45.870  31.082  31.962  1.00  0.00     0.029 A 
ATOM     61  N   UNL A   1      44.746  29.496  30.884  1.00  0.00    -0.354 N 
ATOM     62  N   UNL A   1      44.358  26.822  29.740  1.00  0.00    -0.248 NA
ATOM     63  C   UNL A   1      45.180  24.698  29.215  1.00  0.00     0.031 C 
ATOM     64  C   UNL A   1      46.705  29.969  31.818  1.00  0.00     0.029 A 
ATOM     65  C   UNL A   1      45.997  28.971  31.167  1.00  0.00     0.049 A 
ATOM     66  H   UNL A   1      44.025  29.014  30.417  1.00  0.00     0.167 HD
ATOM     67  C   UNL A   1      45.666  26.713  30.198  1.00  0.00     0.074 A 
ATOM     68  C   UNL A   1      46.111  25.372  29.876  1.00  0.00     0.031 C 
ATOM     69  C   UNL A   1      46.431  27.639  30.827  1.00  0.00     0.031 A 
BRANCH  56  70
ATOM     70  C   UNL A   1      43.602  33.069  31.703  1.00  0.00    -0.014 A 
ATOM     71  C   UNL A   1      44.037  34.107  30.858  1.00  0.00     0.010 A 
ATOM     72  C   UNL A   1      43.212  33.380  33.019  1.00  0.00     0.010 A 
ATOM     73  C   UNL A   1      44.124  35.419  31.333  1.00  0.00     0.020 A 
ATOM     74  C   UNL A   1      43.272  34.695  33.489  1.00  0.00     0.020 A 
ATOM     75  C   UNL A   1      43.746  35.703  32.647  1.00  0.00     0.054 A 
BRANCH  75  76
ATOM     76  S   UNL A   1      43.854  37.417  33.233  1.00  0.00     0.124 S 
ATOM     77  O   UNL A   1      42.749  37.481  34.185  1.00  0.00    -0.237 OA
ATOM     78  O   UNL A   1      45.191  37.472  33.820  1.00  0.00    -0.237 OA
ATOM     79  O   UNL A   1      43.678  38.211  32.019  1.00  0.00    -0.744 OA
ENDBRANCH  75  76
ENDBRANCH  56  70
BRANCH  57  80
ATOM     80  C   UNL A   1      42.663  23.847  27.976  1.00  0.00    -0.014 A 
ATOM     81  C   UNL A   1      42.277  22.765  28.787  1.00  0.00     0.010 A 
ATOM     82  C   UNL A   1      42.898  23.628  26.606  1.00  0.00     0.010 A 
ATOM     83  C   UNL A   1      42.139  21.485  28.240  1.00  0.00     0.020 A 
ATOM     84  C   UNL A   1      42.735  22.355  26.052  1.00  0.00     0.020 A 
ATOM     85  C   UNL A   1      42.366  21.289  26.875  1.00  0.00     0.054 A 
BRANCH  85  86
ATOM     86  S   UNL A   1      42.116  19.635  26.173  1.00  0.00     0.124 S 
ATOM     87  O   UNL A   1      40.686  19.642  25.880  1.00  0.00    -0.237 OA
ATOM     88  O   UNL A   1      43.001  19.647  25.010  1.00  0.00    -0.237 OA
ATOM     89  O   UNL A   1      42.533  18.740  27.251  1.00  0.00    -0.744 OA
ENDBRANCH  85  86
ENDBRANCH  57  80
BRANCH  69  90
ATOM     90  C   UNL A   1      47.824  27.227  31.221  1.00  0.00    -0.014 A 
ATOM     91  C   UNL A   1      48.094  26.712  32.502  1.00  0.00     0.010 A 
ATOM     92  C   UNL A   1      48.870  27.326  30.286  1.00  0.00     0.010 A 
ATOM     93  C   UNL A   1      49.395  26.344  32.854  1.00  0.00     0.020 A 
ATOM     94  C   UNL A   1      50.167  26.932  30.625  1.00  0.00     0.020 A 
ATOM     95  C   UNL A   1      50.424  26.461  31.915  1.00  0.00     0.054 A 
BRANCH  95  96
ATOM     96  S   UNL A   1      52.100  25.953  32.387  1.00  0.00     0.124 S 
ATOM     97  O   UNL A   1      52.403  26.881  33.472  1.00  0.00    -0.237 OA
ATOM     98  O   UNL A   1      51.915  24.559  32.785  1.00  0.00    -0.237 OA
ATOM     99  O   UNL A   1      52.878  26.147  31.165  1.00  0.00    -0.744 OA
ENDBRANCH  95  96
ENDBRANCH  69  90
ENDBRANCH  43  44
ENDBRANCH  35  38
ENDBRANCH  33  34
ENDBRANCH  32  33
ENDBRANCH  31  32
ENDBRANCH  29  31
ENDBRANCH   1  27
TORSDOF 22
ENDMDL
