MODEL 1
REMARK VINA RESULT:     -10.2      0.000      0.000
REMARK SMILES C=C(C)CN(CC)c1ccc(F)cc1C(=O)NCCCNC(=O)c1ccc(-c2c3nc(c(-c4ccc(S(=O)(=O)[O-])cc4)c4ccc([nH]4)c(-c4ccc(S(=O)(=O)[O-])cc4)c4nc(c(-c5ccc(S(=O)(=O)[O-])cc5)c5ccc2[nH]5)C=C4)C=C3)cc1
REMARK SMILES IDX 19 1 18 2 17 3 15 4 16 5 14 7 8 8 9 9 10 10 13 11 11 12
REMARK SMILES IDX 12 13 5 14 4 15 2 16 1 17 3 18 6 19 7 20 20 21 21 22 22 23
REMARK SMILES IDX 23 25 24 26 25 27 83 28 26 29 82 30 27 31 28 32 29 33 76 34
REMARK SMILES IDX 30 35 81 36 75 37 77 38 31 39 80 40 74 41 73 42 32 44 62 45
REMARK SMILES IDX 43 46 61 47 44 48 47 49 60 50 78 51 45 52 46 53 59 55 79 56
REMARK SMILES IDX 48 57 33 58 34 59 42 60 35 61 41 62 36 63 37 64 38 65 39 66
REMARK SMILES IDX 40 67 63 68 64 69 72 70 65 71 71 72 66 73 67 74 68 75 69 76
REMARK SMILES IDX 70 77 49 78 50 79 58 80 51 81 57 82 52 83 53 84 54 85 55 86
REMARK SMILES IDX 56 87
REMARK H PARENT 17 6 21 24 77 43 47 54
REMARK Flexibility Score: inf
ROOT
ATOM      1  C   UNL A   1      33.717  28.414  25.990  1.00  0.00     0.042 C 
ENDROOT
BRANCH   1   2
ATOM      2  C   UNL A   1      32.789  27.522  25.188  1.00  0.00     0.118 C 
BRANCH   2   3
ATOM      3  N   UNL A   1      32.191  26.444  25.932  1.00  0.00    -0.352 N 
ATOM      4  C   UNL A   1      32.655  25.165  26.092  1.00  0.00     0.253 C 
ATOM      5  O   UNL A   1      32.053  24.434  26.884  1.00  0.00    -0.269 OA
ATOM      6  H   UNL A   1      31.341  26.652  26.382  1.00  0.00     0.163 HD
BRANCH   4   7
ATOM      7  C   UNL A   1      33.757  24.582  25.279  1.00  0.00     0.066 A 
ATOM      8  C   UNL A   1      33.719  24.162  23.923  1.00  0.00     0.050 A 
ATOM      9  C   UNL A   1      34.938  23.719  23.361  1.00  0.00     0.030 A 
ATOM     10  C   UNL A   1      36.132  23.677  24.085  1.00  0.00     0.041 A 
ATOM     11  C   UNL A   1      34.975  24.554  25.994  1.00  0.00     0.055 A 
ATOM     12  C   UNL A   1      36.138  24.101  25.397  1.00  0.00     0.124 A 
ATOM     13  F   UNL A   1      37.283  24.093  26.093  1.00  0.00    -0.207 F 
BRANCH   8  14
ATOM     14  N   UNL A   1      32.599  24.209  23.094  1.00  0.00    -0.367 N 
BRANCH  14  15
ATOM     15  C   UNL A   1      31.485  23.262  23.304  1.00  0.00     0.146 C 
BRANCH  15  16
ATOM     16  C   UNL A   1      31.878  21.811  23.442  1.00  0.00    -0.061 C 
ATOM     17  C   UNL A   1      32.099  20.986  22.405  1.00  0.00     0.009 C 
ATOM     18  C   UNL A   1      31.923  21.305  24.862  1.00  0.00     0.041 C 
ENDBRANCH  15  16
ENDBRANCH  14  15
BRANCH  14  19
ATOM     19  C   UNL A   1      32.713  24.868  21.788  1.00  0.00     0.113 C 
ATOM     20  C   UNL A   1      31.882  26.136  21.678  1.00  0.00     0.027 C 
ENDBRANCH  14  19
ENDBRANCH   8  14
ENDBRANCH   4   7
ENDBRANCH   2   3
ENDBRANCH   1   2
BRANCH   1  21
ATOM     21  C   UNL A   1      33.118  28.876  27.315  1.00  0.00     0.118 C 
BRANCH  21  22
ATOM     22  N   UNL A   1      33.430  30.257  27.681  1.00  0.00    -0.352 N 
ATOM     23  C   UNL A   1      34.578  30.872  28.127  1.00  0.00     0.251 C 
ATOM     24  H   UNL A   1      32.664  30.870  27.592  1.00  0.00     0.163 HD
ATOM     25  O   UNL A   1      34.539  32.063  28.427  1.00  0.00    -0.269 OA
BRANCH  23  26
ATOM     26  C   UNL A   1      35.834  30.109  28.319  1.00  0.00     0.039 A 
ATOM     27  C   UNL A   1      36.754  30.036  27.267  1.00  0.00     0.014 A 
ATOM     28  C   UNL A   1      36.138  29.498  29.530  1.00  0.00     0.014 A 
ATOM     29  C   UNL A   1      38.024  29.492  27.488  1.00  0.00     0.010 A 
ATOM     30  C   UNL A   1      37.443  29.098  29.791  1.00  0.00     0.010 A 
ATOM     31  C   UNL A   1      38.413  29.107  28.780  1.00  0.00    -0.014 A 
BRANCH  31  32
ATOM     32  C   UNL A   1      39.820  28.751  29.123  1.00  0.00     0.031 A 
ATOM     33  C   UNL A   1      40.746  29.787  29.711  1.00  0.00     0.074 A 
ATOM     34  C   UNL A   1      40.309  27.541  28.775  1.00  0.00     0.049 A 
ATOM     35  N   UNL A   1      42.044  29.738  29.872  1.00  0.00    -0.248 NA
ATOM     36  C   UNL A   1      40.142  31.067  30.118  1.00  0.00     0.031 C 
ATOM     37  C   UNL A   1      39.551  26.463  28.129  1.00  0.00     0.029 A 
ATOM     38  N   UNL A   1      41.575  27.018  28.895  1.00  0.00    -0.354 N 
ATOM     39  C   UNL A   1      42.416  30.994  30.335  1.00  0.00     0.074 A 
ATOM     40  C   UNL A   1      41.213  31.796  30.394  1.00  0.00     0.031 C 
ATOM     41  C   UNL A   1      40.353  25.404  27.946  1.00  0.00     0.029 A 
ATOM     42  C   UNL A   1      41.695  25.739  28.402  1.00  0.00     0.049 A 
ATOM     43  H   UNL A   1      42.324  27.513  29.297  1.00  0.00     0.167 HD
ATOM     44  C   UNL A   1      43.642  31.439  30.698  1.00  0.00     0.031 A 
ATOM     45  C   UNL A   1      42.767  24.928  28.308  1.00  0.00     0.031 A 
ATOM     46  C   UNL A   1      44.824  30.621  30.714  1.00  0.00     0.049 A 
ATOM     47  C   UNL A   1      44.102  25.417  28.792  1.00  0.00     0.074 A 
ATOM     48  C   UNL A   1      46.092  30.949  31.163  1.00  0.00     0.029 A 
ATOM     49  N   UNL A   1      44.881  29.306  30.279  1.00  0.00    -0.354 N 
ATOM     50  N   UNL A   1      44.419  26.590  29.280  1.00  0.00    -0.248 NA
ATOM     51  C   UNL A   1      45.223  24.469  28.718  1.00  0.00     0.031 C 
ATOM     52  C   UNL A   1      46.924  29.840  30.974  1.00  0.00     0.029 A 
ATOM     53  C   UNL A   1      46.164  28.811  30.443  1.00  0.00     0.049 A 
ATOM     54  H   UNL A   1      44.123  28.800  29.909  1.00  0.00     0.167 HD
ATOM     55  C   UNL A   1      45.771  26.517  29.590  1.00  0.00     0.074 A 
ATOM     56  C   UNL A   1      46.210  25.179  29.249  1.00  0.00     0.031 C 
ATOM     57  C   UNL A   1      46.579  27.474  30.108  1.00  0.00     0.031 A 
BRANCH  44  58
ATOM     58  C   UNL A   1      43.767  32.879  31.123  1.00  0.00    -0.014 A 
ATOM     59  C   UNL A   1      43.842  33.231  32.482  1.00  0.00     0.010 A 
ATOM     60  C   UNL A   1      43.846  33.889  30.147  1.00  0.00     0.010 A 
ATOM     61  C   UNL A   1      43.947  34.572  32.860  1.00  0.00     0.020 A 
ATOM     62  C   UNL A   1      43.980  35.230  30.521  1.00  0.00     0.020 A 
ATOM     63  C   UNL A   1      44.010  35.564  31.876  1.00  0.00     0.054 A 
BRANCH  63  64
ATOM     64  S   UNL A   1      44.167  37.295  32.394  1.00  0.00     0.124 S 
ATOM     65  O   UNL A   1      43.109  37.405  33.395  1.00  0.00    -0.237 OA
ATOM     66  O   UNL A   1      45.532  37.353  32.914  1.00  0.00    -0.237 OA
ATOM     67  O   UNL A   1      43.943  38.046  31.162  1.00  0.00    -0.744 OA
ENDBRANCH  63  64
ENDBRANCH  44  58
BRANCH  45  68
ATOM     68  C   UNL A   1      42.616  23.560  27.744  1.00  0.00    -0.014 A 
ATOM     69  C   UNL A   1      42.878  23.323  26.383  1.00  0.00     0.010 A 
ATOM     70  C   UNL A   1      42.228  22.485  28.565  1.00  0.00     0.010 A 
ATOM     71  C   UNL A   1      42.735  22.040  25.847  1.00  0.00     0.020 A 
ATOM     72  C   UNL A   1      42.109  21.196  28.037  1.00  0.00     0.020 A 
ATOM     73  C   UNL A   1      42.351  20.984  26.678  1.00  0.00     0.054 A 
BRANCH  73  74
ATOM     74  S   UNL A   1      42.224  19.315  25.976  1.00  0.00     0.124 S 
ATOM     75  O   UNL A   1      42.729  18.488  27.067  1.00  0.00    -0.237 OA
ATOM     76  O   UNL A   1      40.795  19.195  25.698  1.00  0.00    -0.237 OA
ATOM     77  O   UNL A   1      43.076  19.380  24.791  1.00  0.00    -0.744 OA
ENDBRANCH  73  74
ENDBRANCH  45  68
BRANCH  57  78
ATOM     78  C   UNL A   1      48.012  27.103  30.371  1.00  0.00    -0.014 A 
ATOM     79  C   UNL A   1      49.009  27.342  29.409  1.00  0.00     0.010 A 
ATOM     80  C   UNL A   1      48.372  26.570  31.621  1.00  0.00     0.010 A 
ATOM     81  C   UNL A   1      50.343  27.035  29.689  1.00  0.00     0.020 A 
ATOM     82  C   UNL A   1      49.707  26.283  31.912  1.00  0.00     0.020 A 
ATOM     83  C   UNL A   1      50.683  26.507  30.939  1.00  0.00     0.054 A 
BRANCH  83  84
ATOM     84  S   UNL A   1      52.429  26.171  31.301  1.00  0.00     0.124 S 
ATOM     85  O   UNL A   1      52.359  24.855  31.931  1.00  0.00    -0.237 OA
ATOM     86  O   UNL A   1      53.045  26.203  29.977  1.00  0.00    -0.237 OA
ATOM     87  O   UNL A   1      52.815  27.267  32.186  1.00  0.00    -0.744 OA
ENDBRANCH  83  84
ENDBRANCH  57  78
ENDBRANCH  31  32
ENDBRANCH  23  26
ENDBRANCH  21  22
ENDBRANCH   1  21
TORSDOF 17
ENDMDL
MODEL 2
REMARK VINA RESULT:     -10.1      1.633      2.513
REMARK SMILES C=C(C)CN(CC)c1ccc(F)cc1C(=O)NCCCNC(=O)c1ccc(-c2c3nc(c(-c4ccc(S(=O)(=O)[O-])cc4)c4ccc([nH]4)c(-c4ccc(S(=O)(=O)[O-])cc4)c4nc(c(-c5ccc(S(=O)(=O)[O-])cc5)c5ccc2[nH]5)C=C4)C=C3)cc1
REMARK SMILES IDX 19 1 18 2 17 3 15 4 16 5 14 7 8 8 9 9 10 10 13 11 11 12
REMARK SMILES IDX 12 13 5 14 4 15 2 16 1 17 3 18 6 19 7 20 20 21 21 22 22 23
REMARK SMILES IDX 23 25 24 26 25 27 83 28 26 29 82 30 27 31 28 32 29 33 76 34
REMARK SMILES IDX 30 35 81 36 75 37 77 38 31 39 80 40 74 41 73 42 32 44 62 45
REMARK SMILES IDX 43 46 61 47 44 48 47 49 60 50 78 51 45 52 46 53 59 55 79 56
REMARK SMILES IDX 48 57 33 58 34 59 42 60 35 61 41 62 36 63 37 64 38 65 39 66
REMARK SMILES IDX 40 67 63 68 64 69 72 70 65 71 71 72 66 73 67 74 68 75 69 76
REMARK SMILES IDX 70 77 49 78 50 79 58 80 51 81 57 82 52 83 53 84 54 85 55 86
REMARK SMILES IDX 56 87
REMARK H PARENT 17 6 21 24 77 43 47 54
REMARK Flexibility Score: inf
ROOT
ATOM      1  C   UNL A   1      33.863  28.559  26.021  1.00  0.00     0.042 C 
ENDROOT
BRANCH   1   2
ATOM      2  C   UNL A   1      33.386  29.168  24.717  1.00  0.00     0.118 C 
BRANCH   2   3
ATOM      3  N   UNL A   1      33.844  28.495  23.530  1.00  0.00    -0.352 N 
ATOM      4  C   UNL A   1      33.159  27.612  22.739  1.00  0.00     0.253 C 
ATOM      5  O   UNL A   1      33.695  27.252  21.687  1.00  0.00    -0.269 OA
ATOM      6  H   UNL A   1      34.767  28.694  23.252  1.00  0.00     0.163 HD
BRANCH   4   7
ATOM      7  C   UNL A   1      31.873  26.977  23.137  1.00  0.00     0.066 A 
ATOM      8  C   UNL A   1      31.672  25.712  23.749  1.00  0.00     0.050 A 
ATOM      9  C   UNL A   1      30.343  25.382  24.104  1.00  0.00     0.030 A 
ATOM     10  C   UNL A   1      29.264  26.236  23.866  1.00  0.00     0.041 A 
ATOM     11  C   UNL A   1      30.776  27.840  22.920  1.00  0.00     0.055 A 
ATOM     12  C   UNL A   1      29.494  27.463  23.279  1.00  0.00     0.124 A 
ATOM     13  F   UNL A   1      28.470  28.302  23.072  1.00  0.00    -0.207 F 
BRANCH   8  14
ATOM     14  N   UNL A   1      32.678  24.804  24.078  1.00  0.00    -0.367 N 
BRANCH  14  15
ATOM     15  C   UNL A   1      33.485  25.009  25.298  1.00  0.00     0.146 C 
BRANCH  15  16
ATOM     16  C   UNL A   1      33.415  23.900  26.321  1.00  0.00    -0.061 C 
ATOM     17  C   UNL A   1      34.453  23.118  26.659  1.00  0.00     0.009 C 
ATOM     18  C   UNL A   1      32.041  23.661  26.894  1.00  0.00     0.041 C 
ENDBRANCH  15  16
ENDBRANCH  14  15
BRANCH  14  19
ATOM     19  C   UNL A   1      33.215  23.931  23.028  1.00  0.00     0.113 C 
ATOM     20  C   UNL A   1      32.670  22.513  23.086  1.00  0.00     0.027 C 
ENDBRANCH  14  19
ENDBRANCH   8  14
ENDBRANCH   4   7
ENDBRANCH   2   3
ENDBRANCH   1   2
BRANCH   1  21
ATOM     21  C   UNL A   1      33.091  29.054  27.240  1.00  0.00     0.118 C 
BRANCH  21  22
ATOM     22  N   UNL A   1      33.391  30.429  27.640  1.00  0.00    -0.352 N 
ATOM     23  C   UNL A   1      34.529  31.036  28.124  1.00  0.00     0.251 C 
ATOM     24  H   UNL A   1      32.628  31.042  27.544  1.00  0.00     0.163 HD
ATOM     25  O   UNL A   1      34.480  32.221  28.446  1.00  0.00    -0.269 OA
BRANCH  23  26
ATOM     26  C   UNL A   1      35.780  30.270  28.331  1.00  0.00     0.039 A 
ATOM     27  C   UNL A   1      36.742  30.251  27.315  1.00  0.00     0.014 A 
ATOM     28  C   UNL A   1      36.041  29.606  29.523  1.00  0.00     0.014 A 
ATOM     29  C   UNL A   1      38.006  29.703  27.561  1.00  0.00     0.010 A 
ATOM     30  C   UNL A   1      37.336  29.200  29.818  1.00  0.00     0.010 A 
ATOM     31  C   UNL A   1      38.346  29.260  28.848  1.00  0.00    -0.014 A 
BRANCH  31  32
ATOM     32  C   UNL A   1      39.740  28.896  29.230  1.00  0.00     0.031 A 
ATOM     33  C   UNL A   1      40.650  29.920  29.860  1.00  0.00     0.074 A 
ATOM     34  C   UNL A   1      40.237  27.689  28.882  1.00  0.00     0.049 A 
ATOM     35  N   UNL A   1      41.942  29.865  30.061  1.00  0.00    -0.248 NA
ATOM     36  C   UNL A   1      40.038  31.197  30.265  1.00  0.00     0.031 C 
ATOM     37  C   UNL A   1      39.496  26.622  28.199  1.00  0.00     0.029 A 
ATOM     38  N   UNL A   1      41.496  27.160  29.035  1.00  0.00    -0.354 N 
ATOM     39  C   UNL A   1      42.303  31.114  30.553  1.00  0.00     0.074 A 
ATOM     40  C   UNL A   1      41.102  31.919  30.584  1.00  0.00     0.031 C 
ATOM     41  C   UNL A   1      40.300  25.562  28.026  1.00  0.00     0.029 A 
ATOM     42  C   UNL A   1      41.629  25.887  28.529  1.00  0.00     0.049 A 
ATOM     43  H   UNL A   1      42.234  27.647  29.466  1.00  0.00     0.167 HD
ATOM     44  C   UNL A   1      43.519  31.550  30.959  1.00  0.00     0.031 A 
ATOM     45  C   UNL A   1      42.700  25.074  28.458  1.00  0.00     0.031 A 
ATOM     46  C   UNL A   1      44.697  30.728  31.002  1.00  0.00     0.049 A 
ATOM     47  C   UNL A   1      44.021  25.552  28.991  1.00  0.00     0.074 A 
ATOM     48  C   UNL A   1      45.951  31.046  31.495  1.00  0.00     0.029 A 
ATOM     49  N   UNL A   1      44.764  29.419  30.552  1.00  0.00    -0.354 N 
ATOM     50  N   UNL A   1      44.326  26.718  29.504  1.00  0.00    -0.248 NA
ATOM     51  C   UNL A   1      45.141  24.601  28.939  1.00  0.00     0.031 C 
ATOM     52  C   UNL A   1      46.785  29.937  31.318  1.00  0.00     0.029 A 
ATOM     53  C   UNL A   1      46.039  28.917  30.750  1.00  0.00     0.049 A 
ATOM     54  H   UNL A   1      44.016  28.920  30.152  1.00  0.00     0.167 HD
ATOM     55  C   UNL A   1      45.668  26.636  29.855  1.00  0.00     0.074 A 
ATOM     56  C   UNL A   1      46.113  25.301  29.510  1.00  0.00     0.031 C 
ATOM     57  C   UNL A   1      46.462  27.584  30.410  1.00  0.00     0.031 A 
BRANCH  44  58
ATOM     58  C   UNL A   1      43.634  32.983  31.407  1.00  0.00    -0.014 A 
ATOM     59  C   UNL A   1      43.339  33.358  32.730  1.00  0.00     0.010 A 
ATOM     60  C   UNL A   1      44.079  33.963  30.501  1.00  0.00     0.010 A 
ATOM     61  C   UNL A   1      43.441  34.693  33.127  1.00  0.00     0.020 A 
ATOM     62  C   UNL A   1      44.209  35.296  30.902  1.00  0.00     0.020 A 
ATOM     63  C   UNL A   1      43.871  35.656  32.208  1.00  0.00     0.054 A 
BRANCH  63  64
ATOM     64  S   UNL A   1      44.015  37.379  32.755  1.00  0.00     0.124 S 
ATOM     65  O   UNL A   1      42.941  37.470  33.741  1.00  0.00    -0.237 OA
ATOM     66  O   UNL A   1      45.371  37.433  33.297  1.00  0.00    -0.237 OA
ATOM     67  O   UNL A   1      43.807  38.148  31.531  1.00  0.00    -0.744 OA
ENDBRANCH  63  64
ENDBRANCH  44  58
BRANCH  45  68
ATOM     68  C   UNL A   1      42.564  23.713  27.871  1.00  0.00    -0.014 A 
ATOM     69  C   UNL A   1      42.748  23.516  26.492  1.00  0.00     0.010 A 
ATOM     70  C   UNL A   1      42.266  22.607  28.689  1.00  0.00     0.010 A 
ATOM     71  C   UNL A   1      42.618  22.240  25.935  1.00  0.00     0.020 A 
ATOM     72  C   UNL A   1      42.160  21.326  28.139  1.00  0.00     0.020 A 
ATOM     73  C   UNL A   1      42.325  21.153  26.762  1.00  0.00     0.054 A 
BRANCH  73  74
ATOM     74  S   UNL A   1      42.213  19.497  26.030  1.00  0.00     0.124 S 
ATOM     75  O   UNL A   1      40.795  19.407  25.697  1.00  0.00    -0.237 OA
ATOM     76  O   UNL A   1      43.127  19.589  24.893  1.00  0.00    -0.237 OA
ATOM     77  O   UNL A   1      42.663  18.618  27.108  1.00  0.00    -0.744 OA
ENDBRANCH  73  74
ENDBRANCH  45  68
BRANCH  57  78
ATOM     78  C   UNL A   1      47.884  27.205  30.713  1.00  0.00    -0.014 A 
ATOM     79  C   UNL A   1      48.233  26.635  31.950  1.00  0.00     0.010 A 
ATOM     80  C   UNL A   1      48.869  27.359  29.721  1.00  0.00     0.010 A 
ATOM     81  C   UNL A   1      49.552  26.244  32.196  1.00  0.00     0.020 A 
ATOM     82  C   UNL A   1      50.183  26.949  29.956  1.00  0.00     0.020 A 
ATOM     83  C   UNL A   1      50.518  26.404  31.198  1.00  0.00     0.054 A 
BRANCH  83  84
ATOM     84  S   UNL A   1      52.211  25.835  31.519  1.00  0.00     0.124 S 
ATOM     85  O   UNL A   1      52.849  26.038  30.222  1.00  0.00    -0.237 OA
ATOM     86  O   UNL A   1      52.655  26.730  32.585  1.00  0.00    -0.237 OA
ATOM     87  O   UNL A   1      52.037  24.441  31.919  1.00  0.00    -0.744 OA
ENDBRANCH  83  84
ENDBRANCH  57  78
ENDBRANCH  31  32
ENDBRANCH  23  26
ENDBRANCH  21  22
ENDBRANCH   1  21
TORSDOF 17
ENDMDL
MODEL 3
REMARK VINA RESULT:     -10.0      2.981      9.293
REMARK SMILES C=C(C)CN(CC)c1ccc(F)cc1C(=O)NCCCNC(=O)c1ccc(-c2c3nc(c(-c4ccc(S(=O)(=O)[O-])cc4)c4ccc([nH]4)c(-c4ccc(S(=O)(=O)[O-])cc4)c4nc(c(-c5ccc(S(=O)(=O)[O-])cc5)c5ccc2[nH]5)C=C4)C=C3)cc1
REMARK SMILES IDX 19 1 18 2 17 3 15 4 16 5 14 7 8 8 9 9 10 10 13 11 11 12
REMARK SMILES IDX 12 13 5 14 4 15 2 16 1 17 3 18 6 19 7 20 20 21 21 22 22 23
REMARK SMILES IDX 23 25 24 26 25 27 83 28 26 29 82 30 27 31 28 32 29 33 76 34
REMARK SMILES IDX 30 35 81 36 75 37 77 38 31 39 80 40 74 41 73 42 32 44 62 45
REMARK SMILES IDX 43 46 61 47 44 48 47 49 60 50 78 51 45 52 46 53 59 55 79 56
REMARK SMILES IDX 48 57 33 58 34 59 42 60 35 61 41 62 36 63 37 64 38 65 39 66
REMARK SMILES IDX 40 67 63 68 64 69 72 70 65 71 71 72 66 73 67 74 68 75 69 76
REMARK SMILES IDX 70 77 49 78 50 79 58 80 51 81 57 82 52 83 53 84 54 85 55 86
REMARK SMILES IDX 56 87
REMARK H PARENT 17 6 21 24 77 43 47 54
REMARK Flexibility Score: inf
ROOT
ATOM      1  C   UNL A   1      36.213  23.474  26.101  1.00  0.00     0.042 C 
ENDROOT
BRANCH   1   2
ATOM      2  C   UNL A   1      35.305  22.319  26.476  1.00  0.00     0.118 C 
BRANCH   2   3
ATOM      3  N   UNL A   1      34.077  22.698  27.125  1.00  0.00    -0.352 N 
ATOM      4  C   UNL A   1      32.796  22.561  26.662  1.00  0.00     0.253 C 
ATOM      5  O   UNL A   1      31.875  22.830  27.438  1.00  0.00    -0.269 OA
ATOM      6  H   UNL A   1      34.171  23.109  28.015  1.00  0.00     0.163 HD
BRANCH   4   7
ATOM      7  C   UNL A   1      32.463  22.226  25.250  1.00  0.00     0.066 A 
ATOM      8  C   UNL A   1      32.143  23.115  24.190  1.00  0.00     0.050 A 
ATOM      9  C   UNL A   1      31.949  22.537  22.914  1.00  0.00     0.030 A 
ATOM     10  C   UNL A   1      32.052  21.164  22.683  1.00  0.00     0.041 A 
ATOM     11  C   UNL A   1      32.583  20.841  25.000  1.00  0.00     0.055 A 
ATOM     12  C   UNL A   1      32.374  20.328  23.732  1.00  0.00     0.124 A 
ATOM     13  F   UNL A   1      32.503  19.012  23.517  1.00  0.00    -0.207 F 
BRANCH   8  14
ATOM     14  N   UNL A   1      32.066  24.503  24.295  1.00  0.00    -0.367 N 
BRANCH  14  15
ATOM     15  C   UNL A   1      33.281  25.290  24.587  1.00  0.00     0.146 C 
BRANCH  15  16
ATOM     16  C   UNL A   1      33.510  26.491  23.700  1.00  0.00    -0.061 C 
ATOM     17  C   UNL A   1      33.679  27.743  24.153  1.00  0.00     0.009 C 
ATOM     18  C   UNL A   1      33.447  26.200  22.222  1.00  0.00     0.041 C 
ENDBRANCH  15  16
ENDBRANCH  14  15
BRANCH  14  19
ATOM     19  C   UNL A   1      30.760  25.121  24.551  1.00  0.00     0.113 C 
ATOM     20  C   UNL A   1      30.620  25.674  25.961  1.00  0.00     0.027 C 
ENDBRANCH  14  19
ENDBRANCH   8  14
ENDBRANCH   4   7
ENDBRANCH   2   3
ENDBRANCH   1   2
BRANCH   1  21
ATOM     21  C   UNL A   1      37.180  23.142  24.970  1.00  0.00     0.118 C 
BRANCH  21  22
ATOM     22  N   UNL A   1      38.408  22.468  25.390  1.00  0.00    -0.352 N 
ATOM     23  C   UNL A   1      39.477  22.865  26.162  1.00  0.00     0.251 C 
ATOM     24  H   UNL A   1      38.487  21.546  25.053  1.00  0.00     0.163 HD
ATOM     25  O   UNL A   1      40.428  22.098  26.304  1.00  0.00    -0.269 OA
BRANCH  23  26
ATOM     26  C   UNL A   1      39.534  24.219  26.759  1.00  0.00     0.039 A 
ATOM     27  C   UNL A   1      38.950  24.436  28.012  1.00  0.00     0.014 A 
ATOM     28  C   UNL A   1      40.187  25.270  26.126  1.00  0.00     0.014 A 
ATOM     29  C   UNL A   1      39.159  25.648  28.680  1.00  0.00     0.010 A 
ATOM     30  C   UNL A   1      40.522  26.409  26.846  1.00  0.00     0.010 A 
ATOM     31  C   UNL A   1      40.030  26.609  28.144  1.00  0.00    -0.014 A 
BRANCH  31  32
ATOM     32  C   UNL A   1      40.481  27.803  28.914  1.00  0.00     0.031 A 
ATOM     33  C   UNL A   1      41.793  27.778  29.657  1.00  0.00     0.074 A 
ATOM     34  C   UNL A   1      39.649  28.856  29.065  1.00  0.00     0.049 A 
ATOM     35  N   UNL A   1      42.253  28.620  30.548  1.00  0.00    -0.248 NA
ATOM     36  C   UNL A   1      42.679  26.628  29.411  1.00  0.00     0.031 C 
ATOM     37  C   UNL A   1      38.316  28.989  28.466  1.00  0.00     0.029 A 
ATOM     38  N   UNL A   1      39.794  30.015  29.791  1.00  0.00    -0.354 N 
ATOM     39  C   UNL A   1      43.443  28.070  31.010  1.00  0.00     0.074 A 
ATOM     40  C   UNL A   1      43.615  26.804  30.331  1.00  0.00     0.031 C 
ATOM     41  C   UNL A   1      37.785  30.169  28.819  1.00  0.00     0.029 A 
ATOM     42  C   UNL A   1      38.707  30.856  29.714  1.00  0.00     0.049 A 
ATOM     43  H   UNL A   1      40.599  30.223  30.316  1.00  0.00     0.167 HD
ATOM     44  C   UNL A   1      44.324  28.576  31.905  1.00  0.00     0.031 A 
ATOM     45  C   UNL A   1      38.466  32.040  30.310  1.00  0.00     0.031 A 
ATOM     46  C   UNL A   1      44.194  29.868  32.523  1.00  0.00     0.049 A 
ATOM     47  C   UNL A   1      39.496  32.620  31.237  1.00  0.00     0.074 A 
ATOM     48  C   UNL A   1      45.085  30.514  33.362  1.00  0.00     0.029 A 
ATOM     49  N   UNL A   1      43.113  30.719  32.353  1.00  0.00    -0.354 N 
ATOM     50  N   UNL A   1      40.641  32.107  31.615  1.00  0.00    -0.248 NA
ATOM     51  C   UNL A   1      39.204  33.940  31.813  1.00  0.00     0.031 C 
ATOM     52  C   UNL A   1      44.530  31.746  33.723  1.00  0.00     0.029 A 
ATOM     53  C   UNL A   1      43.312  31.882  33.078  1.00  0.00     0.049 A 
ATOM     54  H   UNL A   1      42.322  30.525  31.801  1.00  0.00     0.167 HD
ATOM     55  C   UNL A   1      41.216  33.050  32.458  1.00  0.00     0.074 A 
ATOM     56  C   UNL A   1      40.300  34.171  32.523  1.00  0.00     0.031 C 
ATOM     57  C   UNL A   1      42.395  32.991  33.123  1.00  0.00     0.031 A 
BRANCH  44  58
ATOM     58  C   UNL A   1      45.522  27.734  32.261  1.00  0.00    -0.014 A 
ATOM     59  C   UNL A   1      46.725  27.842  31.542  1.00  0.00     0.010 A 
ATOM     60  C   UNL A   1      45.452  26.850  33.353  1.00  0.00     0.010 A 
ATOM     61  C   UNL A   1      47.824  27.046  31.878  1.00  0.00     0.020 A 
ATOM     62  C   UNL A   1      46.558  26.072  33.710  1.00  0.00     0.020 A 
ATOM     63  C   UNL A   1      47.731  26.162  32.958  1.00  0.00     0.054 A 
BRANCH  63  64
ATOM     64  S   UNL A   1      49.178  25.157  33.387  1.00  0.00     0.124 S 
ATOM     65  O   UNL A   1      49.931  26.066  34.247  1.00  0.00    -0.237 OA
ATOM     66  O   UNL A   1      48.582  24.005  34.061  1.00  0.00    -0.237 OA
ATOM     67  O   UNL A   1      49.792  24.867  32.094  1.00  0.00    -0.744 OA
ENDBRANCH  63  64
ENDBRANCH  44  58
BRANCH  45  68
ATOM     68  C   UNL A   1      37.197  32.766  30.034  1.00  0.00    -0.014 A 
ATOM     69  C   UNL A   1      37.103  33.632  28.930  1.00  0.00     0.010 A 
ATOM     70  C   UNL A   1      36.072  32.584  30.860  1.00  0.00     0.010 A 
ATOM     71  C   UNL A   1      35.914  34.319  28.668  1.00  0.00     0.020 A 
ATOM     72  C   UNL A   1      34.875  33.250  30.587  1.00  0.00     0.020 A 
ATOM     73  C   UNL A   1      34.807  34.124  29.498  1.00  0.00     0.054 A 
BRANCH  73  74
ATOM     74  S   UNL A   1      33.256  34.982  29.110  1.00  0.00     0.124 S 
ATOM     75  O   UNL A   1      33.737  36.263  28.603  1.00  0.00    -0.237 OA
ATOM     76  O   UNL A   1      32.642  34.099  28.121  1.00  0.00    -0.237 OA
ATOM     77  O   UNL A   1      32.567  35.036  30.397  1.00  0.00    -0.744 OA
ENDBRANCH  73  74
ENDBRANCH  45  68
BRANCH  57  78
ATOM     78  C   UNL A   1      42.784  34.183  33.951  1.00  0.00    -0.014 A 
ATOM     79  C   UNL A   1      42.463  34.250  35.317  1.00  0.00     0.010 A 
ATOM     80  C   UNL A   1      43.537  35.217  33.367  1.00  0.00     0.010 A 
ATOM     81  C   UNL A   1      42.874  35.345  36.083  1.00  0.00     0.020 A 
ATOM     82  C   UNL A   1      43.968  36.301  34.134  1.00  0.00     0.020 A 
ATOM     83  C   UNL A   1      43.623  36.363  35.486  1.00  0.00     0.054 A 
BRANCH  83  84
ATOM     84  S   UNL A   1      44.196  37.745  36.513  1.00  0.00     0.124 S 
ATOM     85  O   UNL A   1      45.559  37.335  36.839  1.00  0.00    -0.237 OA
ATOM     86  O   UNL A   1      44.083  38.887  35.608  1.00  0.00    -0.237 OA
ATOM     87  O   UNL A   1      43.261  37.754  37.634  1.00  0.00    -0.744 OA
ENDBRANCH  83  84
ENDBRANCH  57  78
ENDBRANCH  31  32
ENDBRANCH  23  26
ENDBRANCH  21  22
ENDBRANCH   1  21
TORSDOF 17
ENDMDL
