MODEL 1
REMARK VINA RESULT:     -12.2      0.000      0.000
REMARK SMILES CC(=O)c1c[nH]c(C(=O)N[C@H]2C=C[C@H](C(=O)NCCCNC(=O)c3ccc(-c4c5nc(c(-c6ccc(S(=O)(=O)[O-])cc6)c6ccc([nH]6)c(-c6ccc(S(=O)(=O)[O-])cc6)c6nc(c(-c7ccc(S(=O)(=O)[O-])cc7)c7ccc4[nH]7)C=C6)C=C5)cc3)C2)c1
REMARK SMILES IDX 19 1 18 2 17 3 15 4 16 5 14 7 11 8 12 9 84 10 13 11 10 12
REMARK SMILES IDX 8 13 9 14 7 16 4 17 5 18 85 19 6 20 2 22 1 23 3 24 20 25
REMARK SMILES IDX 21 26 22 27 23 29 24 30 25 31 83 32 26 33 82 34 27 35 28 36
REMARK SMILES IDX 29 37 76 38 30 39 81 40 75 41 77 42 31 43 80 44 74 45 73 46
REMARK SMILES IDX 32 48 62 49 43 50 61 51 44 52 47 53 60 54 78 55 45 56 46 57
REMARK SMILES IDX 59 59 79 60 48 61 33 62 34 63 42 64 35 65 41 66 36 67 37 68
REMARK SMILES IDX 38 69 39 70 40 71 63 72 64 73 72 74 65 75 71 76 66 77 67 78
REMARK SMILES IDX 68 79 69 80 70 81 49 82 50 83 58 84 51 85 57 86 52 87 53 88
REMARK SMILES IDX 54 89 55 90 56 91
REMARK H PARENT 17 6 10 15 6 21 21 28 77 47 47 58
REMARK Flexibility Score: inf
ROOT
ATOM      1  C   UNL A   1      34.081  28.641  26.005  1.00  0.00     0.042 C 
ENDROOT
BRANCH   1   2
ATOM      2  C   UNL A   1      33.265  29.200  24.844  1.00  0.00     0.117 C 
BRANCH   2   3
ATOM      3  N   UNL A   1      33.043  28.247  23.777  1.00  0.00    -0.356 N 
ATOM      4  C   UNL A   1      31.884  27.631  23.406  1.00  0.00     0.227 C 
ATOM      5  O   UNL A   1      31.881  27.005  22.346  1.00  0.00    -0.274 OA
ATOM      6  H   UNL A   1      33.838  28.012  23.246  1.00  0.00     0.163 HD
BRANCH   4   7
ATOM      7  C   UNL A   1      30.651  27.697  24.319  1.00  0.00     0.103 C 
ATOM      8  C   UNL A   1      30.348  25.436  25.137  1.00  0.00     0.106 C 
ATOM      9  C   UNL A   1      29.253  25.799  24.189  1.00  0.00    -0.006 C 
ATOM     10  C   UNL A   1      30.852  26.819  25.568  1.00  0.00     0.047 C 
ATOM     11  C   UNL A   1      29.430  27.040  23.723  1.00  0.00    -0.016 C 
BRANCH   8  12
ATOM     12  N   UNL A   1      29.804  24.677  26.230  1.00  0.00    -0.345 N 
ATOM     13  C   UNL A   1      30.252  23.541  26.847  1.00  0.00     0.268 C 
ATOM     14  O   UNL A   1      29.482  23.010  27.652  1.00  0.00    -0.268 OA
ATOM     15  H   UNL A   1      28.965  25.036  26.597  1.00  0.00     0.164 HD
BRANCH  13  16
ATOM     16  C   UNL A   1      31.530  22.933  26.538  1.00  0.00     0.105 A 
ATOM     17  C   UNL A   1      33.691  22.343  26.066  1.00  0.00     0.035 A 
ATOM     18  C   UNL A   1      32.850  21.374  25.555  1.00  0.00     0.094 A 
ATOM     19  C   UNL A   1      32.857  23.254  26.777  1.00  0.00     0.045 A 
ATOM     20  N   UNL A   1      31.567  21.711  25.891  1.00  0.00    -0.356 N 
ATOM     21  H   UNL A   1      30.776  21.158  25.698  1.00  0.00     0.166 HD
BRANCH  17  22
ATOM     22  C   UNL A   1      35.142  22.439  25.919  1.00  0.00     0.161 C 
ATOM     23  C   UNL A   1      35.746  23.798  25.676  1.00  0.00     0.093 C 
ATOM     24  O   UNL A   1      35.864  21.455  26.067  1.00  0.00    -0.294 OA
ENDBRANCH  17  22
ENDBRANCH  13  16
ENDBRANCH   8  12
ENDBRANCH   4   7
ENDBRANCH   2   3
ENDBRANCH   1   2
BRANCH   1  25
ATOM     25  C   UNL A   1      33.495  28.965  27.371  1.00  0.00     0.118 C 
BRANCH  25  26
ATOM     26  N   UNL A   1      33.599  30.382  27.690  1.00  0.00    -0.352 N 
ATOM     27  C   UNL A   1      34.615  31.046  28.336  1.00  0.00     0.251 C 
ATOM     28  H   UNL A   1      32.840  30.939  27.404  1.00  0.00     0.163 HD
ATOM     29  O   UNL A   1      34.417  32.165  28.782  1.00  0.00    -0.269 OA
BRANCH  27  30
ATOM     30  C   UNL A   1      35.929  30.393  28.519  1.00  0.00     0.039 A 
ATOM     31  C   UNL A   1      36.821  30.380  27.441  1.00  0.00     0.014 A 
ATOM     32  C   UNL A   1      36.263  29.763  29.724  1.00  0.00     0.014 A 
ATOM     33  C   UNL A   1      38.076  29.799  27.597  1.00  0.00     0.010 A 
ATOM     34  C   UNL A   1      37.526  29.221  29.898  1.00  0.00     0.010 A 
ATOM     35  C   UNL A   1      38.434  29.248  28.836  1.00  0.00    -0.014 A 
BRANCH  35  36
ATOM     36  C   UNL A   1      39.829  28.816  29.058  1.00  0.00     0.031 A 
ATOM     37  C   UNL A   1      40.722  29.996  29.497  1.00  0.00     0.074 A 
ATOM     38  C   UNL A   1      40.095  27.494  28.819  1.00  0.00     0.049 A 
ATOM     39  N   UNL A   1      41.989  30.202  29.306  1.00  0.00    -0.248 NA
ATOM     40  C   UNL A   1      40.097  31.167  30.179  1.00  0.00     0.031 C 
ATOM     41  C   UNL A   1      39.077  26.479  28.447  1.00  0.00     0.029 A 
ATOM     42  N   UNL A   1      41.238  26.727  28.834  1.00  0.00    -0.354 N 
ATOM     43  C   UNL A   1      42.343  31.411  29.955  1.00  0.00     0.074 A 
ATOM     44  C   UNL A   1      41.117  32.005  30.394  1.00  0.00     0.031 C 
ATOM     45  C   UNL A   1      39.650  25.280  28.201  1.00  0.00     0.029 A 
ATOM     46  C   UNL A   1      41.083  25.387  28.383  1.00  0.00     0.049 A 
ATOM     47  H   UNL A   1      42.105  27.081  29.138  1.00  0.00     0.167 HD
ATOM     48  C   UNL A   1      43.636  31.793  30.186  1.00  0.00     0.031 A 
ATOM     49  C   UNL A   1      42.047  24.453  28.113  1.00  0.00     0.031 A 
ATOM     50  C   UNL A   1      44.526  30.839  29.619  1.00  0.00     0.049 A 
ATOM     51  C   UNL A   1      43.316  25.094  28.489  1.00  0.00     0.074 A 
ATOM     52  C   UNL A   1      44.874  30.540  28.327  1.00  0.00     0.029 A 
ATOM     53  N   UNL A   1      44.892  29.799  30.438  1.00  0.00    -0.354 N 
ATOM     54  N   UNL A   1      43.722  25.303  29.703  1.00  0.00    -0.248 NA
ATOM     55  C   UNL A   1      44.166  25.633  27.419  1.00  0.00     0.031 C 
ATOM     56  C   UNL A   1      44.949  29.130  28.338  1.00  0.00     0.029 A 
ATOM     57  C   UNL A   1      44.872  28.670  29.657  1.00  0.00     0.049 A 
ATOM     58  H   UNL A   1      45.122  29.852  31.393  1.00  0.00     0.167 HD
ATOM     59  C   UNL A   1      44.648  26.300  29.534  1.00  0.00     0.074 A 
ATOM     60  C   UNL A   1      45.097  26.223  28.161  1.00  0.00     0.031 C 
ATOM     61  C   UNL A   1      44.595  27.413  30.307  1.00  0.00     0.031 A 
BRANCH  48  62
ATOM     62  C   UNL A   1      44.250  32.838  31.085  1.00  0.00    -0.014 A 
ATOM     63  C   UNL A   1      43.610  33.070  32.333  1.00  0.00     0.010 A 
ATOM     64  C   UNL A   1      45.179  33.795  30.655  1.00  0.00     0.010 A 
ATOM     65  C   UNL A   1      43.778  34.260  33.045  1.00  0.00     0.020 A 
ATOM     66  C   UNL A   1      45.384  34.980  31.388  1.00  0.00     0.020 A 
ATOM     67  C   UNL A   1      44.644  35.226  32.549  1.00  0.00     0.054 A 
BRANCH  67  68
ATOM     68  S   UNL A   1      44.725  36.821  33.408  1.00  0.00     0.124 S 
ATOM     69  O   UNL A   1      46.079  37.272  33.099  1.00  0.00    -0.237 OA
ATOM     70  O   UNL A   1      43.653  37.580  32.767  1.00  0.00    -0.237 OA
ATOM     71  O   UNL A   1      44.479  36.473  34.805  1.00  0.00    -0.744 OA
ENDBRANCH  67  68
ENDBRANCH  48  62
BRANCH  49  72
ATOM     72  C   UNL A   1      42.171  23.110  27.424  1.00  0.00    -0.014 A 
ATOM     73  C   UNL A   1      43.172  22.710  26.531  1.00  0.00     0.010 A 
ATOM     74  C   UNL A   1      41.243  22.091  27.796  1.00  0.00     0.010 A 
ATOM     75  C   UNL A   1      43.326  21.345  26.171  1.00  0.00     0.020 A 
ATOM     76  C   UNL A   1      41.413  20.740  27.495  1.00  0.00     0.020 A 
ATOM     77  C   UNL A   1      42.480  20.364  26.702  1.00  0.00     0.054 A 
BRANCH  77  78
ATOM     78  S   UNL A   1      42.835  18.594  26.494  1.00  0.00     0.124 S 
ATOM     79  O   UNL A   1      41.677  18.127  25.736  1.00  0.00    -0.237 OA
ATOM     80  O   UNL A   1      44.103  18.601  25.770  1.00  0.00    -0.237 OA
ATOM     81  O   UNL A   1      42.922  18.100  27.868  1.00  0.00    -0.744 OA
ENDBRANCH  77  78
ENDBRANCH  49  72
BRANCH  61  82
ATOM     82  C   UNL A   1      43.895  27.256  31.649  1.00  0.00    -0.014 A 
ATOM     83  C   UNL A   1      44.459  26.409  32.620  1.00  0.00     0.010 A 
ATOM     84  C   UNL A   1      42.666  27.872  31.964  1.00  0.00     0.010 A 
ATOM     85  C   UNL A   1      43.836  26.197  33.858  1.00  0.00     0.020 A 
ATOM     86  C   UNL A   1      42.032  27.666  33.204  1.00  0.00     0.020 A 
ATOM     87  C   UNL A   1      42.629  26.832  34.149  1.00  0.00     0.054 A 
BRANCH  87  88
ATOM     88  S   UNL A   1      41.871  26.554  35.778  1.00  0.00     0.124 S 
ATOM     89  O   UNL A   1      40.859  25.540  35.493  1.00  0.00    -0.237 OA
ATOM     90  O   UNL A   1      43.004  26.095  36.576  1.00  0.00    -0.237 OA
ATOM     91  O   UNL A   1      41.343  27.865  36.149  1.00  0.00    -0.744 OA
ENDBRANCH  87  88
ENDBRANCH  61  82
ENDBRANCH  35  36
ENDBRANCH  27  30
ENDBRANCH  25  26
ENDBRANCH   1  25
TORSDOF 16
ENDMDL
MODEL 2
REMARK VINA RESULT:     -11.9      3.827      8.854
REMARK SMILES CC(=O)c1c[nH]c(C(=O)N[C@H]2C=C[C@H](C(=O)NCCCNC(=O)c3ccc(-c4c5nc(c(-c6ccc(S(=O)(=O)[O-])cc6)c6ccc([nH]6)c(-c6ccc(S(=O)(=O)[O-])cc6)c6nc(c(-c7ccc(S(=O)(=O)[O-])cc7)c7ccc4[nH]7)C=C6)C=C5)cc3)C2)c1
REMARK SMILES IDX 19 1 18 2 17 3 15 4 16 5 14 7 11 8 12 9 84 10 13 11 10 12
REMARK SMILES IDX 8 13 9 14 7 16 4 17 5 18 85 19 6 20 2 22 1 23 3 24 20 25
REMARK SMILES IDX 21 26 22 27 23 29 24 30 25 31 83 32 26 33 82 34 27 35 28 36
REMARK SMILES IDX 29 37 76 38 30 39 81 40 75 41 77 42 31 43 80 44 74 45 73 46
REMARK SMILES IDX 32 48 62 49 43 50 61 51 44 52 47 53 60 54 78 55 45 56 46 57
REMARK SMILES IDX 59 59 79 60 48 61 33 62 34 63 42 64 35 65 41 66 36 67 37 68
REMARK SMILES IDX 38 69 39 70 40 71 63 72 64 73 72 74 65 75 71 76 66 77 67 78
REMARK SMILES IDX 68 79 69 80 70 81 49 82 50 83 58 84 51 85 57 86 52 87 53 88
REMARK SMILES IDX 54 89 55 90 56 91
REMARK H PARENT 17 6 10 15 6 21 21 28 77 47 47 58
REMARK Flexibility Score: inf
ROOT
ATOM      1  C   UNL A   1      36.702  22.868  24.176  1.00  0.00     0.042 C 
ENDROOT
BRANCH   1   2
ATOM      2  C   UNL A   1      35.367  22.201  24.484  1.00  0.00     0.117 C 
BRANCH   2   3
ATOM      3  N   UNL A   1      34.509  22.988  25.346  1.00  0.00    -0.356 N 
ATOM      4  C   UNL A   1      33.299  23.552  25.065  1.00  0.00     0.227 C 
ATOM      5  O   UNL A   1      32.650  24.014  26.004  1.00  0.00    -0.274 OA
ATOM      6  H   UNL A   1      34.845  23.135  26.259  1.00  0.00     0.163 HD
BRANCH   4   7
ATOM      7  C   UNL A   1      32.805  23.631  23.613  1.00  0.00     0.103 C 
ATOM      8  C   UNL A   1      31.404  25.607  23.530  1.00  0.00     0.106 C 
ATOM      9  C   UNL A   1      30.574  24.373  23.394  1.00  0.00    -0.006 C 
ATOM     10  C   UNL A   1      32.789  25.091  23.124  1.00  0.00     0.047 C 
ATOM     11  C   UNL A   1      31.345  23.281  23.459  1.00  0.00    -0.016 C 
BRANCH   8  12
ATOM     12  N   UNL A   1      30.904  26.620  22.641  1.00  0.00    -0.345 N 
ATOM     13  C   UNL A   1      30.895  27.984  22.746  1.00  0.00     0.268 C 
ATOM     14  O   UNL A   1      30.238  28.598  21.902  1.00  0.00    -0.268 OA
ATOM     15  H   UNL A   1      30.499  26.272  21.815  1.00  0.00     0.164 HD
BRANCH  13  16
ATOM     16  C   UNL A   1      31.556  28.691  23.824  1.00  0.00     0.105 A 
ATOM     17  C   UNL A   1      32.804  29.473  25.577  1.00  0.00     0.035 A 
ATOM     18  C   UNL A   1      31.630  30.196  25.518  1.00  0.00     0.094 A 
ATOM     19  C   UNL A   1      32.794  28.611  24.441  1.00  0.00     0.045 A 
ATOM     20  N   UNL A   1      30.918  29.756  24.435  1.00  0.00    -0.356 N 
ATOM     21  H   UNL A   1      30.066  30.144  24.131  1.00  0.00     0.166 HD
BRANCH  17  22
ATOM     22  C   UNL A   1      33.857  29.553  26.588  1.00  0.00     0.161 C 
ATOM     23  C   UNL A   1      33.899  30.767  27.480  1.00  0.00     0.093 C 
ATOM     24  O   UNL A   1      34.642  28.624  26.764  1.00  0.00    -0.294 OA
ENDBRANCH  17  22
ENDBRANCH  13  16
ENDBRANCH   8  12
ENDBRANCH   4   7
ENDBRANCH   2   3
ENDBRANCH   1   2
BRANCH   1  25
ATOM     25  C   UNL A   1      37.430  23.373  25.413  1.00  0.00     0.118 C 
BRANCH  25  26
ATOM     26  N   UNL A   1      38.594  22.560  25.734  1.00  0.00    -0.352 N 
ATOM     27  C   UNL A   1      39.794  22.953  26.278  1.00  0.00     0.251 C 
ATOM     28  H   UNL A   1      38.512  21.600  25.533  1.00  0.00     0.163 HD
ATOM     29  O   UNL A   1      40.761  22.210  26.209  1.00  0.00    -0.269 OA
BRANCH  27  30
ATOM     30  C   UNL A   1      39.920  24.282  26.914  1.00  0.00     0.039 A 
ATOM     31  C   UNL A   1      39.233  24.514  28.111  1.00  0.00     0.014 A 
ATOM     32  C   UNL A   1      40.670  25.302  26.318  1.00  0.00     0.014 A 
ATOM     33  C   UNL A   1      39.360  25.746  28.746  1.00  0.00     0.010 A 
ATOM     34  C   UNL A   1      40.834  26.515  26.967  1.00  0.00     0.010 A 
ATOM     35  C   UNL A   1      40.185  26.732  28.185  1.00  0.00    -0.014 A 
BRANCH  35  36
ATOM     36  C   UNL A   1      40.475  27.956  28.959  1.00  0.00     0.031 A 
ATOM     37  C   UNL A   1      41.747  27.792  29.819  1.00  0.00     0.074 A 
ATOM     38  C   UNL A   1      39.585  28.986  28.811  1.00  0.00     0.049 A 
ATOM     39  N   UNL A   1      42.064  28.336  30.953  1.00  0.00    -0.248 NA
ATOM     40  C   UNL A   1      42.787  26.809  29.398  1.00  0.00     0.031 C 
ATOM     41  C   UNL A   1      38.429  28.980  27.880  1.00  0.00     0.029 A 
ATOM     42  N   UNL A   1      39.453  30.231  29.387  1.00  0.00    -0.354 N 
ATOM     43  C   UNL A   1      43.367  27.900  31.303  1.00  0.00     0.074 A 
ATOM     44  C   UNL A   1      43.720  26.890  30.353  1.00  0.00     0.031 C 
ATOM     45  C   UNL A   1      37.689  30.103  28.012  1.00  0.00     0.029 A 
ATOM     46  C   UNL A   1      38.277  30.947  29.031  1.00  0.00     0.049 A 
ATOM     47  H   UNL A   1      40.126  30.599  30.002  1.00  0.00     0.167 HD
ATOM     48  C   UNL A   1      44.117  28.480  32.290  1.00  0.00     0.031 A 
ATOM     49  C   UNL A   1      37.780  32.105  29.568  1.00  0.00     0.031 A 
ATOM     50  C   UNL A   1      43.362  29.505  32.926  1.00  0.00     0.049 A 
ATOM     51  C   UNL A   1      38.787  32.533  30.551  1.00  0.00     0.074 A 
ATOM     52  C   UNL A   1      42.296  29.481  33.787  1.00  0.00     0.029 A 
ATOM     53  N   UNL A   1      43.470  30.759  32.376  1.00  0.00    -0.354 N 
ATOM     54  N   UNL A   1      39.944  33.047  30.267  1.00  0.00    -0.248 NA
ATOM     55  C   UNL A   1      38.520  32.282  31.973  1.00  0.00     0.031 C 
ATOM     56  C   UNL A   1      41.493  30.546  33.327  1.00  0.00     0.029 A 
ATOM     57  C   UNL A   1      42.206  31.290  32.380  1.00  0.00     0.049 A 
ATOM     58  H   UNL A   1      44.291  31.190  32.045  1.00  0.00     0.167 HD
ATOM     59  C   UNL A   1      40.653  32.824  31.420  1.00  0.00     0.074 A 
ATOM     60  C   UNL A   1      39.684  32.671  32.482  1.00  0.00     0.031 C 
ATOM     61  C   UNL A   1      41.884  32.257  31.359  1.00  0.00     0.031 A 
BRANCH  48  62
ATOM     62  C   UNL A   1      45.583  28.406  32.639  1.00  0.00    -0.014 A 
ATOM     63  C   UNL A   1      45.928  28.572  34.008  1.00  0.00     0.010 A 
ATOM     64  C   UNL A   1      46.618  28.512  31.701  1.00  0.00     0.010 A 
ATOM     65  C   UNL A   1      47.207  28.964  34.410  1.00  0.00     0.020 A 
ATOM     66  C   UNL A   1      47.921  28.869  32.102  1.00  0.00     0.020 A 
ATOM     67  C   UNL A   1      48.191  29.142  33.447  1.00  0.00     0.054 A 
BRANCH  67  68
ATOM     68  S   UNL A   1      49.796  29.802  33.979  1.00  0.00     0.124 S 
ATOM     69  O   UNL A   1      50.136  30.709  32.887  1.00  0.00    -0.237 OA
ATOM     70  O   UNL A   1      49.466  30.448  35.247  1.00  0.00    -0.237 OA
ATOM     71  O   UNL A   1      50.635  28.612  34.096  1.00  0.00    -0.744 OA
ENDBRANCH  67  68
ENDBRANCH  48  62
BRANCH  49  72
ATOM     72  C   UNL A   1      36.497  32.910  29.552  1.00  0.00    -0.014 A 
ATOM     73  C   UNL A   1      35.710  33.263  30.655  1.00  0.00     0.010 A 
ATOM     74  C   UNL A   1      36.089  33.473  28.306  1.00  0.00     0.010 A 
ATOM     75  C   UNL A   1      34.689  34.242  30.539  1.00  0.00     0.020 A 
ATOM     76  C   UNL A   1      35.126  34.475  28.186  1.00  0.00     0.020 A 
ATOM     77  C   UNL A   1      34.444  34.882  29.318  1.00  0.00     0.054 A 
BRANCH  77  78
ATOM     78  S   UNL A   1      33.357  36.334  29.210  1.00  0.00     0.124 S 
ATOM     79  O   UNL A   1      33.267  36.765  30.601  1.00  0.00    -0.237 OA
ATOM     80  O   UNL A   1      34.095  37.225  28.318  1.00  0.00    -0.237 OA
ATOM     81  O   UNL A   1      32.122  35.793  28.642  1.00  0.00    -0.744 OA
ENDBRANCH  77  78
ENDBRANCH  49  72
BRANCH  61  82
ATOM     82  C   UNL A   1      42.623  32.417  30.039  1.00  0.00    -0.014 A 
ATOM     83  C   UNL A   1      42.915  31.273  29.275  1.00  0.00     0.010 A 
ATOM     84  C   UNL A   1      43.091  33.656  29.553  1.00  0.00     0.010 A 
ATOM     85  C   UNL A   1      43.627  31.359  28.071  1.00  0.00     0.020 A 
ATOM     86  C   UNL A   1      43.808  33.753  28.345  1.00  0.00     0.020 A 
ATOM     87  C   UNL A   1      44.064  32.598  27.605  1.00  0.00     0.054 A 
BRANCH  87  88
ATOM     88  S   UNL A   1      44.957  32.667  26.023  1.00  0.00     0.124 S 
ATOM     89  O   UNL A   1      45.878  33.784  26.221  1.00  0.00    -0.237 OA
ATOM     90  O   UNL A   1      45.582  31.349  25.958  1.00  0.00    -0.237 OA
ATOM     91  O   UNL A   1      43.906  32.903  25.035  1.00  0.00    -0.744 OA
ENDBRANCH  87  88
ENDBRANCH  61  82
ENDBRANCH  35  36
ENDBRANCH  27  30
ENDBRANCH  25  26
ENDBRANCH   1  25
TORSDOF 16
ENDMDL
MODEL 3
REMARK VINA RESULT:     -11.8      3.394      9.142
REMARK SMILES CC(=O)c1c[nH]c(C(=O)N[C@H]2C=C[C@H](C(=O)NCCCNC(=O)c3ccc(-c4c5nc(c(-c6ccc(S(=O)(=O)[O-])cc6)c6ccc([nH]6)c(-c6ccc(S(=O)(=O)[O-])cc6)c6nc(c(-c7ccc(S(=O)(=O)[O-])cc7)c7ccc4[nH]7)C=C6)C=C5)cc3)C2)c1
REMARK SMILES IDX 19 1 18 2 17 3 15 4 16 5 14 7 11 8 12 9 84 10 13 11 10 12
REMARK SMILES IDX 8 13 9 14 7 16 4 17 5 18 85 19 6 20 2 22 1 23 3 24 20 25
REMARK SMILES IDX 21 26 22 27 23 29 24 30 25 31 83 32 26 33 82 34 27 35 28 36
REMARK SMILES IDX 29 37 76 38 30 39 81 40 75 41 77 42 31 43 80 44 74 45 73 46
REMARK SMILES IDX 32 48 62 49 43 50 61 51 44 52 47 53 60 54 78 55 45 56 46 57
REMARK SMILES IDX 59 59 79 60 48 61 33 62 34 63 42 64 35 65 41 66 36 67 37 68
REMARK SMILES IDX 38 69 39 70 40 71 63 72 64 73 72 74 65 75 71 76 66 77 67 78
REMARK SMILES IDX 68 79 69 80 70 81 49 82 50 83 58 84 51 85 57 86 52 87 53 88
REMARK SMILES IDX 54 89 55 90 56 91
REMARK H PARENT 17 6 10 15 6 21 21 28 77 47 47 58
REMARK Flexibility Score: inf
ROOT
ATOM      1  C   UNL A   1      34.037  28.623  25.872  1.00  0.00     0.042 C 
ENDROOT
BRANCH   1   2
ATOM      2  C   UNL A   1      33.778  27.179  25.459  1.00  0.00     0.117 C 
BRANCH   2   3
ATOM      3  N   UNL A   1      33.913  26.947  24.037  1.00  0.00    -0.356 N 
ATOM      4  C   UNL A   1      33.895  25.766  23.356  1.00  0.00     0.227 C 
ATOM      5  O   UNL A   1      33.831  25.812  22.127  1.00  0.00    -0.274 OA
ATOM      6  H   UNL A   1      34.034  27.753  23.485  1.00  0.00     0.163 HD
BRANCH   4   7
ATOM      7  C   UNL A   1      33.993  24.436  24.119  1.00  0.00     0.103 C 
ATOM      8  C   UNL A   1      36.318  23.778  23.946  1.00  0.00     0.106 C 
ATOM      9  C   UNL A   1      35.457  22.866  23.136  1.00  0.00    -0.006 C 
ATOM     10  C   UNL A   1      35.301  24.369  24.929  1.00  0.00     0.047 C 
ATOM     11  C   UNL A   1      34.175  23.241  23.216  1.00  0.00    -0.016 C 
BRANCH   8  12
ATOM     12  N   UNL A   1      37.344  23.011  24.600  1.00  0.00    -0.345 N 
ATOM     13  C   UNL A   1      37.274  21.862  25.338  1.00  0.00     0.268 C 
ATOM     14  O   UNL A   1      38.303  21.521  25.928  1.00  0.00    -0.268 OA
ATOM     15  H   UNL A   1      38.252  23.377  24.500  1.00  0.00     0.164 HD
BRANCH  13  16
ATOM     16  C   UNL A   1      36.051  21.102  25.493  1.00  0.00     0.105 A 
ATOM     17  C   UNL A   1      34.177  19.793  25.360  1.00  0.00     0.035 A 
ATOM     18  C   UNL A   1      33.981  20.740  26.344  1.00  0.00     0.094 A 
ATOM     19  C   UNL A   1      35.520  19.960  24.913  1.00  0.00     0.045 A 
ATOM     20  N   UNL A   1      35.128  21.480  26.450  1.00  0.00    -0.356 N 
ATOM     21  H   UNL A   1      35.275  22.188  27.118  1.00  0.00     0.166 HD
BRANCH  17  22
ATOM     22  C   UNL A   1      33.218  18.810  24.857  1.00  0.00     0.161 C 
ATOM     23  C   UNL A   1      33.637  17.926  23.710  1.00  0.00     0.093 C 
ATOM     24  O   UNL A   1      32.128  18.649  25.400  1.00  0.00    -0.294 OA
ENDBRANCH  17  22
ENDBRANCH  13  16
ENDBRANCH   8  12
ENDBRANCH   4   7
ENDBRANCH   2   3
ENDBRANCH   1   2
BRANCH   1  25
ATOM     25  C   UNL A   1      34.742  28.755  27.215  1.00  0.00     0.118 C 
BRANCH  25  26
ATOM     26  N   UNL A   1      34.990  30.145  27.569  1.00  0.00    -0.352 N 
ATOM     27  C   UNL A   1      36.016  30.671  28.318  1.00  0.00     0.251 C 
ATOM     28  H   UNL A   1      34.336  30.795  27.227  1.00  0.00     0.163 HD
ATOM     29  O   UNL A   1      35.918  31.804  28.766  1.00  0.00    -0.269 OA
BRANCH  27  30
ATOM     30  C   UNL A   1      37.217  29.858  28.606  1.00  0.00     0.039 A 
ATOM     31  C   UNL A   1      38.309  29.953  27.736  1.00  0.00     0.014 A 
ATOM     32  C   UNL A   1      37.252  28.981  29.696  1.00  0.00     0.014 A 
ATOM     33  C   UNL A   1      39.463  29.221  28.002  1.00  0.00     0.010 A 
ATOM     34  C   UNL A   1      38.413  28.282  29.989  1.00  0.00     0.010 A 
ATOM     35  C   UNL A   1      39.519  28.411  29.146  1.00  0.00    -0.014 A 
BRANCH  35  36
ATOM     36  C   UNL A   1      40.806  27.798  29.533  1.00  0.00     0.031 A 
ATOM     37  C   UNL A   1      41.109  26.541  28.688  1.00  0.00     0.074 A 
ATOM     38  C   UNL A   1      41.479  28.407  30.558  1.00  0.00     0.049 A 
ATOM     39  N   UNL A   1      41.779  25.472  28.992  1.00  0.00    -0.248 NA
ATOM     40  C   UNL A   1      40.504  26.414  27.331  1.00  0.00     0.031 C 
ATOM     41  C   UNL A   1      41.050  29.662  31.226  1.00  0.00     0.029 A 
ATOM     42  N   UNL A   1      42.636  28.124  31.250  1.00  0.00    -0.354 N 
ATOM     43  C   UNL A   1      41.812  24.633  27.850  1.00  0.00     0.074 A 
ATOM     44  C   UNL A   1      40.930  25.226  26.891  1.00  0.00     0.031 C 
ATOM     45  C   UNL A   1      41.873  29.977  32.251  1.00  0.00     0.029 A 
ATOM     46  C   UNL A   1      42.910  28.971  32.358  1.00  0.00     0.049 A 
ATOM     47  H   UNL A   1      43.234  27.385  30.993  1.00  0.00     0.167 HD
ATOM     48  C   UNL A   1      42.651  23.559  27.727  1.00  0.00     0.031 A 
ATOM     49  C   UNL A   1      43.864  28.834  33.331  1.00  0.00     0.031 A 
ATOM     50  C   UNL A   1      43.400  23.396  28.925  1.00  0.00     0.049 A 
ATOM     51  C   UNL A   1      44.645  27.652  32.936  1.00  0.00     0.074 A 
ATOM     52  C   UNL A   1      43.067  22.958  30.181  1.00  0.00     0.029 A 
ATOM     53  N   UNL A   1      44.593  24.074  28.985  1.00  0.00    -0.354 N 
ATOM     54  N   UNL A   1      45.496  27.604  31.958  1.00  0.00    -0.248 NA
ATOM     55  C   UNL A   1      44.386  26.385  33.633  1.00  0.00     0.031 C 
ATOM     56  C   UNL A   1      43.788  23.833  31.023  1.00  0.00     0.029 A 
ATOM     57  C   UNL A   1      44.679  24.589  30.254  1.00  0.00     0.049 A 
ATOM     58  H   UNL A   1      45.253  24.171  28.262  1.00  0.00     0.167 HD
ATOM     59  C   UNL A   1      45.571  26.259  31.702  1.00  0.00     0.074 A 
ATOM     60  C   UNL A   1      45.159  25.580  32.911  1.00  0.00     0.031 C 
ATOM     61  C   UNL A   1      45.438  25.802  30.432  1.00  0.00     0.031 A 
BRANCH  48  62
ATOM     62  C   UNL A   1      43.079  22.724  26.545  1.00  0.00    -0.014 A 
ATOM     63  C   UNL A   1      42.547  21.408  26.460  1.00  0.00     0.010 A 
ATOM     64  C   UNL A   1      44.180  23.022  25.732  1.00  0.00     0.010 A 
ATOM     65  C   UNL A   1      43.165  20.403  25.713  1.00  0.00     0.020 A 
ATOM     66  C   UNL A   1      44.787  22.023  24.945  1.00  0.00     0.020 A 
ATOM     67  C   UNL A   1      44.305  20.710  24.983  1.00  0.00     0.054 A 
BRANCH  67  68
ATOM     68  S   UNL A   1      45.177  19.355  24.150  1.00  0.00     0.124 S 
ATOM     69  O   UNL A   1      46.572  19.770  24.259  1.00  0.00    -0.237 OA
ATOM     70  O   UNL A   1      44.806  18.196  24.960  1.00  0.00    -0.237 OA
ATOM     71  O   UNL A   1      44.618  19.365  22.800  1.00  0.00    -0.744 OA
ENDBRANCH  67  68
ENDBRANCH  48  62
BRANCH  49  72
ATOM     72  C   UNL A   1      44.201  29.419  34.686  1.00  0.00    -0.014 A 
ATOM     73  C   UNL A   1      43.302  29.921  35.635  1.00  0.00     0.010 A 
ATOM     74  C   UNL A   1      45.563  29.358  35.110  1.00  0.00     0.010 A 
ATOM     75  C   UNL A   1      43.717  30.185  36.966  1.00  0.00     0.020 A 
ATOM     76  C   UNL A   1      45.975  29.562  36.427  1.00  0.00     0.020 A 
ATOM     77  C   UNL A   1      45.038  29.948  37.366  1.00  0.00     0.054 A 
BRANCH  77  78
ATOM     78  S   UNL A   1      45.521  29.995  39.117  1.00  0.00     0.124 S 
ATOM     79  O   UNL A   1      44.295  30.443  39.771  1.00  0.00    -0.237 OA
ATOM     80  O   UNL A   1      45.911  28.613  39.382  1.00  0.00    -0.237 OA
ATOM     81  O   UNL A   1      46.626  30.954  39.139  1.00  0.00    -0.744 OA
ENDBRANCH  77  78
ENDBRANCH  49  72
BRANCH  61  82
ATOM     82  C   UNL A   1      45.770  26.798  29.331  1.00  0.00    -0.014 A 
ATOM     83  C   UNL A   1      44.723  27.475  28.682  1.00  0.00     0.010 A 
ATOM     84  C   UNL A   1      47.081  27.048  28.875  1.00  0.00     0.010 A 
ATOM     85  C   UNL A   1      44.969  28.375  27.636  1.00  0.00     0.020 A 
ATOM     86  C   UNL A   1      47.341  27.948  27.824  1.00  0.00     0.020 A 
ATOM     87  C   UNL A   1      46.277  28.615  27.215  1.00  0.00     0.054 A 
BRANCH  87  88
ATOM     88  S   UNL A   1      46.554  29.812  25.875  1.00  0.00     0.124 S 
ATOM     89  O   UNL A   1      47.856  30.381  26.215  1.00  0.00    -0.237 OA
ATOM     90  O   UNL A   1      46.536  28.962  24.688  1.00  0.00    -0.237 OA
ATOM     91  O   UNL A   1      45.428  30.737  25.992  1.00  0.00    -0.744 OA
ENDBRANCH  87  88
ENDBRANCH  61  82
ENDBRANCH  35  36
ENDBRANCH  27  30
ENDBRANCH  25  26
ENDBRANCH   1  25
TORSDOF 16
ENDMDL
