MODEL 1
REMARK VINA RESULT:     -10.3      0.000      0.000
REMARK SMILES C[C@@H](C(=O)NCCCNC(=O)c1ccc(-c2c3nc(c(-c4ccc(S(=O)(=O)[O-])cc4)c4ccc([nH]4)c(-c4ccc(S(=O)(=O)[O-])cc4)c4nc(c(-c5ccc(S(=O)(=O)[O-])cc5)c5ccc2[nH]5)C=C4)C=C3)cc1)c1ccc(-c2ccn(C(F)F)c(=O)c2)cc1
REMARK SMILES IDX 7 1 6 2 5 3 3 4 4 5 2 7 1 8 72 9 73 10 87 11 74 12 86 13
REMARK SMILES IDX 75 14 76 15 77 16 85 17 78 18 83 19 79 20 84 21 80 22 81 23
REMARK SMILES IDX 82 24 8 25 9 26 10 27 11 29 12 30 13 31 71 32 14 33 70 34
REMARK SMILES IDX 15 35 16 36 17 37 64 38 18 39 69 40 63 41 65 42 19 43 68 44
REMARK SMILES IDX 62 45 61 46 20 48 50 49 31 50 49 51 32 52 35 53 48 54 66 55
REMARK SMILES IDX 33 56 34 57 47 59 67 60 36 61 21 62 22 63 30 64 23 65 29 66
REMARK SMILES IDX 24 67 25 68 26 69 27 70 28 71 51 72 52 73 60 74 53 75 59 76
REMARK SMILES IDX 54 77 55 78 56 79 57 80 58 81 37 82 38 83 46 84 39 85 45 86
REMARK SMILES IDX 40 87 41 88 42 89 43 90 44 91
REMARK H PARENT 5 6 9 28 65 47 35 58
REMARK Flexibility Score: inf
ROOT
ATOM      1  C   UNL A   1      34.570  34.487  28.121  1.00  0.00     0.042 C 
ENDROOT
BRANCH   1   2
ATOM      2  C   UNL A   1      33.239  34.904  28.742  1.00  0.00     0.117 C 
BRANCH   2   3
ATOM      3  N   UNL A   1      33.315  36.217  29.353  1.00  0.00    -0.356 N 
ATOM      4  C   UNL A   1      33.111  36.617  30.640  1.00  0.00     0.227 C 
ATOM      5  O   UNL A   1      33.199  37.829  30.853  1.00  0.00    -0.274 OA
ATOM      6  H   UNL A   1      33.553  36.944  28.732  1.00  0.00     0.163 HD
BRANCH   4   7
ATOM      7  C   UNL A   1      32.829  35.576  31.738  1.00  0.00     0.105 C 
ATOM      8  C   UNL A   1      32.256  36.208  33.008  1.00  0.00     0.023 C 
BRANCH   7   9
ATOM      9  C   UNL A   1      34.052  34.744  32.118  1.00  0.00    -0.036 A 
ATOM     10  C   UNL A   1      35.237  35.348  32.563  1.00  0.00     0.005 A 
ATOM     11  C   UNL A   1      33.982  33.344  32.092  1.00  0.00     0.005 A 
ATOM     12  C   UNL A   1      36.329  34.578  32.966  1.00  0.00     0.009 A 
ATOM     13  C   UNL A   1      35.070  32.571  32.506  1.00  0.00     0.009 A 
ATOM     14  C   UNL A   1      36.249  33.182  32.953  1.00  0.00    -0.018 A 
BRANCH  14  15
ATOM     15  C   UNL A   1      37.377  32.354  33.419  1.00  0.00    -0.011 A 
ATOM     16  C   UNL A   1      38.563  32.919  34.031  1.00  0.00     0.027 A 
ATOM     17  C   UNL A   1      37.307  31.024  33.231  1.00  0.00     0.080 A 
ATOM     18  C   UNL A   1      39.588  32.132  34.379  1.00  0.00     0.095 A 
ATOM     19  C   UNL A   1      38.432  30.135  33.626  1.00  0.00     0.255 A 
ATOM     20  N   UNL A   1      39.537  30.765  34.177  1.00  0.00    -0.258 N 
ATOM     21  O   UNL A   1      38.323  28.928  33.435  1.00  0.00    -0.269 OA
BRANCH  20  22
ATOM     22  C   UNL A   1      40.655  29.931  34.524  1.00  0.00     0.451 C 
ATOM     23  F   UNL A   1      41.163  29.305  33.435  1.00  0.00    -0.185 F 
ATOM     24  F   UNL A   1      41.649  30.659  35.091  1.00  0.00    -0.185 F 
ENDBRANCH  20  22
ENDBRANCH  14  15
ENDBRANCH   7   9
ENDBRANCH   4   7
ENDBRANCH   2   3
ENDBRANCH   1   2
BRANCH   1  25
ATOM     25  C   UNL A   1      35.039  33.091  28.517  1.00  0.00     0.118 C 
BRANCH  25  26
ATOM     26  N   UNL A   1      34.148  32.041  28.045  1.00  0.00    -0.352 N 
ATOM     27  C   UNL A   1      34.425  30.717  27.798  1.00  0.00     0.251 C 
ATOM     28  H   UNL A   1      33.218  32.317  27.882  1.00  0.00     0.163 HD
ATOM     29  O   UNL A   1      33.588  30.010  27.243  1.00  0.00    -0.269 OA
BRANCH  27  30
ATOM     30  C   UNL A   1      35.740  30.158  28.177  1.00  0.00     0.039 A 
ATOM     31  C   UNL A   1      36.759  30.105  27.222  1.00  0.00     0.014 A 
ATOM     32  C   UNL A   1      35.967  29.702  29.478  1.00  0.00     0.014 A 
ATOM     33  C   UNL A   1      38.032  29.663  27.592  1.00  0.00     0.010 A 
ATOM     34  C   UNL A   1      37.251  29.330  29.861  1.00  0.00     0.010 A 
ATOM     35  C   UNL A   1      38.297  29.309  28.925  1.00  0.00    -0.014 A 
BRANCH  35  36
ATOM     36  C   UNL A   1      39.651  28.909  29.383  1.00  0.00     0.031 A 
ATOM     37  C   UNL A   1      40.520  29.906  30.095  1.00  0.00     0.074 A 
ATOM     38  C   UNL A   1      40.144  27.699  29.050  1.00  0.00     0.049 A 
ATOM     39  N   UNL A   1      41.790  29.827  30.403  1.00  0.00    -0.248 NA
ATOM     40  C   UNL A   1      39.883  31.176  30.476  1.00  0.00     0.031 C 
ATOM     41  C   UNL A   1      39.413  26.654  28.334  1.00  0.00     0.029 A 
ATOM     42  N   UNL A   1      41.393  27.161  29.242  1.00  0.00    -0.354 N 
ATOM     43  C   UNL A   1      42.112  31.051  30.978  1.00  0.00     0.074 A 
ATOM     44  C   UNL A   1      40.915  31.863  30.944  1.00  0.00     0.031 C 
ATOM     45  C   UNL A   1      40.227  25.602  28.142  1.00  0.00     0.029 A 
ATOM     46  C   UNL A   1      41.548  25.917  28.678  1.00  0.00     0.049 A 
ATOM     47  H   UNL A   1      42.109  27.623  29.737  1.00  0.00     0.167 HD
ATOM     48  C   UNL A   1      43.297  31.459  31.492  1.00  0.00     0.031 A 
ATOM     49  C   UNL A   1      42.636  25.129  28.575  1.00  0.00     0.031 A 
ATOM     50  C   UNL A   1      44.480  30.643  31.533  1.00  0.00     0.049 A 
ATOM     51  C   UNL A   1      43.940  25.591  29.160  1.00  0.00     0.074 A 
ATOM     52  C   UNL A   1      45.715  30.942  32.083  1.00  0.00     0.029 A 
ATOM     53  N   UNL A   1      44.577  29.366  30.999  1.00  0.00    -0.354 N 
ATOM     54  N   UNL A   1      44.218  26.732  29.746  1.00  0.00    -0.248 NA
ATOM     55  C   UNL A   1      45.076  24.662  29.080  1.00  0.00     0.031 C 
ATOM     56  C   UNL A   1      46.570  29.862  31.844  1.00  0.00     0.029 A 
ATOM     57  C   UNL A   1      45.854  28.869  31.192  1.00  0.00     0.049 A 
ATOM     58  H   UNL A   1      43.846  28.885  30.549  1.00  0.00     0.167 HD
ATOM     59  C   UNL A   1      45.551  26.646  30.130  1.00  0.00     0.074 A 
ATOM     60  C   UNL A   1      46.025  25.343  29.710  1.00  0.00     0.031 C 
ATOM     61  C   UNL A   1      46.309  27.566  30.776  1.00  0.00     0.031 A 
BRANCH  48  62
ATOM     62  C   UNL A   1      43.363  32.866  32.025  1.00  0.00    -0.014 A 
ATOM     63  C   UNL A   1      43.744  33.941  31.201  1.00  0.00     0.010 A 
ATOM     64  C   UNL A   1      43.058  33.115  33.375  1.00  0.00     0.010 A 
ATOM     65  C   UNL A   1      43.891  35.224  31.735  1.00  0.00     0.020 A 
ATOM     66  C   UNL A   1      43.175  34.402  33.906  1.00  0.00     0.020 A 
ATOM     67  C   UNL A   1      43.621  35.443  33.089  1.00  0.00     0.054 A 
BRANCH  67  68
ATOM     68  S   UNL A   1      43.854  37.108  33.767  1.00  0.00     0.124 S 
ATOM     69  O   UNL A   1      42.495  37.458  34.171  1.00  0.00    -0.237 OA
ATOM     70  O   UNL A   1      44.796  36.884  34.861  1.00  0.00    -0.237 OA
ATOM     71  O   UNL A   1      44.384  37.870  32.639  1.00  0.00    -0.744 OA
ENDBRANCH  67  68
ENDBRANCH  48  62
BRANCH  49  72
ATOM     72  C   UNL A   1      42.516  23.815  27.889  1.00  0.00    -0.014 A 
ATOM     73  C   UNL A   1      43.000  23.648  26.580  1.00  0.00     0.010 A 
ATOM     74  C   UNL A   1      41.986  22.703  28.571  1.00  0.00     0.010 A 
ATOM     75  C   UNL A   1      42.970  22.391  25.970  1.00  0.00     0.020 A 
ATOM     76  C   UNL A   1      41.974  21.441  27.972  1.00  0.00     0.020 A 
ATOM     77  C   UNL A   1      42.466  21.292  26.674  1.00  0.00     0.054 A 
BRANCH  77  78
ATOM     78  S   UNL A   1      42.537  19.651  25.901  1.00  0.00     0.124 S 
ATOM     79  O   UNL A   1      41.171  19.483  25.417  1.00  0.00    -0.237 OA
ATOM     80  O   UNL A   1      43.558  19.831  24.871  1.00  0.00    -0.237 OA
ATOM     81  O   UNL A   1      42.926  18.773  27.004  1.00  0.00    -0.744 OA
ENDBRANCH  77  78
ENDBRANCH  49  72
BRANCH  61  82
ATOM     82  C   UNL A   1      47.726  27.192  31.118  1.00  0.00    -0.014 A 
ATOM     83  C   UNL A   1      48.017  26.353  32.207  1.00  0.00     0.010 A 
ATOM     84  C   UNL A   1      48.769  27.602  30.267  1.00  0.00     0.010 A 
ATOM     85  C   UNL A   1      49.329  25.931  32.439  1.00  0.00     0.020 A 
ATOM     86  C   UNL A   1      50.078  27.166  30.484  1.00  0.00     0.020 A 
ATOM     87  C   UNL A   1      50.351  26.335  31.572  1.00  0.00     0.054 A 
BRANCH  87  88
ATOM     88  S   UNL A   1      52.029  25.701  31.842  1.00  0.00     0.124 S 
ATOM     89  O   UNL A   1      51.772  24.321  32.244  1.00  0.00    -0.237 OA
ATOM     90  O   UNL A   1      52.651  25.869  30.531  1.00  0.00    -0.237 OA
ATOM     91  O   UNL A   1      52.561  26.567  32.892  1.00  0.00    -0.744 OA
ENDBRANCH  87  88
ENDBRANCH  61  82
ENDBRANCH  35  36
ENDBRANCH  27  30
ENDBRANCH  25  26
ENDBRANCH   1  25
TORSDOF 16
ENDMDL
MODEL 2
REMARK VINA RESULT:     -10.2      1.986      3.501
REMARK SMILES C[C@@H](C(=O)NCCCNC(=O)c1ccc(-c2c3nc(c(-c4ccc(S(=O)(=O)[O-])cc4)c4ccc([nH]4)c(-c4ccc(S(=O)(=O)[O-])cc4)c4nc(c(-c5ccc(S(=O)(=O)[O-])cc5)c5ccc2[nH]5)C=C4)C=C3)cc1)c1ccc(-c2ccn(C(F)F)c(=O)c2)cc1
REMARK SMILES IDX 7 1 6 2 5 3 3 4 4 5 2 7 1 8 72 9 73 10 87 11 74 12 86 13
REMARK SMILES IDX 75 14 76 15 77 16 85 17 78 18 83 19 79 20 84 21 80 22 81 23
REMARK SMILES IDX 82 24 8 25 9 26 10 27 11 29 12 30 13 31 71 32 14 33 70 34
REMARK SMILES IDX 15 35 16 36 17 37 64 38 18 39 69 40 63 41 65 42 19 43 68 44
REMARK SMILES IDX 62 45 61 46 20 48 50 49 31 50 49 51 32 52 35 53 48 54 66 55
REMARK SMILES IDX 33 56 34 57 47 59 67 60 36 61 21 62 22 63 30 64 23 65 29 66
REMARK SMILES IDX 24 67 25 68 26 69 27 70 28 71 51 72 52 73 60 74 53 75 59 76
REMARK SMILES IDX 54 77 55 78 56 79 57 80 58 81 37 82 38 83 46 84 39 85 45 86
REMARK SMILES IDX 40 87 41 88 42 89 43 90 44 91
REMARK H PARENT 5 6 9 28 65 47 35 58
REMARK Flexibility Score: inf
ROOT
ATOM      1  C   UNL A   1      34.905  33.120  30.518  1.00  0.00     0.042 C 
ENDROOT
BRANCH   1   2
ATOM      2  C   UNL A   1      35.854  32.384  31.460  1.00  0.00     0.117 C 
BRANCH   2   3
ATOM      3  N   UNL A   1      37.138  33.050  31.562  1.00  0.00    -0.356 N 
ATOM      4  C   UNL A   1      38.130  32.942  32.491  1.00  0.00     0.227 C 
ATOM      5  O   UNL A   1      39.102  33.686  32.338  1.00  0.00    -0.274 OA
ATOM      6  H   UNL A   1      37.327  33.690  30.837  1.00  0.00     0.163 HD
BRANCH   4   7
ATOM      7  C   UNL A   1      38.016  31.910  33.627  1.00  0.00     0.105 C 
ATOM      8  C   UNL A   1      38.019  32.563  35.011  1.00  0.00     0.023 C 
BRANCH   7   9
ATOM      9  C   UNL A   1      39.107  30.841  33.591  1.00  0.00    -0.036 A 
ATOM     10  C   UNL A   1      40.384  31.082  34.121  1.00  0.00     0.005 A 
ATOM     11  C   UNL A   1      38.822  29.566  33.083  1.00  0.00     0.005 A 
ATOM     12  C   UNL A   1      41.354  30.079  34.139  1.00  0.00     0.009 A 
ATOM     13  C   UNL A   1      39.789  28.558  33.110  1.00  0.00     0.009 A 
ATOM     14  C   UNL A   1      41.060  28.805  33.645  1.00  0.00    -0.018 A 
BRANCH  14  15
ATOM     15  C   UNL A   1      42.060  27.722  33.698  1.00  0.00    -0.011 A 
ATOM     16  C   UNL A   1      43.091  27.557  32.693  1.00  0.00     0.027 A 
ATOM     17  C   UNL A   1      41.980  26.836  34.706  1.00  0.00     0.080 A 
ATOM     18  C   UNL A   1      43.936  26.521  32.750  1.00  0.00     0.095 A 
ATOM     19  C   UNL A   1      42.921  25.686  34.791  1.00  0.00     0.255 A 
ATOM     20  N   UNL A   1      43.855  25.593  33.771  1.00  0.00    -0.258 N 
ATOM     21  O   UNL A   1      42.811  24.903  35.729  1.00  0.00    -0.269 OA
BRANCH  20  22
ATOM     22  C   UNL A   1      44.746  24.464  33.807  1.00  0.00     0.451 C 
ATOM     23  F   UNL A   1      44.499  23.606  32.787  1.00  0.00    -0.185 F 
ATOM     24  F   UNL A   1      46.040  24.861  33.719  1.00  0.00    -0.185 F 
ENDBRANCH  20  22
ENDBRANCH  14  15
ENDBRANCH   7   9
ENDBRANCH   4   7
ENDBRANCH   2   3
ENDBRANCH   1   2
BRANCH   1  25
ATOM     25  C   UNL A   1      35.201  32.910  29.037  1.00  0.00     0.118 C 
BRANCH  25  26
ATOM     26  N   UNL A   1      34.329  31.921  28.420  1.00  0.00    -0.352 N 
ATOM     27  C   UNL A   1      34.633  30.658  27.971  1.00  0.00     0.251 C 
ATOM     28  H   UNL A   1      33.390  32.195  28.310  1.00  0.00     0.163 HD
ATOM     29  O   UNL A   1      33.805  30.022  27.324  1.00  0.00    -0.269 OA
BRANCH  27  30
ATOM     30  C   UNL A   1      35.966  30.081  28.246  1.00  0.00     0.039 A 
ATOM     31  C   UNL A   1      36.959  30.160  27.266  1.00  0.00     0.014 A 
ATOM     32  C   UNL A   1      36.236  29.478  29.477  1.00  0.00     0.014 A 
ATOM     33  C   UNL A   1      38.248  29.701  27.548  1.00  0.00     0.010 A 
ATOM     34  C   UNL A   1      37.535  29.087  29.780  1.00  0.00     0.010 A 
ATOM     35  C   UNL A   1      38.555  29.196  28.821  1.00  0.00    -0.014 A 
BRANCH  35  36
ATOM     36  C   UNL A   1      39.927  28.768  29.193  1.00  0.00     0.031 A 
ATOM     37  C   UNL A   1      40.880  29.764  29.792  1.00  0.00     0.074 A 
ATOM     38  C   UNL A   1      40.356  27.530  28.876  1.00  0.00     0.049 A 
ATOM     39  N   UNL A   1      42.165  29.654  30.007  1.00  0.00    -0.248 NA
ATOM     40  C   UNL A   1      40.313  31.070  30.165  1.00  0.00     0.031 C 
ATOM     41  C   UNL A   1      39.539  26.481  28.264  1.00  0.00     0.029 A 
ATOM     42  N   UNL A   1      41.598  26.958  28.997  1.00  0.00    -0.354 N 
ATOM     43  C   UNL A   1      42.569  30.888  30.502  1.00  0.00     0.074 A 
ATOM     44  C   UNL A   1      41.399  31.739  30.524  1.00  0.00     0.031 C 
ATOM     45  C   UNL A   1      40.302  25.395  28.057  1.00  0.00     0.029 A 
ATOM     46  C   UNL A   1      41.670  25.687  28.477  1.00  0.00     0.049 A 
ATOM     47  H   UNL A   1      42.364  27.414  29.416  1.00  0.00     0.167 HD
ATOM     48  C   UNL A   1      43.802  31.276  30.907  1.00  0.00     0.031 A 
ATOM     49  C   UNL A   1      42.721  24.858  28.328  1.00  0.00     0.031 A 
ATOM     50  C   UNL A   1      44.959  30.422  30.894  1.00  0.00     0.049 A 
ATOM     51  C   UNL A   1      44.081  25.298  28.792  1.00  0.00     0.074 A 
ATOM     52  C   UNL A   1      46.241  30.701  31.336  1.00  0.00     0.029 A 
ATOM     53  N   UNL A   1      44.975  29.122  30.411  1.00  0.00    -0.354 N 
ATOM     54  N   UNL A   1      44.438  26.452  29.305  1.00  0.00    -0.248 NA
ATOM     55  C   UNL A   1      45.177  24.328  28.666  1.00  0.00     0.031 C 
ATOM     56  C   UNL A   1      47.042  29.582  31.081  1.00  0.00     0.029 A 
ATOM     57  C   UNL A   1      46.247  28.589  30.528  1.00  0.00     0.049 A 
ATOM     58  H   UNL A   1      44.197  28.648  30.039  1.00  0.00     0.167 HD
ATOM     59  C   UNL A   1      45.794  26.336  29.590  1.00  0.00     0.074 A 
ATOM     60  C   UNL A   1      46.193  25.002  29.193  1.00  0.00     0.031 C 
ATOM     61  C   UNL A   1      46.628  27.255  30.137  1.00  0.00     0.031 A 
BRANCH  48  62
ATOM     62  C   UNL A   1      43.953  32.700  31.371  1.00  0.00    -0.014 A 
ATOM     63  C   UNL A   1      43.562  33.093  32.665  1.00  0.00     0.010 A 
ATOM     64  C   UNL A   1      44.478  33.667  30.494  1.00  0.00     0.010 A 
ATOM     65  C   UNL A   1      43.622  34.435  33.046  1.00  0.00     0.020 A 
ATOM     66  C   UNL A   1      44.568  35.006  30.882  1.00  0.00     0.020 A 
ATOM     67  C   UNL A   1      44.110  35.386  32.145  1.00  0.00     0.054 A 
BRANCH  67  68
ATOM     68  S   UNL A   1      44.144  37.128  32.648  1.00  0.00     0.124 S 
ATOM     69  O   UNL A   1      43.120  37.158  33.689  1.00  0.00    -0.237 OA
ATOM     70  O   UNL A   1      45.518  37.305  33.115  1.00  0.00    -0.237 OA
ATOM     71  O   UNL A   1      43.809  37.849  31.423  1.00  0.00    -0.744 OA
ENDBRANCH  67  68
ENDBRANCH  48  62
BRANCH  49  72
ATOM     72  C   UNL A   1      42.508  23.522  27.710  1.00  0.00    -0.014 A 
ATOM     73  C   UNL A   1      42.944  23.265  26.399  1.00  0.00     0.010 A 
ATOM     74  C   UNL A   1      41.938  22.475  28.461  1.00  0.00     0.010 A 
ATOM     75  C   UNL A   1      42.825  21.984  25.852  1.00  0.00     0.020 A 
ATOM     76  C   UNL A   1      41.837  21.189  27.925  1.00  0.00     0.020 A 
ATOM     77  C   UNL A   1      42.282  20.951  26.623  1.00  0.00     0.054 A 
BRANCH  77  78
ATOM     78  S   UNL A   1      42.238  19.273  25.930  1.00  0.00     0.124 S 
ATOM     79  O   UNL A   1      40.814  19.088  25.670  1.00  0.00    -0.237 OA
ATOM     80  O   UNL A   1      43.088  19.398  24.749  1.00  0.00    -0.237 OA
ATOM     81  O   UNL A   1      42.794  18.449  27.002  1.00  0.00    -0.744 OA
ENDBRANCH  77  78
ENDBRANCH  49  72
BRANCH  61  82
ATOM     82  C   UNL A   1      48.054  26.847  30.386  1.00  0.00    -0.014 A 
ATOM     83  C   UNL A   1      49.078  27.187  29.487  1.00  0.00     0.010 A 
ATOM     84  C   UNL A   1      48.384  26.206  31.595  1.00  0.00     0.010 A 
ATOM     85  C   UNL A   1      50.410  26.893  29.793  1.00  0.00     0.020 A 
ATOM     86  C   UNL A   1      49.716  25.929  31.914  1.00  0.00     0.020 A 
ATOM     87  C   UNL A   1      50.721  26.271  31.008  1.00  0.00     0.054 A 
BRANCH  87  88
ATOM     88  S   UNL A   1      52.464  25.983  31.422  1.00  0.00     0.124 S 
ATOM     89  O   UNL A   1      52.741  27.076  32.350  1.00  0.00    -0.237 OA
ATOM     90  O   UNL A   1      52.437  24.647  32.013  1.00  0.00    -0.237 OA
ATOM     91  O   UNL A   1      53.145  26.073  30.132  1.00  0.00    -0.744 OA
ENDBRANCH  87  88
ENDBRANCH  61  82
ENDBRANCH  35  36
ENDBRANCH  27  30
ENDBRANCH  25  26
ENDBRANCH   1  25
TORSDOF 16
ENDMDL
MODEL 3
REMARK VINA RESULT:     -10.2      5.090      7.719
REMARK SMILES C[C@@H](C(=O)NCCCNC(=O)c1ccc(-c2c3nc(c(-c4ccc(S(=O)(=O)[O-])cc4)c4ccc([nH]4)c(-c4ccc(S(=O)(=O)[O-])cc4)c4nc(c(-c5ccc(S(=O)(=O)[O-])cc5)c5ccc2[nH]5)C=C4)C=C3)cc1)c1ccc(-c2ccn(C(F)F)c(=O)c2)cc1
REMARK SMILES IDX 7 1 6 2 5 3 3 4 4 5 2 7 1 8 72 9 73 10 87 11 74 12 86 13
REMARK SMILES IDX 75 14 76 15 77 16 85 17 78 18 83 19 79 20 84 21 80 22 81 23
REMARK SMILES IDX 82 24 8 25 9 26 10 27 11 29 12 30 13 31 71 32 14 33 70 34
REMARK SMILES IDX 15 35 16 36 17 37 64 38 18 39 69 40 63 41 65 42 19 43 68 44
REMARK SMILES IDX 62 45 61 46 20 48 50 49 31 50 49 51 32 52 35 53 48 54 66 55
REMARK SMILES IDX 33 56 34 57 47 59 67 60 36 61 21 62 22 63 30 64 23 65 29 66
REMARK SMILES IDX 24 67 25 68 26 69 27 70 28 71 51 72 52 73 60 74 53 75 59 76
REMARK SMILES IDX 54 77 55 78 56 79 57 80 58 81 37 82 38 83 46 84 39 85 45 86
REMARK SMILES IDX 40 87 41 88 42 89 43 90 44 91
REMARK H PARENT 5 6 9 28 65 47 35 58
REMARK Flexibility Score: inf
ROOT
ATOM      1  C   UNL A   1      32.344  28.054  26.666  1.00  0.00     0.042 C 
ENDROOT
BRANCH   1   2
ATOM      2  C   UNL A   1      31.788  28.766  25.436  1.00  0.00     0.117 C 
BRANCH   2   3
ATOM      3  N   UNL A   1      30.821  27.949  24.730  1.00  0.00    -0.356 N 
ATOM      4  C   UNL A   1      30.992  26.910  23.864  1.00  0.00     0.227 C 
ATOM      5  O   UNL A   1      29.964  26.436  23.375  1.00  0.00    -0.274 OA
ATOM      6  H   UNL A   1      29.880  28.185  24.904  1.00  0.00     0.163 HD
BRANCH   4   7
ATOM      7  C   UNL A   1      32.403  26.369  23.574  1.00  0.00     0.105 C 
ATOM      8  C   UNL A   1      32.884  26.719  22.164  1.00  0.00     0.023 C 
BRANCH   7   9
ATOM      9  C   UNL A   1      32.528  24.859  23.770  1.00  0.00    -0.036 A 
ATOM     10  C   UNL A   1      32.277  24.261  25.015  1.00  0.00     0.005 A 
ATOM     11  C   UNL A   1      32.833  24.033  22.679  1.00  0.00     0.005 A 
ATOM     12  C   UNL A   1      32.334  22.875  25.170  1.00  0.00     0.009 A 
ATOM     13  C   UNL A   1      32.879  22.645  22.831  1.00  0.00     0.009 A 
ATOM     14  C   UNL A   1      32.623  22.055  24.076  1.00  0.00    -0.018 A 
BRANCH  14  15
ATOM     15  C   UNL A   1      32.643  20.587  24.213  1.00  0.00    -0.011 A 
ATOM     16  C   UNL A   1      32.895  19.921  25.475  1.00  0.00     0.027 A 
ATOM     17  C   UNL A   1      32.452  19.845  23.108  1.00  0.00     0.080 A 
ATOM     18  C   UNL A   1      32.967  18.586  25.537  1.00  0.00     0.095 A 
ATOM     19  C   UNL A   1      32.514  18.359  23.163  1.00  0.00     0.255 A 
ATOM     20  N   UNL A   1      32.789  17.811  24.406  1.00  0.00    -0.258 N 
ATOM     21  O   UNL A   1      32.333  17.724  22.129  1.00  0.00    -0.269 OA
BRANCH  20  22
ATOM     22  C   UNL A   1      32.899  16.379  24.475  1.00  0.00     0.451 C 
ATOM     23  F   UNL A   1      33.978  15.932  23.788  1.00  0.00    -0.185 F 
ATOM     24  F   UNL A   1      33.016  15.960  25.760  1.00  0.00    -0.185 F 
ENDBRANCH  20  22
ENDBRANCH  14  15
ENDBRANCH   7   9
ENDBRANCH   4   7
ENDBRANCH   2   3
ENDBRANCH   1   2
BRANCH   1  25
ATOM     25  C   UNL A   1      33.703  28.569  27.130  1.00  0.00     0.118 C 
BRANCH  25  26
ATOM     26  N   UNL A   1      33.680  29.979  27.491  1.00  0.00    -0.352 N 
ATOM     27  C   UNL A   1      34.636  30.722  28.143  1.00  0.00     0.251 C 
ATOM     28  H   UNL A   1      32.868  30.469  27.230  1.00  0.00     0.163 HD
ATOM     29  O   UNL A   1      34.378  31.864  28.512  1.00  0.00    -0.269 OA
BRANCH  27  30
ATOM     30  C   UNL A   1      35.963  30.131  28.420  1.00  0.00     0.039 A 
ATOM     31  C   UNL A   1      36.915  30.083  27.397  1.00  0.00     0.014 A 
ATOM     32  C   UNL A   1      36.269  29.643  29.692  1.00  0.00     0.014 A 
ATOM     33  C   UNL A   1      38.202  29.612  27.671  1.00  0.00     0.010 A 
ATOM     34  C   UNL A   1      37.568  29.240  29.980  1.00  0.00     0.010 A 
ATOM     35  C   UNL A   1      38.549  29.223  28.975  1.00  0.00    -0.014 A 
BRANCH  35  36
ATOM     36  C   UNL A   1      39.922  28.789  29.332  1.00  0.00     0.031 A 
ATOM     37  C   UNL A   1      40.881  29.776  29.937  1.00  0.00     0.074 A 
ATOM     38  C   UNL A   1      40.347  27.554  28.998  1.00  0.00     0.049 A 
ATOM     39  N   UNL A   1      42.168  29.662  30.141  1.00  0.00    -0.248 NA
ATOM     40  C   UNL A   1      40.319  31.078  30.329  1.00  0.00     0.031 C 
ATOM     41  C   UNL A   1      39.525  26.514  28.379  1.00  0.00     0.029 A 
ATOM     42  N   UNL A   1      41.590  26.979  29.104  1.00  0.00    -0.354 N 
ATOM     43  C   UNL A   1      42.577  30.890  30.648  1.00  0.00     0.074 A 
ATOM     44  C   UNL A   1      41.408  31.742  30.688  1.00  0.00     0.031 C 
ATOM     45  C   UNL A   1      40.285  25.429  28.154  1.00  0.00     0.029 A 
ATOM     46  C   UNL A   1      41.657  25.714  28.568  1.00  0.00     0.049 A 
ATOM     47  H   UNL A   1      42.359  27.430  29.522  1.00  0.00     0.167 HD
ATOM     48  C   UNL A   1      43.813  31.272  31.049  1.00  0.00     0.031 A 
ATOM     49  C   UNL A   1      42.706  24.886  28.401  1.00  0.00     0.031 A 
ATOM     50  C   UNL A   1      44.969  30.417  31.017  1.00  0.00     0.049 A 
ATOM     51  C   UNL A   1      44.069  25.319  28.861  1.00  0.00     0.074 A 
ATOM     52  C   UNL A   1      46.254  30.689  31.453  1.00  0.00     0.029 A 
ATOM     53  N   UNL A   1      44.979  29.122  30.518  1.00  0.00    -0.354 N 
ATOM     54  N   UNL A   1      44.431  26.466  29.385  1.00  0.00    -0.248 NA
ATOM     55  C   UNL A   1      45.163  24.349  28.717  1.00  0.00     0.031 C 
ATOM     56  C   UNL A   1      47.051  29.572  31.179  1.00  0.00     0.029 A 
ATOM     57  C   UNL A   1      46.251  28.587  30.621  1.00  0.00     0.049 A 
ATOM     58  H   UNL A   1      44.198  28.654  30.147  1.00  0.00     0.167 HD
ATOM     59  C   UNL A   1      45.789  26.346  29.659  1.00  0.00     0.074 A 
ATOM     60  C   UNL A   1      46.183  25.015  29.244  1.00  0.00     0.031 C 
ATOM     61  C   UNL A   1      46.627  27.256  30.211  1.00  0.00     0.031 A 
BRANCH  48  62
ATOM     62  C   UNL A   1      43.969  32.690  31.528  1.00  0.00    -0.014 A 
ATOM     63  C   UNL A   1      44.288  33.732  30.637  1.00  0.00     0.010 A 
ATOM     64  C   UNL A   1      43.814  32.985  32.895  1.00  0.00     0.010 A 
ATOM     65  C   UNL A   1      44.522  35.024  31.113  1.00  0.00     0.020 A 
ATOM     66  C   UNL A   1      44.017  34.283  33.371  1.00  0.00     0.020 A 
ATOM     67  C   UNL A   1      44.400  35.288  32.481  1.00  0.00     0.054 A 
BRANCH  67  68
ATOM     68  S   UNL A   1      44.744  36.964  33.080  1.00  0.00     0.124 S 
ATOM     69  O   UNL A   1      43.436  37.601  32.951  1.00  0.00    -0.237 OA
ATOM     70  O   UNL A   1      45.196  36.733  34.450  1.00  0.00    -0.237 OA
ATOM     71  O   UNL A   1      45.769  37.456  32.164  1.00  0.00    -0.744 OA
ENDBRANCH  67  68
ENDBRANCH  48  62
BRANCH  49  72
ATOM     72  C   UNL A   1      42.486  23.557  27.770  1.00  0.00    -0.014 A 
ATOM     73  C   UNL A   1      42.933  23.308  26.461  1.00  0.00     0.010 A 
ATOM     74  C   UNL A   1      41.898  22.510  28.505  1.00  0.00     0.010 A 
ATOM     75  C   UNL A   1      42.808  22.033  25.901  1.00  0.00     0.020 A 
ATOM     76  C   UNL A   1      41.791  21.229  27.956  1.00  0.00     0.020 A 
ATOM     77  C   UNL A   1      42.247  20.998  26.657  1.00  0.00     0.054 A 
BRANCH  77  78
ATOM     78  S   UNL A   1      42.195  19.327  25.949  1.00  0.00     0.124 S 
ATOM     79  O   UNL A   1      42.768  18.524  27.024  1.00  0.00    -0.237 OA
ATOM     80  O   UNL A   1      40.768  19.133  25.703  1.00  0.00    -0.237 OA
ATOM     81  O   UNL A   1      43.016  19.443  24.745  1.00  0.00    -0.744 OA
ENDBRANCH  77  78
ENDBRANCH  49  72
BRANCH  61  82
ATOM     82  C   UNL A   1      48.055  26.844  30.446  1.00  0.00    -0.014 A 
ATOM     83  C   UNL A   1      49.055  27.104  29.494  1.00  0.00     0.010 A 
ATOM     84  C   UNL A   1      48.413  26.284  31.686  1.00  0.00     0.010 A 
ATOM     85  C   UNL A   1      50.392  26.810  29.780  1.00  0.00     0.020 A 
ATOM     86  C   UNL A   1      49.750  26.008  31.983  1.00  0.00     0.020 A 
ATOM     87  C   UNL A   1      50.732  26.270  31.026  1.00  0.00     0.054 A 
BRANCH  87  88
ATOM     88  S   UNL A   1      52.482  25.983  31.407  1.00  0.00     0.124 S 
ATOM     89  O   UNL A   1      52.755  27.027  32.391  1.00  0.00    -0.237 OA
ATOM     90  O   UNL A   1      52.479  24.616  31.924  1.00  0.00    -0.237 OA
ATOM     91  O   UNL A   1      53.149  26.152  30.117  1.00  0.00    -0.744 OA
ENDBRANCH  87  88
ENDBRANCH  61  82
ENDBRANCH  35  36
ENDBRANCH  27  30
ENDBRANCH  25  26
ENDBRANCH   1  25
TORSDOF 16
ENDMDL
