MODEL 1
REMARK VINA RESULT:     -11.6      0.000      0.000
REMARK SMILES Cc1ccc2c(c1C)O[C@@H](C(=O)NCCCNC(=O)c1ccc(-c3c4nc(c(-c5ccc(S(=O)(=O)[O-])cc5)c5ccc([nH]5)c(-c5ccc(S(=O)(=O)[O-])cc5)c5nc(c(-c6ccc(S(=O)(=O)[O-])cc6)c6ccc3[nH]6)C=C5)C=C4)cc1)CC2=O
REMARK SMILES IDX 17 1 18 2 19 3 16 5 15 6 14 7 13 8 11 9 12 10 10 12 1 13
REMARK SMILES IDX 2 14 3 15 7 16 4 17 6 18 8 19 5 20 9 21 81 22 80 23 82 24
REMARK SMILES IDX 20 25 21 26 79 27 22 28 78 29 23 30 24 31 25 32 72 33 26 34
REMARK SMILES IDX 77 35 71 36 73 37 27 38 76 39 70 40 69 41 28 43 58 44 39 45
REMARK SMILES IDX 57 46 40 47 43 48 56 49 74 50 41 51 42 52 55 54 75 55 44 56
REMARK SMILES IDX 29 57 30 58 38 59 31 60 37 61 32 62 33 63 34 64 35 65 36 66
REMARK SMILES IDX 59 67 60 68 68 69 61 70 67 71 62 72 63 73 64 74 65 75 66 76
REMARK SMILES IDX 45 77 46 78 54 79 47 80 53 81 48 82 49 83 50 84 51 85 52 86
REMARK H PARENT 17 4 13 11 73 42 43 53
REMARK Flexibility Score: inf
ROOT
ATOM      1  N   UNL A   1      33.425  29.842  27.334  1.00  0.00    -0.352 N 
ATOM      2  C   UNL A   1      34.368  30.690  27.858  1.00  0.00     0.251 C 
ATOM      3  O   UNL A   1      34.085  31.873  28.040  1.00  0.00    -0.269 OA
ATOM      4  H   UNL A   1      32.633  30.284  26.951  1.00  0.00     0.163 HD
ENDROOT
BRANCH   1   5
ATOM      5  C   UNL A   1      33.413  28.382  27.260  1.00  0.00     0.118 C 
BRANCH   5   6
ATOM      6  C   UNL A   1      32.011  27.820  27.453  1.00  0.00     0.042 C 
BRANCH   6   7
ATOM      7  C   UNL A   1      31.624  26.845  26.346  1.00  0.00     0.118 C 
BRANCH   7   8
ATOM      8  N   UNL A   1      31.595  25.471  26.799  1.00  0.00    -0.353 N 
ATOM      9  C   UNL A   1      32.207  24.341  26.361  1.00  0.00     0.261 C 
ATOM     10  O   UNL A   1      32.043  23.337  27.067  1.00  0.00    -0.271 OA
ATOM     11  H   UNL A   1      31.015  25.327  27.581  1.00  0.00     0.163 HD
BRANCH   9  12
ATOM     12  C   UNL A   1      33.016  24.222  25.040  1.00  0.00     0.269 C 
ATOM     13  C   UNL A   1      34.249  18.308  24.593  1.00  0.00     0.045 C 
ATOM     14  C   UNL A   1      34.580  19.777  24.578  1.00  0.00    -0.044 A 
ATOM     15  C   UNL A   1      35.824  20.156  25.114  1.00  0.00     0.005 A 
ATOM     16  C   UNL A   1      33.661  20.776  24.189  1.00  0.00    -0.005 A 
ATOM     17  C   UNL A   1      36.155  21.499  25.286  1.00  0.00     0.016 A 
ATOM     18  C   UNL A   1      33.973  22.129  24.457  1.00  0.00     0.134 A 
ATOM     19  C   UNL A   1      32.307  20.460  23.606  1.00  0.00     0.049 C 
ATOM     20  C   UNL A   1      35.213  22.481  24.986  1.00  0.00     0.060 A 
ATOM     21  O   UNL A   1      32.954  23.024  24.286  1.00  0.00    -0.479 OA
ATOM     22  C   UNL A   1      35.473  23.879  25.362  1.00  0.00     0.170 C 
ATOM     23  C   UNL A   1      34.384  24.875  25.126  1.00  0.00     0.136 C 
ATOM     24  O   UNL A   1      36.555  24.207  25.838  1.00  0.00    -0.294 OA
ENDBRANCH   9  12
ENDBRANCH   7   8
ENDBRANCH   6   7
ENDBRANCH   5   6
ENDBRANCH   1   5
BRANCH   2  25
ATOM     25  C   UNL A   1      35.710  30.185  28.211  1.00  0.00     0.039 A 
ATOM     26  C   UNL A   1      36.719  30.192  27.245  1.00  0.00     0.014 A 
ATOM     27  C   UNL A   1      35.965  29.686  29.491  1.00  0.00     0.014 A 
ATOM     28  C   UNL A   1      38.002  29.758  27.584  1.00  0.00     0.010 A 
ATOM     29  C   UNL A   1      37.259  29.330  29.851  1.00  0.00     0.010 A 
ATOM     30  C   UNL A   1      38.286  29.350  28.896  1.00  0.00    -0.014 A 
BRANCH  30  31
ATOM     31  C   UNL A   1      39.637  28.890  29.288  1.00  0.00     0.031 A 
ATOM     32  C   UNL A   1      40.539  29.816  30.056  1.00  0.00     0.074 A 
ATOM     33  C   UNL A   1      40.071  27.673  28.908  1.00  0.00     0.049 A 
ATOM     34  N   UNL A   1      41.777  29.633  30.432  1.00  0.00    -0.248 NA
ATOM     35  C   UNL A   1      39.984  31.128  30.436  1.00  0.00     0.031 C 
ATOM     36  C   UNL A   1      39.294  26.699  28.137  1.00  0.00     0.029 A 
ATOM     37  N   UNL A   1      41.273  27.047  29.117  1.00  0.00    -0.354 N 
ATOM     38  C   UNL A   1      42.151  30.805  31.077  1.00  0.00     0.074 A 
ATOM     39  C   UNL A   1      41.029  31.713  31.002  1.00  0.00     0.031 C 
ATOM     40  C   UNL A   1      40.029  25.589  27.964  1.00  0.00     0.029 A 
ATOM     41  C   UNL A   1      41.339  25.784  28.578  1.00  0.00     0.049 A 
ATOM     42  H   UNL A   1      42.018  27.463  29.608  1.00  0.00     0.167 HD
ATOM     43  C   UNL A   1      43.317  31.090  31.700  1.00  0.00     0.031 A 
ATOM     44  C   UNL A   1      42.344  24.886  28.576  1.00  0.00     0.031 A 
ATOM     45  C   UNL A   1      44.420  30.175  31.793  1.00  0.00     0.049 A 
ATOM     46  C   UNL A   1      43.638  25.232  29.257  1.00  0.00     0.074 A 
ATOM     47  C   UNL A   1      45.626  30.354  32.446  1.00  0.00     0.029 A 
ATOM     48  N   UNL A   1      44.449  28.913  31.226  1.00  0.00    -0.354 N 
ATOM     49  N   UNL A   1      43.961  26.334  29.891  1.00  0.00    -0.248 NA
ATOM     50  C   UNL A   1      44.701  24.218  29.228  1.00  0.00     0.031 C 
ATOM     51  C   UNL A   1      46.404  29.213  32.236  1.00  0.00     0.029 A 
ATOM     52  C   UNL A   1      45.662  28.304  31.495  1.00  0.00     0.049 A 
ATOM     53  H   UNL A   1      43.717  28.507  30.708  1.00  0.00     0.167 HD
ATOM     54  C   UNL A   1      45.257  26.139  30.353  1.00  0.00     0.074 A 
ATOM     55  C   UNL A   1      45.658  24.812  29.931  1.00  0.00     0.031 C 
ATOM     56  C   UNL A   1      46.041  26.984  31.066  1.00  0.00     0.031 A 
BRANCH  43  57
ATOM     57  C   UNL A   1      43.456  32.440  32.345  1.00  0.00    -0.014 A 
ATOM     58  C   UNL A   1      43.863  33.556  31.593  1.00  0.00     0.010 A 
ATOM     59  C   UNL A   1      43.108  32.609  33.697  1.00  0.00     0.010 A 
ATOM     60  C   UNL A   1      43.933  34.818  32.187  1.00  0.00     0.020 A 
ATOM     61  C   UNL A   1      43.155  33.874  34.289  1.00  0.00     0.020 A 
ATOM     62  C   UNL A   1      43.570  34.970  33.529  1.00  0.00     0.054 A 
BRANCH  62  63
ATOM     63  S   UNL A   1      43.633  36.631  34.255  1.00  0.00     0.124 S 
ATOM     64  O   UNL A   1      44.311  36.383  35.525  1.00  0.00    -0.237 OA
ATOM     65  O   UNL A   1      44.406  37.376  33.266  1.00  0.00    -0.237 OA
ATOM     66  O   UNL A   1      42.228  37.015  34.369  1.00  0.00    -0.744 OA
ENDBRANCH  62  63
ENDBRANCH  43  57
BRANCH  44  67
ATOM     67  C   UNL A   1      42.141  23.562  27.928  1.00  0.00    -0.014 A 
ATOM     68  C   UNL A   1      42.530  23.359  26.594  1.00  0.00     0.010 A 
ATOM     69  C   UNL A   1      41.614  22.482  28.660  1.00  0.00     0.010 A 
ATOM     70  C   UNL A   1      42.402  22.099  26.003  1.00  0.00     0.020 A 
ATOM     71  C   UNL A   1      41.503  21.216  28.078  1.00  0.00     0.020 A 
ATOM     72  C   UNL A   1      41.902  21.032  26.753  1.00  0.00     0.054 A 
BRANCH  72  73
ATOM     73  S   UNL A   1      41.810  19.394  25.977  1.00  0.00     0.124 S 
ATOM     74  O   UNL A   1      42.711  19.540  24.838  1.00  0.00    -0.237 OA
ATOM     75  O   UNL A   1      42.281  18.520  27.048  1.00  0.00    -0.237 OA
ATOM     76  O   UNL A   1      40.395  19.251  25.638  1.00  0.00    -0.744 OA
ENDBRANCH  72  73
ENDBRANCH  44  67
BRANCH  56  77
ATOM     77  C   UNL A   1      47.412  26.510  31.459  1.00  0.00    -0.014 A 
ATOM     78  C   UNL A   1      47.620  25.838  32.675  1.00  0.00     0.010 A 
ATOM     79  C   UNL A   1      48.473  26.625  30.543  1.00  0.00     0.010 A 
ATOM     80  C   UNL A   1      48.870  25.288  32.969  1.00  0.00     0.020 A 
ATOM     81  C   UNL A   1      49.717  26.057  30.823  1.00  0.00     0.020 A 
ATOM     82  C   UNL A   1      49.907  25.390  32.035  1.00  0.00     0.054 A 
BRANCH  82  83
ATOM     83  S   UNL A   1      51.495  24.606  32.418  1.00  0.00     0.124 S 
ATOM     84  O   UNL A   1      52.421  25.352  31.571  1.00  0.00    -0.237 OA
ATOM     85  O   UNL A   1      51.624  24.845  33.854  1.00  0.00    -0.237 OA
ATOM     86  O   UNL A   1      51.297  23.209  32.038  1.00  0.00    -0.744 OA
ENDBRANCH  82  83
ENDBRANCH  56  77
ENDBRANCH  30  31
ENDBRANCH   2  25
TORSDOF 13
ENDMDL
MODEL 2
REMARK VINA RESULT:     -11.5      0.848      1.841
REMARK SMILES Cc1ccc2c(c1C)O[C@@H](C(=O)NCCCNC(=O)c1ccc(-c3c4nc(c(-c5ccc(S(=O)(=O)[O-])cc5)c5ccc([nH]5)c(-c5ccc(S(=O)(=O)[O-])cc5)c5nc(c(-c6ccc(S(=O)(=O)[O-])cc6)c6ccc3[nH]6)C=C5)C=C4)cc1)CC2=O
REMARK SMILES IDX 17 1 18 2 19 3 16 5 15 6 14 7 13 8 11 9 12 10 10 12 1 13
REMARK SMILES IDX 2 14 3 15 7 16 4 17 6 18 8 19 5 20 9 21 81 22 80 23 82 24
REMARK SMILES IDX 20 25 21 26 79 27 22 28 78 29 23 30 24 31 25 32 72 33 26 34
REMARK SMILES IDX 77 35 71 36 73 37 27 38 76 39 70 40 69 41 28 43 58 44 39 45
REMARK SMILES IDX 57 46 40 47 43 48 56 49 74 50 41 51 42 52 55 54 75 55 44 56
REMARK SMILES IDX 29 57 30 58 38 59 31 60 37 61 32 62 33 63 34 64 35 65 36 66
REMARK SMILES IDX 59 67 60 68 68 69 61 70 67 71 62 72 63 73 64 74 65 75 66 76
REMARK SMILES IDX 45 77 46 78 54 79 47 80 53 81 48 82 49 83 50 84 51 85 52 86
REMARK H PARENT 17 4 13 11 73 42 43 53
REMARK Flexibility Score: inf
ROOT
ATOM      1  N   UNL A   1      33.557  29.624  27.026  1.00  0.00    -0.352 N 
ATOM      2  C   UNL A   1      34.352  30.519  27.698  1.00  0.00     0.251 C 
ATOM      3  O   UNL A   1      33.917  31.640  27.958  1.00  0.00    -0.269 OA
ATOM      4  H   UNL A   1      32.750  30.010  26.616  1.00  0.00     0.163 HD
ENDROOT
BRANCH   1   5
ATOM      5  C   UNL A   1      33.725  28.186  26.824  1.00  0.00     0.118 C 
BRANCH   5   6
ATOM      6  C   UNL A   1      32.884  27.679  25.660  1.00  0.00     0.042 C 
BRANCH   6   7
ATOM      7  C   UNL A   1      33.741  27.112  24.534  1.00  0.00     0.118 C 
BRANCH   7   8
ATOM      8  N   UNL A   1      33.052  26.095  23.768  1.00  0.00    -0.353 N 
ATOM      9  C   UNL A   1      32.514  24.895  24.102  1.00  0.00     0.261 C 
ATOM     10  O   UNL A   1      31.887  24.321  23.200  1.00  0.00    -0.271 OA
ATOM     11  H   UNL A   1      32.955  26.319  22.815  1.00  0.00     0.163 HD
BRANCH   9  12
ATOM     12  C   UNL A   1      32.687  24.193  25.477  1.00  0.00     0.269 C 
ATOM     13  C   UNL A   1      38.074  21.451  25.066  1.00  0.00     0.045 C 
ATOM     14  C   UNL A   1      36.601  21.530  25.374  1.00  0.00    -0.044 A 
ATOM     15  C   UNL A   1      35.824  20.396  25.077  1.00  0.00     0.005 A 
ATOM     16  C   UNL A   1      35.961  22.713  25.805  1.00  0.00    -0.005 A 
ATOM     17  C   UNL A   1      34.435  20.426  25.181  1.00  0.00     0.016 A 
ATOM     18  C   UNL A   1      34.547  22.757  25.814  1.00  0.00     0.134 A 
ATOM     19  C   UNL A   1      36.714  23.974  26.145  1.00  0.00     0.049 C 
ATOM     20  C   UNL A   1      33.799  21.620  25.518  1.00  0.00     0.060 A 
ATOM     21  O   UNL A   1      33.987  23.989  26.001  1.00  0.00    -0.479 OA
ATOM     22  C   UNL A   1      32.335  21.716  25.423  1.00  0.00     0.170 C 
ATOM     23  C   UNL A   1      31.710  23.049  25.681  1.00  0.00     0.136 C 
ATOM     24  O   UNL A   1      31.659  20.728  25.154  1.00  0.00    -0.294 OA
ENDBRANCH   9  12
ENDBRANCH   7   8
ENDBRANCH   6   7
ENDBRANCH   5   6
ENDBRANCH   1   5
BRANCH   2  25
ATOM     25  C   UNL A   1      35.715  30.135  28.118  1.00  0.00     0.039 A 
ATOM     26  C   UNL A   1      35.921  29.652  29.413  1.00  0.00     0.014 A 
ATOM     27  C   UNL A   1      36.792  30.274  27.239  1.00  0.00     0.014 A 
ATOM     28  C   UNL A   1      37.198  29.246  29.803  1.00  0.00     0.010 A 
ATOM     29  C   UNL A   1      38.046  29.795  27.600  1.00  0.00     0.010 A 
ATOM     30  C   UNL A   1      38.262  29.290  28.890  1.00  0.00    -0.014 A 
BRANCH  30  31
ATOM     31  C   UNL A   1      39.627  28.860  29.271  1.00  0.00     0.031 A 
ATOM     32  C   UNL A   1      40.517  29.809  30.023  1.00  0.00     0.074 A 
ATOM     33  C   UNL A   1      40.082  27.649  28.893  1.00  0.00     0.049 A 
ATOM     34  N   UNL A   1      41.763  29.654  30.386  1.00  0.00    -0.248 NA
ATOM     35  C   UNL A   1      39.939  31.111  30.401  1.00  0.00     0.031 C 
ATOM     36  C   UNL A   1      39.317  26.655  28.136  1.00  0.00     0.029 A 
ATOM     37  N   UNL A   1      41.299  27.050  29.093  1.00  0.00    -0.354 N 
ATOM     38  C   UNL A   1      42.119  30.838  31.021  1.00  0.00     0.074 A 
ATOM     39  C   UNL A   1      40.978  31.721  30.953  1.00  0.00     0.031 C 
ATOM     40  C   UNL A   1      40.073  25.559  27.962  1.00  0.00     0.029 A 
ATOM     41  C   UNL A   1      41.386  25.786  28.560  1.00  0.00     0.049 A 
ATOM     42  H   UNL A   1      42.041  27.484  29.573  1.00  0.00     0.167 HD
ATOM     43  C   UNL A   1      43.286  31.150  31.629  1.00  0.00     0.031 A 
ATOM     44  C   UNL A   1      42.408  24.908  28.553  1.00  0.00     0.031 A 
ATOM     45  C   UNL A   1      44.409  30.259  31.716  1.00  0.00     0.049 A 
ATOM     46  C   UNL A   1      43.703  25.285  29.218  1.00  0.00     0.074 A 
ATOM     47  C   UNL A   1      45.618  30.467  32.354  1.00  0.00     0.029 A 
ATOM     48  N   UNL A   1      44.458  28.994  31.156  1.00  0.00    -0.354 N 
ATOM     49  N   UNL A   1      44.009  26.398  29.842  1.00  0.00    -0.248 NA
ATOM     50  C   UNL A   1      44.785  24.294  29.184  1.00  0.00     0.031 C 
ATOM     51  C   UNL A   1      46.417  29.341  32.143  1.00  0.00     0.029 A 
ATOM     52  C   UNL A   1      45.686  28.413  31.416  1.00  0.00     0.049 A 
ATOM     53  H   UNL A   1      43.729  28.570  30.648  1.00  0.00     0.167 HD
ATOM     54  C   UNL A   1      45.314  26.233  30.291  1.00  0.00     0.074 A 
ATOM     55  C   UNL A   1      45.737  24.912  29.872  1.00  0.00     0.031 C 
ATOM     56  C   UNL A   1      46.088  27.098  30.990  1.00  0.00     0.031 A 
BRANCH  43  57
ATOM     57  C   UNL A   1      43.403  32.507  32.265  1.00  0.00    -0.014 A 
ATOM     58  C   UNL A   1      43.844  33.613  31.518  1.00  0.00     0.010 A 
ATOM     59  C   UNL A   1      43.003  32.692  33.600  1.00  0.00     0.010 A 
ATOM     60  C   UNL A   1      43.895  34.882  32.100  1.00  0.00     0.020 A 
ATOM     61  C   UNL A   1      43.031  33.963  34.179  1.00  0.00     0.020 A 
ATOM     62  C   UNL A   1      43.480  35.050  33.424  1.00  0.00     0.054 A 
BRANCH  62  63
ATOM     63  S   UNL A   1      43.519  36.718  34.134  1.00  0.00     0.124 S 
ATOM     64  O   UNL A   1      42.205  36.813  34.764  1.00  0.00    -0.237 OA
ATOM     65  O   UNL A   1      44.652  36.640  35.053  1.00  0.00    -0.237 OA
ATOM     66  O   UNL A   1      43.713  37.586  32.975  1.00  0.00    -0.744 OA
ENDBRANCH  62  63
ENDBRANCH  43  57
BRANCH  44  67
ATOM     67  C   UNL A   1      42.226  23.577  27.916  1.00  0.00    -0.014 A 
ATOM     68  C   UNL A   1      42.548  23.390  26.561  1.00  0.00     0.010 A 
ATOM     69  C   UNL A   1      41.787  22.476  28.674  1.00  0.00     0.010 A 
ATOM     70  C   UNL A   1      42.441  22.124  25.976  1.00  0.00     0.020 A 
ATOM     71  C   UNL A   1      41.698  21.205  28.097  1.00  0.00     0.020 A 
ATOM     72  C   UNL A   1      42.029  21.037  26.752  1.00  0.00     0.054 A 
BRANCH  72  73
ATOM     73  S   UNL A   1      41.964  19.397  25.979  1.00  0.00     0.124 S 
ATOM     74  O   UNL A   1      42.493  18.537  27.033  1.00  0.00    -0.237 OA
ATOM     75  O   UNL A   1      40.539  19.248  25.697  1.00  0.00    -0.237 OA
ATOM     76  O   UNL A   1      42.817  19.535  24.800  1.00  0.00    -0.744 OA
ENDBRANCH  72  73
ENDBRANCH  44  67
BRANCH  56  77
ATOM     77  C   UNL A   1      47.472  26.655  31.371  1.00  0.00    -0.014 A 
ATOM     78  C   UNL A   1      47.703  25.976  32.580  1.00  0.00     0.010 A 
ATOM     79  C   UNL A   1      48.524  26.805  30.451  1.00  0.00     0.010 A 
ATOM     80  C   UNL A   1      48.969  25.455  32.861  1.00  0.00     0.020 A 
ATOM     81  C   UNL A   1      49.785  26.267  30.719  1.00  0.00     0.020 A 
ATOM     82  C   UNL A   1      49.998  25.593  31.923  1.00  0.00     0.054 A 
BRANCH  82  83
ATOM     83  S   UNL A   1      51.608  24.845  32.290  1.00  0.00     0.124 S 
ATOM     84  O   UNL A   1      51.819  25.233  33.682  1.00  0.00    -0.237 OA
ATOM     85  O   UNL A   1      51.351  23.424  32.065  1.00  0.00    -0.237 OA
ATOM     86  O   UNL A   1      52.512  25.471  31.328  1.00  0.00    -0.744 OA
ENDBRANCH  82  83
ENDBRANCH  56  77
ENDBRANCH  30  31
ENDBRANCH   2  25
TORSDOF 13
ENDMDL
MODEL 3
REMARK VINA RESULT:     -11.5      1.368      1.983
REMARK SMILES Cc1ccc2c(c1C)O[C@@H](C(=O)NCCCNC(=O)c1ccc(-c3c4nc(c(-c5ccc(S(=O)(=O)[O-])cc5)c5ccc([nH]5)c(-c5ccc(S(=O)(=O)[O-])cc5)c5nc(c(-c6ccc(S(=O)(=O)[O-])cc6)c6ccc3[nH]6)C=C5)C=C4)cc1)CC2=O
REMARK SMILES IDX 17 1 18 2 19 3 16 5 15 6 14 7 13 8 11 9 12 10 10 12 1 13
REMARK SMILES IDX 2 14 3 15 7 16 4 17 6 18 8 19 5 20 9 21 81 22 80 23 82 24
REMARK SMILES IDX 20 25 21 26 79 27 22 28 78 29 23 30 24 31 25 32 72 33 26 34
REMARK SMILES IDX 77 35 71 36 73 37 27 38 76 39 70 40 69 41 28 43 58 44 39 45
REMARK SMILES IDX 57 46 40 47 43 48 56 49 74 50 41 51 42 52 55 54 75 55 44 56
REMARK SMILES IDX 29 57 30 58 38 59 31 60 37 61 32 62 33 63 34 64 35 65 36 66
REMARK SMILES IDX 59 67 60 68 68 69 61 70 67 71 62 72 63 73 64 74 65 75 66 76
REMARK SMILES IDX 45 77 46 78 54 79 47 80 53 81 48 82 49 83 50 84 51 85 52 86
REMARK H PARENT 17 4 13 11 73 42 43 53
REMARK Flexibility Score: inf
ROOT
ATOM      1  N   UNL A   1      33.700  29.668  26.907  1.00  0.00    -0.352 N 
ATOM      2  C   UNL A   1      34.448  30.505  27.697  1.00  0.00     0.251 C 
ATOM      3  O   UNL A   1      33.978  31.585  28.051  1.00  0.00    -0.269 OA
ATOM      4  H   UNL A   1      32.898  30.078  26.509  1.00  0.00     0.163 HD
ENDROOT
BRANCH   1   5
ATOM      5  C   UNL A   1      33.909  28.262  26.567  1.00  0.00     0.118 C 
BRANCH   5   6
ATOM      6  C   UNL A   1      33.086  27.847  25.356  1.00  0.00     0.042 C 
BRANCH   6   7
ATOM      7  C   UNL A   1      31.921  26.939  25.734  1.00  0.00     0.118 C 
BRANCH   7   8
ATOM      8  N   UNL A   1      30.731  27.206  24.954  1.00  0.00    -0.353 N 
ATOM      9  C   UNL A   1      30.097  26.515  23.972  1.00  0.00     0.261 C 
ATOM     10  O   UNL A   1      29.018  26.992  23.595  1.00  0.00    -0.271 OA
ATOM     11  H   UNL A   1      30.295  28.058  25.180  1.00  0.00     0.163 HD
BRANCH   9  12
ATOM     12  C   UNL A   1      30.656  25.244  23.274  1.00  0.00     0.269 C 
ATOM     13  C   UNL A   1      34.289  22.751  27.431  1.00  0.00     0.045 C 
ATOM     14  C   UNL A   1      33.929  23.258  26.059  1.00  0.00    -0.044 A 
ATOM     15  C   UNL A   1      34.945  23.906  25.331  1.00  0.00     0.005 A 
ATOM     16  C   UNL A   1      32.615  23.238  25.543  1.00  0.00    -0.005 A 
ATOM     17  C   UNL A   1      34.670  24.543  24.123  1.00  0.00     0.016 A 
ATOM     18  C   UNL A   1      32.334  23.970  24.366  1.00  0.00     0.134 A 
ATOM     19  C   UNL A   1      31.467  22.568  26.255  1.00  0.00     0.049 C 
ATOM     20  C   UNL A   1      33.356  24.601  23.661  1.00  0.00     0.060 A 
ATOM     21  O   UNL A   1      31.012  24.116  24.052  1.00  0.00    -0.479 OA
ATOM     22  C   UNL A   1      33.028  25.448  22.505  1.00  0.00     0.170 C 
ATOM     23  C   UNL A   1      31.589  25.568  22.121  1.00  0.00     0.136 C 
ATOM     24  O   UNL A   1      33.913  26.020  21.877  1.00  0.00    -0.294 OA
ENDBRANCH   9  12
ENDBRANCH   7   8
ENDBRANCH   6   7
ENDBRANCH   5   6
ENDBRANCH   1   5
BRANCH   2  25
ATOM     25  C   UNL A   1      35.804  30.109  28.127  1.00  0.00     0.039 A 
ATOM     26  C   UNL A   1      36.002  29.659  29.435  1.00  0.00     0.014 A 
ATOM     27  C   UNL A   1      36.883  30.201  27.244  1.00  0.00     0.014 A 
ATOM     28  C   UNL A   1      37.272  29.241  29.836  1.00  0.00     0.010 A 
ATOM     29  C   UNL A   1      38.128  29.709  27.617  1.00  0.00     0.010 A 
ATOM     30  C   UNL A   1      38.336  29.238  28.921  1.00  0.00    -0.014 A 
BRANCH  30  31
ATOM     31  C   UNL A   1      39.693  28.794  29.314  1.00  0.00     0.031 A 
ATOM     32  C   UNL A   1      40.578  29.725  30.094  1.00  0.00     0.074 A 
ATOM     33  C   UNL A   1      40.146  27.586  28.923  1.00  0.00     0.049 A 
ATOM     34  N   UNL A   1      41.819  29.556  30.471  1.00  0.00    -0.248 NA
ATOM     35  C   UNL A   1      40.003  31.025  30.485  1.00  0.00     0.031 C 
ATOM     36  C   UNL A   1      39.385  26.609  28.140  1.00  0.00     0.029 A 
ATOM     37  N   UNL A   1      41.357  26.976  29.130  1.00  0.00    -0.354 N 
ATOM     38  C   UNL A   1      42.173  30.728  31.129  1.00  0.00     0.074 A 
ATOM     39  C   UNL A   1      41.038  31.619  31.060  1.00  0.00     0.031 C 
ATOM     40  C   UNL A   1      40.138  25.511  27.958  1.00  0.00     0.029 A 
ATOM     41  C   UNL A   1      41.443  25.721  28.578  1.00  0.00     0.049 A 
ATOM     42  H   UNL A   1      42.094  27.398  29.627  1.00  0.00     0.167 HD
ATOM     43  C   UNL A   1      43.333  31.023  31.758  1.00  0.00     0.031 A 
ATOM     44  C   UNL A   1      42.461  24.837  28.570  1.00  0.00     0.031 A 
ATOM     45  C   UNL A   1      44.449  30.124  31.846  1.00  0.00     0.049 A 
ATOM     46  C   UNL A   1      43.748  25.195  29.259  1.00  0.00     0.074 A 
ATOM     47  C   UNL A   1      45.650  30.314  32.504  1.00  0.00     0.029 A 
ATOM     48  N   UNL A   1      44.498  28.868  31.266  1.00  0.00    -0.354 N 
ATOM     49  N   UNL A   1      44.052  26.296  29.905  1.00  0.00    -0.248 NA
ATOM     50  C   UNL A   1      44.825  24.198  29.223  1.00  0.00     0.031 C 
ATOM     51  C   UNL A   1      46.445  29.187  32.285  1.00  0.00     0.029 A 
ATOM     52  C   UNL A   1      45.719  28.275  31.534  1.00  0.00     0.049 A 
ATOM     53  H   UNL A   1      43.774  28.457  30.742  1.00  0.00     0.167 HD
ATOM     54  C   UNL A   1      45.350  26.116  30.369  1.00  0.00     0.074 A 
ATOM     55  C   UNL A   1      45.771  24.799  29.935  1.00  0.00     0.031 C 
ATOM     56  C   UNL A   1      46.119  26.964  31.093  1.00  0.00     0.031 A 
BRANCH  43  57
ATOM     57  C   UNL A   1      43.450  32.369  32.417  1.00  0.00    -0.014 A 
ATOM     58  C   UNL A   1      43.114  32.535  33.772  1.00  0.00     0.010 A 
ATOM     59  C   UNL A   1      43.965  33.460  31.695  1.00  0.00     0.010 A 
ATOM     60  C   UNL A   1      43.281  33.776  34.392  1.00  0.00     0.020 A 
ATOM     61  C   UNL A   1      44.155  34.697  32.318  1.00  0.00     0.020 A 
ATOM     62  C   UNL A   1      43.809  34.846  33.663  1.00  0.00     0.054 A 
BRANCH  62  63
ATOM     63  S   UNL A   1      44.051  36.430  34.511  1.00  0.00     0.124 S 
ATOM     64  O   UNL A   1      45.467  36.693  34.269  1.00  0.00    -0.237 OA
ATOM     65  O   UNL A   1      43.120  37.307  33.808  1.00  0.00    -0.237 OA
ATOM     66  O   UNL A   1      43.706  36.138  35.901  1.00  0.00    -0.744 OA
ENDBRANCH  62  63
ENDBRANCH  43  57
BRANCH  44  67
ATOM     67  C   UNL A   1      42.279  23.517  27.909  1.00  0.00    -0.014 A 
ATOM     68  C   UNL A   1      42.857  23.269  26.653  1.00  0.00     0.010 A 
ATOM     69  C   UNL A   1      41.580  22.483  28.559  1.00  0.00     0.010 A 
ATOM     70  C   UNL A   1      42.745  22.008  26.059  1.00  0.00     0.020 A 
ATOM     71  C   UNL A   1      41.483  21.215  27.976  1.00  0.00     0.020 A 
ATOM     72  C   UNL A   1      42.069  20.985  26.730  1.00  0.00     0.054 A 
BRANCH  72  73
ATOM     73  S   UNL A   1      41.998  19.343  25.962  1.00  0.00     0.124 S 
ATOM     74  O   UNL A   1      42.847  19.514  24.787  1.00  0.00    -0.237 OA
ATOM     75  O   UNL A   1      42.540  18.489  27.014  1.00  0.00    -0.237 OA
ATOM     76  O   UNL A   1      40.576  19.155  25.681  1.00  0.00    -0.744 OA
ENDBRANCH  72  73
ENDBRANCH  44  67
BRANCH  56  77
ATOM     77  C   UNL A   1      47.496  26.507  31.485  1.00  0.00    -0.014 A 
ATOM     78  C   UNL A   1      47.717  25.868  32.717  1.00  0.00     0.010 A 
ATOM     79  C   UNL A   1      48.547  26.603  30.557  1.00  0.00     0.010 A 
ATOM     80  C   UNL A   1      48.973  25.331  33.013  1.00  0.00     0.020 A 
ATOM     81  C   UNL A   1      49.797  26.048  30.840  1.00  0.00     0.020 A 
ATOM     82  C   UNL A   1      50.001  25.413  32.068  1.00  0.00     0.054 A 
BRANCH  82  83
ATOM     83  S   UNL A   1      51.596  24.646  32.456  1.00  0.00     0.124 S 
ATOM     84  O   UNL A   1      51.736  24.929  33.882  1.00  0.00    -0.237 OA
ATOM     85  O   UNL A   1      51.362  23.246  32.113  1.00  0.00    -0.237 OA
ATOM     86  O   UNL A   1      52.542  25.347  31.591  1.00  0.00    -0.744 OA
ENDBRANCH  82  83
ENDBRANCH  56  77
ENDBRANCH  30  31
ENDBRANCH   2  25
TORSDOF 13
ENDMDL
