MODEL 1
REMARK VINA RESULT:     -10.2      0.000      0.000
REMARK SMILES [NH3+][C@H](CCc1c[nH]nc1C(F)(F)F)C(=O)NCCCNC(=O)c1ccc(-c2c3nc(c(-c4ccc(S(=O)(=O)[O-])cc4)c4ccc([nH]4)c(-c4ccc(S(=O)(=O)[O-])cc4)c4nc(c(-c5ccc(S(=O)(=O)[O-])cc5)c5ccc2[nH]5)C=C4)C=C3)cc1
REMARK SMILES IDX 17 1 16 2 14 3 15 4 2 6 1 7 3 11 4 12 5 13 6 14 9 15 7 16
REMARK SMILES IDX 8 17 10 19 11 20 12 21 13 22 18 23 19 24 20 25 21 26 22 28
REMARK SMILES IDX 23 29 24 30 82 31 25 32 81 33 26 34 27 35 28 36 75 37 29 38
REMARK SMILES IDX 80 39 74 40 76 41 30 42 79 43 73 44 72 45 31 47 61 48 42 49
REMARK SMILES IDX 60 50 43 51 46 52 59 53 77 54 44 55 45 56 58 58 78 59 47 60
REMARK SMILES IDX 32 61 33 62 41 63 34 64 40 65 35 66 36 67 37 68 38 69 39 70
REMARK SMILES IDX 62 71 63 72 71 73 64 74 70 75 65 76 66 77 67 78 68 79 69 80
REMARK SMILES IDX 48 81 49 82 57 83 50 84 56 85 51 86 52 87 53 88 54 89 55 90
REMARK H PARENT 16 5 1 8 1 9 1 10 7 18 20 27 76 46 46 57
REMARK Flexibility Score: inf
ROOT
ATOM      1  C   UNL A   1      32.345  26.309  26.163  1.00  0.00     0.118 C 
ENDROOT
BRANCH   1   2
ATOM      2  N   UNL A   1      31.375  25.400  26.726  1.00  0.00    -0.351 N 
ATOM      3  C   UNL A   1      31.352  24.039  26.746  1.00  0.00     0.278 C 
ATOM      4  O   UNL A   1      30.337  23.499  27.196  1.00  0.00    -0.268 OA
ATOM      5  H   UNL A   1      30.608  25.833  27.165  1.00  0.00     0.163 HD
BRANCH   3   6
ATOM      6  C   UNL A   1      32.563  23.194  26.273  1.00  0.00     0.271 C 
BRANCH   6   7
ATOM      7  N   UNL A   1      33.461  22.955  27.407  1.00  0.00    -0.347 N 
ATOM      8  H   UNL A   1      32.961  23.127  28.279  1.00  0.00     0.345 HD
ATOM      9  H   UNL A   1      34.261  23.584  27.345  1.00  0.00     0.345 HD
ATOM     10  H   UNL A   1      33.785  21.989  27.387  1.00  0.00     0.345 HD
ENDBRANCH   6   7
BRANCH   6  11
ATOM     11  C   UNL A   1      33.155  23.587  24.899  1.00  0.00     0.080 C 
BRANCH  11  12
ATOM     12  C   UNL A   1      33.321  22.569  23.756  1.00  0.00     0.046 C 
BRANCH  12  13
ATOM     13  C   UNL A   1      33.336  21.133  24.167  1.00  0.00     0.003 A 
ATOM     14  C   UNL A   1      32.271  20.258  24.109  1.00  0.00     0.109 A 
ATOM     15  C   UNL A   1      34.417  20.346  24.702  1.00  0.00     0.169 A 
ATOM     16  N   UNL A   1      32.709  19.075  24.615  1.00  0.00    -0.285 N 
ATOM     17  N   UNL A   1      33.989  19.101  25.001  1.00  0.00    -0.171 NA
ATOM     18  H   UNL A   1      32.138  18.276  24.690  1.00  0.00     0.189 HD
BRANCH  15  19
ATOM     19  C   UNL A   1      35.836  20.777  25.007  1.00  0.00     0.435 C 
ATOM     20  F   UNL A   1      36.308  21.637  24.061  1.00  0.00    -0.164 F 
ATOM     21  F   UNL A   1      35.964  21.398  26.208  1.00  0.00    -0.164 F 
ATOM     22  F   UNL A   1      36.710  19.733  25.022  1.00  0.00    -0.164 F 
ENDBRANCH  15  19
ENDBRANCH  12  13
ENDBRANCH  11  12
ENDBRANCH   6  11
ENDBRANCH   3   6
ENDBRANCH   1   2
BRANCH   1  23
ATOM     23  C   UNL A   1      32.242  27.691  26.800  1.00  0.00     0.042 C 
BRANCH  23  24
ATOM     24  C   UNL A   1      33.601  28.272  27.176  1.00  0.00     0.118 C 
BRANCH  24  25
ATOM     25  N   UNL A   1      33.523  29.694  27.487  1.00  0.00    -0.352 N 
ATOM     26  C   UNL A   1      34.446  30.513  28.086  1.00  0.00     0.251 C 
ATOM     27  H   UNL A   1      32.681  30.133  27.227  1.00  0.00     0.163 HD
ATOM     28  O   UNL A   1      34.111  31.644  28.436  1.00  0.00    -0.269 OA
BRANCH  26  29
ATOM     29  C   UNL A   1      35.821  30.035  28.329  1.00  0.00     0.039 A 
ATOM     30  C   UNL A   1      36.747  30.093  27.285  1.00  0.00     0.014 A 
ATOM     31  C   UNL A   1      36.199  29.525  29.574  1.00  0.00     0.014 A 
ATOM     32  C   UNL A   1      38.066  29.695  27.509  1.00  0.00     0.010 A 
ATOM     33  C   UNL A   1      37.532  29.212  29.820  1.00  0.00     0.010 A 
ATOM     34  C   UNL A   1      38.479  29.289  28.789  1.00  0.00    -0.014 A 
BRANCH  34  35
ATOM     35  C   UNL A   1      39.901  28.959  29.065  1.00  0.00     0.031 A 
ATOM     36  C   UNL A   1      40.819  29.990  29.664  1.00  0.00     0.074 A 
ATOM     37  C   UNL A   1      40.375  27.745  28.726  1.00  0.00     0.049 A 
ATOM     38  N   UNL A   1      42.091  29.889  29.953  1.00  0.00    -0.248 NA
ATOM     39  C   UNL A   1      40.244  31.313  29.955  1.00  0.00     0.031 C 
ATOM     40  C   UNL A   1      39.594  26.677  28.093  1.00  0.00     0.029 A 
ATOM     41  N   UNL A   1      41.627  27.199  28.863  1.00  0.00    -0.354 N 
ATOM     42  C   UNL A   1      42.470  31.133  30.447  1.00  0.00     0.074 A 
ATOM     43  C   UNL A   1      41.307  31.989  30.365  1.00  0.00     0.031 C 
ATOM     44  C   UNL A   1      40.373  25.596  27.935  1.00  0.00     0.029 A 
ATOM     45  C   UNL A   1      41.718  25.905  28.408  1.00  0.00     0.049 A 
ATOM     46  H   UNL A   1      42.387  27.689  29.252  1.00  0.00     0.167 HD
ATOM     47  C   UNL A   1      43.669  31.521  30.942  1.00  0.00     0.031 A 
ATOM     48  C   UNL A   1      42.767  25.060  28.371  1.00  0.00     0.031 A 
ATOM     49  C   UNL A   1      44.821  30.662  31.023  1.00  0.00     0.049 A 
ATOM     50  C   UNL A   1      44.092  25.519  28.915  1.00  0.00     0.074 A 
ATOM     51  C   UNL A   1      46.067  30.942  31.557  1.00  0.00     0.029 A 
ATOM     52  N   UNL A   1      44.873  29.358  30.551  1.00  0.00    -0.354 N 
ATOM     53  N   UNL A   1      44.409  26.677  29.444  1.00  0.00    -0.248 NA
ATOM     54  C   UNL A   1      45.195  24.552  28.871  1.00  0.00     0.031 C 
ATOM     55  C   UNL A   1      46.890  29.830  31.353  1.00  0.00     0.029 A 
ATOM     56  C   UNL A   1      46.137  28.831  30.756  1.00  0.00     0.049 A 
ATOM     57  H   UNL A   1      44.122  28.879  30.133  1.00  0.00     0.167 HD
ATOM     58  C   UNL A   1      45.742  26.568  29.822  1.00  0.00     0.074 A 
ATOM     59  C   UNL A   1      46.164  25.224  29.478  1.00  0.00     0.031 C 
ATOM     60  C   UNL A   1      46.544  27.494  30.402  1.00  0.00     0.031 A 
BRANCH  47  61
ATOM     61  C   UNL A   1      43.797  32.943  31.428  1.00  0.00    -0.014 A 
ATOM     62  C   UNL A   1      43.516  33.283  32.764  1.00  0.00     0.010 A 
ATOM     63  C   UNL A   1      44.249  33.944  30.550  1.00  0.00     0.010 A 
ATOM     64  C   UNL A   1      43.643  34.605  33.201  1.00  0.00     0.020 A 
ATOM     65  C   UNL A   1      44.409  35.261  30.991  1.00  0.00     0.020 A 
ATOM     66  C   UNL A   1      44.089  35.585  32.311  1.00  0.00     0.054 A 
BRANCH  66  67
ATOM     67  S   UNL A   1      44.271  37.287  32.914  1.00  0.00     0.124 S 
ATOM     68  O   UNL A   1      43.228  37.359  33.933  1.00  0.00    -0.237 OA
ATOM     69  O   UNL A   1      45.642  37.302  33.416  1.00  0.00    -0.237 OA
ATOM     70  O   UNL A   1      44.037  38.104  31.726  1.00  0.00    -0.744 OA
ENDBRANCH  66  67
ENDBRANCH  47  61
BRANCH  48  71
ATOM     71  C   UNL A   1      42.600  23.691  27.810  1.00  0.00    -0.014 A 
ATOM     72  C   UNL A   1      42.223  22.618  28.636  1.00  0.00     0.010 A 
ATOM     73  C   UNL A   1      42.803  23.456  26.438  1.00  0.00     0.010 A 
ATOM     74  C   UNL A   1      42.074  21.333  28.106  1.00  0.00     0.020 A 
ATOM     75  C   UNL A   1      42.624  22.179  25.897  1.00  0.00     0.020 A 
ATOM     76  C   UNL A   1      42.273  21.122  26.740  1.00  0.00     0.054 A 
BRANCH  76  77
ATOM     77  S   UNL A   1      42.025  19.456  26.065  1.00  0.00     0.124 S 
ATOM     78  O   UNL A   1      40.585  19.433  25.835  1.00  0.00    -0.237 OA
ATOM     79  O   UNL A   1      42.859  19.474  24.866  1.00  0.00    -0.237 OA
ATOM     80  O   UNL A   1      42.503  18.581  27.134  1.00  0.00    -0.744 OA
ENDBRANCH  76  77
ENDBRANCH  48  71
BRANCH  60  81
ATOM     81  C   UNL A   1      47.953  27.075  30.736  1.00  0.00    -0.014 A 
ATOM     82  C   UNL A   1      49.005  27.242  29.819  1.00  0.00     0.010 A 
ATOM     83  C   UNL A   1      48.232  26.542  32.009  1.00  0.00     0.010 A 
ATOM     84  C   UNL A   1      50.302  26.843  30.151  1.00  0.00     0.020 A 
ATOM     85  C   UNL A   1      49.534  26.174  32.357  1.00  0.00     0.020 A 
ATOM     86  C   UNL A   1      50.558  26.310  31.418  1.00  0.00     0.054 A 
BRANCH  86  87
ATOM     87  S   UNL A   1      52.255  25.826  31.835  1.00  0.00     0.124 S 
ATOM     88  O   UNL A   1      52.096  24.414  32.167  1.00  0.00    -0.237 OA
ATOM     89  O   UNL A   1      52.979  26.103  30.597  1.00  0.00    -0.237 OA
ATOM     90  O   UNL A   1      52.599  26.695  32.958  1.00  0.00    -0.744 OA
ENDBRANCH  86  87
ENDBRANCH  60  81
ENDBRANCH  34  35
ENDBRANCH  26  29
ENDBRANCH  24  25
ENDBRANCH  23  24
ENDBRANCH   1  23
TORSDOF 18
ENDMDL
MODEL 2
REMARK VINA RESULT:     -10.1      3.183      4.258
REMARK SMILES [NH3+][C@H](CCc1c[nH]nc1C(F)(F)F)C(=O)NCCCNC(=O)c1ccc(-c2c3nc(c(-c4ccc(S(=O)(=O)[O-])cc4)c4ccc([nH]4)c(-c4ccc(S(=O)(=O)[O-])cc4)c4nc(c(-c5ccc(S(=O)(=O)[O-])cc5)c5ccc2[nH]5)C=C4)C=C3)cc1
REMARK SMILES IDX 17 1 16 2 14 3 15 4 2 6 1 7 3 11 4 12 5 13 6 14 9 15 7 16
REMARK SMILES IDX 8 17 10 19 11 20 12 21 13 22 18 23 19 24 20 25 21 26 22 28
REMARK SMILES IDX 23 29 24 30 82 31 25 32 81 33 26 34 27 35 28 36 75 37 29 38
REMARK SMILES IDX 80 39 74 40 76 41 30 42 79 43 73 44 72 45 31 47 61 48 42 49
REMARK SMILES IDX 60 50 43 51 46 52 59 53 77 54 44 55 45 56 58 58 78 59 47 60
REMARK SMILES IDX 32 61 33 62 41 63 34 64 40 65 35 66 36 67 37 68 38 69 39 70
REMARK SMILES IDX 62 71 63 72 71 73 64 74 70 75 65 76 66 77 67 78 68 79 69 80
REMARK SMILES IDX 48 81 49 82 57 83 50 84 56 85 51 86 52 87 53 88 54 89 55 90
REMARK H PARENT 16 5 1 8 1 9 1 10 7 18 20 27 76 46 46 57
REMARK Flexibility Score: inf
ROOT
ATOM      1  C   UNL A   1      33.700  25.966  25.210  1.00  0.00     0.118 C 
ENDROOT
BRANCH   1   2
ATOM      2  N   UNL A   1      33.958  25.611  23.835  1.00  0.00    -0.351 N 
ATOM      3  C   UNL A   1      33.094  25.391  22.806  1.00  0.00     0.278 C 
ATOM      4  O   UNL A   1      33.575  24.982  21.744  1.00  0.00    -0.268 OA
ATOM      5  H   UNL A   1      34.910  25.512  23.604  1.00  0.00     0.163 HD
BRANCH   3   6
ATOM      6  C   UNL A   1      31.578  25.686  22.934  1.00  0.00     0.271 C 
BRANCH   6   7
ATOM      7  N   UNL A   1      30.827  24.436  22.790  1.00  0.00    -0.347 N 
ATOM      8  H   UNL A   1      30.246  24.291  23.615  1.00  0.00     0.345 HD
ATOM      9  H   UNL A   1      31.478  23.657  22.691  1.00  0.00     0.345 HD
ATOM     10  H   UNL A   1      30.233  24.489  21.962  1.00  0.00     0.345 HD
ENDBRANCH   6   7
BRANCH   6  11
ATOM     11  C   UNL A   1      31.083  26.963  22.212  1.00  0.00     0.080 C 
BRANCH  11  12
ATOM     12  C   UNL A   1      30.576  28.195  22.983  1.00  0.00     0.046 C 
BRANCH  12  13
ATOM     13  C   UNL A   1      29.097  28.271  23.179  1.00  0.00     0.003 A 
ATOM     14  C   UNL A   1      28.271  27.234  23.561  1.00  0.00     0.109 A 
ATOM     15  C   UNL A   1      28.211  29.396  23.023  1.00  0.00     0.169 A 
ATOM     16  N   UNL A   1      27.006  27.729  23.578  1.00  0.00    -0.285 N 
ATOM     17  N   UNL A   1      26.932  29.020  23.238  1.00  0.00    -0.171 NA
ATOM     18  H   UNL A   1      26.218  27.187  23.816  1.00  0.00     0.189 HD
BRANCH  15  19
ATOM     19  C   UNL A   1      28.547  30.810  22.599  1.00  0.00     0.435 C 
ATOM     20  F   UNL A   1      27.439  31.476  22.166  1.00  0.00    -0.164 F 
ATOM     21  F   UNL A   1      29.094  31.555  23.594  1.00  0.00    -0.164 F 
ATOM     22  F   UNL A   1      29.428  30.852  21.562  1.00  0.00    -0.164 F 
ENDBRANCH  15  19
ENDBRANCH  12  13
ENDBRANCH  11  12
ENDBRANCH   6  11
ENDBRANCH   3   6
ENDBRANCH   1   2
BRANCH   1  23
ATOM     23  C   UNL A   1      33.629  27.479  25.387  1.00  0.00     0.042 C 
BRANCH  23  24
ATOM     24  C   UNL A   1      33.931  27.923  26.815  1.00  0.00     0.118 C 
BRANCH  24  25
ATOM     25  N   UNL A   1      33.557  29.312  27.048  1.00  0.00    -0.352 N 
ATOM     26  C   UNL A   1      34.240  30.307  27.699  1.00  0.00     0.251 C 
ATOM     27  H   UNL A   1      32.681  29.576  26.684  1.00  0.00     0.163 HD
ATOM     28  O   UNL A   1      33.665  31.364  27.959  1.00  0.00    -0.269 OA
BRANCH  26  29
ATOM     29  C   UNL A   1      35.646  30.106  28.102  1.00  0.00     0.039 A 
ATOM     30  C   UNL A   1      35.918  29.685  29.406  1.00  0.00     0.014 A 
ATOM     31  C   UNL A   1      36.695  30.338  27.207  1.00  0.00     0.014 A 
ATOM     32  C   UNL A   1      37.236  29.438  29.792  1.00  0.00     0.010 A 
ATOM     33  C   UNL A   1      37.998  30.008  27.566  1.00  0.00     0.010 A 
ATOM     34  C   UNL A   1      38.284  29.560  28.863  1.00  0.00    -0.014 A 
BRANCH  34  35
ATOM     35  C   UNL A   1      39.677  29.204  29.232  1.00  0.00     0.031 A 
ATOM     36  C   UNL A   1      40.560  30.205  29.928  1.00  0.00     0.074 A 
ATOM     37  C   UNL A   1      40.162  27.994  28.893  1.00  0.00     0.049 A 
ATOM     38  N   UNL A   1      41.806  30.079  30.306  1.00  0.00    -0.248 NA
ATOM     39  C   UNL A   1      39.978  31.526  30.216  1.00  0.00     0.031 C 
ATOM     40  C   UNL A   1      39.419  26.955  28.172  1.00  0.00     0.029 A 
ATOM     41  N   UNL A   1      41.395  27.429  29.105  1.00  0.00    -0.354 N 
ATOM     42  C   UNL A   1      42.160  31.303  30.864  1.00  0.00     0.074 A 
ATOM     43  C   UNL A   1      41.016  32.177  30.722  1.00  0.00     0.031 C 
ATOM     44  C   UNL A   1      40.196  25.869  28.039  1.00  0.00     0.029 A 
ATOM     45  C   UNL A   1      41.506  26.147  28.620  1.00  0.00     0.049 A 
ATOM     46  H   UNL A   1      42.129  27.897  29.564  1.00  0.00     0.167 HD
ATOM     47  C   UNL A   1      43.323  31.662  31.457  1.00  0.00     0.031 A 
ATOM     48  C   UNL A   1      42.546  25.290  28.634  1.00  0.00     0.031 A 
ATOM     49  C   UNL A   1      44.457  30.786  31.597  1.00  0.00     0.049 A 
ATOM     50  C   UNL A   1      43.831  25.716  29.288  1.00  0.00     0.074 A 
ATOM     51  C   UNL A   1      45.663  31.035  32.229  1.00  0.00     0.029 A 
ATOM     52  N   UNL A   1      44.530  29.496  31.092  1.00  0.00    -0.354 N 
ATOM     53  N   UNL A   1      44.121  26.854  29.873  1.00  0.00    -0.248 NA
ATOM     54  C   UNL A   1      44.925  24.737  29.296  1.00  0.00     0.031 C 
ATOM     55  C   UNL A   1      46.487  29.919  32.053  1.00  0.00     0.029 A 
ATOM     56  C   UNL A   1      45.770  28.947  31.373  1.00  0.00     0.049 A 
ATOM     57  H   UNL A   1      43.807  29.038  30.605  1.00  0.00     0.167 HD
ATOM     58  C   UNL A   1      45.421  26.717  30.344  1.00  0.00     0.074 A 
ATOM     59  C   UNL A   1      45.853  25.379  29.993  1.00  0.00     0.031 C 
ATOM     60  C   UNL A   1      46.188  27.615  31.010  1.00  0.00     0.031 A 
BRANCH  47  61
ATOM     61  C   UNL A   1      43.431  33.067  31.994  1.00  0.00    -0.014 A 
ATOM     62  C   UNL A   1      43.153  33.354  33.343  1.00  0.00     0.010 A 
ATOM     63  C   UNL A   1      43.859  34.107  31.150  1.00  0.00     0.010 A 
ATOM     64  C   UNL A   1      43.259  34.661  33.828  1.00  0.00     0.020 A 
ATOM     65  C   UNL A   1      43.999  35.409  31.638  1.00  0.00     0.020 A 
ATOM     66  C   UNL A   1      43.682  35.680  32.971  1.00  0.00     0.054 A 
BRANCH  66  67
ATOM     67  S   UNL A   1      43.839  37.362  33.634  1.00  0.00     0.124 S 
ATOM     68  O   UNL A   1      42.507  37.594  34.185  1.00  0.00    -0.237 OA
ATOM     69  O   UNL A   1      44.909  37.218  34.617  1.00  0.00    -0.237 OA
ATOM     70  O   UNL A   1      44.178  38.168  32.464  1.00  0.00    -0.744 OA
ENDBRANCH  66  67
ENDBRANCH  47  61
BRANCH  48  71
ATOM     71  C   UNL A   1      42.406  23.940  28.021  1.00  0.00    -0.014 A 
ATOM     72  C   UNL A   1      42.470  23.776  26.627  1.00  0.00     0.010 A 
ATOM     73  C   UNL A   1      42.221  22.807  28.834  1.00  0.00     0.010 A 
ATOM     74  C   UNL A   1      42.331  22.508  26.055  1.00  0.00     0.020 A 
ATOM     75  C   UNL A   1      42.114  21.533  28.269  1.00  0.00     0.020 A 
ATOM     76  C   UNL A   1      42.157  21.394  26.880  1.00  0.00     0.054 A 
BRANCH  76  77
ATOM     77  S   UNL A   1      42.029  19.752  26.119  1.00  0.00     0.124 S 
ATOM     78  O   UNL A   1      40.633  19.721  25.696  1.00  0.00    -0.237 OA
ATOM     79  O   UNL A   1      43.016  19.825  25.044  1.00  0.00    -0.237 OA
ATOM     80  O   UNL A   1      42.374  18.842  27.210  1.00  0.00    -0.744 OA
ENDBRANCH  76  77
ENDBRANCH  48  71
BRANCH  60  81
ATOM     81  C   UNL A   1      47.564  27.170  31.433  1.00  0.00    -0.014 A 
ATOM     82  C   UNL A   1      48.687  27.376  30.614  1.00  0.00     0.010 A 
ATOM     83  C   UNL A   1      47.738  26.569  32.695  1.00  0.00     0.010 A 
ATOM     84  C   UNL A   1      49.952  26.950  31.028  1.00  0.00     0.020 A 
ATOM     85  C   UNL A   1      49.006  26.173  33.127  1.00  0.00     0.020 A 
ATOM     86  C   UNL A   1      50.103  26.350  32.282  1.00  0.00     0.054 A 
BRANCH  86  87
ATOM     87  S   UNL A   1      51.759  25.833  32.808  1.00  0.00     0.124 S 
ATOM     88  O   UNL A   1      52.417  25.573  31.530  1.00  0.00    -0.237 OA
ATOM     89  O   UNL A   1      52.243  27.002  33.537  1.00  0.00    -0.237 OA
ATOM     90  O   UNL A   1      51.510  24.652  33.631  1.00  0.00    -0.744 OA
ENDBRANCH  86  87
ENDBRANCH  60  81
ENDBRANCH  34  35
ENDBRANCH  26  29
ENDBRANCH  24  25
ENDBRANCH  23  24
ENDBRANCH   1  23
TORSDOF 18
ENDMDL
MODEL 3
REMARK VINA RESULT:     -10.0      3.401      9.570
REMARK SMILES [NH3+][C@H](CCc1c[nH]nc1C(F)(F)F)C(=O)NCCCNC(=O)c1ccc(-c2c3nc(c(-c4ccc(S(=O)(=O)[O-])cc4)c4ccc([nH]4)c(-c4ccc(S(=O)(=O)[O-])cc4)c4nc(c(-c5ccc(S(=O)(=O)[O-])cc5)c5ccc2[nH]5)C=C4)C=C3)cc1
REMARK SMILES IDX 17 1 16 2 14 3 15 4 2 6 1 7 3 11 4 12 5 13 6 14 9 15 7 16
REMARK SMILES IDX 8 17 10 19 11 20 12 21 13 22 18 23 19 24 20 25 21 26 22 28
REMARK SMILES IDX 23 29 24 30 82 31 25 32 81 33 26 34 27 35 28 36 75 37 29 38
REMARK SMILES IDX 80 39 74 40 76 41 30 42 79 43 73 44 72 45 31 47 61 48 42 49
REMARK SMILES IDX 60 50 43 51 46 52 59 53 77 54 44 55 45 56 58 58 78 59 47 60
REMARK SMILES IDX 32 61 33 62 41 63 34 64 40 65 35 66 36 67 37 68 38 69 39 70
REMARK SMILES IDX 62 71 63 72 71 73 64 74 70 75 65 76 66 77 67 78 68 79 69 80
REMARK SMILES IDX 48 81 49 82 57 83 50 84 56 85 51 86 52 87 53 88 54 89 55 90
REMARK H PARENT 16 5 1 8 1 9 1 10 7 18 20 27 76 46 46 57
REMARK Flexibility Score: inf
ROOT
ATOM      1  C   UNL A   1      34.564  23.826  23.967  1.00  0.00     0.118 C 
ENDROOT
BRANCH   1   2
ATOM      2  N   UNL A   1      34.272  24.596  22.782  1.00  0.00    -0.351 N 
ATOM      3  C   UNL A   1      33.083  25.055  22.301  1.00  0.00     0.278 C 
ATOM      4  O   UNL A   1      33.096  25.596  21.191  1.00  0.00    -0.268 OA
ATOM      5  H   UNL A   1      35.056  24.827  22.234  1.00  0.00     0.163 HD
BRANCH   3   6
ATOM      6  C   UNL A   1      31.774  24.952  23.123  1.00  0.00     0.271 C 
BRANCH   6   7
ATOM      7  N   UNL A   1      31.086  23.702  22.787  1.00  0.00    -0.347 N 
ATOM      8  H   UNL A   1      31.395  22.964  23.419  1.00  0.00     0.345 HD
ATOM      9  H   UNL A   1      31.307  23.441  21.826  1.00  0.00     0.345 HD
ATOM     10  H   UNL A   1      30.079  23.832  22.882  1.00  0.00     0.345 HD
ENDBRANCH   6   7
BRANCH   6  11
ATOM     11  C   UNL A   1      30.960  26.263  23.248  1.00  0.00     0.080 C 
BRANCH  11  12
ATOM     12  C   UNL A   1      31.552  27.538  23.875  1.00  0.00     0.046 C 
BRANCH  12  13
ATOM     13  C   UNL A   1      31.461  27.630  25.363  1.00  0.00     0.003 A 
ATOM     14  C   UNL A   1      31.089  26.615  26.221  1.00  0.00     0.109 A 
ATOM     15  C   UNL A   1      31.725  28.750  26.229  1.00  0.00     0.169 A 
ATOM     16  N   UNL A   1      31.102  27.138  27.474  1.00  0.00    -0.285 N 
ATOM     17  N   UNL A   1      31.460  28.426  27.512  1.00  0.00    -0.171 NA
ATOM     18  H   UNL A   1      30.870  26.618  28.278  1.00  0.00     0.189 HD
BRANCH  15  19
ATOM     19  C   UNL A   1      32.156  30.152  25.852  1.00  0.00     0.435 C 
ATOM     20  F   UNL A   1      32.557  30.860  26.946  1.00  0.00    -0.164 F 
ATOM     21  F   UNL A   1      33.183  30.179  24.963  1.00  0.00    -0.164 F 
ATOM     22  F   UNL A   1      31.149  30.879  25.294  1.00  0.00    -0.164 F 
ENDBRANCH  15  19
ENDBRANCH  12  13
ENDBRANCH  11  12
ENDBRANCH   6  11
ENDBRANCH   3   6
ENDBRANCH   1   2
BRANCH   1  23
ATOM     23  C   UNL A   1      35.981  23.264  23.926  1.00  0.00     0.042 C 
BRANCH  23  24
ATOM     24  C   UNL A   1      36.825  23.697  25.121  1.00  0.00     0.118 C 
BRANCH  24  25
ATOM     25  N   UNL A   1      37.850  22.717  25.453  1.00  0.00    -0.352 N 
ATOM     26  C   UNL A   1      39.047  22.884  26.101  1.00  0.00     0.251 C 
ATOM     27  H   UNL A   1      37.654  21.795  25.169  1.00  0.00     0.163 HD
ATOM     28  O   UNL A   1      39.862  21.963  26.111  1.00  0.00    -0.269 OA
BRANCH  26  29
ATOM     29  C   UNL A   1      39.364  24.165  26.763  1.00  0.00     0.039 A 
ATOM     30  C   UNL A   1      38.939  24.366  28.078  1.00  0.00     0.014 A 
ATOM     31  C   UNL A   1      40.069  25.169  26.093  1.00  0.00     0.014 A 
ATOM     32  C   UNL A   1      39.274  25.548  28.740  1.00  0.00     0.010 A 
ATOM     33  C   UNL A   1      40.475  26.308  26.781  1.00  0.00     0.010 A 
ATOM     34  C   UNL A   1      40.079  26.513  28.110  1.00  0.00    -0.014 A 
BRANCH  34  35
ATOM     35  C   UNL A   1      40.525  27.728  28.837  1.00  0.00     0.031 A 
ATOM     36  C   UNL A   1      41.887  27.777  29.475  1.00  0.00     0.074 A 
ATOM     37  C   UNL A   1      39.679  28.769  28.963  1.00  0.00     0.049 A 
ATOM     38  N   UNL A   1      42.437  28.743  30.166  1.00  0.00    -0.248 NA
ATOM     39  C   UNL A   1      42.733  26.580  29.342  1.00  0.00     0.031 C 
ATOM     40  C   UNL A   1      38.314  28.822  28.431  1.00  0.00     0.029 A 
ATOM     41  N   UNL A   1      39.839  29.985  29.580  1.00  0.00    -0.354 N 
ATOM     42  C   UNL A   1      43.683  28.267  30.559  1.00  0.00     0.074 A 
ATOM     43  C   UNL A   1      43.785  26.907  30.079  1.00  0.00     0.031 C 
ATOM     44  C   UNL A   1      37.778  30.020  28.709  1.00  0.00     0.029 A 
ATOM     45  C   UNL A   1      38.738  30.804  29.479  1.00  0.00     0.049 A 
ATOM     46  H   UNL A   1      40.664  30.246  30.049  1.00  0.00     0.167 HD
ATOM     47  C   UNL A   1      44.661  28.910  31.240  1.00  0.00     0.031 A 
ATOM     48  C   UNL A   1      38.522  32.045  29.956  1.00  0.00     0.031 A 
ATOM     49  C   UNL A   1      44.553  30.266  31.712  1.00  0.00     0.049 A 
ATOM     50  C   UNL A   1      39.619  32.734  30.720  1.00  0.00     0.074 A 
ATOM     51  C   UNL A   1      45.508  31.027  32.365  1.00  0.00     0.029 A 
ATOM     52  N   UNL A   1      43.423  31.061  31.591  1.00  0.00    -0.354 N 
ATOM     53  N   UNL A   1      40.818  32.292  31.019  1.00  0.00    -0.248 NA
ATOM     54  C   UNL A   1      39.339  34.093  31.198  1.00  0.00     0.031 C 
ATOM     55  C   UNL A   1      44.934  32.260  32.692  1.00  0.00     0.029 A 
ATOM     56  C   UNL A   1      43.646  32.294  32.180  1.00  0.00     0.049 A 
ATOM     57  H   UNL A   1      42.586  30.789  31.149  1.00  0.00     0.167 HD
ATOM     58  C   UNL A   1      41.446  33.331  31.696  1.00  0.00     0.074 A 
ATOM     59  C   UNL A   1      40.500  34.429  31.744  1.00  0.00     0.031 C 
ATOM     60  C   UNL A   1      42.692  33.374  32.227  1.00  0.00     0.031 A 
BRANCH  47  61
ATOM     61  C   UNL A   1      45.933  28.151  31.521  1.00  0.00    -0.014 A 
ATOM     62  C   UNL A   1      46.090  27.404  32.703  1.00  0.00     0.010 A 
ATOM     63  C   UNL A   1      46.969  28.146  30.570  1.00  0.00     0.010 A 
ATOM     64  C   UNL A   1      47.274  26.703  32.949  1.00  0.00     0.020 A 
ATOM     65  C   UNL A   1      48.142  27.419  30.796  1.00  0.00     0.020 A 
ATOM     66  C   UNL A   1      48.293  26.716  31.992  1.00  0.00     0.054 A 
BRANCH  66  67
ATOM     67  S   UNL A   1      49.807  25.774  32.325  1.00  0.00     0.124 S 
ATOM     68  O   UNL A   1      50.185  25.327  30.987  1.00  0.00    -0.237 OA
ATOM     69  O   UNL A   1      50.682  26.779  32.922  1.00  0.00    -0.237 OA
ATOM     70  O   UNL A   1      49.368  24.718  33.234  1.00  0.00    -0.744 OA
ENDBRANCH  66  67
ENDBRANCH  47  61
BRANCH  48  71
ATOM     71  C   UNL A   1      37.217  32.719  29.711  1.00  0.00    -0.014 A 
ATOM     72  C   UNL A   1      36.195  32.673  30.675  1.00  0.00     0.010 A 
ATOM     73  C   UNL A   1      36.994  33.424  28.514  1.00  0.00     0.010 A 
ATOM     74  C   UNL A   1      34.968  33.301  30.438  1.00  0.00     0.020 A 
ATOM     75  C   UNL A   1      35.781  34.080  28.286  1.00  0.00     0.020 A 
ATOM     76  C   UNL A   1      34.770  34.003  29.246  1.00  0.00     0.054 A 
BRANCH  76  77
ATOM     77  S   UNL A   1      33.189  34.852  28.982  1.00  0.00     0.124 S 
ATOM     78  O   UNL A   1      32.609  34.838  30.320  1.00  0.00    -0.237 OA
ATOM     79  O   UNL A   1      33.612  36.160  28.488  1.00  0.00    -0.237 OA
ATOM     80  O   UNL A   1      32.511  34.012  27.996  1.00  0.00    -0.744 OA
ENDBRANCH  76  77
ENDBRANCH  48  71
BRANCH  60  81
ATOM     81  C   UNL A   1      43.121  34.664  32.878  1.00  0.00    -0.014 A 
ATOM     82  C   UNL A   1      43.734  35.691  32.140  1.00  0.00     0.010 A 
ATOM     83  C   UNL A   1      42.868  34.864  34.249  1.00  0.00     0.010 A 
ATOM     84  C   UNL A   1      44.126  36.876  32.768  1.00  0.00     0.020 A 
ATOM     85  C   UNL A   1      43.227  36.061  34.873  1.00  0.00     0.020 A 
ATOM     86  C   UNL A   1      43.870  37.053  34.131  1.00  0.00     0.054 A 
BRANCH  86  87
ATOM     87  S   UNL A   1      44.362  38.612  34.916  1.00  0.00     0.124 S 
ATOM     88  O   UNL A   1      45.764  38.721  34.522  1.00  0.00    -0.237 OA
ATOM     89  O   UNL A   1      43.459  39.579  34.299  1.00  0.00    -0.237 OA
ATOM     90  O   UNL A   1      44.132  38.373  36.339  1.00  0.00    -0.744 OA
ENDBRANCH  86  87
ENDBRANCH  60  81
ENDBRANCH  34  35
ENDBRANCH  26  29
ENDBRANCH  24  25
ENDBRANCH  23  24
ENDBRANCH   1  23
TORSDOF 18
ENDMDL
