MODEL 1
REMARK VINA RESULT:     -11.0      0.000      0.000
REMARK SMILES C[C@@H](C(=O)NCCCNC(=O)c1ccc(-c2c3nc(c(-c4ccc(S(=O)(=O)[O-])cc4)c4ccc([nH]4)c(-c4ccc(S(=O)(=O)[O-])cc4)c4nc(c(-c5ccc(S(=O)(=O)[O-])cc5)c5ccc2[nH]5)C=C4)C=C3)cc1)c1ccc(C[C@@H]2CCC[C@@H]2O)cc1F
REMARK SMILES IDX 6 1 5 2 3 3 4 4 2 6 1 7 72 8 73 9 84 10 74 11 83 12 85 13
REMARK SMILES IDX 75 14 76 15 77 16 78 17 81 18 79 19 80 20 82 21 7 23 8 24
REMARK SMILES IDX 9 25 10 26 11 28 12 29 13 30 71 31 14 32 70 33 15 34 16 35
REMARK SMILES IDX 17 36 64 37 18 38 69 39 63 40 65 41 19 42 68 43 62 44 61 45
REMARK SMILES IDX 20 47 50 48 31 49 49 50 32 51 35 52 48 53 66 54 33 55 34 56
REMARK SMILES IDX 47 58 67 59 36 60 21 61 22 62 30 63 23 64 29 65 24 66 25 67
REMARK SMILES IDX 26 68 27 69 28 70 51 71 52 72 60 73 53 74 59 75 54 76 55 77
REMARK SMILES IDX 56 78 57 79 58 80 37 81 38 82 46 83 39 84 45 85 40 86 41 87
REMARK SMILES IDX 42 88 43 89 44 90
REMARK H PARENT 5 5 82 22 9 27 65 46 35 57
REMARK Flexibility Score: inf
ROOT
ATOM      1  C   UNL A   1      32.404  26.261  25.931  1.00  0.00     0.117 C 
ENDROOT
BRANCH   1   2
ATOM      2  N   UNL A   1      31.290  25.811  25.120  1.00  0.00    -0.356 N 
ATOM      3  C   UNL A   1      31.276  25.192  23.903  1.00  0.00     0.227 C 
ATOM      4  O   UNL A   1      30.171  25.030  23.379  1.00  0.00    -0.274 OA
ATOM      5  H   UNL A   1      30.401  25.980  25.507  1.00  0.00     0.163 HD
BRANCH   3   6
ATOM      6  C   UNL A   1      32.590  24.714  23.255  1.00  0.00     0.108 C 
ATOM      7  C   UNL A   1      32.773  25.327  21.862  1.00  0.00     0.023 C 
BRANCH   6   8
ATOM      8  C   UNL A   1      32.657  23.189  23.241  1.00  0.00    -0.000 A 
ATOM      9  C   UNL A   1      31.909  22.403  22.354  1.00  0.00     0.008 A 
ATOM     10  C   UNL A   1      33.438  22.529  24.196  1.00  0.00     0.127 A 
ATOM     11  C   UNL A   1      31.936  21.010  22.434  1.00  0.00     0.004 A 
ATOM     12  C   UNL A   1      33.444  21.139  24.303  1.00  0.00     0.043 A 
ATOM     13  F   UNL A   1      34.186  23.243  25.052  1.00  0.00    -0.207 F 
ATOM     14  C   UNL A   1      32.663  20.362  23.438  1.00  0.00    -0.045 A 
BRANCH  14  15
ATOM     15  C   UNL A   1      32.582  18.866  23.607  1.00  0.00     0.041 C 
BRANCH  15  16
ATOM     16  C   UNL A   1      33.714  18.161  24.392  1.00  0.00     0.022 C 
ATOM     17  C   UNL A   1      34.274  16.887  23.748  1.00  0.00     0.007 C 
ATOM     18  C   UNL A   1      33.387  17.693  25.814  1.00  0.00     0.117 C 
ATOM     19  C   UNL A   1      33.605  15.704  24.456  1.00  0.00     0.003 C 
ATOM     20  C   UNL A   1      32.846  16.280  25.648  1.00  0.00     0.032 C 
BRANCH  18  21
ATOM     21  O   UNL A   1      32.494  18.554  26.490  1.00  0.00    -0.393 OA
ATOM     22  H   UNL A   1      32.693  18.544  27.440  1.00  0.00     0.210 HD
ENDBRANCH  18  21
ENDBRANCH  15  16
ENDBRANCH  14  15
ENDBRANCH   6   8
ENDBRANCH   3   6
ENDBRANCH   1   2
BRANCH   1  23
ATOM     23  C   UNL A   1      32.369  27.775  26.139  1.00  0.00     0.042 C 
BRANCH  23  24
ATOM     24  C   UNL A   1      33.649  28.355  26.735  1.00  0.00     0.118 C 
BRANCH  24  25
ATOM     25  N   UNL A   1      33.520  29.767  27.059  1.00  0.00    -0.352 N 
ATOM     26  C   UNL A   1      34.352  30.586  27.782  1.00  0.00     0.251 C 
ATOM     27  H   UNL A   1      32.712  30.204  26.705  1.00  0.00     0.163 HD
ATOM     28  O   UNL A   1      33.953  31.703  28.110  1.00  0.00    -0.269 OA
BRANCH  26  29
ATOM     29  C   UNL A   1      35.704  30.138  28.181  1.00  0.00     0.039 A 
ATOM     30  C   UNL A   1      36.737  30.194  27.241  1.00  0.00     0.014 A 
ATOM     31  C   UNL A   1      35.953  29.624  29.457  1.00  0.00     0.014 A 
ATOM     32  C   UNL A   1      38.026  29.788  27.595  1.00  0.00     0.010 A 
ATOM     33  C   UNL A   1      37.253  29.288  29.832  1.00  0.00     0.010 A 
ATOM     34  C   UNL A   1      38.303  29.359  28.904  1.00  0.00    -0.014 A 
BRANCH  34  35
ATOM     35  C   UNL A   1      39.679  28.980  29.316  1.00  0.00     0.031 A 
ATOM     36  C   UNL A   1      40.545  29.956  30.067  1.00  0.00     0.074 A 
ATOM     37  C   UNL A   1      40.174  27.778  28.959  1.00  0.00     0.049 A 
ATOM     38  N   UNL A   1      41.786  29.825  30.460  1.00  0.00    -0.248 NA
ATOM     39  C   UNL A   1      39.945  31.258  30.400  1.00  0.00     0.031 C 
ATOM     40  C   UNL A   1      39.451  26.755  28.202  1.00  0.00     0.029 A 
ATOM     41  N   UNL A   1      41.406  27.215  29.183  1.00  0.00    -0.354 N 
ATOM     42  C   UNL A   1      42.121  31.031  31.065  1.00  0.00     0.074 A 
ATOM     43  C   UNL A   1      40.967  31.896  30.948  1.00  0.00     0.031 C 
ATOM     44  C   UNL A   1      40.242  25.681  28.047  1.00  0.00     0.029 A 
ATOM     45  C   UNL A   1      41.540  25.952  28.656  1.00  0.00     0.049 A 
ATOM     46  H   UNL A   1      42.126  27.673  29.675  1.00  0.00     0.167 HD
ATOM     47  C   UNL A   1      43.277  31.383  31.679  1.00  0.00     0.031 A 
ATOM     48  C   UNL A   1      42.590  25.108  28.655  1.00  0.00     0.031 A 
ATOM     49  C   UNL A   1      44.421  30.517  31.802  1.00  0.00     0.049 A 
ATOM     50  C   UNL A   1      43.867  25.522  29.332  1.00  0.00     0.074 A 
ATOM     51  C   UNL A   1      45.618  30.759  32.455  1.00  0.00     0.029 A 
ATOM     52  N   UNL A   1      44.514  29.244  31.258  1.00  0.00    -0.354 N 
ATOM     53  N   UNL A   1      44.143  26.644  29.953  1.00  0.00    -0.248 NA
ATOM     54  C   UNL A   1      44.970  24.552  29.316  1.00  0.00     0.031 C 
ATOM     55  C   UNL A   1      46.453  29.654  32.260  1.00  0.00     0.029 A 
ATOM     56  C   UNL A   1      45.756  28.699  31.537  1.00  0.00     0.049 A 
ATOM     57  H   UNL A   1      43.801  28.795  30.748  1.00  0.00     0.167 HD
ATOM     58  C   UNL A   1      45.443  26.503  30.427  1.00  0.00     0.074 A 
ATOM     59  C   UNL A   1      45.892  25.185  30.030  1.00  0.00     0.031 C 
ATOM     60  C   UNL A   1      46.193  27.386  31.131  1.00  0.00     0.031 A 
BRANCH  47  61
ATOM     61  C   UNL A   1      43.364  32.774  32.251  1.00  0.00    -0.014 A 
ATOM     62  C   UNL A   1      42.939  33.049  33.564  1.00  0.00     0.010 A 
ATOM     63  C   UNL A   1      43.895  33.818  31.474  1.00  0.00     0.010 A 
ATOM     64  C   UNL A   1      42.991  34.352  34.067  1.00  0.00     0.020 A 
ATOM     65  C   UNL A   1      43.977  35.118  31.984  1.00  0.00     0.020 A 
ATOM     66  C   UNL A   1      43.503  35.380  33.270  1.00  0.00     0.054 A 
BRANCH  66  67
ATOM     67  S   UNL A   1      43.558  37.062  33.947  1.00  0.00     0.124 S 
ATOM     68  O   UNL A   1      44.804  37.039  34.708  1.00  0.00    -0.237 OA
ATOM     69  O   UNL A   1      43.573  37.891  32.744  1.00  0.00    -0.237 OA
ATOM     70  O   UNL A   1      42.340  37.154  34.748  1.00  0.00    -0.744 OA
ENDBRANCH  66  67
ENDBRANCH  47  61
BRANCH  48  71
ATOM     71  C   UNL A   1      42.463  23.775  28.008  1.00  0.00    -0.014 A 
ATOM     72  C   UNL A   1      43.041  23.539  26.748  1.00  0.00     0.010 A 
ATOM     73  C   UNL A   1      41.792  22.725  28.660  1.00  0.00     0.010 A 
ATOM     74  C   UNL A   1      42.944  22.279  26.149  1.00  0.00     0.020 A 
ATOM     75  C   UNL A   1      41.715  21.456  28.076  1.00  0.00     0.020 A 
ATOM     76  C   UNL A   1      42.286  21.244  26.820  1.00  0.00     0.054 A 
BRANCH  76  77
ATOM     77  S   UNL A   1      42.233  19.600  26.055  1.00  0.00     0.124 S 
ATOM     78  O   UNL A   1      40.818  19.460  25.729  1.00  0.00    -0.237 OA
ATOM     79  O   UNL A   1      43.134  19.754  24.915  1.00  0.00    -0.237 OA
ATOM     80  O   UNL A   1      42.724  18.716  27.110  1.00  0.00    -0.744 OA
ENDBRANCH  76  77
ENDBRANCH  48  71
BRANCH  60  81
ATOM     81  C   UNL A   1      47.572  26.946  31.548  1.00  0.00    -0.014 A 
ATOM     82  C   UNL A   1      47.792  26.297  32.775  1.00  0.00     0.010 A 
ATOM     83  C   UNL A   1      48.655  27.138  30.670  1.00  0.00     0.010 A 
ATOM     84  C   UNL A   1      49.075  25.875  33.131  1.00  0.00     0.020 A 
ATOM     85  C   UNL A   1      49.935  26.691  31.010  1.00  0.00     0.020 A 
ATOM     86  C   UNL A   1      50.139  26.074  32.245  1.00  0.00     0.054 A 
BRANCH  86  87
ATOM     87  S   UNL A   1      51.788  25.476  32.709  1.00  0.00     0.124 S 
ATOM     88  O   UNL A   1      52.393  26.672  33.290  1.00  0.00    -0.237 OA
ATOM     89  O   UNL A   1      51.485  24.403  33.653  1.00  0.00    -0.237 OA
ATOM     90  O   UNL A   1      52.367  25.037  31.442  1.00  0.00    -0.744 OA
ENDBRANCH  86  87
ENDBRANCH  60  81
ENDBRANCH  34  35
ENDBRANCH  26  29
ENDBRANCH  24  25
ENDBRANCH  23  24
ENDBRANCH   1  23
TORSDOF 17
ENDMDL
MODEL 2
REMARK VINA RESULT:     -10.7      3.363      4.384
REMARK SMILES C[C@@H](C(=O)NCCCNC(=O)c1ccc(-c2c3nc(c(-c4ccc(S(=O)(=O)[O-])cc4)c4ccc([nH]4)c(-c4ccc(S(=O)(=O)[O-])cc4)c4nc(c(-c5ccc(S(=O)(=O)[O-])cc5)c5ccc2[nH]5)C=C4)C=C3)cc1)c1ccc(C[C@@H]2CCC[C@@H]2O)cc1F
REMARK SMILES IDX 6 1 5 2 3 3 4 4 2 6 1 7 72 8 73 9 84 10 74 11 83 12 85 13
REMARK SMILES IDX 75 14 76 15 77 16 78 17 81 18 79 19 80 20 82 21 7 23 8 24
REMARK SMILES IDX 9 25 10 26 11 28 12 29 13 30 71 31 14 32 70 33 15 34 16 35
REMARK SMILES IDX 17 36 64 37 18 38 69 39 63 40 65 41 19 42 68 43 62 44 61 45
REMARK SMILES IDX 20 47 50 48 31 49 49 50 32 51 35 52 48 53 66 54 33 55 34 56
REMARK SMILES IDX 47 58 67 59 36 60 21 61 22 62 30 63 23 64 29 65 24 66 25 67
REMARK SMILES IDX 26 68 27 69 28 70 51 71 52 72 60 73 53 74 59 75 54 76 55 77
REMARK SMILES IDX 56 78 57 79 58 80 37 81 38 82 46 83 39 84 45 85 40 86 41 87
REMARK SMILES IDX 42 88 43 89 44 90
REMARK H PARENT 5 5 82 22 9 27 65 46 35 57
REMARK Flexibility Score: inf
ROOT
ATOM      1  C   UNL A   1      33.617  30.184  26.926  1.00  0.00     0.117 C 
ENDROOT
BRANCH   1   2
ATOM      2  N   UNL A   1      32.658  29.351  27.625  1.00  0.00    -0.356 N 
ATOM      3  C   UNL A   1      31.922  28.290  27.184  1.00  0.00     0.227 C 
ATOM      4  O   UNL A   1      31.082  27.837  27.966  1.00  0.00    -0.274 OA
ATOM      5  H   UNL A   1      32.514  29.589  28.570  1.00  0.00     0.163 HD
BRANCH   3   6
ATOM      6  C   UNL A   1      32.167  27.699  25.781  1.00  0.00     0.108 C 
ATOM      7  C   UNL A   1      31.242  28.344  24.742  1.00  0.00     0.023 C 
BRANCH   6   8
ATOM      8  C   UNL A   1      32.048  26.178  25.812  1.00  0.00    -0.000 A 
ATOM      9  C   UNL A   1      33.157  25.330  25.931  1.00  0.00     0.008 A 
ATOM     10  C   UNL A   1      30.791  25.587  25.644  1.00  0.00     0.127 A 
ATOM     11  C   UNL A   1      33.009  23.943  25.867  1.00  0.00     0.004 A 
ATOM     12  C   UNL A   1      30.640  24.204  25.547  1.00  0.00     0.043 A 
ATOM     13  F   UNL A   1      29.699  26.361  25.547  1.00  0.00    -0.207 F 
ATOM     14  C   UNL A   1      31.758  23.365  25.627  1.00  0.00    -0.045 A 
BRANCH  14  15
ATOM     15  C   UNL A   1      31.622  21.877  25.424  1.00  0.00     0.041 C 
BRANCH  15  16
ATOM     16  C   UNL A   1      32.816  21.118  24.797  1.00  0.00     0.022 C 
ATOM     17  C   UNL A   1      32.511  20.359  23.499  1.00  0.00     0.007 C 
ATOM     18  C   UNL A   1      33.484  20.040  25.657  1.00  0.00     0.117 C 
ATOM     19  C   UNL A   1      32.308  18.889  23.884  1.00  0.00     0.003 C 
ATOM     20  C   UNL A   1      32.719  18.760  25.347  1.00  0.00     0.032 C 
BRANCH  18  21
ATOM     21  O   UNL A   1      33.500  20.359  27.033  1.00  0.00    -0.393 OA
ATOM     22  H   UNL A   1      33.052  19.658  27.532  1.00  0.00     0.210 HD
ENDBRANCH  18  21
ENDBRANCH  15  16
ENDBRANCH  14  15
ENDBRANCH   6   8
ENDBRANCH   3   6
ENDBRANCH   1   2
BRANCH   1  23
ATOM     23  C   UNL A   1      34.396  31.073  27.895  1.00  0.00     0.042 C 
BRANCH  23  24
ATOM     24  C   UNL A   1      35.422  30.326  28.743  1.00  0.00     0.118 C 
BRANCH  24  25
ATOM     25  N   UNL A   1      35.507  30.849  30.098  1.00  0.00    -0.352 N 
ATOM     26  C   UNL A   1      36.559  30.847  30.980  1.00  0.00     0.251 C 
ATOM     27  H   UNL A   1      34.684  31.271  30.435  1.00  0.00     0.163 HD
ATOM     28  O   UNL A   1      36.357  31.162  32.152  1.00  0.00    -0.269 OA
BRANCH  26  29
ATOM     29  C   UNL A   1      37.919  30.459  30.544  1.00  0.00     0.039 A 
ATOM     30  C   UNL A   1      38.607  29.485  31.274  1.00  0.00     0.014 A 
ATOM     31  C   UNL A   1      38.537  31.076  29.452  1.00  0.00     0.014 A 
ATOM     32  C   UNL A   1      39.888  29.092  30.877  1.00  0.00     0.010 A 
ATOM     33  C   UNL A   1      39.783  30.631  29.014  1.00  0.00     0.010 A 
ATOM     34  C   UNL A   1      40.476  29.640  29.725  1.00  0.00    -0.014 A 
BRANCH  34  35
ATOM     35  C   UNL A   1      41.813  29.191  29.254  1.00  0.00     0.031 A 
ATOM     36  C   UNL A   1      42.963  30.161  29.196  1.00  0.00     0.074 A 
ATOM     37  C   UNL A   1      41.976  27.927  28.819  1.00  0.00     0.049 A 
ATOM     38  N   UNL A   1      44.183  29.968  28.763  1.00  0.00    -0.248 NA
ATOM     39  C   UNL A   1      42.703  31.531  29.665  1.00  0.00     0.031 C 
ATOM     40  C   UNL A   1      40.933  26.899  28.791  1.00  0.00     0.029 A 
ATOM     41  N   UNL A   1      43.082  27.290  28.312  1.00  0.00    -0.354 N 
ATOM     42  C   UNL A   1      44.827  31.194  28.886  1.00  0.00     0.074 A 
ATOM     43  C   UNL A   1      43.850  32.134  29.393  1.00  0.00     0.031 C 
ATOM     44  C   UNL A   1      41.455  25.756  28.318  1.00  0.00     0.029 A 
ATOM     45  C   UNL A   1      42.855  25.978  27.970  1.00  0.00     0.049 A 
ATOM     46  H   UNL A   1      43.955  27.732  28.202  1.00  0.00     0.167 HD
ATOM     47  C   UNL A   1      46.118  31.507  28.619  1.00  0.00     0.031 A 
ATOM     48  C   UNL A   1      43.677  25.056  27.432  1.00  0.00     0.031 A 
ATOM     49  C   UNL A   1      47.090  30.568  28.123  1.00  0.00     0.049 A 
ATOM     50  C   UNL A   1      45.102  25.428  27.133  1.00  0.00     0.074 A 
ATOM     51  C   UNL A   1      48.437  30.773  27.875  1.00  0.00     0.029 A 
ATOM     52  N   UNL A   1      46.821  29.247  27.795  1.00  0.00    -0.354 N 
ATOM     53  N   UNL A   1      45.709  26.576  27.315  1.00  0.00    -0.248 NA
ATOM     54  C   UNL A   1      45.957  24.376  26.566  1.00  0.00     0.031 C 
ATOM     55  C   UNL A   1      48.969  29.592  27.347  1.00  0.00     0.029 A 
ATOM     56  C   UNL A   1      47.968  28.633  27.322  1.00  0.00     0.049 A 
ATOM     57  H   UNL A   1      45.942  28.811  27.884  1.00  0.00     0.167 HD
ATOM     58  C   UNL A   1      47.025  26.377  26.910  1.00  0.00     0.074 A 
ATOM     59  C   UNL A   1      47.127  24.996  26.485  1.00  0.00     0.031 C 
ATOM     60  C   UNL A   1      48.055  27.258  26.897  1.00  0.00     0.031 A 
BRANCH  47  61
ATOM     61  C   UNL A   1      46.547  32.934  28.846  1.00  0.00    -0.014 A 
ATOM     62  C   UNL A   1      46.474  33.889  27.815  1.00  0.00     0.010 A 
ATOM     63  C   UNL A   1      47.013  33.332  30.112  1.00  0.00     0.010 A 
ATOM     64  C   UNL A   1      46.911  35.199  28.031  1.00  0.00     0.020 A 
ATOM     65  C   UNL A   1      47.422  34.649  30.340  1.00  0.00     0.020 A 
ATOM     66  C   UNL A   1      47.389  35.568  29.290  1.00  0.00     0.054 A 
BRANCH  66  67
ATOM     67  S   UNL A   1      47.952  37.274  29.542  1.00  0.00     0.124 S 
ATOM     68  O   UNL A   1      46.843  38.042  28.979  1.00  0.00    -0.237 OA
ATOM     69  O   UNL A   1      48.096  37.354  30.994  1.00  0.00    -0.237 OA
ATOM     70  O   UNL A   1      49.202  37.343  28.790  1.00  0.00    -0.744 OA
ENDBRANCH  66  67
ENDBRANCH  47  61
BRANCH  48  71
ATOM     71  C   UNL A   1      43.170  23.684  27.164  1.00  0.00    -0.014 A 
ATOM     72  C   UNL A   1      42.831  23.294  25.857  1.00  0.00     0.010 A 
ATOM     73  C   UNL A   1      43.054  22.748  28.209  1.00  0.00     0.010 A 
ATOM     74  C   UNL A   1      42.377  21.996  25.599  1.00  0.00     0.020 A 
ATOM     75  C   UNL A   1      42.627  21.442  27.951  1.00  0.00     0.020 A 
ATOM     76  C   UNL A   1      42.284  21.077  26.648  1.00  0.00     0.054 A 
BRANCH  76  77
ATOM     77  S   UNL A   1      41.761  19.379  26.279  1.00  0.00     0.124 S 
ATOM     78  O   UNL A   1      40.319  19.532  26.121  1.00  0.00    -0.237 OA
ATOM     79  O   UNL A   1      42.504  19.079  25.057  1.00  0.00    -0.237 OA
ATOM     80  O   UNL A   1      42.187  18.627  27.457  1.00  0.00    -0.744 OA
ENDBRANCH  76  77
ENDBRANCH  48  71
BRANCH  60  81
ATOM     81  C   UNL A   1      49.396  26.750  26.436  1.00  0.00    -0.014 A 
ATOM     82  C   UNL A   1      49.855  26.982  25.127  1.00  0.00     0.010 A 
ATOM     83  C   UNL A   1      50.232  26.077  27.346  1.00  0.00     0.010 A 
ATOM     84  C   UNL A   1      51.113  26.524  24.729  1.00  0.00     0.020 A 
ATOM     85  C   UNL A   1      51.502  25.642  26.959  1.00  0.00     0.020 A 
ATOM     86  C   UNL A   1      51.929  25.857  25.648  1.00  0.00     0.054 A 
BRANCH  86  87
ATOM     87  S   UNL A   1      53.577  25.312  25.120  1.00  0.00     0.124 S 
ATOM     88  O   UNL A   1      54.451  26.140  25.947  1.00  0.00    -0.237 OA
ATOM     89  O   UNL A   1      53.565  23.888  25.450  1.00  0.00    -0.237 OA
ATOM     90  O   UNL A   1      53.601  25.613  23.692  1.00  0.00    -0.744 OA
ENDBRANCH  86  87
ENDBRANCH  60  81
ENDBRANCH  34  35
ENDBRANCH  26  29
ENDBRANCH  24  25
ENDBRANCH  23  24
ENDBRANCH   1  23
TORSDOF 17
ENDMDL
MODEL 3
REMARK VINA RESULT:     -10.7      2.843      9.640
REMARK SMILES C[C@@H](C(=O)NCCCNC(=O)c1ccc(-c2c3nc(c(-c4ccc(S(=O)(=O)[O-])cc4)c4ccc([nH]4)c(-c4ccc(S(=O)(=O)[O-])cc4)c4nc(c(-c5ccc(S(=O)(=O)[O-])cc5)c5ccc2[nH]5)C=C4)C=C3)cc1)c1ccc(C[C@@H]2CCC[C@@H]2O)cc1F
REMARK SMILES IDX 6 1 5 2 3 3 4 4 2 6 1 7 72 8 73 9 84 10 74 11 83 12 85 13
REMARK SMILES IDX 75 14 76 15 77 16 78 17 81 18 79 19 80 20 82 21 7 23 8 24
REMARK SMILES IDX 9 25 10 26 11 28 12 29 13 30 71 31 14 32 70 33 15 34 16 35
REMARK SMILES IDX 17 36 64 37 18 38 69 39 63 40 65 41 19 42 68 43 62 44 61 45
REMARK SMILES IDX 20 47 50 48 31 49 49 50 32 51 35 52 48 53 66 54 33 55 34 56
REMARK SMILES IDX 47 58 67 59 36 60 21 61 22 62 30 63 23 64 29 65 24 66 25 67
REMARK SMILES IDX 26 68 27 69 28 70 51 71 52 72 60 73 53 74 59 75 54 76 55 77
REMARK SMILES IDX 56 78 57 79 58 80 37 81 38 82 46 83 39 84 45 85 40 86 41 87
REMARK SMILES IDX 42 88 43 89 44 90
REMARK H PARENT 5 5 82 22 9 27 65 46 35 57
REMARK Flexibility Score: inf
ROOT
ATOM      1  C   UNL A   1      35.679  22.538  23.776  1.00  0.00     0.117 C 
ENDROOT
BRANCH   1   2
ATOM      2  N   UNL A   1      34.768  21.686  24.516  1.00  0.00    -0.356 N 
ATOM      3  C   UNL A   1      33.414  21.762  24.668  1.00  0.00     0.227 C 
ATOM      4  O   UNL A   1      32.902  20.968  25.461  1.00  0.00    -0.274 OA
ATOM      5  H   UNL A   1      35.195  20.932  24.984  1.00  0.00     0.163 HD
BRANCH   3   6
ATOM      6  C   UNL A   1      32.593  22.785  23.858  1.00  0.00     0.108 C 
ATOM      7  C   UNL A   1      32.826  22.610  22.352  1.00  0.00     0.023 C 
BRANCH   6   8
ATOM      8  C   UNL A   1      32.882  24.204  24.338  1.00  0.00    -0.000 A 
ATOM      9  C   UNL A   1      33.309  25.226  23.479  1.00  0.00     0.008 A 
ATOM     10  C   UNL A   1      32.792  24.497  25.704  1.00  0.00     0.127 A 
ATOM     11  C   UNL A   1      33.645  26.486  23.976  1.00  0.00     0.004 A 
ATOM     12  C   UNL A   1      33.157  25.743  26.210  1.00  0.00     0.043 A 
ATOM     13  F   UNL A   1      32.368  23.554  26.559  1.00  0.00    -0.207 F 
ATOM     14  C   UNL A   1      33.620  26.746  25.350  1.00  0.00    -0.045 A 
BRANCH  14  15
ATOM     15  C   UNL A   1      34.112  28.063  25.895  1.00  0.00     0.041 C 
BRANCH  15  16
ATOM     16  C   UNL A   1      33.281  28.745  27.009  1.00  0.00     0.022 C 
ATOM     17  C   UNL A   1      31.762  28.746  26.795  1.00  0.00     0.007 C 
ATOM     18  C   UNL A   1      33.574  30.222  27.290  1.00  0.00     0.117 C 
ATOM     19  C   UNL A   1      31.395  30.128  26.244  1.00  0.00     0.003 C 
ATOM     20  C   UNL A   1      32.648  30.990  26.356  1.00  0.00     0.032 C 
BRANCH  18  21
ATOM     21  O   UNL A   1      34.935  30.560  27.124  1.00  0.00    -0.393 OA
ATOM     22  H   UNL A   1      35.012  31.290  26.490  1.00  0.00     0.210 HD
ENDBRANCH  18  21
ENDBRANCH  15  16
ENDBRANCH  14  15
ENDBRANCH   6   8
ENDBRANCH   3   6
ENDBRANCH   1   2
BRANCH   1  23
ATOM     23  C   UNL A   1      36.166  23.709  24.629  1.00  0.00     0.042 C 
BRANCH  23  24
ATOM     24  C   UNL A   1      36.572  23.323  26.049  1.00  0.00     0.118 C 
BRANCH  24  25
ATOM     25  N   UNL A   1      37.737  22.453  26.076  1.00  0.00    -0.352 N 
ATOM     26  C   UNL A   1      39.048  22.742  26.360  1.00  0.00     0.251 C 
ATOM     27  H   UNL A   1      37.558  21.509  25.858  1.00  0.00     0.163 HD
ATOM     28  O   UNL A   1      39.911  21.897  26.127  1.00  0.00    -0.269 OA
BRANCH  26  29
ATOM     29  C   UNL A   1      39.434  24.055  26.923  1.00  0.00     0.039 A 
ATOM     30  C   UNL A   1      39.109  24.339  28.252  1.00  0.00     0.014 A 
ATOM     31  C   UNL A   1      40.073  25.023  26.141  1.00  0.00     0.014 A 
ATOM     32  C   UNL A   1      39.472  25.568  28.812  1.00  0.00     0.010 A 
ATOM     33  C   UNL A   1      40.499  26.217  26.720  1.00  0.00     0.010 A 
ATOM     34  C   UNL A   1      40.197  26.506  28.059  1.00  0.00    -0.014 A 
BRANCH  34  35
ATOM     35  C   UNL A   1      40.643  27.793  28.655  1.00  0.00     0.031 A 
ATOM     36  C   UNL A   1      42.041  27.937  29.195  1.00  0.00     0.074 A 
ATOM     37  C   UNL A   1      39.770  28.813  28.768  1.00  0.00     0.049 A 
ATOM     38  N   UNL A   1      42.591  28.960  29.798  1.00  0.00    -0.248 NA
ATOM     39  C   UNL A   1      42.931  26.773  29.058  1.00  0.00     0.031 C 
ATOM     40  C   UNL A   1      38.377  28.791  28.316  1.00  0.00     0.029 A 
ATOM     41  N   UNL A   1      39.924  30.069  29.303  1.00  0.00    -0.354 N 
ATOM     42  C   UNL A   1      43.879  28.556  30.132  1.00  0.00     0.074 A 
ATOM     43  C   UNL A   1      44.012  27.180  29.703  1.00  0.00     0.031 C 
ATOM     44  C   UNL A   1      37.814  29.983  28.569  1.00  0.00     0.029 A 
ATOM     45  C   UNL A   1      38.788  30.840  29.236  1.00  0.00     0.049 A 
ATOM     46  H   UNL A   1      40.768  30.386  29.697  1.00  0.00     0.167 HD
ATOM     47  C   UNL A   1      44.867  29.268  30.725  1.00  0.00     0.031 A 
ATOM     48  C   UNL A   1      38.552  32.094  29.669  1.00  0.00     0.031 A 
ATOM     49  C   UNL A   1      44.733  30.640  31.144  1.00  0.00     0.049 A 
ATOM     50  C   UNL A   1      39.659  32.862  30.335  1.00  0.00     0.074 A 
ATOM     51  C   UNL A   1      45.694  31.466  31.702  1.00  0.00     0.029 A 
ATOM     52  N   UNL A   1      43.568  31.385  31.054  1.00  0.00    -0.354 N 
ATOM     53  N   UNL A   1      40.889  32.483  30.585  1.00  0.00    -0.248 NA
ATOM     54  C   UNL A   1      39.348  34.232  30.767  1.00  0.00     0.031 C 
ATOM     55  C   UNL A   1      45.093  32.694  31.998  1.00  0.00     0.029 A 
ATOM     56  C   UNL A   1      43.776  32.654  31.570  1.00  0.00     0.049 A 
ATOM     57  H   UNL A   1      42.717  31.061  30.679  1.00  0.00     0.167 HD
ATOM     58  C   UNL A   1      41.508  33.578  31.180  1.00  0.00     0.074 A 
ATOM     59  C   UNL A   1      40.520  34.635  31.240  1.00  0.00     0.031 C 
ATOM     60  C   UNL A   1      42.781  33.696  31.629  1.00  0.00     0.031 A 
BRANCH  47  61
ATOM     61  C   UNL A   1      46.177  28.566  30.971  1.00  0.00    -0.014 A 
ATOM     62  C   UNL A   1      46.467  27.977  32.216  1.00  0.00     0.010 A 
ATOM     63  C   UNL A   1      47.127  28.475  29.937  1.00  0.00     0.010 A 
ATOM     64  C   UNL A   1      47.702  27.362  32.439  1.00  0.00     0.020 A 
ATOM     65  C   UNL A   1      48.352  27.833  30.147  1.00  0.00     0.020 A 
ATOM     66  C   UNL A   1      48.639  27.301  31.405  1.00  0.00     0.054 A 
BRANCH  66  67
ATOM     67  S   UNL A   1      50.235  26.498  31.722  1.00  0.00     0.124 S 
ATOM     68  O   UNL A   1      50.282  26.492  33.182  1.00  0.00    -0.237 OA
ATOM     69  O   UNL A   1      50.066  25.189  31.095  1.00  0.00    -0.237 OA
ATOM     70  O   UNL A   1      51.202  27.379  31.071  1.00  0.00    -0.744 OA
ENDBRANCH  66  67
ENDBRANCH  47  61
BRANCH  48  71
ATOM     71  C   UNL A   1      37.211  32.705  29.461  1.00  0.00    -0.014 A 
ATOM     72  C   UNL A   1      36.286  32.765  30.518  1.00  0.00     0.010 A 
ATOM     73  C   UNL A   1      36.864  33.259  28.215  1.00  0.00     0.010 A 
ATOM     74  C   UNL A   1      35.035  33.361  30.331  1.00  0.00     0.020 A 
ATOM     75  C   UNL A   1      35.624  33.879  28.032  1.00  0.00     0.020 A 
ATOM     76  C   UNL A   1      34.715  33.919  29.090  1.00  0.00     0.054 A 
BRANCH  76  77
ATOM     77  S   UNL A   1      33.113  34.749  28.892  1.00  0.00     0.124 S 
ATOM     78  O   UNL A   1      32.596  34.743  30.255  1.00  0.00    -0.237 OA
ATOM     79  O   UNL A   1      33.499  36.057  28.366  1.00  0.00    -0.237 OA
ATOM     80  O   UNL A   1      32.400  33.894  27.946  1.00  0.00    -0.744 OA
ENDBRANCH  76  77
ENDBRANCH  48  71
BRANCH  60  81
ATOM     81  C   UNL A   1      43.194  35.027  32.201  1.00  0.00    -0.014 A 
ATOM     82  C   UNL A   1      43.821  36.001  31.405  1.00  0.00     0.010 A 
ATOM     83  C   UNL A   1      42.898  35.326  33.544  1.00  0.00     0.010 A 
ATOM     84  C   UNL A   1      44.172  37.239  31.949  1.00  0.00     0.020 A 
ATOM     85  C   UNL A   1      43.222  36.573  34.084  1.00  0.00     0.020 A 
ATOM     86  C   UNL A   1      43.870  37.517  33.287  1.00  0.00     0.054 A 
BRANCH  86  87
ATOM     87  S   UNL A   1      44.294  39.148  33.958  1.00  0.00     0.124 S 
ATOM     88  O   UNL A   1      42.998  39.822  33.963  1.00  0.00    -0.237 OA
ATOM     89  O   UNL A   1      44.836  38.821  35.275  1.00  0.00    -0.237 OA
ATOM     90  O   UNL A   1      45.267  39.674  33.004  1.00  0.00    -0.744 OA
ENDBRANCH  86  87
ENDBRANCH  60  81
ENDBRANCH  34  35
ENDBRANCH  26  29
ENDBRANCH  24  25
ENDBRANCH  23  24
ENDBRANCH   1  23
TORSDOF 17
ENDMDL
