MODEL 1
REMARK VINA RESULT:     -12.4      0.000      0.000
REMARK SMILES O=C(NCCCNC(=O)c1cc(-c2ccc(F)c(C(F)(F)F)c2)cnc1O)c1ccc(-c2c3nc(c(-c4ccc(S(=O)(=O)[O-])cc4)c4ccc([nH]4)c(-c4ccc(S(=O)(=O)[O-])cc4)c4nc(c(-c5ccc(S(=O)(=O)[O-])cc5)c5ccc2[nH]5)C=C4)C=C3)cc1
REMARK SMILES IDX 4 1 3 2 1 3 2 4 28 6 29 7 87 8 30 9 86 10 31 11 32 12 33 13
REMARK SMILES IDX 80 14 34 15 85 16 79 17 81 18 35 19 84 20 78 21 77 22 36 24
REMARK SMILES IDX 66 25 47 26 65 27 48 28 51 29 64 30 82 31 49 32 50 33 63 35
REMARK SMILES IDX 83 36 52 37 37 38 38 39 46 40 39 41 45 42 40 43 41 44 42 45
REMARK SMILES IDX 43 46 44 47 67 48 68 49 76 50 69 51 75 52 70 53 71 54 72 55
REMARK SMILES IDX 73 56 74 57 53 58 54 59 62 60 55 61 61 62 56 63 57 64 58 65
REMARK SMILES IDX 59 66 60 67 5 68 6 69 7 70 8 71 9 73 10 74 11 75 26 76 12 77
REMARK SMILES IDX 25 78 24 79 27 80 13 82 14 83 23 84 15 85 18 86 16 87 17 88
REMARK SMILES IDX 19 89 20 90 21 91 22 92
REMARK H PARENT 3 5 81 23 51 34 7 72 27 81
REMARK Flexibility Score: inf
ROOT
ATOM      1  C   UNL A   1      33.530  28.559  27.293  1.00  0.00     0.118 C 
ENDROOT
BRANCH   1   2
ATOM      2  N   UNL A   1      33.541  29.962  27.673  1.00  0.00    -0.352 N 
ATOM      3  O   UNL A   1      34.223  31.859  28.643  1.00  0.00    -0.269 OA
ATOM      4  C   UNL A   1      34.516  30.727  28.264  1.00  0.00     0.251 C 
ATOM      5  H   UNL A   1      32.708  30.447  27.471  1.00  0.00     0.163 HD
BRANCH   4   6
ATOM      6  C   UNL A   1      35.894  30.219  28.459  1.00  0.00     0.039 A 
ATOM      7  C   UNL A   1      36.240  29.693  29.708  1.00  0.00     0.014 A 
ATOM      8  C   UNL A   1      36.868  30.327  27.463  1.00  0.00     0.014 A 
ATOM      9  C   UNL A   1      37.545  29.249  29.946  1.00  0.00     0.010 A 
ATOM     10  C   UNL A   1      38.147  29.815  27.675  1.00  0.00     0.010 A 
ATOM     11  C   UNL A   1      38.507  29.293  28.927  1.00  0.00    -0.014 A 
BRANCH  11  12
ATOM     12  C   UNL A   1      39.909  28.868  29.165  1.00  0.00     0.031 A 
ATOM     13  C   UNL A   1      40.871  29.812  29.838  1.00  0.00     0.074 A 
ATOM     14  C   UNL A   1      40.334  27.658  28.753  1.00  0.00     0.049 A 
ATOM     15  N   UNL A   1      42.152  29.667  30.056  1.00  0.00    -0.248 NA
ATOM     16  C   UNL A   1      40.324  31.096  30.311  1.00  0.00     0.031 C 
ATOM     17  C   UNL A   1      39.505  26.654  28.086  1.00  0.00     0.029 A 
ATOM     18  N   UNL A   1      41.571  27.068  28.837  1.00  0.00    -0.354 N 
ATOM     19  C   UNL A   1      42.568  30.845  30.665  1.00  0.00     0.074 A 
ATOM     20  C   UNL A   1      41.414  31.712  30.745  1.00  0.00     0.031 C 
ATOM     21  C   UNL A   1      40.246  25.558  27.855  1.00  0.00     0.029 A 
ATOM     22  C   UNL A   1      41.612  25.796  28.316  1.00  0.00     0.049 A 
ATOM     23  H   UNL A   1      42.354  27.513  29.233  1.00  0.00     0.167 HD
ATOM     24  C   UNL A   1      43.795  31.168  31.136  1.00  0.00     0.031 A 
ATOM     25  C   UNL A   1      42.630  24.918  28.219  1.00  0.00     0.031 A 
ATOM     26  C   UNL A   1      44.933  30.291  31.089  1.00  0.00     0.049 A 
ATOM     27  C   UNL A   1      43.987  25.296  28.744  1.00  0.00     0.074 A 
ATOM     28  C   UNL A   1      46.209  30.520  31.573  1.00  0.00     0.029 A 
ATOM     29  N   UNL A   1      44.931  29.017  30.545  1.00  0.00    -0.354 N 
ATOM     30  N   UNL A   1      44.360  26.414  29.318  1.00  0.00    -0.248 NA
ATOM     31  C   UNL A   1      45.058  24.298  28.613  1.00  0.00     0.031 C 
ATOM     32  C   UNL A   1      46.989  29.397  31.287  1.00  0.00     0.029 A 
ATOM     33  C   UNL A   1      46.186  28.450  30.670  1.00  0.00     0.049 A 
ATOM     34  H   UNL A   1      44.151  28.580  30.131  1.00  0.00     0.167 HD
ATOM     35  C   UNL A   1      45.704  26.250  29.631  1.00  0.00     0.074 A 
ATOM     36  C   UNL A   1      46.078  24.921  29.192  1.00  0.00     0.031 C 
ATOM     37  C   UNL A   1      46.547  27.126  30.229  1.00  0.00     0.031 A 
BRANCH  24  38
ATOM     38  C   UNL A   1      43.972  32.528  31.757  1.00  0.00    -0.014 A 
ATOM     39  C   UNL A   1      43.723  32.708  33.129  1.00  0.00     0.010 A 
ATOM     40  C   UNL A   1      44.318  33.641  30.971  1.00  0.00     0.010 A 
ATOM     41  C   UNL A   1      43.812  33.978  33.705  1.00  0.00     0.020 A 
ATOM     42  C   UNL A   1      44.433  34.908  31.548  1.00  0.00     0.020 A 
ATOM     43  C   UNL A   1      44.162  35.071  32.908  1.00  0.00     0.054 A 
BRANCH  43  44
ATOM     44  S   UNL A   1      44.300  36.712  33.671  1.00  0.00     0.124 S 
ATOM     45  O   UNL A   1      42.903  37.118  33.780  1.00  0.00    -0.237 OA
ATOM     46  O   UNL A   1      44.975  36.426  34.935  1.00  0.00    -0.237 OA
ATOM     47  O   UNL A   1      45.100  37.465  32.708  1.00  0.00    -0.744 OA
ENDBRANCH  43  44
ENDBRANCH  24  38
BRANCH  25  48
ATOM     48  C   UNL A   1      42.368  23.575  27.635  1.00  0.00    -0.014 A 
ATOM     49  C   UNL A   1      41.887  22.526  28.439  1.00  0.00     0.010 A 
ATOM     50  C   UNL A   1      42.698  23.316  26.293  1.00  0.00     0.010 A 
ATOM     51  C   UNL A   1      41.794  21.228  27.928  1.00  0.00     0.020 A 
ATOM     52  C   UNL A   1      42.586  22.023  25.772  1.00  0.00     0.020 A 
ATOM     53  C   UNL A   1      42.164  20.982  26.602  1.00  0.00     0.054 A 
BRANCH  53  54
ATOM     54  S   UNL A   1      42.110  19.279  25.979  1.00  0.00     0.124 S 
ATOM     55  O   UNL A   1      42.979  19.362  24.809  1.00  0.00    -0.237 OA
ATOM     56  O   UNL A   1      42.640  18.509  27.102  1.00  0.00    -0.237 OA
ATOM     57  O   UNL A   1      40.694  19.066  25.695  1.00  0.00    -0.744 OA
ENDBRANCH  53  54
ENDBRANCH  25  48
BRANCH  37  58
ATOM     58  C   UNL A   1      47.971  26.699  30.462  1.00  0.00    -0.014 A 
ATOM     59  C   UNL A   1      48.330  26.117  31.692  1.00  0.00     0.010 A 
ATOM     60  C   UNL A   1      48.975  27.010  29.529  1.00  0.00     0.010 A 
ATOM     61  C   UNL A   1      49.672  25.887  32.003  1.00  0.00     0.020 A 
ATOM     62  C   UNL A   1      50.318  26.764  29.828  1.00  0.00     0.020 A 
ATOM     63  C   UNL A   1      50.659  26.228  31.074  1.00  0.00     0.054 A 
BRANCH  63  64
ATOM     64  S   UNL A   1      52.402  25.971  31.510  1.00  0.00     0.124 S 
ATOM     65  O   UNL A   1      52.386  24.612  32.041  1.00  0.00    -0.237 OA
ATOM     66  O   UNL A   1      53.084  26.139  30.228  1.00  0.00    -0.237 OA
ATOM     67  O   UNL A   1      52.667  27.023  32.488  1.00  0.00    -0.744 OA
ENDBRANCH  63  64
ENDBRANCH  37  58
ENDBRANCH  11  12
ENDBRANCH   4   6
ENDBRANCH   1   2
BRANCH   1  68
ATOM     68  C   UNL A   1      33.818  28.340  25.812  1.00  0.00     0.042 C 
BRANCH  68  69
ATOM     69  C   UNL A   1      32.972  29.175  24.858  1.00  0.00     0.118 C 
BRANCH  69  70
ATOM     70  N   UNL A   1      33.521  29.215  23.506  1.00  0.00    -0.352 N 
ATOM     71  C   UNL A   1      33.674  28.204  22.596  1.00  0.00     0.256 C 
ATOM     72  H   UNL A   1      33.828  30.100  23.204  1.00  0.00     0.163 HD
ATOM     73  O   UNL A   1      34.372  28.376  21.596  1.00  0.00    -0.269 OA
BRANCH  71  74
ATOM     74  C   UNL A   1      32.986  26.919  22.775  1.00  0.00     0.102 A 
ATOM     75  C   UNL A   1      33.712  25.835  23.286  1.00  0.00     0.029 A 
ATOM     76  C   UNL A   1      31.678  26.703  22.355  1.00  0.00     0.223 A 
ATOM     77  C   UNL A   1      33.101  24.582  23.407  1.00  0.00     0.001 A 
ATOM     78  N   UNL A   1      31.043  25.525  22.500  1.00  0.00    -0.221 NA
ATOM     79  C   UNL A   1      31.760  24.504  23.024  1.00  0.00     0.124 A 
BRANCH  76  80
ATOM     80  O   UNL A   1      30.923  27.650  21.727  1.00  0.00    -0.493 OA
ATOM     81  H   UNL A   1      31.338  28.338  21.246  1.00  0.00     0.295 HD
ENDBRANCH  76  80
BRANCH  77  82
ATOM     82  C   UNL A   1      33.836  23.394  23.855  1.00  0.00    -0.016 A 
ATOM     83  C   UNL A   1      35.227  23.460  24.048  1.00  0.00     0.012 A 
ATOM     84  C   UNL A   1      33.187  22.171  24.102  1.00  0.00     0.025 A 
ATOM     85  C   UNL A   1      35.949  22.340  24.462  1.00  0.00     0.040 A 
ATOM     86  C   UNL A   1      33.908  21.037  24.518  1.00  0.00     0.092 A 
ATOM     87  C   UNL A   1      35.286  21.142  24.689  1.00  0.00     0.135 A 
ATOM     88  F   UNL A   1      35.998  20.076  25.075  1.00  0.00    -0.206 F 
BRANCH  86  89
ATOM     89  C   UNL A   1      33.248  19.713  24.762  1.00  0.00     0.419 C 
ATOM     90  F   UNL A   1      33.291  19.336  26.068  1.00  0.00    -0.166 F 
ATOM     91  F   UNL A   1      31.935  19.697  24.403  1.00  0.00    -0.166 F 
ATOM     92  F   UNL A   1      33.829  18.693  24.066  1.00  0.00    -0.166 F 
ENDBRANCH  86  89
ENDBRANCH  77  82
ENDBRANCH  71  74
ENDBRANCH  69  70
ENDBRANCH  68  69
ENDBRANCH   1  68
TORSDOF 16
ENDMDL
MODEL 2
REMARK VINA RESULT:     -12.1      3.872      9.657
REMARK SMILES O=C(NCCCNC(=O)c1cc(-c2ccc(F)c(C(F)(F)F)c2)cnc1O)c1ccc(-c2c3nc(c(-c4ccc(S(=O)(=O)[O-])cc4)c4ccc([nH]4)c(-c4ccc(S(=O)(=O)[O-])cc4)c4nc(c(-c5ccc(S(=O)(=O)[O-])cc5)c5ccc2[nH]5)C=C4)C=C3)cc1
REMARK SMILES IDX 4 1 3 2 1 3 2 4 28 6 29 7 87 8 30 9 86 10 31 11 32 12 33 13
REMARK SMILES IDX 80 14 34 15 85 16 79 17 81 18 35 19 84 20 78 21 77 22 36 24
REMARK SMILES IDX 66 25 47 26 65 27 48 28 51 29 64 30 82 31 49 32 50 33 63 35
REMARK SMILES IDX 83 36 52 37 37 38 38 39 46 40 39 41 45 42 40 43 41 44 42 45
REMARK SMILES IDX 43 46 44 47 67 48 68 49 76 50 69 51 75 52 70 53 71 54 72 55
REMARK SMILES IDX 73 56 74 57 53 58 54 59 62 60 55 61 61 62 56 63 57 64 58 65
REMARK SMILES IDX 59 66 60 67 5 68 6 69 7 70 8 71 9 73 10 74 11 75 26 76 12 77
REMARK SMILES IDX 25 78 24 79 27 80 13 82 14 83 23 84 15 85 18 86 16 87 17 88
REMARK SMILES IDX 19 89 20 90 21 91 22 92
REMARK H PARENT 3 5 81 23 51 34 7 72 27 81
REMARK Flexibility Score: inf
ROOT
ATOM      1  C   UNL A   1      36.921  23.537  24.917  1.00  0.00     0.118 C 
ENDROOT
BRANCH   1   2
ATOM      2  N   UNL A   1      37.859  22.573  25.469  1.00  0.00    -0.352 N 
ATOM      3  O   UNL A   1      39.712  21.781  26.439  1.00  0.00    -0.269 OA
ATOM      4  C   UNL A   1      38.982  22.749  26.238  1.00  0.00     0.251 C 
ATOM      5  H   UNL A   1      37.653  21.634  25.255  1.00  0.00     0.163 HD
BRANCH   4   6
ATOM      6  C   UNL A   1      39.333  24.067  26.817  1.00  0.00     0.039 A 
ATOM      7  C   UNL A   1      40.038  24.977  26.023  1.00  0.00     0.014 A 
ATOM      8  C   UNL A   1      39.051  24.387  28.148  1.00  0.00     0.014 A 
ATOM      9  C   UNL A   1      40.431  26.212  26.549  1.00  0.00     0.010 A 
ATOM     10  C   UNL A   1      39.375  25.647  28.649  1.00  0.00     0.010 A 
ATOM     11  C   UNL A   1      40.089  26.564  27.863  1.00  0.00    -0.014 A 
BRANCH  11  12
ATOM     12  C   UNL A   1      40.529  27.850  28.460  1.00  0.00     0.031 A 
ATOM     13  C   UNL A   1      41.963  28.023  28.886  1.00  0.00     0.074 A 
ATOM     14  C   UNL A   1      39.647  28.849  28.654  1.00  0.00     0.049 A 
ATOM     15  N   UNL A   1      42.524  29.029  29.506  1.00  0.00    -0.248 NA
ATOM     16  C   UNL A   1      42.885  26.911  28.595  1.00  0.00     0.031 C 
ATOM     17  C   UNL A   1      38.230  28.806  28.290  1.00  0.00     0.029 A 
ATOM     18  N   UNL A   1      39.812  30.096  29.204  1.00  0.00    -0.354 N 
ATOM     19  C   UNL A   1      43.850  28.663  29.700  1.00  0.00     0.074 A 
ATOM     20  C   UNL A   1      44.003  27.326  29.171  1.00  0.00     0.031 C 
ATOM     21  C   UNL A   1      37.665  29.987  28.592  1.00  0.00     0.029 A 
ATOM     22  C   UNL A   1      38.665  30.853  29.211  1.00  0.00     0.049 A 
ATOM     23  H   UNL A   1      40.672  30.417  29.561  1.00  0.00     0.167 HD
ATOM     24  C   UNL A   1      44.856  29.382  30.249  1.00  0.00     0.031 A 
ATOM     25  C   UNL A   1      38.440  32.104  29.662  1.00  0.00     0.031 A 
ATOM     26  C   UNL A   1      44.712  30.724  30.742  1.00  0.00     0.049 A 
ATOM     27  C   UNL A   1      39.569  32.886  30.272  1.00  0.00     0.074 A 
ATOM     28  C   UNL A   1      45.686  31.546  31.284  1.00  0.00     0.029 A 
ATOM     29  N   UNL A   1      43.531  31.449  30.736  1.00  0.00    -0.354 N 
ATOM     30  N   UNL A   1      40.816  32.522  30.445  1.00  0.00    -0.248 NA
ATOM     31  C   UNL A   1      39.265  34.245  30.744  1.00  0.00     0.031 C 
ATOM     32  C   UNL A   1      45.083  32.754  31.642  1.00  0.00     0.029 A 
ATOM     33  C   UNL A   1      43.747  32.704  31.276  1.00  0.00     0.049 A 
ATOM     34  H   UNL A   1      42.667  31.119  30.398  1.00  0.00     0.167 HD
ATOM     35  C   UNL A   1      41.452  33.611  31.033  1.00  0.00     0.074 A 
ATOM     36  C   UNL A   1      40.453  34.651  31.176  1.00  0.00     0.031 C 
ATOM     37  C   UNL A   1      42.745  33.732  31.415  1.00  0.00     0.031 A 
BRANCH  24  38
ATOM     38  C   UNL A   1      46.213  28.736  30.338  1.00  0.00    -0.014 A 
ATOM     39  C   UNL A   1      47.115  28.851  29.265  1.00  0.00     0.010 A 
ATOM     40  C   UNL A   1      46.571  27.957  31.453  1.00  0.00     0.010 A 
ATOM     41  C   UNL A   1      48.349  28.196  29.302  1.00  0.00     0.020 A 
ATOM     42  C   UNL A   1      47.814  27.321  31.505  1.00  0.00     0.020 A 
ATOM     43  C   UNL A   1      48.688  27.431  30.421  1.00  0.00     0.054 A 
BRANCH  43  44
ATOM     44  S   UNL A   1      50.303  26.606  30.470  1.00  0.00     0.124 S 
ATOM     45  O   UNL A   1      51.048  27.443  31.405  1.00  0.00    -0.237 OA
ATOM     46  O   UNL A   1      49.968  25.267  30.951  1.00  0.00    -0.237 OA
ATOM     47  O   UNL A   1      50.752  26.661  29.081  1.00  0.00    -0.744 OA
ENDBRANCH  43  44
ENDBRANCH  24  38
BRANCH  25  48
ATOM     48  C   UNL A   1      37.084  32.693  29.498  1.00  0.00    -0.014 A 
ATOM     49  C   UNL A   1      36.684  33.237  28.264  1.00  0.00     0.010 A 
ATOM     50  C   UNL A   1      36.227  32.804  30.607  1.00  0.00     0.010 A 
ATOM     51  C   UNL A   1      35.476  33.932  28.155  1.00  0.00     0.020 A 
ATOM     52  C   UNL A   1      35.008  33.480  30.497  1.00  0.00     0.020 A 
ATOM     53  C   UNL A   1      34.655  34.066  29.279  1.00  0.00     0.054 A 
BRANCH  53  54
ATOM     54  S   UNL A   1      33.128  35.036  29.139  1.00  0.00     0.124 S 
ATOM     55  O   UNL A   1      32.576  34.919  30.485  1.00  0.00    -0.237 OA
ATOM     56  O   UNL A   1      33.622  36.362  28.774  1.00  0.00    -0.237 OA
ATOM     57  O   UNL A   1      32.381  34.344  28.092  1.00  0.00    -0.744 OA
ENDBRANCH  53  54
ENDBRANCH  25  48
BRANCH  37  58
ATOM     58  C   UNL A   1      43.189  35.032  32.029  1.00  0.00    -0.014 A 
ATOM     59  C   UNL A   1      42.897  35.298  33.379  1.00  0.00     0.010 A 
ATOM     60  C   UNL A   1      43.756  36.043  31.235  1.00  0.00     0.010 A 
ATOM     61  C   UNL A   1      43.128  36.566  33.918  1.00  0.00     0.020 A 
ATOM     62  C   UNL A   1      44.008  37.308  31.775  1.00  0.00     0.020 A 
ATOM     63  C   UNL A   1      43.668  37.568  33.106  1.00  0.00     0.054 A 
BRANCH  63  64
ATOM     64  S   UNL A   1      43.918  39.224  33.804  1.00  0.00     0.124 S 
ATOM     65  O   UNL A   1      44.976  39.758  32.953  1.00  0.00    -0.237 OA
ATOM     66  O   UNL A   1      42.605  39.844  33.643  1.00  0.00    -0.237 OA
ATOM     67  O   UNL A   1      44.303  38.955  35.188  1.00  0.00    -0.744 OA
ENDBRANCH  63  64
ENDBRANCH  37  58
ENDBRANCH  11  12
ENDBRANCH   4   6
ENDBRANCH   1   2
BRANCH   1  68
ATOM     68  C   UNL A   1      35.486  23.302  25.376  1.00  0.00     0.042 C 
BRANCH  68  69
ATOM     69  C   UNL A   1      34.428  23.441  24.286  1.00  0.00     0.118 C 
BRANCH  69  70
ATOM     70  N   UNL A   1      33.546  22.281  24.206  1.00  0.00    -0.352 N 
ATOM     71  C   UNL A   1      32.287  22.105  24.713  1.00  0.00     0.256 C 
ATOM     72  H   UNL A   1      33.912  21.510  23.717  1.00  0.00     0.163 HD
ATOM     73  O   UNL A   1      31.791  20.979  24.751  1.00  0.00    -0.269 OA
BRANCH  71  74
ATOM     74  C   UNL A   1      31.497  23.250  25.184  1.00  0.00     0.102 A 
ATOM     75  C   UNL A   1      31.324  24.344  24.327  1.00  0.00     0.029 A 
ATOM     76  C   UNL A   1      31.008  23.341  26.483  1.00  0.00     0.223 A 
ATOM     77  C   UNL A   1      30.631  25.476  24.771  1.00  0.00     0.001 A 
ATOM     78  N   UNL A   1      30.295  24.391  26.930  1.00  0.00    -0.221 NA
ATOM     79  C   UNL A   1      30.120  25.422  26.070  1.00  0.00     0.124 A 
BRANCH  76  80
ATOM     80  O   UNL A   1      31.228  22.391  27.438  1.00  0.00    -0.493 OA
ATOM     81  H   UNL A   1      31.362  22.646  28.329  1.00  0.00     0.295 HD
ENDBRANCH  76  80
BRANCH  77  82
ATOM     82  C   UNL A   1      30.495  26.682  23.948  1.00  0.00    -0.016 A 
ATOM     83  C   UNL A   1      31.621  27.224  23.304  1.00  0.00     0.012 A 
ATOM     84  C   UNL A   1      29.256  27.326  23.778  1.00  0.00     0.025 A 
ATOM     85  C   UNL A   1      31.517  28.377  22.525  1.00  0.00     0.040 A 
ATOM     86  C   UNL A   1      29.143  28.490  22.995  1.00  0.00     0.092 A 
ATOM     87  C   UNL A   1      30.285  29.000  22.382  1.00  0.00     0.135 A 
ATOM     88  F   UNL A   1      30.209  30.112  21.640  1.00  0.00    -0.206 F 
BRANCH  86  89
ATOM     89  C   UNL A   1      27.843  29.214  22.819  1.00  0.00     0.419 C 
ATOM     90  F   UNL A   1      27.785  30.372  23.531  1.00  0.00    -0.166 F 
ATOM     91  F   UNL A   1      27.590  29.549  21.524  1.00  0.00    -0.166 F 
ATOM     92  F   UNL A   1      26.766  28.480  23.223  1.00  0.00    -0.166 F 
ENDBRANCH  86  89
ENDBRANCH  77  82
ENDBRANCH  71  74
ENDBRANCH  69  70
ENDBRANCH  68  69
ENDBRANCH   1  68
TORSDOF 16
ENDMDL
MODEL 3
REMARK VINA RESULT:     -12.0      3.493      9.550
REMARK SMILES O=C(NCCCNC(=O)c1cc(-c2ccc(F)c(C(F)(F)F)c2)cnc1O)c1ccc(-c2c3nc(c(-c4ccc(S(=O)(=O)[O-])cc4)c4ccc([nH]4)c(-c4ccc(S(=O)(=O)[O-])cc4)c4nc(c(-c5ccc(S(=O)(=O)[O-])cc5)c5ccc2[nH]5)C=C4)C=C3)cc1
REMARK SMILES IDX 4 1 3 2 1 3 2 4 28 6 29 7 87 8 30 9 86 10 31 11 32 12 33 13
REMARK SMILES IDX 80 14 34 15 85 16 79 17 81 18 35 19 84 20 78 21 77 22 36 24
REMARK SMILES IDX 66 25 47 26 65 27 48 28 51 29 64 30 82 31 49 32 50 33 63 35
REMARK SMILES IDX 83 36 52 37 37 38 38 39 46 40 39 41 45 42 40 43 41 44 42 45
REMARK SMILES IDX 43 46 44 47 67 48 68 49 76 50 69 51 75 52 70 53 71 54 72 55
REMARK SMILES IDX 73 56 74 57 53 58 54 59 62 60 55 61 61 62 56 63 57 64 58 65
REMARK SMILES IDX 59 66 60 67 5 68 6 69 7 70 8 71 9 73 10 74 11 75 26 76 12 77
REMARK SMILES IDX 25 78 24 79 27 80 13 82 14 83 23 84 15 85 18 86 16 87 17 88
REMARK SMILES IDX 19 89 20 90 21 91 22 92
REMARK H PARENT 3 5 81 23 51 34 7 72 27 81
REMARK Flexibility Score: inf
ROOT
ATOM      1  C   UNL A   1      36.728  23.327  25.639  1.00  0.00     0.118 C 
ENDROOT
BRANCH   1   2
ATOM      2  N   UNL A   1      37.881  22.463  25.837  1.00  0.00    -0.352 N 
ATOM      3  O   UNL A   1      40.002  21.865  26.221  1.00  0.00    -0.269 OA
ATOM      4  C   UNL A   1      39.141  22.738  26.307  1.00  0.00     0.251 C 
ATOM      5  H   UNL A   1      37.732  21.521  25.594  1.00  0.00     0.163 HD
BRANCH   4   6
ATOM      6  C   UNL A   1      39.483  24.052  26.900  1.00  0.00     0.039 A 
ATOM      7  C   UNL A   1      40.148  24.990  26.104  1.00  0.00     0.014 A 
ATOM      8  C   UNL A   1      39.233  24.341  28.244  1.00  0.00     0.014 A 
ATOM      9  C   UNL A   1      40.532  26.222  26.642  1.00  0.00     0.010 A 
ATOM     10  C   UNL A   1      39.547  25.598  28.760  1.00  0.00     0.010 A 
ATOM     11  C   UNL A   1      40.222  26.543  27.972  1.00  0.00    -0.014 A 
BRANCH  11  12
ATOM     12  C   UNL A   1      40.654  27.827  28.581  1.00  0.00     0.031 A 
ATOM     13  C   UNL A   1      42.081  27.995  29.033  1.00  0.00     0.074 A 
ATOM     14  C   UNL A   1      39.770  28.827  28.762  1.00  0.00     0.049 A 
ATOM     15  N   UNL A   1      42.632  28.998  29.666  1.00  0.00    -0.248 NA
ATOM     16  C   UNL A   1      43.004  26.881  28.754  1.00  0.00     0.031 C 
ATOM     17  C   UNL A   1      38.360  28.789  28.373  1.00  0.00     0.029 A 
ATOM     18  N   UNL A   1      39.929  30.072  29.319  1.00  0.00    -0.354 N 
ATOM     19  C   UNL A   1      43.954  28.627  29.882  1.00  0.00     0.074 A 
ATOM     20  C   UNL A   1      44.113  27.292  29.352  1.00  0.00     0.031 C 
ATOM     21  C   UNL A   1      37.793  29.970  28.668  1.00  0.00     0.029 A 
ATOM     22  C   UNL A   1      38.784  30.832  29.307  1.00  0.00     0.049 A 
ATOM     23  H   UNL A   1      40.783  30.390  29.691  1.00  0.00     0.167 HD
ATOM     24  C   UNL A   1      44.952  29.342  30.451  1.00  0.00     0.031 A 
ATOM     25  C   UNL A   1      38.554  32.082  29.758  1.00  0.00     0.031 A 
ATOM     26  C   UNL A   1      44.803  30.684  30.945  1.00  0.00     0.049 A 
ATOM     27  C   UNL A   1      39.674  32.860  30.390  1.00  0.00     0.074 A 
ATOM     28  C   UNL A   1      45.768  31.501  31.507  1.00  0.00     0.029 A 
ATOM     29  N   UNL A   1      43.623  31.411  30.921  1.00  0.00    -0.354 N 
ATOM     30  N   UNL A   1      40.917  32.492  30.584  1.00  0.00    -0.248 NA
ATOM     31  C   UNL A   1      39.365  34.218  30.861  1.00  0.00     0.031 C 
ATOM     32  C   UNL A   1      45.162  32.710  31.858  1.00  0.00     0.029 A 
ATOM     33  C   UNL A   1      43.832  32.664  31.468  1.00  0.00     0.049 A 
ATOM     34  H   UNL A   1      42.765  31.084  30.566  1.00  0.00     0.167 HD
ATOM     35  C   UNL A   1      41.544  33.577  31.186  1.00  0.00     0.074 A 
ATOM     36  C   UNL A   1      40.546  34.619  31.315  1.00  0.00     0.031 C 
ATOM     37  C   UNL A   1      42.831  33.694  31.592  1.00  0.00     0.031 A 
BRANCH  24  38
ATOM     38  C   UNL A   1      46.306  28.692  30.562  1.00  0.00    -0.014 A 
ATOM     39  C   UNL A   1      47.235  28.828  29.515  1.00  0.00     0.010 A 
ATOM     40  C   UNL A   1      46.633  27.892  31.670  1.00  0.00     0.010 A 
ATOM     41  C   UNL A   1      48.466  28.170  29.571  1.00  0.00     0.020 A 
ATOM     42  C   UNL A   1      47.874  27.253  31.741  1.00  0.00     0.020 A 
ATOM     43  C   UNL A   1      48.776  27.383  30.683  1.00  0.00     0.054 A 
BRANCH  43  44
ATOM     44  S   UNL A   1      50.388  26.554  30.758  1.00  0.00     0.124 S 
ATOM     45  O   UNL A   1      50.712  26.385  29.344  1.00  0.00    -0.237 OA
ATOM     46  O   UNL A   1      51.214  27.516  31.484  1.00  0.00    -0.237 OA
ATOM     47  O   UNL A   1      50.100  25.322  31.488  1.00  0.00    -0.744 OA
ENDBRANCH  43  44
ENDBRANCH  24  38
BRANCH  25  48
ATOM     48  C   UNL A   1      37.203  32.675  29.572  1.00  0.00    -0.014 A 
ATOM     49  C   UNL A   1      36.895  33.406  28.409  1.00  0.00     0.010 A 
ATOM     50  C   UNL A   1      36.252  32.598  30.605  1.00  0.00     0.010 A 
ATOM     51  C   UNL A   1      35.684  34.096  28.307  1.00  0.00     0.020 A 
ATOM     52  C   UNL A   1      35.031  33.269  30.497  1.00  0.00     0.020 A 
ATOM     53  C   UNL A   1      34.768  34.039  29.362  1.00  0.00     0.054 A 
BRANCH  53  54
ATOM     54  S   UNL A   1      33.235  35.003  29.244  1.00  0.00     0.124 S 
ATOM     55  O   UNL A   1      32.465  34.220  28.280  1.00  0.00    -0.237 OA
ATOM     56  O   UNL A   1      32.734  34.979  30.616  1.00  0.00    -0.237 OA
ATOM     57  O   UNL A   1      33.689  36.307  28.771  1.00  0.00    -0.744 OA
ENDBRANCH  53  54
ENDBRANCH  25  48
BRANCH  37  58
ATOM     58  C   UNL A   1      43.267  34.991  32.218  1.00  0.00    -0.014 A 
ATOM     59  C   UNL A   1      43.080  35.194  33.597  1.00  0.00     0.010 A 
ATOM     60  C   UNL A   1      43.717  36.057  31.419  1.00  0.00     0.010 A 
ATOM     61  C   UNL A   1      43.300  36.452  34.164  1.00  0.00     0.020 A 
ATOM     62  C   UNL A   1      43.958  37.312  31.987  1.00  0.00     0.020 A 
ATOM     63  C   UNL A   1      43.722  37.507  33.351  1.00  0.00     0.054 A 
BRANCH  63  64
ATOM     64  S   UNL A   1      43.956  39.147  34.091  1.00  0.00     0.124 S 
ATOM     65  O   UNL A   1      45.231  39.563  33.514  1.00  0.00    -0.237 OA
ATOM     66  O   UNL A   1      42.783  39.883  33.624  1.00  0.00    -0.237 OA
ATOM     67  O   UNL A   1      43.978  38.873  35.526  1.00  0.00    -0.744 OA
ENDBRANCH  63  64
ENDBRANCH  37  58
ENDBRANCH  11  12
ENDBRANCH   4   6
ENDBRANCH   1   2
BRANCH   1  68
ATOM     68  C   UNL A   1      35.440  22.553  25.383  1.00  0.00     0.042 C 
BRANCH  68  69
ATOM     69  C   UNL A   1      35.043  22.423  23.916  1.00  0.00     0.118 C 
BRANCH  69  70
ATOM     70  N   UNL A   1      33.620  22.152  23.740  1.00  0.00    -0.352 N 
ATOM     71  C   UNL A   1      32.594  23.016  23.462  1.00  0.00     0.256 C 
ATOM     72  H   UNL A   1      33.358  21.208  23.837  1.00  0.00     0.163 HD
ATOM     73  O   UNL A   1      31.427  22.644  23.583  1.00  0.00    -0.269 OA
BRANCH  71  74
ATOM     74  C   UNL A   1      32.865  24.378  22.986  1.00  0.00     0.102 A 
ATOM     75  C   UNL A   1      32.715  25.444  23.882  1.00  0.00     0.029 A 
ATOM     76  C   UNL A   1      33.154  24.664  21.656  1.00  0.00     0.223 A 
ATOM     77  C   UNL A   1      32.904  26.758  23.440  1.00  0.00     0.001 A 
ATOM     78  N   UNL A   1      33.389  25.910  21.206  1.00  0.00    -0.221 NA
ATOM     79  C   UNL A   1      33.266  26.918  22.100  1.00  0.00     0.124 A 
BRANCH  76  80
ATOM     80  O   UNL A   1      33.197  23.718  20.674  1.00  0.00    -0.493 OA
ATOM     81  H   UNL A   1      34.008  23.303  20.458  1.00  0.00     0.295 HD
ENDBRANCH  76  80
BRANCH  77  82
ATOM     82  C   UNL A   1      32.678  27.916  24.312  1.00  0.00    -0.016 A 
ATOM     83  C   UNL A   1      31.472  28.636  24.226  1.00  0.00     0.012 A 
ATOM     84  C   UNL A   1      33.641  28.340  25.245  1.00  0.00     0.025 A 
ATOM     85  C   UNL A   1      31.240  29.747  25.036  1.00  0.00     0.040 A 
ATOM     86  C   UNL A   1      33.414  29.461  26.065  1.00  0.00     0.092 A 
ATOM     87  C   UNL A   1      32.211  30.150  25.942  1.00  0.00     0.135 A 
ATOM     88  F   UNL A   1      31.973  31.227  26.703  1.00  0.00    -0.206 F 
BRANCH  86  89
ATOM     89  C   UNL A   1      34.433  29.953  27.049  1.00  0.00     0.419 C 
ATOM     90  F   UNL A   1      34.216  29.484  28.308  1.00  0.00    -0.166 F 
ATOM     91  F   UNL A   1      35.705  29.596  26.722  1.00  0.00    -0.166 F 
ATOM     92  F   UNL A   1      34.452  31.312  27.160  1.00  0.00    -0.166 F 
ENDBRANCH  86  89
ENDBRANCH  77  82
ENDBRANCH  71  74
ENDBRANCH  69  70
ENDBRANCH  68  69
ENDBRANCH   1  68
TORSDOF 16
ENDMDL
