MODEL 1
REMARK VINA RESULT:     -13.5      0.000      0.000
REMARK SMILES Cc1ccccc1N[C@H](C(=O)NCCCNC(=O)c1ccc(-c2c3nc(c(-c4ccc(S(=O)(=O)[O-])cc4)c4ccc([nH]4)c(-c4ccc(S(=O)(=O)[O-])cc4)c4nc(c(-c5ccc(S(=O)(=O)[O-])cc5)c5ccc2[nH]5)C=C4)C=C3)cc1)c1ccccc1
REMARK SMILES IDX 14 1 13 2 12 3 10 4 11 5 9 7 8 8 7 10 1 11 2 12 3 13 4 14
REMARK SMILES IDX 6 15 5 16 79 17 80 18 84 19 81 20 83 21 82 22 15 23 16 24
REMARK SMILES IDX 17 25 18 27 19 28 20 29 78 30 21 31 77 32 22 33 23 34 24 35
REMARK SMILES IDX 71 36 25 37 76 38 70 39 72 40 26 41 75 42 69 43 68 44 27 46
REMARK SMILES IDX 57 47 38 48 56 49 39 50 42 51 55 52 73 53 40 54 41 55 54 57
REMARK SMILES IDX 74 58 43 59 28 60 29 61 37 62 30 63 36 64 31 65 32 66 33 67
REMARK SMILES IDX 34 68 35 69 58 70 59 71 67 72 60 73 66 74 61 75 62 76 63 77
REMARK SMILES IDX 64 78 65 79 44 80 45 81 53 82 46 83 52 84 47 85 48 86 49 87
REMARK SMILES IDX 50 88 51 89
REMARK H PARENT 12 6 8 9 16 26 72 45 42 56
REMARK Flexibility Score: inf
ROOT
ATOM      1  C   UNL A   1      32.869  29.627  26.976  1.00  0.00     0.042 C 
ENDROOT
BRANCH   1   2
ATOM      2  C   UNL A   1      32.256  29.770  25.597  1.00  0.00     0.117 C 
BRANCH   2   3
ATOM      3  N   UNL A   1      33.260  29.705  24.540  1.00  0.00    -0.354 N 
ATOM      4  C   UNL A   1      33.349  28.782  23.530  1.00  0.00     0.247 C 
ATOM      5  O   UNL A   1      34.258  28.903  22.700  1.00  0.00    -0.272 OA
ATOM      6  H   UNL A   1      33.953  30.404  24.555  1.00  0.00     0.163 HD
BRANCH   4   7
ATOM      7  C   UNL A   1      32.377  27.563  23.480  1.00  0.00     0.200 C 
BRANCH   7   8
ATOM      8  N   UNL A   1      31.240  27.956  22.599  1.00  0.00    -0.370 N 
ATOM      9  H   UNL A   1      31.382  27.651  21.674  1.00  0.00     0.161 HD
BRANCH   8  10
ATOM     10  C   UNL A   1      30.045  28.629  22.727  1.00  0.00     0.038 A 
ATOM     11  C   UNL A   1      28.914  26.612  23.875  1.00  0.00     0.046 C 
ATOM     12  C   UNL A   1      28.886  27.958  23.193  1.00  0.00    -0.028 A 
ATOM     13  C   UNL A   1      27.611  28.562  23.092  1.00  0.00     0.005 A 
ATOM     14  C   UNL A   1      27.468  29.856  22.612  1.00  0.00     0.000 A 
ATOM     15  C   UNL A   1      29.866  29.973  22.385  1.00  0.00     0.026 A 
ATOM     16  C   UNL A   1      28.605  30.576  22.298  1.00  0.00     0.002 A 
ENDBRANCH   8  10
ENDBRANCH   7   8
BRANCH   7  17
ATOM     17  C   UNL A   1      33.049  26.198  23.332  1.00  0.00    -0.016 A 
ATOM     18  C   UNL A   1      34.041  25.767  24.225  1.00  0.00     0.006 A 
ATOM     19  C   UNL A   1      32.692  25.314  22.292  1.00  0.00     0.006 A 
ATOM     20  C   UNL A   1      34.449  24.428  24.237  1.00  0.00     0.000 A 
ATOM     21  C   UNL A   1      33.089  23.978  22.309  1.00  0.00     0.000 A 
ATOM     22  C   UNL A   1      33.937  23.525  23.309  1.00  0.00     0.000 A 
ENDBRANCH   7  17
ENDBRANCH   4   7
ENDBRANCH   2   3
ENDBRANCH   1   2
BRANCH   1  23
ATOM     23  C   UNL A   1      34.379  29.605  26.879  1.00  0.00     0.118 C 
BRANCH  23  24
ATOM     24  N   UNL A   1      35.035  30.825  27.337  1.00  0.00    -0.352 N 
ATOM     25  C   UNL A   1      36.248  30.942  28.002  1.00  0.00     0.251 C 
ATOM     26  H   UNL A   1      34.561  31.667  27.150  1.00  0.00     0.163 HD
ATOM     27  O   UNL A   1      36.583  31.979  28.546  1.00  0.00    -0.269 OA
BRANCH  25  28
ATOM     28  C   UNL A   1      37.160  29.776  27.959  1.00  0.00     0.039 A 
ATOM     29  C   UNL A   1      37.208  28.939  29.079  1.00  0.00     0.014 A 
ATOM     30  C   UNL A   1      38.141  29.712  26.977  1.00  0.00     0.014 A 
ATOM     31  C   UNL A   1      38.355  28.183  29.314  1.00  0.00     0.010 A 
ATOM     32  C   UNL A   1      39.329  29.090  27.289  1.00  0.00     0.010 A 
ATOM     33  C   UNL A   1      39.453  28.349  28.473  1.00  0.00    -0.014 A 
BRANCH  33  34
ATOM     34  C   UNL A   1      40.790  27.829  28.741  1.00  0.00     0.031 A 
ATOM     35  C   UNL A   1      41.097  26.418  28.392  1.00  0.00     0.074 A 
ATOM     36  C   UNL A   1      41.774  28.652  29.171  1.00  0.00     0.049 A 
ATOM     37  N   UNL A   1      42.097  25.742  28.850  1.00  0.00    -0.248 NA
ATOM     38  C   UNL A   1      40.232  25.628  27.518  1.00  0.00     0.031 C 
ATOM     39  C   UNL A   1      43.210  28.384  29.138  1.00  0.00     0.029 A 
ATOM     40  N   UNL A   1      41.672  29.827  29.920  1.00  0.00    -0.354 N 
ATOM     41  C   UNL A   1      42.178  24.574  28.121  1.00  0.00     0.074 A 
ATOM     42  C   UNL A   1      40.952  24.517  27.365  1.00  0.00     0.031 C 
ATOM     43  C   UNL A   1      43.812  29.155  30.056  1.00  0.00     0.029 A 
ATOM     44  C   UNL A   1      42.763  29.825  30.806  1.00  0.00     0.049 A 
ATOM     45  H   UNL A   1      40.975  30.518  29.842  1.00  0.00     0.167 HD
ATOM     46  C   UNL A   1      43.334  23.851  28.129  1.00  0.00     0.031 A 
ATOM     47  C   UNL A   1      42.647  29.815  32.166  1.00  0.00     0.031 A 
ATOM     48  C   UNL A   1      44.285  24.378  29.106  1.00  0.00     0.049 A 
ATOM     49  C   UNL A   1      43.303  28.610  32.805  1.00  0.00     0.074 A 
ATOM     50  C   UNL A   1      45.393  25.200  28.994  1.00  0.00     0.029 A 
ATOM     51  N   UNL A   1      43.968  24.322  30.459  1.00  0.00    -0.354 N 
ATOM     52  N   UNL A   1      43.683  27.552  32.145  1.00  0.00    -0.248 NA
ATOM     53  C   UNL A   1      43.526  28.478  34.244  1.00  0.00     0.031 C 
ATOM     54  C   UNL A   1      45.671  25.729  30.282  1.00  0.00     0.029 A 
ATOM     55  C   UNL A   1      44.757  25.199  31.177  1.00  0.00     0.049 A 
ATOM     56  H   UNL A   1      43.278  23.739  30.850  1.00  0.00     0.167 HD
ATOM     57  C   UNL A   1      44.148  26.608  33.019  1.00  0.00     0.074 A 
ATOM     58  C   UNL A   1      44.049  27.241  34.321  1.00  0.00     0.031 C 
ATOM     59  C   UNL A   1      44.552  25.372  32.608  1.00  0.00     0.031 A 
BRANCH  46  60
ATOM     60  C   UNL A   1      43.705  22.851  27.050  1.00  0.00    -0.014 A 
ATOM     61  C   UNL A   1      42.896  21.711  26.853  1.00  0.00     0.010 A 
ATOM     62  C   UNL A   1      44.863  22.922  26.254  1.00  0.00     0.010 A 
ATOM     63  C   UNL A   1      43.273  20.666  25.993  1.00  0.00     0.020 A 
ATOM     64  C   UNL A   1      45.272  21.872  25.417  1.00  0.00     0.020 A 
ATOM     65  C   UNL A   1      44.478  20.741  25.300  1.00  0.00     0.054 A 
BRANCH  65  66
ATOM     66  S   UNL A   1      44.995  19.353  24.257  1.00  0.00     0.124 S 
ATOM     67  O   UNL A   1      46.442  19.333  24.455  1.00  0.00    -0.237 OA
ATOM     68  O   UNL A   1      44.262  18.234  24.838  1.00  0.00    -0.237 OA
ATOM     69  O   UNL A   1      44.565  19.747  22.916  1.00  0.00    -0.744 OA
ENDBRANCH  65  66
ENDBRANCH  46  60
BRANCH  47  70
ATOM     70  C   UNL A   1      41.424  30.483  32.689  1.00  0.00    -0.014 A 
ATOM     71  C   UNL A   1      40.305  29.667  32.950  1.00  0.00     0.010 A 
ATOM     72  C   UNL A   1      41.522  31.738  33.318  1.00  0.00     0.010 A 
ATOM     73  C   UNL A   1      39.408  30.005  33.964  1.00  0.00     0.020 A 
ATOM     74  C   UNL A   1      40.620  32.079  34.335  1.00  0.00     0.020 A 
ATOM     75  C   UNL A   1      39.619  31.172  34.698  1.00  0.00     0.054 A 
BRANCH  75  76
ATOM     76  S   UNL A   1      38.727  31.354  36.271  1.00  0.00     0.124 S 
ATOM     77  O   UNL A   1      38.471  29.967  36.648  1.00  0.00    -0.237 OA
ATOM     78  O   UNL A   1      39.717  32.056  37.086  1.00  0.00    -0.237 OA
ATOM     79  O   UNL A   1      37.551  32.135  35.900  1.00  0.00    -0.744 OA
ENDBRANCH  75  76
ENDBRANCH  47  70
BRANCH  59  80
ATOM     80  C   UNL A   1      44.865  24.228  33.533  1.00  0.00    -0.014 A 
ATOM     81  C   UNL A   1      44.089  23.059  33.609  1.00  0.00     0.010 A 
ATOM     82  C   UNL A   1      46.065  24.260  34.280  1.00  0.00     0.010 A 
ATOM     83  C   UNL A   1      44.447  22.004  34.457  1.00  0.00     0.020 A 
ATOM     84  C   UNL A   1      46.454  23.195  35.097  1.00  0.00     0.020 A 
ATOM     85  C   UNL A   1      45.623  22.084  35.206  1.00  0.00     0.054 A 
BRANCH  85  86
ATOM     86  S   UNL A   1      46.096  20.705  36.279  1.00  0.00     0.124 S 
ATOM     87  O   UNL A   1      47.514  20.555  35.965  1.00  0.00    -0.237 OA
ATOM     88  O   UNL A   1      45.802  21.212  37.618  1.00  0.00    -0.237 OA
ATOM     89  O   UNL A   1      45.234  19.614  35.832  1.00  0.00    -0.744 OA
ENDBRANCH  85  86
ENDBRANCH  59  80
ENDBRANCH  33  34
ENDBRANCH  25  28
ENDBRANCH  23  24
ENDBRANCH   1  23
TORSDOF 16
ENDMDL
MODEL 2
REMARK VINA RESULT:     -13.0      5.175     11.352
REMARK SMILES Cc1ccccc1N[C@H](C(=O)NCCCNC(=O)c1ccc(-c2c3nc(c(-c4ccc(S(=O)(=O)[O-])cc4)c4ccc([nH]4)c(-c4ccc(S(=O)(=O)[O-])cc4)c4nc(c(-c5ccc(S(=O)(=O)[O-])cc5)c5ccc2[nH]5)C=C4)C=C3)cc1)c1ccccc1
REMARK SMILES IDX 14 1 13 2 12 3 10 4 11 5 9 7 8 8 7 10 1 11 2 12 3 13 4 14
REMARK SMILES IDX 6 15 5 16 79 17 80 18 84 19 81 20 83 21 82 22 15 23 16 24
REMARK SMILES IDX 17 25 18 27 19 28 20 29 78 30 21 31 77 32 22 33 23 34 24 35
REMARK SMILES IDX 71 36 25 37 76 38 70 39 72 40 26 41 75 42 69 43 68 44 27 46
REMARK SMILES IDX 57 47 38 48 56 49 39 50 42 51 55 52 73 53 40 54 41 55 54 57
REMARK SMILES IDX 74 58 43 59 28 60 29 61 37 62 30 63 36 64 31 65 32 66 33 67
REMARK SMILES IDX 34 68 35 69 58 70 59 71 67 72 60 73 66 74 61 75 62 76 63 77
REMARK SMILES IDX 64 78 65 79 44 80 45 81 53 82 46 83 52 84 47 85 48 86 49 87
REMARK SMILES IDX 50 88 51 89
REMARK H PARENT 12 6 8 9 16 26 72 45 42 56
REMARK Flexibility Score: inf
ROOT
ATOM      1  C   UNL A   1      36.779  22.588  25.897  1.00  0.00     0.042 C 
ENDROOT
BRANCH   1   2
ATOM      2  C   UNL A   1      36.796  21.845  24.576  1.00  0.00     0.117 C 
BRANCH   2   3
ATOM      3  N   UNL A   1      36.218  22.635  23.494  1.00  0.00    -0.354 N 
ATOM      4  C   UNL A   1      34.927  23.082  23.386  1.00  0.00     0.247 C 
ATOM      5  O   UNL A   1      34.622  23.771  22.404  1.00  0.00    -0.272 OA
ATOM      6  H   UNL A   1      36.826  22.873  22.756  1.00  0.00     0.163 HD
BRANCH   4   7
ATOM      7  C   UNL A   1      33.850  22.663  24.433  1.00  0.00     0.200 C 
BRANCH   7   8
ATOM      8  N   UNL A   1      32.942  23.833  24.607  1.00  0.00    -0.370 N 
ATOM      9  H   UNL A   1      32.153  23.763  24.022  1.00  0.00     0.161 HD
BRANCH   8  10
ATOM     10  C   UNL A   1      32.904  24.983  25.364  1.00  0.00     0.038 A 
ATOM     11  C   UNL A   1      30.524  24.466  26.219  1.00  0.00     0.046 C 
ATOM     12  C   UNL A   1      31.709  25.378  26.018  1.00  0.00    -0.028 A 
ATOM     13  C   UNL A   1      31.586  26.669  26.583  1.00  0.00     0.005 A 
ATOM     14  C   UNL A   1      32.656  27.553  26.587  1.00  0.00     0.000 A 
ATOM     15  C   UNL A   1      33.989  25.852  25.517  1.00  0.00     0.026 A 
ATOM     16  C   UNL A   1      33.872  27.125  26.089  1.00  0.00     0.002 A 
ENDBRANCH   8  10
ENDBRANCH   7   8
BRANCH   7  17
ATOM     17  C   UNL A   1      33.290  21.252  24.265  1.00  0.00    -0.016 A 
ATOM     18  C   UNL A   1      32.432  20.923  23.206  1.00  0.00     0.006 A 
ATOM     19  C   UNL A   1      33.618  20.220  25.170  1.00  0.00     0.006 A 
ATOM     20  C   UNL A   1      32.145  19.583  22.916  1.00  0.00     0.000 A 
ATOM     21  C   UNL A   1      33.343  18.885  24.877  1.00  0.00     0.000 A 
ATOM     22  C   UNL A   1      32.641  18.565  23.725  1.00  0.00     0.000 A 
ENDBRANCH   7  17
ENDBRANCH   4   7
ENDBRANCH   2   3
ENDBRANCH   1   2
BRANCH   1  23
ATOM     23  C   UNL A   1      37.910  23.593  25.948  1.00  0.00     0.118 C 
BRANCH  23  24
ATOM     24  N   UNL A   1      39.052  23.183  26.757  1.00  0.00    -0.352 N 
ATOM     25  C   UNL A   1      39.923  23.991  27.474  1.00  0.00     0.251 C 
ATOM     26  H   UNL A   1      39.225  22.215  26.801  1.00  0.00     0.163 HD
ATOM     27  O   UNL A   1      40.976  23.566  27.914  1.00  0.00    -0.269 OA
BRANCH  25  28
ATOM     28  C   UNL A   1      39.486  25.379  27.751  1.00  0.00     0.039 A 
ATOM     29  C   UNL A   1      39.988  26.400  26.938  1.00  0.00     0.014 A 
ATOM     30  C   UNL A   1      38.859  25.669  28.958  1.00  0.00     0.014 A 
ATOM     31  C   UNL A   1      40.046  27.701  27.437  1.00  0.00     0.010 A 
ATOM     32  C   UNL A   1      39.059  26.916  29.507  1.00  0.00     0.010 A 
ATOM     33  C   UNL A   1      39.681  27.928  28.762  1.00  0.00    -0.014 A 
BRANCH  33  34
ATOM     34  C   UNL A   1      39.930  29.168  29.490  1.00  0.00     0.031 A 
ATOM     35  C   UNL A   1      38.919  30.255  29.429  1.00  0.00     0.074 A 
ATOM     36  C   UNL A   1      40.995  29.278  30.316  1.00  0.00     0.049 A 
ATOM     37  N   UNL A   1      39.136  31.488  29.741  1.00  0.00    -0.248 NA
ATOM     38  C   UNL A   1      37.561  30.026  28.937  1.00  0.00     0.031 C 
ATOM     39  C   UNL A   1      41.185  30.278  31.365  1.00  0.00     0.029 A 
ATOM     40  N   UNL A   1      42.231  28.628  30.249  1.00  0.00    -0.354 N 
ATOM     41  C   UNL A   1      37.916  32.128  29.784  1.00  0.00     0.074 A 
ATOM     42  C   UNL A   1      36.982  31.197  29.199  1.00  0.00     0.031 C 
ATOM     43  C   UNL A   1      42.497  30.388  31.621  1.00  0.00     0.029 A 
ATOM     44  C   UNL A   1      43.194  29.574  30.640  1.00  0.00     0.049 A 
ATOM     45  H   UNL A   1      42.393  27.695  29.981  1.00  0.00     0.167 HD
ATOM     46  C   UNL A   1      37.799  33.320  30.436  1.00  0.00     0.031 A 
ATOM     47  C   UNL A   1      44.206  30.015  29.837  1.00  0.00     0.031 A 
ATOM     48  C   UNL A   1      39.104  33.829  30.851  1.00  0.00     0.049 A 
ATOM     49  C   UNL A   1      44.167  31.510  29.605  1.00  0.00     0.074 A 
ATOM     50  C   UNL A   1      39.784  33.811  32.057  1.00  0.00     0.029 A 
ATOM     51  N   UNL A   1      40.033  34.187  29.879  1.00  0.00    -0.354 N 
ATOM     52  N   UNL A   1      43.140  32.263  29.884  1.00  0.00    -0.248 NA
ATOM     53  C   UNL A   1      45.256  32.262  28.985  1.00  0.00     0.031 C 
ATOM     54  C   UNL A   1      41.157  34.051  31.785  1.00  0.00     0.029 A 
ATOM     55  C   UNL A   1      41.301  34.251  30.423  1.00  0.00     0.049 A 
ATOM     56  H   UNL A   1      39.816  34.369  28.936  1.00  0.00     0.167 HD
ATOM     57  C   UNL A   1      43.383  33.543  29.469  1.00  0.00     0.074 A 
ATOM     58  C   UNL A   1      44.730  33.498  28.930  1.00  0.00     0.031 C 
ATOM     59  C   UNL A   1      42.452  34.533  29.576  1.00  0.00     0.031 A 
BRANCH  46  60
ATOM     60  C   UNL A   1      36.481  33.871  30.946  1.00  0.00    -0.014 A 
ATOM     61  C   UNL A   1      35.377  33.953  30.069  1.00  0.00     0.010 A 
ATOM     62  C   UNL A   1      36.276  34.397  32.235  1.00  0.00     0.010 A 
ATOM     63  C   UNL A   1      34.186  34.606  30.426  1.00  0.00     0.020 A 
ATOM     64  C   UNL A   1      35.105  35.083  32.596  1.00  0.00     0.020 A 
ATOM     65  C   UNL A   1      34.068  35.195  31.682  1.00  0.00     0.054 A 
BRANCH  65  66
ATOM     66  S   UNL A   1      32.560  36.106  32.103  1.00  0.00     0.124 S 
ATOM     67  O   UNL A   1      32.232  36.771  30.844  1.00  0.00    -0.237 OA
ATOM     68  O   UNL A   1      31.653  35.039  32.509  1.00  0.00    -0.237 OA
ATOM     69  O   UNL A   1      32.985  37.002  33.178  1.00  0.00    -0.744 OA
ENDBRANCH  65  66
ENDBRANCH  46  60
BRANCH  47  70
ATOM     70  C   UNL A   1      44.682  29.020  28.837  1.00  0.00    -0.014 A 
ATOM     71  C   UNL A   1      44.097  29.064  27.556  1.00  0.00     0.010 A 
ATOM     72  C   UNL A   1      45.936  28.404  29.000  1.00  0.00     0.010 A 
ATOM     73  C   UNL A   1      44.831  28.682  26.433  1.00  0.00     0.020 A 
ATOM     74  C   UNL A   1      46.674  28.017  27.872  1.00  0.00     0.020 A 
ATOM     75  C   UNL A   1      46.143  28.233  26.597  1.00  0.00     0.054 A 
BRANCH  75  76
ATOM     76  S   UNL A   1      47.207  28.176  25.125  1.00  0.00     0.124 S 
ATOM     77  O   UNL A   1      47.065  26.790  24.689  1.00  0.00    -0.237 OA
ATOM     78  O   UNL A   1      46.568  29.174  24.268  1.00  0.00    -0.237 OA
ATOM     79  O   UNL A   1      48.519  28.543  25.646  1.00  0.00    -0.744 OA
ENDBRANCH  75  76
ENDBRANCH  47  70
BRANCH  59  80
ATOM     80  C   UNL A   1      42.579  35.894  28.947  1.00  0.00    -0.014 A 
ATOM     81  C   UNL A   1      43.275  36.960  29.541  1.00  0.00     0.010 A 
ATOM     82  C   UNL A   1      42.084  36.091  27.638  1.00  0.00     0.010 A 
ATOM     83  C   UNL A   1      43.399  38.195  28.894  1.00  0.00     0.020 A 
ATOM     84  C   UNL A   1      42.240  37.307  26.966  1.00  0.00     0.020 A 
ATOM     85  C   UNL A   1      42.869  38.365  27.614  1.00  0.00     0.054 A 
BRANCH  85  86
ATOM     86  S   UNL A   1      43.058  39.956  26.770  1.00  0.00     0.124 S 
ATOM     87  O   UNL A   1      43.273  40.866  27.892  1.00  0.00    -0.237 OA
ATOM     88  O   UNL A   1      44.219  39.737  25.910  1.00  0.00    -0.237 OA
ATOM     89  O   UNL A   1      41.791  40.118  26.062  1.00  0.00    -0.744 OA
ENDBRANCH  85  86
ENDBRANCH  59  80
ENDBRANCH  33  34
ENDBRANCH  25  28
ENDBRANCH  23  24
ENDBRANCH   1  23
TORSDOF 16
ENDMDL
MODEL 3
REMARK VINA RESULT:     -13.0      0.699      2.708
REMARK SMILES Cc1ccccc1N[C@H](C(=O)NCCCNC(=O)c1ccc(-c2c3nc(c(-c4ccc(S(=O)(=O)[O-])cc4)c4ccc([nH]4)c(-c4ccc(S(=O)(=O)[O-])cc4)c4nc(c(-c5ccc(S(=O)(=O)[O-])cc5)c5ccc2[nH]5)C=C4)C=C3)cc1)c1ccccc1
REMARK SMILES IDX 14 1 13 2 12 3 10 4 11 5 9 7 8 8 7 10 1 11 2 12 3 13 4 14
REMARK SMILES IDX 6 15 5 16 79 17 80 18 84 19 81 20 83 21 82 22 15 23 16 24
REMARK SMILES IDX 17 25 18 27 19 28 20 29 78 30 21 31 77 32 22 33 23 34 24 35
REMARK SMILES IDX 71 36 25 37 76 38 70 39 72 40 26 41 75 42 69 43 68 44 27 46
REMARK SMILES IDX 57 47 38 48 56 49 39 50 42 51 55 52 73 53 40 54 41 55 54 57
REMARK SMILES IDX 74 58 43 59 28 60 29 61 37 62 30 63 36 64 31 65 32 66 33 67
REMARK SMILES IDX 34 68 35 69 58 70 59 71 67 72 60 73 66 74 61 75 62 76 63 77
REMARK SMILES IDX 64 78 65 79 44 80 45 81 53 82 46 83 52 84 47 85 48 86 49 87
REMARK SMILES IDX 50 88 51 89
REMARK H PARENT 12 6 8 9 16 26 72 45 42 56
REMARK Flexibility Score: inf
ROOT
ATOM      1  C   UNL A   1      32.655  29.508  26.871  1.00  0.00     0.042 C 
ENDROOT
BRANCH   1   2
ATOM      2  C   UNL A   1      32.104  29.879  25.508  1.00  0.00     0.117 C 
BRANCH   2   3
ATOM      3  N   UNL A   1      33.079  29.663  24.445  1.00  0.00    -0.354 N 
ATOM      4  C   UNL A   1      32.939  28.873  23.333  1.00  0.00     0.247 C 
ATOM      5  O   UNL A   1      33.868  28.835  22.516  1.00  0.00    -0.272 OA
ATOM      6  H   UNL A   1      33.937  30.140  24.536  1.00  0.00     0.163 HD
BRANCH   4   7
ATOM      7  C   UNL A   1      31.674  27.980  23.147  1.00  0.00     0.200 C 
BRANCH   7   8
ATOM      8  N   UNL A   1      31.719  26.942  24.217  1.00  0.00    -0.370 N 
ATOM      9  H   UNL A   1      31.689  27.350  25.112  1.00  0.00     0.161 HD
BRANCH   8  10
ATOM     10  C   UNL A   1      31.791  25.568  24.294  1.00  0.00     0.038 A 
ATOM     11  C   UNL A   1      33.955  25.659  25.700  1.00  0.00     0.046 C 
ATOM     12  C   UNL A   1      32.925  24.936  24.865  1.00  0.00    -0.028 A 
ATOM     13  C   UNL A   1      33.124  23.543  24.725  1.00  0.00     0.005 A 
ATOM     14  C   UNL A   1      32.177  22.744  24.099  1.00  0.00     0.000 A 
ATOM     15  C   UNL A   1      30.807  24.707  23.800  1.00  0.00     0.026 A 
ATOM     16  C   UNL A   1      30.997  23.325  23.674  1.00  0.00     0.002 A 
ENDBRANCH   8  10
ENDBRANCH   7   8
BRANCH   7  17
ATOM     17  C   UNL A   1      30.381  28.734  22.839  1.00  0.00    -0.016 A 
ATOM     18  C   UNL A   1      30.371  29.869  22.016  1.00  0.00     0.006 A 
ATOM     19  C   UNL A   1      29.143  28.313  23.370  1.00  0.00     0.006 A 
ATOM     20  C   UNL A   1      29.161  30.383  21.533  1.00  0.00     0.000 A 
ATOM     21  C   UNL A   1      27.938  28.816  22.883  1.00  0.00     0.000 A 
ATOM     22  C   UNL A   1      27.949  29.825  21.931  1.00  0.00     0.000 A 
ENDBRANCH   7  17
ENDBRANCH   4   7
ENDBRANCH   2   3
ENDBRANCH   1   2
BRANCH   1  23
ATOM     23  C   UNL A   1      34.168  29.492  26.839  1.00  0.00     0.118 C 
BRANCH  23  24
ATOM     24  N   UNL A   1      34.799  30.734  27.271  1.00  0.00    -0.352 N 
ATOM     25  C   UNL A   1      35.987  30.889  27.971  1.00  0.00     0.251 C 
ATOM     26  H   UNL A   1      34.325  31.565  27.036  1.00  0.00     0.163 HD
ATOM     27  O   UNL A   1      36.295  31.949  28.485  1.00  0.00    -0.269 OA
BRANCH  25  28
ATOM     28  C   UNL A   1      36.909  29.730  28.004  1.00  0.00     0.039 A 
ATOM     29  C   UNL A   1      37.021  29.014  29.201  1.00  0.00     0.014 A 
ATOM     30  C   UNL A   1      37.842  29.571  26.986  1.00  0.00     0.014 A 
ATOM     31  C   UNL A   1      38.187  28.294  29.456  1.00  0.00     0.010 A 
ATOM     32  C   UNL A   1      39.051  28.993  27.302  1.00  0.00     0.010 A 
ATOM     33  C   UNL A   1      39.241  28.379  28.549  1.00  0.00    -0.014 A 
BRANCH  33  34
ATOM     34  C   UNL A   1      40.595  27.898  28.803  1.00  0.00     0.031 A 
ATOM     35  C   UNL A   1      40.936  26.493  28.463  1.00  0.00     0.074 A 
ATOM     36  C   UNL A   1      41.562  28.752  29.212  1.00  0.00     0.049 A 
ATOM     37  N   UNL A   1      41.960  25.849  28.914  1.00  0.00    -0.248 NA
ATOM     38  C   UNL A   1      40.081  25.671  27.609  1.00  0.00     0.031 C 
ATOM     39  C   UNL A   1      43.004  28.523  29.161  1.00  0.00     0.029 A 
ATOM     40  N   UNL A   1      41.438  29.932  29.951  1.00  0.00    -0.354 N 
ATOM     41  C   UNL A   1      42.063  24.677  28.195  1.00  0.00     0.074 A 
ATOM     42  C   UNL A   1      40.829  24.578  27.457  1.00  0.00     0.031 C 
ATOM     43  C   UNL A   1      43.597  29.319  30.064  1.00  0.00     0.029 A 
ATOM     44  C   UNL A   1      42.541  29.968  30.821  1.00  0.00     0.049 A 
ATOM     45  H   UNL A   1      40.722  30.602  29.876  1.00  0.00     0.167 HD
ATOM     46  C   UNL A   1      43.238  23.985  28.193  1.00  0.00     0.031 A 
ATOM     47  C   UNL A   1      42.444  29.968  32.183  1.00  0.00     0.031 A 
ATOM     48  C   UNL A   1      44.187  24.548  29.152  1.00  0.00     0.049 A 
ATOM     49  C   UNL A   1      43.141  28.788  32.825  1.00  0.00     0.074 A 
ATOM     50  C   UNL A   1      45.272  25.398  29.017  1.00  0.00     0.029 A 
ATOM     51  N   UNL A   1      43.891  24.496  30.510  1.00  0.00    -0.354 N 
ATOM     52  N   UNL A   1      43.541  27.734  32.169  1.00  0.00    -0.248 NA
ATOM     53  C   UNL A   1      43.388  28.676  34.261  1.00  0.00     0.031 C 
ATOM     54  C   UNL A   1      45.553  25.948  30.296  1.00  0.00     0.029 A 
ATOM     55  C   UNL A   1      44.666  25.402  31.208  1.00  0.00     0.049 A 
ATOM     56  H   UNL A   1      43.223  23.899  30.916  1.00  0.00     0.167 HD
ATOM     57  C   UNL A   1      44.043  26.812  33.045  1.00  0.00     0.074 A 
ATOM     58  C   UNL A   1      43.945  27.455  34.343  1.00  0.00     0.031 C 
ATOM     59  C   UNL A   1      44.476  25.583  32.641  1.00  0.00     0.031 A 
BRANCH  46  60
ATOM     60  C   UNL A   1      43.622  22.985  27.119  1.00  0.00    -0.014 A 
ATOM     61  C   UNL A   1      42.809  21.851  26.905  1.00  0.00     0.010 A 
ATOM     62  C   UNL A   1      44.794  23.050  26.344  1.00  0.00     0.010 A 
ATOM     63  C   UNL A   1      43.194  20.806  26.049  1.00  0.00     0.020 A 
ATOM     64  C   UNL A   1      45.211  21.999  25.511  1.00  0.00     0.020 A 
ATOM     65  C   UNL A   1      44.411  20.874  25.378  1.00  0.00     0.054 A 
BRANCH  65  66
ATOM     66  S   UNL A   1      44.938  19.485  24.341  1.00  0.00     0.124 S 
ATOM     67  O   UNL A   1      44.470  19.886  23.017  1.00  0.00    -0.237 OA
ATOM     68  O   UNL A   1      46.385  19.485  24.528  1.00  0.00    -0.237 OA
ATOM     69  O   UNL A   1      44.238  18.337  24.917  1.00  0.00    -0.744 OA
ENDBRANCH  65  66
ENDBRANCH  46  60
BRANCH  47  70
ATOM     70  C   UNL A   1      41.210  30.608  32.716  1.00  0.00    -0.014 A 
ATOM     71  C   UNL A   1      40.116  29.765  32.997  1.00  0.00     0.010 A 
ATOM     72  C   UNL A   1      41.283  31.868  33.336  1.00  0.00     0.010 A 
ATOM     73  C   UNL A   1      39.223  30.086  34.019  1.00  0.00     0.020 A 
ATOM     74  C   UNL A   1      40.385  32.193  34.362  1.00  0.00     0.020 A 
ATOM     75  C   UNL A   1      39.413  31.263  34.743  1.00  0.00     0.054 A 
BRANCH  75  76
ATOM     76  S   UNL A   1      38.535  31.432  36.326  1.00  0.00     0.124 S 
ATOM     77  O   UNL A   1      38.224  30.046  36.661  1.00  0.00    -0.237 OA
ATOM     78  O   UNL A   1      39.556  32.068  37.157  1.00  0.00    -0.237 OA
ATOM     79  O   UNL A   1      37.391  32.271  35.986  1.00  0.00    -0.744 OA
ENDBRANCH  75  76
ENDBRANCH  47  70
BRANCH  59  80
ATOM     80  C   UNL A   1      44.833  24.457  33.572  1.00  0.00    -0.014 A 
ATOM     81  C   UNL A   1      43.880  23.716  34.291  1.00  0.00     0.010 A 
ATOM     82  C   UNL A   1      46.178  24.029  33.645  1.00  0.00     0.010 A 
ATOM     83  C   UNL A   1      44.262  22.648  35.113  1.00  0.00     0.020 A 
ATOM     84  C   UNL A   1      46.564  22.939  34.429  1.00  0.00     0.020 A 
ATOM     85  C   UNL A   1      45.604  22.274  35.187  1.00  0.00     0.054 A 
BRANCH  85  86
ATOM     86  S   UNL A   1      46.089  20.875  36.229  1.00  0.00     0.124 S 
ATOM     87  O   UNL A   1      45.600  21.295  37.539  1.00  0.00    -0.237 OA
ATOM     88  O   UNL A   1      45.375  19.751  35.625  1.00  0.00    -0.237 OA
ATOM     89  O   UNL A   1      47.541  20.829  36.084  1.00  0.00    -0.744 OA
ENDBRANCH  85  86
ENDBRANCH  59  80
ENDBRANCH  33  34
ENDBRANCH  25  28
ENDBRANCH  23  24
ENDBRANCH   1  23
TORSDOF 16
ENDMDL
