MODEL 1
REMARK VINA RESULT:     -12.2      0.000      0.000
REMARK SMILES CC(C)(C)c1ccc(OCC(=O)NNC(=O)[C@H]2[C@@H](C(=O)NCCCNC(=O)c3ccc(-c4c5nc(c(-c6ccc(S(=O)(=O)[O-])cc6)c6ccc([nH]6)c(-c6ccc(S(=O)(=O)[O-])cc6)c6nc(c(-c7ccc(S(=O)(=O)[O-])cc7)c7ccc4[nH]7)C=C6)C=C5)cc3)[C@@H]3C=C[C@H]2C3)cc1
REMARK SMILES IDX 19 1 20 2 21 3 18 5 17 6 91 7 88 8 90 9 92 10 89 11 15 12
REMARK SMILES IDX 14 13 16 15 13 16 11 17 12 18 10 20 9 21 8 22 5 23 6 24
REMARK SMILES IDX 94 25 7 26 93 27 2 28 1 29 3 30 4 31 22 32 23 33 24 34 25 35
REMARK SMILES IDX 26 36 27 38 28 39 29 40 87 41 30 42 86 43 31 44 32 45 33 46
REMARK SMILES IDX 80 47 34 48 85 49 79 50 81 51 35 52 84 53 78 54 77 55 36 57
REMARK SMILES IDX 66 58 47 59 65 60 48 61 51 62 64 63 82 64 49 65 50 66 63 68
REMARK SMILES IDX 83 69 52 70 37 71 38 72 46 73 39 74 45 75 40 76 41 77 42 78
REMARK SMILES IDX 43 79 44 80 67 81 68 82 76 83 69 84 75 85 70 86 71 87 72 88
REMARK SMILES IDX 73 89 74 90 53 91 54 92 62 93 55 94 61 95 56 96 57 97 58 98
REMARK SMILES IDX 59 99 60 100
REMARK H PARENT 21 4 14 14 13 19 25 37 81 56 51 67
REMARK Flexibility Score: inf
ROOT
ATOM      1  C   UNL A   1      34.835  21.292  25.900  1.00  0.00     0.224 C 
ATOM      2  O   UNL A   1      34.083  21.411  26.875  1.00  0.00    -0.275 OA
ATOM      3  N   UNL A   1      36.071  21.812  26.081  1.00  0.00    -0.356 N 
ATOM      4  H   UNL A   1      36.294  21.995  27.022  1.00  0.00     0.163 HD
ENDROOT
BRANCH   1   5
ATOM      5  C   UNL A   1      34.441  20.443  24.681  1.00  0.00     0.098 C 
ATOM      6  C   UNL A   1      33.079  20.586  23.925  1.00  0.00     0.100 C 
ATOM      7  C   UNL A   1      32.323  19.269  24.298  1.00  0.00     0.025 C 
ATOM      8  C   UNL A   1      34.346  18.958  25.178  1.00  0.00     0.025 C 
ATOM      9  C   UNL A   1      32.981  18.164  23.501  1.00  0.00    -0.027 C 
ATOM     10  C   UNL A   1      32.893  18.925  25.672  1.00  0.00     0.017 C 
ATOM     11  C   UNL A   1      34.214  18.008  24.004  1.00  0.00    -0.027 C 
BRANCH   6  12
ATOM     12  C   UNL A   1      32.164  21.769  24.157  1.00  0.00     0.242 C 
ATOM     13  N   UNL A   1      31.915  22.628  23.101  1.00  0.00    -0.267 N 
ATOM     14  H   UNL A   1      31.220  23.315  23.227  1.00  0.00     0.191 HD
ATOM     15  O   UNL A   1      31.608  21.952  25.239  1.00  0.00    -0.273 OA
BRANCH  13  16
ATOM     16  N   UNL A   1      32.574  22.596  21.870  1.00  0.00    -0.265 N 
ATOM     17  C   UNL A   1      32.953  23.701  21.146  1.00  0.00     0.276 C 
ATOM     18  O   UNL A   1      33.670  23.538  20.156  1.00  0.00    -0.269 OA
ATOM     19  H   UNL A   1      32.782  21.712  21.490  1.00  0.00     0.191 HD
BRANCH  17  20
ATOM     20  C   UNL A   1      32.507  25.105  21.578  1.00  0.00     0.331 C 
BRANCH  20  21
ATOM     21  O   UNL A   1      33.530  26.065  21.795  1.00  0.00    -0.484 OA
BRANCH  21  22
ATOM     22  C   UNL A   1      33.427  26.822  22.932  1.00  0.00     0.120 A 
ATOM     23  C   UNL A   1      32.884  28.284  25.302  1.00  0.00    -0.042 A 
ATOM     24  C   UNL A   1      32.370  26.992  25.108  1.00  0.00     0.008 A 
ATOM     25  C   UNL A   1      33.707  28.805  24.287  1.00  0.00     0.008 A 
ATOM     26  C   UNL A   1      32.638  26.271  23.939  1.00  0.00     0.047 A 
ATOM     27  C   UNL A   1      33.991  28.079  23.129  1.00  0.00     0.047 A 
BRANCH  23  28
ATOM     28  C   UNL A   1      32.546  29.136  26.536  1.00  0.00    -0.013 C 
ATOM     29  C   UNL A   1      33.830  29.632  27.238  1.00  0.00     0.016 C 
ATOM     30  C   UNL A   1      31.715  28.385  27.597  1.00  0.00     0.016 C 
ATOM     31  C   UNL A   1      31.725  30.356  26.065  1.00  0.00     0.016 C 
ENDBRANCH  23  28
ENDBRANCH  21  22
ENDBRANCH  20  21
ENDBRANCH  17  20
ENDBRANCH  13  16
ENDBRANCH   6  12
ENDBRANCH   1   5
BRANCH   3  32
ATOM     32  C   UNL A   1      37.123  22.146  25.153  1.00  0.00     0.117 C 
BRANCH  32  33
ATOM     33  C   UNL A   1      37.534  23.604  25.355  1.00  0.00     0.042 C 
BRANCH  33  34
ATOM     34  C   UNL A   1      38.477  23.839  26.526  1.00  0.00     0.118 C 
BRANCH  34  35
ATOM     35  N   UNL A   1      39.864  23.922  26.105  1.00  0.00    -0.352 N 
ATOM     36  C   UNL A   1      40.858  24.814  26.433  1.00  0.00     0.251 C 
ATOM     37  H   UNL A   1      40.141  23.218  25.475  1.00  0.00     0.163 HD
ATOM     38  O   UNL A   1      41.890  24.799  25.761  1.00  0.00    -0.269 OA
BRANCH  36  39
ATOM     39  C   UNL A   1      40.720  25.796  27.540  1.00  0.00     0.039 A 
ATOM     40  C   UNL A   1      41.673  26.816  27.645  1.00  0.00     0.014 A 
ATOM     41  C   UNL A   1      39.731  25.697  28.521  1.00  0.00     0.014 A 
ATOM     42  C   UNL A   1      41.606  27.747  28.690  1.00  0.00     0.010 A 
ATOM     43  C   UNL A   1      39.605  26.681  29.504  1.00  0.00     0.010 A 
ATOM     44  C   UNL A   1      40.553  27.707  29.616  1.00  0.00    -0.014 A 
BRANCH  44  45
ATOM     45  C   UNL A   1      40.451  28.705  30.717  1.00  0.00     0.031 A 
ATOM     46  C   UNL A   1      41.347  28.602  31.927  1.00  0.00     0.074 A 
ATOM     47  C   UNL A   1      39.522  29.681  30.659  1.00  0.00     0.049 A 
ATOM     48  N   UNL A   1      41.368  29.344  33.007  1.00  0.00    -0.248 NA
ATOM     49  C   UNL A   1      42.334  27.510  31.938  1.00  0.00     0.031 C 
ATOM     50  C   UNL A   1      38.562  29.875  29.570  1.00  0.00     0.029 A 
ATOM     51  N   UNL A   1      39.232  30.695  31.540  1.00  0.00    -0.354 N 
ATOM     52  C   UNL A   1      42.344  28.794  33.830  1.00  0.00     0.074 A 
ATOM     53  C   UNL A   1      42.864  27.630  33.147  1.00  0.00     0.031 C 
ATOM     54  C   UNL A   1      37.812  30.959  29.832  1.00  0.00     0.029 A 
ATOM     55  C   UNL A   1      38.207  31.513  31.123  1.00  0.00     0.049 A 
ATOM     56  H   UNL A   1      39.712  30.824  32.389  1.00  0.00     0.167 HD
ATOM     57  C   UNL A   1      42.786  29.225  35.037  1.00  0.00     0.031 A 
ATOM     58  C   UNL A   1      37.645  32.587  31.711  1.00  0.00     0.031 A 
ATOM     59  C   UNL A   1      42.294  30.399  35.708  1.00  0.00     0.049 A 
ATOM     60  C   UNL A   1      38.164  33.057  33.042  1.00  0.00     0.074 A 
ATOM     61  C   UNL A   1      42.723  30.949  36.904  1.00  0.00     0.029 A 
ATOM     62  N   UNL A   1      41.271  31.207  35.241  1.00  0.00    -0.354 N 
ATOM     63  N   UNL A   1      39.125  32.552  33.778  1.00  0.00    -0.248 NA
ATOM     64  C   UNL A   1      37.527  34.251  33.617  1.00  0.00     0.031 C 
ATOM     65  C   UNL A   1      41.932  32.070  37.179  1.00  0.00     0.029 A 
ATOM     66  C   UNL A   1      41.043  32.244  36.130  1.00  0.00     0.049 A 
ATOM     67  H   UNL A   1      40.779  31.068  34.399  1.00  0.00     0.167 HD
ATOM     68  C   UNL A   1      39.223  33.379  34.890  1.00  0.00     0.074 A 
ATOM     69  C   UNL A   1      38.237  34.426  34.724  1.00  0.00     0.031 C 
ATOM     70  C   UNL A   1      40.057  33.279  35.955  1.00  0.00     0.031 A 
BRANCH  57  71
ATOM     71  C   UNL A   1      43.865  28.419  35.712  1.00  0.00    -0.014 A 
ATOM     72  C   UNL A   1      45.226  28.710  35.503  1.00  0.00     0.010 A 
ATOM     73  C   UNL A   1      43.516  27.383  36.597  1.00  0.00     0.010 A 
ATOM     74  C   UNL A   1      46.216  27.953  36.133  1.00  0.00     0.020 A 
ATOM     75  C   UNL A   1      44.504  26.639  37.250  1.00  0.00     0.020 A 
ATOM     76  C   UNL A   1      45.849  26.918  36.999  1.00  0.00     0.054 A 
BRANCH  76  77
ATOM     77  S   UNL A   1      47.157  25.963  37.818  1.00  0.00     0.124 S 
ATOM     78  O   UNL A   1      47.482  24.966  36.801  1.00  0.00    -0.237 OA
ATOM     79  O   UNL A   1      48.186  26.970  38.063  1.00  0.00    -0.237 OA
ATOM     80  O   UNL A   1      46.504  25.440  39.016  1.00  0.00    -0.744 OA
ENDBRANCH  76  77
ENDBRANCH  57  71
BRANCH  58  81
ATOM     81  C   UNL A   1      36.532  33.305  31.032  1.00  0.00    -0.014 A 
ATOM     82  C   UNL A   1      35.224  33.237  31.541  1.00  0.00     0.010 A 
ATOM     83  C   UNL A   1      36.779  34.071  29.878  1.00  0.00     0.010 A 
ATOM     84  C   UNL A   1      34.178  33.907  30.900  1.00  0.00     0.020 A 
ATOM     85  C   UNL A   1      35.741  34.763  29.249  1.00  0.00     0.020 A 
ATOM     86  C   UNL A   1      34.444  34.667  29.758  1.00  0.00     0.054 A 
BRANCH  86  87
ATOM     87  S   UNL A   1      33.085  35.579  28.971  1.00  0.00     0.124 S 
ATOM     88  O   UNL A   1      32.402  34.523  28.232  1.00  0.00    -0.237 OA
ATOM     89  O   UNL A   1      32.360  36.121  30.117  1.00  0.00    -0.237 OA
ATOM     90  O   UNL A   1      33.774  36.575  28.153  1.00  0.00    -0.744 OA
ENDBRANCH  86  87
ENDBRANCH  58  81
BRANCH  70  91
ATOM     91  C   UNL A   1      39.961  34.347  37.010  1.00  0.00    -0.014 A 
ATOM     92  C   UNL A   1      40.695  35.542  36.903  1.00  0.00     0.010 A 
ATOM     93  C   UNL A   1      39.090  34.171  38.100  1.00  0.00     0.010 A 
ATOM     94  C   UNL A   1      40.585  36.527  37.888  1.00  0.00     0.020 A 
ATOM     95  C   UNL A   1      38.959  35.164  39.074  1.00  0.00     0.020 A 
ATOM     96  C   UNL A   1      39.720  36.330  38.970  1.00  0.00     0.054 A 
BRANCH  96  97
ATOM     97  S   UNL A   1      39.566  37.638  40.218  1.00  0.00     0.124 S 
ATOM     98  O   UNL A   1      39.806  36.903  41.458  1.00  0.00    -0.237 OA
ATOM     99  O   UNL A   1      40.615  38.579  39.832  1.00  0.00    -0.237 OA
ATOM    100  O   UNL A   1      38.201  38.128  40.038  1.00  0.00    -0.744 OA
ENDBRANCH  96  97
ENDBRANCH  70  91
ENDBRANCH  44  45
ENDBRANCH  36  39
ENDBRANCH  34  35
ENDBRANCH  33  34
ENDBRANCH  32  33
ENDBRANCH   3  32
TORSDOF 19
ENDMDL
MODEL 2
REMARK VINA RESULT:     -12.1      4.575     10.577
REMARK SMILES CC(C)(C)c1ccc(OCC(=O)NNC(=O)[C@H]2[C@@H](C(=O)NCCCNC(=O)c3ccc(-c4c5nc(c(-c6ccc(S(=O)(=O)[O-])cc6)c6ccc([nH]6)c(-c6ccc(S(=O)(=O)[O-])cc6)c6nc(c(-c7ccc(S(=O)(=O)[O-])cc7)c7ccc4[nH]7)C=C6)C=C5)cc3)[C@@H]3C=C[C@H]2C3)cc1
REMARK SMILES IDX 19 1 20 2 21 3 18 5 17 6 91 7 88 8 90 9 92 10 89 11 15 12
REMARK SMILES IDX 14 13 16 15 13 16 11 17 12 18 10 20 9 21 8 22 5 23 6 24
REMARK SMILES IDX 94 25 7 26 93 27 2 28 1 29 3 30 4 31 22 32 23 33 24 34 25 35
REMARK SMILES IDX 26 36 27 38 28 39 29 40 87 41 30 42 86 43 31 44 32 45 33 46
REMARK SMILES IDX 80 47 34 48 85 49 79 50 81 51 35 52 84 53 78 54 77 55 36 57
REMARK SMILES IDX 66 58 47 59 65 60 48 61 51 62 64 63 82 64 49 65 50 66 63 68
REMARK SMILES IDX 83 69 52 70 37 71 38 72 46 73 39 74 45 75 40 76 41 77 42 78
REMARK SMILES IDX 43 79 44 80 67 81 68 82 76 83 69 84 75 85 70 86 71 87 72 88
REMARK SMILES IDX 73 89 74 90 53 91 54 92 62 93 55 94 61 95 56 96 57 97 58 98
REMARK SMILES IDX 59 99 60 100
REMARK H PARENT 21 4 14 14 13 19 25 37 81 56 51 67
REMARK Flexibility Score: inf
ROOT
ATOM      1  C   UNL A   1      42.244  19.954  26.011  1.00  0.00     0.224 C 
ATOM      2  O   UNL A   1      41.701  19.536  24.982  1.00  0.00    -0.275 OA
ATOM      3  N   UNL A   1      41.390  20.207  27.030  1.00  0.00    -0.356 N 
ATOM      4  H   UNL A   1      40.499  19.805  26.914  1.00  0.00     0.163 HD
ENDROOT
BRANCH   1   5
ATOM      5  C   UNL A   1      43.773  19.981  26.159  1.00  0.00     0.098 C 
ATOM      6  C   UNL A   1      44.681  21.129  25.605  1.00  0.00     0.100 C 
ATOM      7  C   UNL A   1      45.435  20.447  24.417  1.00  0.00     0.025 C 
ATOM      8  C   UNL A   1      44.326  18.755  25.350  1.00  0.00     0.025 C 
ATOM      9  C   UNL A   1      46.470  19.536  25.042  1.00  0.00    -0.027 C 
ATOM     10  C   UNL A   1      44.448  19.380  23.953  1.00  0.00     0.017 C 
ATOM     11  C   UNL A   1      45.798  18.542  25.639  1.00  0.00    -0.027 C 
BRANCH   6  12
ATOM     12  C   UNL A   1      44.097  22.444  25.135  1.00  0.00     0.242 C 
ATOM     13  N   UNL A   1      44.885  23.580  25.211  1.00  0.00    -0.267 N 
ATOM     14  H   UNL A   1      44.544  24.400  24.785  1.00  0.00     0.191 HD
ATOM     15  O   UNL A   1      42.969  22.513  24.651  1.00  0.00    -0.273 OA
BRANCH  13  16
ATOM     16  N   UNL A   1      46.127  23.653  25.847  1.00  0.00    -0.265 N 
ATOM     17  C   UNL A   1      46.394  24.382  26.980  1.00  0.00     0.276 C 
ATOM     18  O   UNL A   1      47.488  24.233  27.531  1.00  0.00    -0.269 OA
ATOM     19  H   UNL A   1      46.870  23.142  25.450  1.00  0.00     0.191 HD
BRANCH  17  20
ATOM     20  C   UNL A   1      45.343  25.344  27.554  1.00  0.00     0.331 C 
BRANCH  20  21
ATOM     21  O   UNL A   1      44.274  24.764  28.285  1.00  0.00    -0.484 OA
BRANCH  21  22
ATOM     22  C   UNL A   1      44.488  24.560  29.623  1.00  0.00     0.120 A 
ATOM     23  C   UNL A   1      44.604  24.028  32.407  1.00  0.00    -0.042 A 
ATOM     24  C   UNL A   1      43.934  23.164  31.526  1.00  0.00     0.008 A 
ATOM     25  C   UNL A   1      45.244  25.146  31.844  1.00  0.00     0.008 A 
ATOM     26  C   UNL A   1      43.877  23.427  30.152  1.00  0.00     0.047 A 
ATOM     27  C   UNL A   1      45.205  25.399  30.471  1.00  0.00     0.047 A 
BRANCH  23  28
ATOM     28  C   UNL A   1      44.619  23.814  33.929  1.00  0.00    -0.013 C 
ATOM     29  C   UNL A   1      45.914  24.378  34.557  1.00  0.00     0.016 C 
ATOM     30  C   UNL A   1      44.528  22.331  34.346  1.00  0.00     0.016 C 
ATOM     31  C   UNL A   1      43.404  24.553  34.529  1.00  0.00     0.016 C 
ENDBRANCH  23  28
ENDBRANCH  21  22
ENDBRANCH  20  21
ENDBRANCH  17  20
ENDBRANCH  13  16
ENDBRANCH   6  12
ENDBRANCH   1   5
BRANCH   3  32
ATOM     32  C   UNL A   1      41.542  20.953  28.255  1.00  0.00     0.117 C 
BRANCH  32  33
ATOM     33  C   UNL A   1      41.727  22.434  27.927  1.00  0.00     0.042 C 
BRANCH  33  34
ATOM     34  C   UNL A   1      40.555  23.072  27.196  1.00  0.00     0.118 C 
BRANCH  34  35
ATOM     35  N   UNL A   1      40.990  23.974  26.145  1.00  0.00    -0.352 N 
ATOM     36  C   UNL A   1      41.057  25.346  26.099  1.00  0.00     0.251 C 
ATOM     37  H   UNL A   1      41.288  23.525  25.321  1.00  0.00     0.163 HD
ATOM     38  O   UNL A   1      41.248  25.877  25.005  1.00  0.00    -0.269 OA
BRANCH  36  39
ATOM     39  C   UNL A   1      40.886  26.197  27.306  1.00  0.00     0.039 A 
ATOM     40  C   UNL A   1      41.786  27.251  27.507  1.00  0.00     0.014 A 
ATOM     41  C   UNL A   1      39.920  25.943  28.281  1.00  0.00     0.014 A 
ATOM     42  C   UNL A   1      41.689  28.061  28.645  1.00  0.00     0.010 A 
ATOM     43  C   UNL A   1      39.759  26.810  29.364  1.00  0.00     0.010 A 
ATOM     44  C   UNL A   1      40.654  27.868  29.574  1.00  0.00    -0.014 A 
BRANCH  44  45
ATOM     45  C   UNL A   1      40.518  28.737  30.776  1.00  0.00     0.031 A 
ATOM     46  C   UNL A   1      39.468  29.821  30.821  1.00  0.00     0.074 A 
ATOM     47  C   UNL A   1      41.366  28.589  31.814  1.00  0.00     0.049 A 
ATOM     48  N   UNL A   1      39.234  30.707  31.757  1.00  0.00    -0.248 NA
ATOM     49  C   UNL A   1      38.580  29.940  29.653  1.00  0.00     0.031 C 
ATOM     50  C   UNL A   1      42.454  27.611  31.889  1.00  0.00     0.029 A 
ATOM     51  N   UNL A   1      41.446  29.264  33.008  1.00  0.00    -0.354 N 
ATOM     52  C   UNL A   1      38.197  31.501  31.281  1.00  0.00     0.074 A 
ATOM     53  C   UNL A   1      37.874  31.020  29.955  1.00  0.00     0.031 C 
ATOM     54  C   UNL A   1      43.071  27.729  33.077  1.00  0.00     0.029 A 
ATOM     55  C   UNL A   1      42.452  28.814  33.832  1.00  0.00     0.049 A 
ATOM     56  H   UNL A   1      40.840  30.001  33.252  1.00  0.00     0.167 HD
ATOM     57  C   UNL A   1      37.554  32.525  31.893  1.00  0.00     0.031 A 
ATOM     58  C   UNL A   1      42.838  29.227  35.055  1.00  0.00     0.031 A 
ATOM     59  C   UNL A   1      37.850  32.988  33.223  1.00  0.00     0.049 A 
ATOM     60  C   UNL A   1      42.098  30.352  35.723  1.00  0.00     0.074 A 
ATOM     61  C   UNL A   1      37.213  33.978  33.951  1.00  0.00     0.029 A 
ATOM     62  N   UNL A   1      38.863  32.491  34.027  1.00  0.00    -0.354 N 
ATOM     63  N   UNL A   1      41.084  31.054  35.274  1.00  0.00    -0.248 NA
ATOM     64  C   UNL A   1      42.549  30.736  37.068  1.00  0.00     0.031 C 
ATOM     65  C   UNL A   1      37.865  34.105  35.182  1.00  0.00     0.029 A 
ATOM     66  C   UNL A   1      38.878  33.162  35.238  1.00  0.00     0.049 A 
ATOM     67  H   UNL A   1      39.480  31.766  33.776  1.00  0.00     0.167 HD
ATOM     68  C   UNL A   1      40.763  31.945  36.291  1.00  0.00     0.074 A 
ATOM     69  C   UNL A   1      41.677  31.684  37.383  1.00  0.00     0.031 C 
ATOM     70  C   UNL A   1      39.795  32.894  36.317  1.00  0.00     0.031 A 
BRANCH  57  71
ATOM     71  C   UNL A   1      36.456  33.216  31.127  1.00  0.00    -0.014 A 
ATOM     72  C   UNL A   1      35.110  33.089  31.515  1.00  0.00     0.010 A 
ATOM     73  C   UNL A   1      36.777  34.036  30.030  1.00  0.00     0.010 A 
ATOM     74  C   UNL A   1      34.101  33.732  30.794  1.00  0.00     0.020 A 
ATOM     75  C   UNL A   1      35.772  34.703  29.321  1.00  0.00     0.020 A 
ATOM     76  C   UNL A   1      34.439  34.532  29.698  1.00  0.00     0.054 A 
BRANCH  76  77
ATOM     77  S   UNL A   1      33.110  35.372  28.792  1.00  0.00     0.124 S 
ATOM     78  O   UNL A   1      32.527  34.273  28.027  1.00  0.00    -0.237 OA
ATOM     79  O   UNL A   1      32.274  35.904  29.864  1.00  0.00    -0.237 OA
ATOM     80  O   UNL A   1      33.814  36.377  27.999  1.00  0.00    -0.744 OA
ENDBRANCH  76  77
ENDBRANCH  57  71
BRANCH  58  81
ATOM     81  C   UNL A   1      43.976  28.554  35.738  1.00  0.00    -0.014 A 
ATOM     82  C   UNL A   1      45.296  28.982  35.514  1.00  0.00     0.010 A 
ATOM     83  C   UNL A   1      43.744  27.488  36.626  1.00  0.00     0.010 A 
ATOM     84  C   UNL A   1      46.365  28.347  36.152  1.00  0.00     0.020 A 
ATOM     85  C   UNL A   1      44.808  26.867  37.285  1.00  0.00     0.020 A 
ATOM     86  C   UNL A   1      46.114  27.293  37.034  1.00  0.00     0.054 A 
BRANCH  86  87
ATOM     87  S   UNL A   1      47.509  26.518  37.899  1.00  0.00     0.124 S 
ATOM     88  O   UNL A   1      48.605  26.737  36.961  1.00  0.00    -0.237 OA
ATOM     89  O   UNL A   1      47.577  27.280  39.142  1.00  0.00    -0.237 OA
ATOM     90  O   UNL A   1      47.083  25.128  38.054  1.00  0.00    -0.744 OA
ENDBRANCH  86  87
ENDBRANCH  58  81
BRANCH  70  91
ATOM     91  C   UNL A   1      39.654  33.703  37.577  1.00  0.00    -0.014 A 
ATOM     92  C   UNL A   1      40.255  34.969  37.700  1.00  0.00     0.010 A 
ATOM     93  C   UNL A   1      38.874  33.208  38.638  1.00  0.00     0.010 A 
ATOM     94  C   UNL A   1      40.104  35.710  38.874  1.00  0.00     0.020 A 
ATOM     95  C   UNL A   1      38.702  33.956  39.805  1.00  0.00     0.020 A 
ATOM     96  C   UNL A   1      39.331  35.197  39.922  1.00  0.00     0.054 A 
BRANCH  96  97
ATOM     97  S   UNL A   1      39.121  36.192  41.424  1.00  0.00     0.124 S 
ATOM     98  O   UNL A   1      37.836  35.712  41.928  1.00  0.00    -0.237 OA
ATOM     99  O   UNL A   1      40.287  35.823  42.223  1.00  0.00    -0.237 OA
ATOM    100  O   UNL A   1      39.122  37.567  40.930  1.00  0.00    -0.744 OA
ENDBRANCH  96  97
ENDBRANCH  70  91
ENDBRANCH  44  45
ENDBRANCH  36  39
ENDBRANCH  34  35
ENDBRANCH  33  34
ENDBRANCH  32  33
ENDBRANCH   3  32
TORSDOF 19
ENDMDL
MODEL 3
REMARK VINA RESULT:     -12.1      4.734      7.291
REMARK SMILES CC(C)(C)c1ccc(OCC(=O)NNC(=O)[C@H]2[C@@H](C(=O)NCCCNC(=O)c3ccc(-c4c5nc(c(-c6ccc(S(=O)(=O)[O-])cc6)c6ccc([nH]6)c(-c6ccc(S(=O)(=O)[O-])cc6)c6nc(c(-c7ccc(S(=O)(=O)[O-])cc7)c7ccc4[nH]7)C=C6)C=C5)cc3)[C@@H]3C=C[C@H]2C3)cc1
REMARK SMILES IDX 19 1 20 2 21 3 18 5 17 6 91 7 88 8 90 9 92 10 89 11 15 12
REMARK SMILES IDX 14 13 16 15 13 16 11 17 12 18 10 20 9 21 8 22 5 23 6 24
REMARK SMILES IDX 94 25 7 26 93 27 2 28 1 29 3 30 4 31 22 32 23 33 24 34 25 35
REMARK SMILES IDX 26 36 27 38 28 39 29 40 87 41 30 42 86 43 31 44 32 45 33 46
REMARK SMILES IDX 80 47 34 48 85 49 79 50 81 51 35 52 84 53 78 54 77 55 36 57
REMARK SMILES IDX 66 58 47 59 65 60 48 61 51 62 64 63 82 64 49 65 50 66 63 68
REMARK SMILES IDX 83 69 52 70 37 71 38 72 46 73 39 74 45 75 40 76 41 77 42 78
REMARK SMILES IDX 43 79 44 80 67 81 68 82 76 83 69 84 75 85 70 86 71 87 72 88
REMARK SMILES IDX 73 89 74 90 53 91 54 92 62 93 55 94 61 95 56 96 57 97 58 98
REMARK SMILES IDX 59 99 60 100
REMARK H PARENT 21 4 14 14 13 19 25 37 81 56 51 67
REMARK Flexibility Score: inf
ROOT
ATOM      1  C   UNL A   1      42.536  20.104  26.028  1.00  0.00     0.224 C 
ATOM      2  O   UNL A   1      41.927  19.754  25.010  1.00  0.00    -0.275 OA
ATOM      3  N   UNL A   1      41.750  20.282  27.115  1.00  0.00    -0.356 N 
ATOM      4  H   UNL A   1      40.853  19.885  27.030  1.00  0.00     0.163 HD
ENDROOT
BRANCH   1   5
ATOM      5  C   UNL A   1      44.072  20.129  26.077  1.00  0.00     0.098 C 
ATOM      6  C   UNL A   1      44.948  21.215  25.371  1.00  0.00     0.100 C 
ATOM      7  C   UNL A   1      45.623  20.425  24.202  1.00  0.00     0.025 C 
ATOM      8  C   UNL A   1      44.566  18.832  25.345  1.00  0.00     0.025 C 
ATOM      9  C   UNL A   1      46.691  19.562  24.838  1.00  0.00    -0.027 C 
ATOM     10  C   UNL A   1      44.603  19.332  23.894  1.00  0.00     0.017 C 
ATOM     11  C   UNL A   1      46.053  18.630  25.560  1.00  0.00    -0.027 C 
BRANCH   6  12
ATOM     12  C   UNL A   1      44.342  22.491  24.826  1.00  0.00     0.242 C 
ATOM     13  N   UNL A   1      45.077  23.660  24.912  1.00  0.00    -0.267 N 
ATOM     14  H   UNL A   1      44.730  24.452  24.441  1.00  0.00     0.191 HD
ATOM     15  O   UNL A   1      43.244  22.498  24.272  1.00  0.00    -0.273 OA
BRANCH  13  16
ATOM     16  N   UNL A   1      46.274  23.804  25.619  1.00  0.00    -0.265 N 
ATOM     17  C   UNL A   1      46.381  24.257  26.911  1.00  0.00     0.276 C 
ATOM     18  O   UNL A   1      47.477  24.183  27.472  1.00  0.00    -0.269 OA
ATOM     19  H   UNL A   1      47.107  23.561  25.153  1.00  0.00     0.191 HD
BRANCH  17  20
ATOM     20  C   UNL A   1      45.155  24.823  27.642  1.00  0.00     0.331 C 
BRANCH  20  21
ATOM     21  O   UNL A   1      45.402  25.761  28.678  1.00  0.00    -0.484 OA
BRANCH  21  22
ATOM     22  C   UNL A   1      45.327  25.288  29.961  1.00  0.00     0.120 A 
ATOM     23  C   UNL A   1      44.832  24.283  32.568  1.00  0.00    -0.042 A 
ATOM     24  C   UNL A   1      44.151  23.777  31.450  1.00  0.00     0.008 A 
ATOM     25  C   UNL A   1      45.793  25.283  32.335  1.00  0.00     0.008 A 
ATOM     26  C   UNL A   1      44.396  24.272  30.164  1.00  0.00     0.047 A 
ATOM     27  C   UNL A   1      46.052  25.764  31.050  1.00  0.00     0.047 A 
BRANCH  23  28
ATOM     28  C   UNL A   1      44.532  23.820  34.003  1.00  0.00    -0.013 C 
ATOM     29  C   UNL A   1      43.348  24.610  34.606  1.00  0.00     0.016 C 
ATOM     30  C   UNL A   1      45.724  23.989  34.969  1.00  0.00     0.016 C 
ATOM     31  C   UNL A   1      44.167  22.321  33.956  1.00  0.00     0.016 C 
ENDBRANCH  23  28
ENDBRANCH  21  22
ENDBRANCH  20  21
ENDBRANCH  17  20
ENDBRANCH  13  16
ENDBRANCH   6  12
ENDBRANCH   1   5
BRANCH   3  32
ATOM     32  C   UNL A   1      41.981  20.944  28.375  1.00  0.00     0.117 C 
BRANCH  32  33
ATOM     33  C   UNL A   1      42.075  22.452  28.147  1.00  0.00     0.042 C 
BRANCH  33  34
ATOM     34  C   UNL A   1      40.976  23.029  27.267  1.00  0.00     0.118 C 
BRANCH  34  35
ATOM     35  N   UNL A   1      41.509  23.833  26.182  1.00  0.00    -0.352 N 
ATOM     36  C   UNL A   1      41.669  25.193  26.057  1.00  0.00     0.251 C 
ATOM     37  H   UNL A   1      41.806  23.315  25.400  1.00  0.00     0.163 HD
ATOM     38  O   UNL A   1      41.934  25.641  24.941  1.00  0.00    -0.269 OA
BRANCH  36  39
ATOM     39  C   UNL A   1      41.510  26.127  27.202  1.00  0.00     0.039 A 
ATOM     40  C   UNL A   1      40.414  25.952  28.055  1.00  0.00     0.014 A 
ATOM     41  C   UNL A   1      42.361  27.214  27.415  1.00  0.00     0.014 A 
ATOM     42  C   UNL A   1      40.202  26.825  29.129  1.00  0.00     0.010 A 
ATOM     43  C   UNL A   1      42.207  28.025  28.542  1.00  0.00     0.010 A 
ATOM     44  C   UNL A   1      41.114  27.856  29.403  1.00  0.00    -0.014 A 
BRANCH  44  45
ATOM     45  C   UNL A   1      40.920  28.778  30.556  1.00  0.00     0.031 A 
ATOM     46  C   UNL A   1      41.784  28.655  31.787  1.00  0.00     0.074 A 
ATOM     47  C   UNL A   1      39.937  29.701  30.524  1.00  0.00     0.049 A 
ATOM     48  N   UNL A   1      41.728  29.331  32.908  1.00  0.00    -0.248 NA
ATOM     49  C   UNL A   1      42.834  27.623  31.767  1.00  0.00     0.031 C 
ATOM     50  C   UNL A   1      39.000  29.904  29.416  1.00  0.00     0.029 A 
ATOM     51  N   UNL A   1      39.560  30.642  31.452  1.00  0.00    -0.354 N 
ATOM     52  C   UNL A   1      42.711  28.790  33.731  1.00  0.00     0.074 A 
ATOM     53  C   UNL A   1      43.319  27.702  32.998  1.00  0.00     0.031 C 
ATOM     54  C   UNL A   1      38.178  30.925  29.716  1.00  0.00     0.029 A 
ATOM     55  C   UNL A   1      38.502  31.423  31.050  1.00  0.00     0.049 A 
ATOM     56  H   UNL A   1      40.006  30.747  32.323  1.00  0.00     0.167 HD
ATOM     57  C   UNL A   1      43.090  29.173  34.975  1.00  0.00     0.031 A 
ATOM     58  C   UNL A   1      37.858  32.425  31.680  1.00  0.00     0.031 A 
ATOM     59  C   UNL A   1      42.508  30.274  35.696  1.00  0.00     0.049 A 
ATOM     60  C   UNL A   1      38.308  32.844  33.052  1.00  0.00     0.074 A 
ATOM     61  C   UNL A   1      42.867  30.774  36.936  1.00  0.00     0.029 A 
ATOM     62  N   UNL A   1      41.453  31.048  35.243  1.00  0.00    -0.354 N 
ATOM     63  N   UNL A   1      39.275  32.351  33.789  1.00  0.00    -0.248 NA
ATOM     64  C   UNL A   1      37.585  33.962  33.675  1.00  0.00     0.031 C 
ATOM     65  C   UNL A   1      42.003  31.829  37.249  1.00  0.00     0.029 A 
ATOM     66  C   UNL A   1      41.137  32.015  36.183  1.00  0.00     0.049 A 
ATOM     67  H   UNL A   1      40.996  30.931  34.379  1.00  0.00     0.167 HD
ATOM     68  C   UNL A   1      39.290  33.115  34.951  1.00  0.00     0.074 A 
ATOM     69  C   UNL A   1      38.249  34.111  34.813  1.00  0.00     0.031 C 
ATOM     70  C   UNL A   1      40.097  33.000  36.035  1.00  0.00     0.031 A 
BRANCH  57  71
ATOM     71  C   UNL A   1      44.194  28.391  35.637  1.00  0.00    -0.014 A 
ATOM     72  C   UNL A   1      43.914  27.460  36.654  1.00  0.00     0.010 A 
ATOM     73  C   UNL A   1      45.524  28.559  35.212  1.00  0.00     0.010 A 
ATOM     74  C   UNL A   1      44.947  26.744  37.263  1.00  0.00     0.020 A 
ATOM     75  C   UNL A   1      46.559  27.825  35.801  1.00  0.00     0.020 A 
ATOM     76  C   UNL A   1      46.265  26.935  36.836  1.00  0.00     0.054 A 
BRANCH  76  77
ATOM     77  S   UNL A   1      47.585  25.977  37.630  1.00  0.00     0.124 S 
ATOM     78  O   UNL A   1      48.417  25.608  36.488  1.00  0.00    -0.237 OA
ATOM     79  O   UNL A   1      48.176  26.945  38.551  1.00  0.00    -0.237 OA
ATOM     80  O   UNL A   1      46.875  24.871  38.267  1.00  0.00    -0.744 OA
ENDBRANCH  76  77
ENDBRANCH  57  71
BRANCH  58  81
ATOM     81  C   UNL A   1      36.726  33.117  31.007  1.00  0.00    -0.014 A 
ATOM     82  C   UNL A   1      36.963  34.000  29.940  1.00  0.00     0.010 A 
ATOM     83  C   UNL A   1      35.402  32.888  31.425  1.00  0.00     0.010 A 
ATOM     84  C   UNL A   1      35.899  34.654  29.311  1.00  0.00     0.020 A 
ATOM     85  C   UNL A   1      34.334  33.520  30.782  1.00  0.00     0.020 A 
ATOM     86  C   UNL A   1      34.591  34.409  29.736  1.00  0.00     0.054 A 
BRANCH  86  87
ATOM     87  S   UNL A   1      33.217  35.221  28.872  1.00  0.00     0.124 S 
ATOM     88  O   UNL A   1      32.643  34.116  28.112  1.00  0.00    -0.237 OA
ATOM     89  O   UNL A   1      32.401  35.725  29.973  1.00  0.00    -0.237 OA
ATOM     90  O   UNL A   1      33.879  36.254  28.076  1.00  0.00    -0.744 OA
ENDBRANCH  86  87
ENDBRANCH  58  81
BRANCH  70  91
ATOM     91  C   UNL A   1      39.905  33.995  37.146  1.00  0.00    -0.014 A 
ATOM     92  C   UNL A   1      40.586  35.226  37.145  1.00  0.00     0.010 A 
ATOM     93  C   UNL A   1      38.998  33.713  38.183  1.00  0.00     0.010 A 
ATOM     94  C   UNL A   1      40.387  36.142  38.181  1.00  0.00     0.020 A 
ATOM     95  C   UNL A   1      38.779  34.637  39.208  1.00  0.00     0.020 A 
ATOM     96  C   UNL A   1      39.487  35.840  39.209  1.00  0.00     0.054 A 
BRANCH  96  97
ATOM     97  S   UNL A   1      39.219  37.060  40.524  1.00  0.00     0.124 S 
ATOM     98  O   UNL A   1      38.674  36.233  41.598  1.00  0.00    -0.237 OA
ATOM     99  O   UNL A   1      40.562  37.587  40.756  1.00  0.00    -0.237 OA
ATOM    100  O   UNL A   1      38.279  38.008  39.930  1.00  0.00    -0.744 OA
ENDBRANCH  96  97
ENDBRANCH  70  91
ENDBRANCH  44  45
ENDBRANCH  36  39
ENDBRANCH  34  35
ENDBRANCH  33  34
ENDBRANCH  32  33
ENDBRANCH   3  32
TORSDOF 19
ENDMDL
