MODEL 1
REMARK VINA RESULT:      -9.9      0.000      0.000
REMARK SMILES Cc1ccc2oc(CCCC(=O)NCCCNC(=O)c3ccc(-c4c5nc(c(-c6ccc(S(=O)(=O)[O-])cc6)c6ccc([nH]6)c(-c6ccc(S(=O)(=O)[O-])cc6)c6nc(c(-c7ccc(S(=O)(=O)[O-])cc7)c7ccc4[nH]7)C=C6)C=C5)cc3)cc(=O)c2c1
REMARK SMILES IDX 15 1 14 2 13 3 11 4 12 5 10 7 9 8 8 9 7 10 1 11 2 12 3 13
REMARK SMILES IDX 84 14 4 15 83 16 5 17 81 18 6 19 80 20 82 21 16 22 17 23
REMARK SMILES IDX 18 24 19 26 20 27 21 28 79 29 22 30 78 31 23 32 24 33 25 34
REMARK SMILES IDX 72 35 26 36 77 37 71 38 73 39 27 40 76 41 70 42 69 43 28 45
REMARK SMILES IDX 58 46 39 47 57 48 40 49 43 50 56 51 74 52 41 53 42 54 55 56
REMARK SMILES IDX 75 57 44 58 29 59 30 60 38 61 31 62 37 63 32 64 33 65 34 66
REMARK SMILES IDX 35 67 36 68 59 69 60 70 68 71 61 72 67 73 62 74 63 75 64 76
REMARK SMILES IDX 65 77 66 78 45 79 46 80 54 81 47 82 53 83 48 84 49 85 50 86
REMARK SMILES IDX 51 87 52 88
REMARK H PARENT 13 6 17 25 73 44 43 55
REMARK Flexibility Score: inf
ROOT
ATOM      1  C   UNL A   1      34.425  32.788  29.929  1.00  0.00     0.042 C 
ENDROOT
BRANCH   1   2
ATOM      2  C   UNL A   1      34.643  34.236  30.350  1.00  0.00     0.117 C 
BRANCH   2   3
ATOM      3  N   UNL A   1      33.423  34.813  30.874  1.00  0.00    -0.356 N 
ATOM      4  C   UNL A   1      33.219  35.552  31.998  1.00  0.00     0.220 C 
ATOM      5  O   UNL A   1      32.062  35.860  32.289  1.00  0.00    -0.275 OA
ATOM      6  H   UNL A   1      32.616  34.646  30.333  1.00  0.00     0.163 HD
BRANCH   4   7
ATOM      7  C   UNL A   1      34.388  36.048  32.826  1.00  0.00     0.100 C 
BRANCH   7   8
ATOM      8  C   UNL A   1      34.756  35.228  34.069  1.00  0.00     0.018 C 
BRANCH   8   9
ATOM      9  C   UNL A   1      35.035  33.716  33.949  1.00  0.00     0.076 C 
BRANCH   9  10
ATOM     10  C   UNL A   1      36.465  33.220  33.922  1.00  0.00     0.108 A 
ATOM     11  C   UNL A   1      41.595  29.256  33.557  1.00  0.00     0.044 C 
ATOM     12  C   UNL A   1      40.271  29.963  33.587  1.00  0.00    -0.050 A 
ATOM     13  C   UNL A   1      39.108  29.316  33.147  1.00  0.00     0.007 A 
ATOM     14  C   UNL A   1      40.195  31.294  34.024  1.00  0.00     0.019 A 
ATOM     15  C   UNL A   1      37.897  30.004  33.095  1.00  0.00     0.048 A 
ATOM     16  C   UNL A   1      38.974  31.973  33.983  1.00  0.00     0.065 A 
ATOM     17  C   UNL A   1      37.842  31.339  33.491  1.00  0.00     0.138 A 
ATOM     18  C   UNL A   1      38.840  33.359  34.458  1.00  0.00     0.192 A 
ATOM     19  O   UNL A   1      36.639  31.974  33.354  1.00  0.00    -0.461 OA
ATOM     20  C   UNL A   1      37.476  33.930  34.447  1.00  0.00     0.095 A 
ATOM     21  O   UNL A   1      39.797  34.001  34.872  1.00  0.00    -0.289 OA
ENDBRANCH   9  10
ENDBRANCH   8   9
ENDBRANCH   7   8
ENDBRANCH   4   7
ENDBRANCH   2   3
ENDBRANCH   1   2
BRANCH   1  22
ATOM     22  C   UNL A   1      34.421  32.597  28.423  1.00  0.00     0.118 C 
BRANCH  22  23
ATOM     23  N   UNL A   1      33.780  31.352  28.029  1.00  0.00    -0.352 N 
ATOM     24  C   UNL A   1      34.334  30.115  27.800  1.00  0.00     0.251 C 
ATOM     25  H   UNL A   1      32.805  31.403  27.909  1.00  0.00     0.163 HD
ATOM     26  O   UNL A   1      33.645  29.234  27.292  1.00  0.00    -0.269 OA
BRANCH  24  27
ATOM     27  C   UNL A   1      35.751  29.849  28.139  1.00  0.00     0.039 A 
ATOM     28  C   UNL A   1      36.065  29.385  29.419  1.00  0.00     0.014 A 
ATOM     29  C   UNL A   1      36.771  30.066  27.210  1.00  0.00     0.014 A 
ATOM     30  C   UNL A   1      37.390  29.088  29.745  1.00  0.00     0.010 A 
ATOM     31  C   UNL A   1      38.073  29.672  27.500  1.00  0.00     0.010 A 
ATOM     32  C   UNL A   1      38.403  29.195  28.777  1.00  0.00    -0.014 A 
BRANCH  32  33
ATOM     33  C   UNL A   1      39.814  28.845  29.083  1.00  0.00     0.031 A 
ATOM     34  C   UNL A   1      40.723  29.867  29.716  1.00  0.00     0.074 A 
ATOM     35  C   UNL A   1      40.295  27.633  28.739  1.00  0.00     0.049 A 
ATOM     36  N   UNL A   1      41.996  29.777  29.999  1.00  0.00    -0.248 NA
ATOM     37  C   UNL A   1      40.130  31.174  30.048  1.00  0.00     0.031 C 
ATOM     38  C   UNL A   1      39.527  26.570  28.085  1.00  0.00     0.029 A 
ATOM     39  N   UNL A   1      41.547  27.092  28.886  1.00  0.00    -0.354 N 
ATOM     40  C   UNL A   1      42.359  31.015  30.517  1.00  0.00     0.074 A 
ATOM     41  C   UNL A   1      41.186  31.858  30.457  1.00  0.00     0.031 C 
ATOM     42  C   UNL A   1      40.315  25.495  27.919  1.00  0.00     0.029 A 
ATOM     43  C   UNL A   1      41.654  25.807  28.409  1.00  0.00     0.049 A 
ATOM     44  H   UNL A   1      42.299  27.578  29.294  1.00  0.00     0.167 HD
ATOM     45  C   UNL A   1      43.554  31.410  31.018  1.00  0.00     0.031 A 
ATOM     46  C   UNL A   1      42.712  24.973  28.362  1.00  0.00     0.031 A 
ATOM     47  C   UNL A   1      44.712  30.560  31.093  1.00  0.00     0.049 A 
ATOM     48  C   UNL A   1      44.033  25.438  28.916  1.00  0.00     0.074 A 
ATOM     49  C   UNL A   1      45.952  30.843  31.638  1.00  0.00     0.029 A 
ATOM     50  N   UNL A   1      44.774  29.263  30.605  1.00  0.00    -0.354 N 
ATOM     51  N   UNL A   1      44.336  26.590  29.463  1.00  0.00    -0.248 NA
ATOM     52  C   UNL A   1      45.148  24.485  28.857  1.00  0.00     0.031 C 
ATOM     53  C   UNL A   1      46.783  29.739  31.427  1.00  0.00     0.029 A 
ATOM     54  C   UNL A   1      46.040  28.743  30.813  1.00  0.00     0.049 A 
ATOM     55  H   UNL A   1      44.029  28.784  30.176  1.00  0.00     0.167 HD
ATOM     56  C   UNL A   1      45.670  26.489  29.842  1.00  0.00     0.074 A 
ATOM     57  C   UNL A   1      46.109  25.159  29.473  1.00  0.00     0.031 C 
ATOM     58  C   UNL A   1      46.460  27.414  30.441  1.00  0.00     0.031 A 
BRANCH  45  59
ATOM     59  C   UNL A   1      43.669  32.827  31.521  1.00  0.00    -0.014 A 
ATOM     60  C   UNL A   1      44.114  33.865  30.682  1.00  0.00     0.010 A 
ATOM     61  C   UNL A   1      43.289  33.131  32.841  1.00  0.00     0.010 A 
ATOM     62  C   UNL A   1      44.218  35.172  31.167  1.00  0.00     0.020 A 
ATOM     63  C   UNL A   1      43.360  34.443  33.319  1.00  0.00     0.020 A 
ATOM     64  C   UNL A   1      43.841  35.453  32.483  1.00  0.00     0.054 A 
BRANCH  64  65
ATOM     65  S   UNL A   1      43.962  37.163  33.075  1.00  0.00     0.124 S 
ATOM     66  O   UNL A   1      43.908  37.918  31.826  1.00  0.00    -0.237 OA
ATOM     67  O   UNL A   1      42.786  37.287  33.933  1.00  0.00    -0.237 OA
ATOM     68  O   UNL A   1      45.246  37.200  33.771  1.00  0.00    -0.744 OA
ENDBRANCH  64  65
ENDBRANCH  45  59
BRANCH  46  69
ATOM     69  C   UNL A   1      42.562  23.609  27.783  1.00  0.00    -0.014 A 
ATOM     70  C   UNL A   1      42.814  23.380  26.418  1.00  0.00     0.010 A 
ATOM     71  C   UNL A   1      42.174  22.528  28.594  1.00  0.00     0.010 A 
ATOM     72  C   UNL A   1      42.661  22.102  25.872  1.00  0.00     0.020 A 
ATOM     73  C   UNL A   1      42.050  21.242  28.060  1.00  0.00     0.020 A 
ATOM     74  C   UNL A   1      42.283  21.039  26.699  1.00  0.00     0.054 A 
BRANCH  74  75
ATOM     75  S   UNL A   1      42.136  19.380  25.979  1.00  0.00     0.124 S 
ATOM     76  O   UNL A   1      40.709  19.306  25.678  1.00  0.00    -0.237 OA
ATOM     77  O   UNL A   1      43.023  19.460  24.822  1.00  0.00    -0.237 OA
ATOM     78  O   UNL A   1      42.597  18.500  27.050  1.00  0.00    -0.744 OA
ENDBRANCH  74  75
ENDBRANCH  46  69
BRANCH  58  79
ATOM     79  C   UNL A   1      47.872  27.010  30.779  1.00  0.00    -0.014 A 
ATOM     80  C   UNL A   1      48.935  27.254  29.892  1.00  0.00     0.010 A 
ATOM     81  C   UNL A   1      48.143  26.433  32.034  1.00  0.00     0.010 A 
ATOM     82  C   UNL A   1      50.241  26.900  30.243  1.00  0.00     0.020 A 
ATOM     83  C   UNL A   1      49.450  26.108  32.400  1.00  0.00     0.020 A 
ATOM     84  C   UNL A   1      50.491  26.332  31.496  1.00  0.00     0.054 A 
BRANCH  84  85
ATOM     85  S   UNL A   1      52.200  25.928  31.946  1.00  0.00     0.124 S 
ATOM     86  O   UNL A   1      52.919  26.230  30.712  1.00  0.00    -0.237 OA
ATOM     87  O   UNL A   1      52.459  26.835  33.062  1.00  0.00    -0.237 OA
ATOM     88  O   UNL A   1      52.141  24.512  32.303  1.00  0.00    -0.744 OA
ENDBRANCH  84  85
ENDBRANCH  58  79
ENDBRANCH  32  33
ENDBRANCH  24  27
ENDBRANCH  22  23
ENDBRANCH   1  22
TORSDOF 16
ENDMDL
MODEL 2
REMARK VINA RESULT:      -9.7      3.001     11.600
REMARK SMILES Cc1ccc2oc(CCCC(=O)NCCCNC(=O)c3ccc(-c4c5nc(c(-c6ccc(S(=O)(=O)[O-])cc6)c6ccc([nH]6)c(-c6ccc(S(=O)(=O)[O-])cc6)c6nc(c(-c7ccc(S(=O)(=O)[O-])cc7)c7ccc4[nH]7)C=C6)C=C5)cc3)cc(=O)c2c1
REMARK SMILES IDX 15 1 14 2 13 3 11 4 12 5 10 7 9 8 8 9 7 10 1 11 2 12 3 13
REMARK SMILES IDX 84 14 4 15 83 16 5 17 81 18 6 19 80 20 82 21 16 22 17 23
REMARK SMILES IDX 18 24 19 26 20 27 21 28 79 29 22 30 78 31 23 32 24 33 25 34
REMARK SMILES IDX 72 35 26 36 77 37 71 38 73 39 27 40 76 41 70 42 69 43 28 45
REMARK SMILES IDX 58 46 39 47 57 48 40 49 43 50 56 51 74 52 41 53 42 54 55 56
REMARK SMILES IDX 75 57 44 58 29 59 30 60 38 61 31 62 37 63 32 64 33 65 34 66
REMARK SMILES IDX 35 67 36 68 59 69 60 70 68 71 61 72 67 73 62 74 63 75 64 76
REMARK SMILES IDX 65 77 66 78 45 79 46 80 54 81 47 82 53 83 48 84 49 85 50 86
REMARK SMILES IDX 51 87 52 88
REMARK H PARENT 13 6 17 25 73 44 43 55
REMARK Flexibility Score: inf
ROOT
ATOM      1  C   UNL A   1      41.316  20.215  26.593  1.00  0.00     0.042 C 
ENDROOT
BRANCH   1   2
ATOM      2  C   UNL A   1      42.617  20.518  25.860  1.00  0.00     0.117 C 
BRANCH   2   3
ATOM      3  N   UNL A   1      43.522  19.390  25.923  1.00  0.00    -0.356 N 
ATOM      4  C   UNL A   1      44.673  19.155  25.237  1.00  0.00     0.220 C 
ATOM      5  O   UNL A   1      45.233  18.068  25.394  1.00  0.00    -0.275 OA
ATOM      6  H   UNL A   1      43.267  18.684  26.562  1.00  0.00     0.163 HD
BRANCH   4   7
ATOM      7  C   UNL A   1      45.291  20.228  24.363  1.00  0.00     0.100 C 
BRANCH   7   8
ATOM      8  C   UNL A   1      45.988  21.392  25.081  1.00  0.00     0.018 C 
BRANCH   8   9
ATOM      9  C   UNL A   1      46.236  22.723  24.345  1.00  0.00     0.076 C 
BRANCH   9  10
ATOM     10  C   UNL A   1      46.158  24.026  25.110  1.00  0.00     0.108 A 
ATOM     11  C   UNL A   1      44.159  29.864  27.130  1.00  0.00     0.044 C 
ATOM     12  C   UNL A   1      44.409  28.517  26.519  1.00  0.00    -0.050 A 
ATOM     13  C   UNL A   1      43.419  27.888  25.753  1.00  0.00     0.007 A 
ATOM     14  C   UNL A   1      45.629  27.859  26.741  1.00  0.00     0.019 A 
ATOM     15  C   UNL A   1      43.622  26.599  25.260  1.00  0.00     0.048 A 
ATOM     16  C   UNL A   1      45.831  26.573  26.232  1.00  0.00     0.065 A 
ATOM     17  C   UNL A   1      44.820  25.939  25.524  1.00  0.00     0.138 A 
ATOM     18  C   UNL A   1      47.103  25.857  26.415  1.00  0.00     0.192 A 
ATOM     19  O   UNL A   1      44.930  24.655  25.069  1.00  0.00    -0.461 OA
ATOM     20  C   UNL A   1      47.221  24.543  25.748  1.00  0.00     0.095 A 
ATOM     21  O   UNL A   1      48.031  26.332  27.058  1.00  0.00    -0.289 OA
ENDBRANCH   9  10
ENDBRANCH   8   9
ENDBRANCH   7   8
ENDBRANCH   4   7
ENDBRANCH   2   3
ENDBRANCH   1   2
BRANCH   1  22
ATOM     22  C   UNL A   1      40.565  21.463  27.020  1.00  0.00     0.118 C 
BRANCH  22  23
ATOM     23  N   UNL A   1      39.407  21.723  26.178  1.00  0.00    -0.352 N 
ATOM     24  C   UNL A   1      38.643  22.859  26.066  1.00  0.00     0.251 C 
ATOM     25  H   UNL A   1      39.131  20.974  25.603  1.00  0.00     0.163 HD
ATOM     26  O   UNL A   1      37.591  22.814  25.433  1.00  0.00    -0.269 OA
BRANCH  24  27
ATOM     27  C   UNL A   1      39.066  24.120  26.718  1.00  0.00     0.039 A 
ATOM     28  C   UNL A   1      38.670  24.367  28.035  1.00  0.00     0.014 A 
ATOM     29  C   UNL A   1      39.838  25.065  26.037  1.00  0.00     0.014 A 
ATOM     30  C   UNL A   1      39.095  25.530  28.682  1.00  0.00     0.010 A 
ATOM     31  C   UNL A   1      40.345  26.168  26.714  1.00  0.00     0.010 A 
ATOM     32  C   UNL A   1      39.965  26.425  28.038  1.00  0.00    -0.014 A 
BRANCH  32  33
ATOM     33  C   UNL A   1      40.466  27.649  28.718  1.00  0.00     0.031 A 
ATOM     34  C   UNL A   1      41.862  27.675  29.285  1.00  0.00     0.074 A 
ATOM     35  C   UNL A   1      39.650  28.710  28.878  1.00  0.00     0.049 A 
ATOM     36  N   UNL A   1      42.457  28.619  29.968  1.00  0.00    -0.248 NA
ATOM     37  C   UNL A   1      42.688  26.472  29.085  1.00  0.00     0.031 C 
ATOM     38  C   UNL A   1      38.264  28.793  28.409  1.00  0.00     0.029 A 
ATOM     39  N   UNL A   1      39.864  29.921  29.485  1.00  0.00    -0.354 N 
ATOM     40  C   UNL A   1      43.711  28.116  30.296  1.00  0.00     0.074 A 
ATOM     41  C   UNL A   1      43.771  26.764  29.788  1.00  0.00     0.031 C 
ATOM     42  C   UNL A   1      37.766  30.002  28.716  1.00  0.00     0.029 A 
ATOM     43  C   UNL A   1      38.777  30.762  29.444  1.00  0.00     0.049 A 
ATOM     44  H   UNL A   1      40.718  30.166  29.910  1.00  0.00     0.167 HD
ATOM     45  C   UNL A   1      44.730  28.730  30.943  1.00  0.00     0.031 A 
ATOM     46  C   UNL A   1      38.607  32.003  29.943  1.00  0.00     0.031 A 
ATOM     47  C   UNL A   1      44.672  30.083  31.430  1.00  0.00     0.049 A 
ATOM     48  C   UNL A   1      39.751  32.661  30.667  1.00  0.00     0.074 A 
ATOM     49  C   UNL A   1      45.669  30.819  32.044  1.00  0.00     0.029 A 
ATOM     50  N   UNL A   1      43.554  30.901  31.360  1.00  0.00    -0.354 N 
ATOM     51  N   UNL A   1      40.952  32.192  30.907  1.00  0.00    -0.248 NA
ATOM     52  C   UNL A   1      39.520  34.019  31.175  1.00  0.00     0.031 C 
ATOM     53  C   UNL A   1      45.137  32.062  32.400  1.00  0.00     0.029 A 
ATOM     54  C   UNL A   1      43.829  32.125  31.945  1.00  0.00     0.049 A 
ATOM     55  H   UNL A   1      42.693  30.648  30.955  1.00  0.00     0.167 HD
ATOM     56  C   UNL A   1      41.630  33.211  31.568  1.00  0.00     0.074 A 
ATOM     57  C   UNL A   1      40.709  34.324  31.676  1.00  0.00     0.031 C 
ATOM     58  C   UNL A   1      42.901  33.224  32.042  1.00  0.00     0.031 A 
BRANCH  45  59
ATOM     59  C   UNL A   1      45.996  27.941  31.166  1.00  0.00    -0.014 A 
ATOM     60  C   UNL A   1      47.054  27.982  30.239  1.00  0.00     0.010 A 
ATOM     61  C   UNL A   1      46.145  27.179  32.339  1.00  0.00     0.010 A 
ATOM     62  C   UNL A   1      48.219  27.241  30.461  1.00  0.00     0.020 A 
ATOM     63  C   UNL A   1      47.321  26.463  32.580  1.00  0.00     0.020 A 
ATOM     64  C   UNL A   1      48.345  26.486  31.630  1.00  0.00     0.054 A 
BRANCH  64  65
ATOM     65  S   UNL A   1      49.878  25.556  31.903  1.00  0.00     0.124 S 
ATOM     66  O   UNL A   1      49.494  24.654  32.986  1.00  0.00    -0.237 OA
ATOM     67  O   UNL A   1      50.100  24.920  30.607  1.00  0.00    -0.237 OA
ATOM     68  O   UNL A   1      50.849  26.586  32.264  1.00  0.00    -0.744 OA
ENDBRANCH  64  65
ENDBRANCH  45  59
BRANCH  46  69
ATOM     69  C   UNL A   1      37.308  32.708  29.761  1.00  0.00    -0.014 A 
ATOM     70  C   UNL A   1      36.319  32.653  30.759  1.00  0.00     0.010 A 
ATOM     71  C   UNL A   1      37.056  33.448  28.592  1.00  0.00     0.010 A 
ATOM     72  C   UNL A   1      35.095  33.306  30.583  1.00  0.00     0.020 A 
ATOM     73  C   UNL A   1      35.846  34.127  28.424  1.00  0.00     0.020 A 
ATOM     74  C   UNL A   1      34.868  34.042  29.416  1.00  0.00     0.054 A 
BRANCH  74  75
ATOM     75  S   UNL A   1      33.290  34.919  29.228  1.00  0.00     0.124 S 
ATOM     76  O   UNL A   1      32.775  34.911  30.594  1.00  0.00    -0.237 OA
ATOM     77  O   UNL A   1      33.713  36.221  28.719  1.00  0.00    -0.237 OA
ATOM     78  O   UNL A   1      32.552  34.094  28.275  1.00  0.00    -0.744 OA
ENDBRANCH  74  75
ENDBRANCH  46  69
BRANCH  58  79
ATOM     79  C   UNL A   1      43.391  34.496  32.684  1.00  0.00    -0.014 A 
ATOM     80  C   UNL A   1      43.992  35.514  31.925  1.00  0.00     0.010 A 
ATOM     81  C   UNL A   1      43.186  34.696  34.063  1.00  0.00     0.010 A 
ATOM     82  C   UNL A   1      44.408  36.699  32.539  1.00  0.00     0.020 A 
ATOM     83  C   UNL A   1      43.571  35.891  34.673  1.00  0.00     0.020 A 
ATOM     84  C   UNL A   1      44.192  36.881  33.909  1.00  0.00     0.054 A 
BRANCH  84  85
ATOM     85  S   UNL A   1      44.696  38.447  34.671  1.00  0.00     0.124 S 
ATOM     86  O   UNL A   1      44.571  38.147  36.094  1.00  0.00    -0.237 OA
ATOM     87  O   UNL A   1      46.063  38.616  34.182  1.00  0.00    -0.237 OA
ATOM     88  O   UNL A   1      43.731  39.414  34.151  1.00  0.00    -0.744 OA
ENDBRANCH  84  85
ENDBRANCH  58  79
ENDBRANCH  32  33
ENDBRANCH  24  27
ENDBRANCH  22  23
ENDBRANCH   1  22
TORSDOF 16
ENDMDL
MODEL 3
REMARK VINA RESULT:      -9.6      3.032     10.885
REMARK SMILES Cc1ccc2oc(CCCC(=O)NCCCNC(=O)c3ccc(-c4c5nc(c(-c6ccc(S(=O)(=O)[O-])cc6)c6ccc([nH]6)c(-c6ccc(S(=O)(=O)[O-])cc6)c6nc(c(-c7ccc(S(=O)(=O)[O-])cc7)c7ccc4[nH]7)C=C6)C=C5)cc3)cc(=O)c2c1
REMARK SMILES IDX 15 1 14 2 13 3 11 4 12 5 10 7 9 8 8 9 7 10 1 11 2 12 3 13
REMARK SMILES IDX 84 14 4 15 83 16 5 17 81 18 6 19 80 20 82 21 16 22 17 23
REMARK SMILES IDX 18 24 19 26 20 27 21 28 79 29 22 30 78 31 23 32 24 33 25 34
REMARK SMILES IDX 72 35 26 36 77 37 71 38 73 39 27 40 76 41 70 42 69 43 28 45
REMARK SMILES IDX 58 46 39 47 57 48 40 49 43 50 56 51 74 52 41 53 42 54 55 56
REMARK SMILES IDX 75 57 44 58 29 59 30 60 38 61 31 62 37 63 32 64 33 65 34 66
REMARK SMILES IDX 35 67 36 68 59 69 60 70 68 71 61 72 67 73 62 74 63 75 64 76
REMARK SMILES IDX 65 77 66 78 45 79 46 80 54 81 47 82 53 83 48 84 49 85 50 86
REMARK SMILES IDX 51 87 52 88
REMARK H PARENT 13 6 17 25 73 44 43 55
REMARK Flexibility Score: inf
ROOT
ATOM      1  C   UNL A   1      41.948  21.408  26.320  1.00  0.00     0.042 C 
ENDROOT
BRANCH   1   2
ATOM      2  C   UNL A   1      42.979  22.325  26.965  1.00  0.00     0.117 C 
BRANCH   2   3
ATOM      3  N   UNL A   1      44.310  22.035  26.473  1.00  0.00    -0.356 N 
ATOM      4  C   UNL A   1      45.404  22.840  26.389  1.00  0.00     0.220 C 
ATOM      5  O   UNL A   1      46.414  22.392  25.843  1.00  0.00    -0.275 OA
ATOM      6  H   UNL A   1      44.445  21.114  26.151  1.00  0.00     0.163 HD
BRANCH   4   7
ATOM      7  C   UNL A   1      45.406  24.220  27.017  1.00  0.00     0.100 C 
BRANCH   7   8
ATOM      8  C   UNL A   1      45.968  25.368  26.168  1.00  0.00     0.018 C 
BRANCH   8   9
ATOM      9  C   UNL A   1      46.557  26.620  26.847  1.00  0.00     0.076 C 
BRANCH   9  10
ATOM     10  C   UNL A   1      45.738  27.892  26.910  1.00  0.00     0.108 A 
ATOM     11  C   UNL A   1      43.693  33.814  28.613  1.00  0.00     0.044 C 
ATOM     12  C   UNL A   1      44.366  32.494  28.372  1.00  0.00    -0.050 A 
ATOM     13  C   UNL A   1      45.673  32.268  28.825  1.00  0.00     0.007 A 
ATOM     14  C   UNL A   1      43.701  31.486  27.657  1.00  0.00     0.019 A 
ATOM     15  C   UNL A   1      46.326  31.074  28.524  1.00  0.00     0.048 A 
ATOM     16  C   UNL A   1      44.357  30.286  27.372  1.00  0.00     0.065 A 
ATOM     17  C   UNL A   1      45.671  30.097  27.776  1.00  0.00     0.138 A 
ATOM     18  C   UNL A   1      43.690  29.190  26.650  1.00  0.00     0.192 A 
ATOM     19  O   UNL A   1      46.388  28.978  27.460  1.00  0.00    -0.461 OA
ATOM     20  C   UNL A   1      44.462  27.939  26.494  1.00  0.00     0.095 A 
ATOM     21  O   UNL A   1      42.545  29.290  26.228  1.00  0.00    -0.289 OA
ENDBRANCH   9  10
ENDBRANCH   8   9
ENDBRANCH   7   8
ENDBRANCH   4   7
ENDBRANCH   2   3
ENDBRANCH   1   2
BRANCH   1  22
ATOM     22  C   UNL A   1      40.619  21.394  27.053  1.00  0.00     0.118 C 
BRANCH  22  23
ATOM     23  N   UNL A   1      39.499  21.668  26.166  1.00  0.00    -0.352 N 
ATOM     24  C   UNL A   1      38.753  22.813  26.023  1.00  0.00     0.251 C 
ATOM     25  H   UNL A   1      39.237  20.922  25.580  1.00  0.00     0.163 HD
ATOM     26  O   UNL A   1      37.727  22.781  25.349  1.00  0.00    -0.269 OA
BRANCH  24  27
ATOM     27  C   UNL A   1      39.165  24.069  26.692  1.00  0.00     0.039 A 
ATOM     28  C   UNL A   1      38.725  24.318  27.995  1.00  0.00     0.014 A 
ATOM     29  C   UNL A   1      39.970  25.007  26.041  1.00  0.00     0.014 A 
ATOM     30  C   UNL A   1      39.137  25.476  28.657  1.00  0.00     0.010 A 
ATOM     31  C   UNL A   1      40.463  26.104  26.737  1.00  0.00     0.010 A 
ATOM     32  C   UNL A   1      40.039  26.364  28.047  1.00  0.00    -0.014 A 
BRANCH  32  33
ATOM     33  C   UNL A   1      40.527  27.581  28.746  1.00  0.00     0.031 A 
ATOM     34  C   UNL A   1      41.909  27.601  29.346  1.00  0.00     0.074 A 
ATOM     35  C   UNL A   1      39.710  28.644  28.894  1.00  0.00     0.049 A 
ATOM     36  N   UNL A   1      42.492  28.538  30.048  1.00  0.00    -0.248 NA
ATOM     37  C   UNL A   1      42.737  26.396  29.157  1.00  0.00     0.031 C 
ATOM     38  C   UNL A   1      38.336  28.733  28.394  1.00  0.00     0.029 A 
ATOM     39  N   UNL A   1      39.914  29.851  29.513  1.00  0.00    -0.354 N 
ATOM     40  C   UNL A   1      43.735  28.030  30.402  1.00  0.00     0.074 A 
ATOM     41  C   UNL A   1      43.804  26.681  29.887  1.00  0.00     0.031 C 
ATOM     42  C   UNL A   1      37.834  29.942  28.696  1.00  0.00     0.029 A 
ATOM     43  C   UNL A   1      38.830  30.695  29.453  1.00  0.00     0.049 A 
ATOM     44  H   UNL A   1      40.758  30.090  29.960  1.00  0.00     0.167 HD
ATOM     45  C   UNL A   1      44.741  28.637  31.077  1.00  0.00     0.031 A 
ATOM     46  C   UNL A   1      38.652  31.933  29.955  1.00  0.00     0.031 A 
ATOM     47  C   UNL A   1      44.675  29.986  31.571  1.00  0.00     0.049 A 
ATOM     48  C   UNL A   1      39.781  32.583  30.710  1.00  0.00     0.074 A 
ATOM     49  C   UNL A   1      45.660  30.716  32.213  1.00  0.00     0.029 A 
ATOM     50  N   UNL A   1      43.561  30.808  31.480  1.00  0.00    -0.354 N 
ATOM     51  N   UNL A   1      40.974  32.109  30.975  1.00  0.00    -0.248 NA
ATOM     52  C   UNL A   1      39.541  33.939  31.221  1.00  0.00     0.031 C 
ATOM     53  C   UNL A   1      45.123  31.958  32.564  1.00  0.00     0.029 A 
ATOM     54  C   UNL A   1      43.826  32.027  32.079  1.00  0.00     0.049 A 
ATOM     55  H   UNL A   1      42.709  30.560  31.054  1.00  0.00     0.167 HD
ATOM     56  C   UNL A   1      41.639  33.122  31.659  1.00  0.00     0.074 A 
ATOM     57  C   UNL A   1      40.719  34.237  31.752  1.00  0.00     0.031 C 
ATOM     58  C   UNL A   1      42.898  33.129  32.162  1.00  0.00     0.031 A 
BRANCH  45  59
ATOM     59  C   UNL A   1      45.999  27.843  31.324  1.00  0.00    -0.014 A 
ATOM     60  C   UNL A   1      47.130  27.992  30.500  1.00  0.00     0.010 A 
ATOM     61  C   UNL A   1      46.064  26.964  32.421  1.00  0.00     0.010 A 
ATOM     62  C   UNL A   1      48.287  27.245  30.743  1.00  0.00     0.020 A 
ATOM     63  C   UNL A   1      47.231  26.240  32.686  1.00  0.00     0.020 A 
ATOM     64  C   UNL A   1      48.329  26.373  31.834  1.00  0.00     0.054 A 
BRANCH  64  65
ATOM     65  S   UNL A   1      49.852  25.437  32.139  1.00  0.00     0.124 S 
ATOM     66  O   UNL A   1      50.783  26.495  32.527  1.00  0.00    -0.237 OA
ATOM     67  O   UNL A   1      49.458  24.525  33.210  1.00  0.00    -0.237 OA
ATOM     68  O   UNL A   1      50.133  24.801  30.854  1.00  0.00    -0.744 OA
ENDBRANCH  64  65
ENDBRANCH  45  59
BRANCH  46  69
ATOM     69  C   UNL A   1      37.360  32.643  29.748  1.00  0.00    -0.014 A 
ATOM     70  C   UNL A   1      36.311  32.507  30.675  1.00  0.00     0.010 A 
ATOM     71  C   UNL A   1      37.171  33.468  28.624  1.00  0.00     0.010 A 
ATOM     72  C   UNL A   1      35.094  33.164  30.474  1.00  0.00     0.020 A 
ATOM     73  C   UNL A   1      35.967  34.152  28.435  1.00  0.00     0.020 A 
ATOM     74  C   UNL A   1      34.932  33.987  29.355  1.00  0.00     0.054 A 
BRANCH  74  75
ATOM     75  S   UNL A   1      33.359  34.867  29.138  1.00  0.00     0.124 S 
ATOM     76  O   UNL A   1      33.803  36.157  28.618  1.00  0.00    -0.237 OA
ATOM     77  O   UNL A   1      32.650  34.013  28.189  1.00  0.00    -0.237 OA
ATOM     78  O   UNL A   1      32.794  34.894  30.485  1.00  0.00    -0.744 OA
ENDBRANCH  74  75
ENDBRANCH  46  69
BRANCH  58  79
ATOM     79  C   UNL A   1      43.377  34.395  32.824  1.00  0.00    -0.014 A 
ATOM     80  C   UNL A   1      43.957  35.436  32.078  1.00  0.00     0.010 A 
ATOM     81  C   UNL A   1      43.182  34.566  34.207  1.00  0.00     0.010 A 
ATOM     82  C   UNL A   1      44.363  36.614  32.711  1.00  0.00     0.020 A 
ATOM     83  C   UNL A   1      43.556  35.755  34.836  1.00  0.00     0.020 A 
ATOM     84  C   UNL A   1      44.157  36.768  34.085  1.00  0.00     0.054 A 
BRANCH  84  85
ATOM     85  S   UNL A   1      44.645  38.326  34.873  1.00  0.00     0.124 S 
ATOM     86  O   UNL A   1      46.044  38.444  34.472  1.00  0.00    -0.237 OA
ATOM     87  O   UNL A   1      43.733  39.292  34.262  1.00  0.00    -0.237 OA
ATOM     88  O   UNL A   1      44.423  38.082  36.296  1.00  0.00    -0.744 OA
ENDBRANCH  84  85
ENDBRANCH  58  79
ENDBRANCH  32  33
ENDBRANCH  24  27
ENDBRANCH  22  23
ENDBRANCH   1  22
TORSDOF 16
ENDMDL
