MODEL 1
REMARK VINA RESULT:     -13.4      0.000      0.000
REMARK SMILES O=C(NCCCNC(=O)[C@H]1[C@H]2CC[C@H](C2)[C@@H]1C(=O)Nc1sc2c(c1C(=O)NC1CCCCC1)CCCC2)c1ccc(-c2c3nc(c(-c4ccc(S(=O)(=O)[O-])cc4)c4ccc([nH]4)c(-c4ccc(S(=O)(=O)[O-])cc4)c4nc(c(-c5ccc(S(=O)(=O)[O-])cc5)c5ccc2[nH]5)C=C4)C=C3)cc1
REMARK SMILES IDX 5 1 4 2 3 3 1 4 2 5 38 7 39 8 97 9 40 10 96 11 41 12 42 13
REMARK SMILES IDX 43 14 90 15 44 16 95 17 89 18 91 19 45 20 94 21 88 22 87 23
REMARK SMILES IDX 46 25 76 26 57 27 75 28 58 29 61 30 74 31 92 32 59 33 60 34
REMARK SMILES IDX 73 36 93 37 62 38 47 39 48 40 56 41 49 42 55 43 50 44 51 45
REMARK SMILES IDX 52 46 53 47 54 48 77 49 78 50 86 51 79 52 85 53 80 54 81 55
REMARK SMILES IDX 82 56 83 57 84 58 63 59 64 60 72 61 65 62 71 63 66 64 67 65
REMARK SMILES IDX 68 66 69 67 70 68 6 69 7 70 8 71 9 73 10 74 11 75 16 76
REMARK SMILES IDX 12 77 15 78 14 79 13 80 17 81 18 82 19 83 20 85 21 86 24 87
REMARK SMILES IDX 22 88 23 89 37 90 34 91 36 92 35 93 25 94 26 95 27 96 28 98
REMARK SMILES IDX 29 99 33 100 30 101 32 102 31 103
REMARK H PARENT 3 6 91 24 61 35 7 72 19 84 27 97
REMARK Flexibility Score: inf
ROOT
ATOM      1  C   UNL A   1      37.954  22.930  26.168  1.00  0.00     0.042 C 
ENDROOT
BRANCH   1   2
ATOM      2  C   UNL A   1      38.583  24.279  26.470  1.00  0.00     0.118 C 
BRANCH   2   3
ATOM      3  N   UNL A   1      39.871  24.462  25.813  1.00  0.00    -0.352 N 
ATOM      4  O   UNL A   1      41.766  25.503  25.195  1.00  0.00    -0.269 OA
ATOM      5  C   UNL A   1      40.850  25.409  26.005  1.00  0.00     0.251 C 
ATOM      6  H   UNL A   1      40.075  23.797  25.117  1.00  0.00     0.163 HD
BRANCH   5   7
ATOM      7  C   UNL A   1      40.788  26.331  27.161  1.00  0.00     0.039 A 
ATOM      8  C   UNL A   1      40.173  25.948  28.354  1.00  0.00     0.014 A 
ATOM      9  C   UNL A   1      41.382  27.594  27.064  1.00  0.00     0.014 A 
ATOM     10  C   UNL A   1      39.981  26.875  29.369  1.00  0.00     0.010 A 
ATOM     11  C   UNL A   1      41.297  28.486  28.137  1.00  0.00     0.010 A 
ATOM     12  C   UNL A   1      40.565  28.145  29.285  1.00  0.00    -0.014 A 
BRANCH  12  13
ATOM     13  C   UNL A   1      40.466  29.077  30.435  1.00  0.00     0.031 A 
ATOM     14  C   UNL A   1      41.371  28.932  31.624  1.00  0.00     0.074 A 
ATOM     15  C   UNL A   1      39.535  30.052  30.401  1.00  0.00     0.049 A 
ATOM     16  N   UNL A   1      41.364  29.600  32.749  1.00  0.00    -0.248 NA
ATOM     17  C   UNL A   1      42.412  27.896  31.547  1.00  0.00     0.031 C 
ATOM     18  C   UNL A   1      38.610  30.297  29.290  1.00  0.00     0.029 A 
ATOM     19  N   UNL A   1      39.209  31.014  31.321  1.00  0.00    -0.354 N 
ATOM     20  C   UNL A   1      42.373  29.044  33.527  1.00  0.00     0.074 A 
ATOM     21  C   UNL A   1      42.959  27.973  32.752  1.00  0.00     0.031 C 
ATOM     22  C   UNL A   1      37.840  31.352  29.582  1.00  0.00     0.029 A 
ATOM     23  C   UNL A   1      38.155  31.805  30.931  1.00  0.00     0.049 A 
ATOM     24  H   UNL A   1      39.682  31.127  32.176  1.00  0.00     0.167 HD
ATOM     25  C   UNL A   1      42.767  29.395  34.776  1.00  0.00     0.031 A 
ATOM     26  C   UNL A   1      37.479  32.760  31.596  1.00  0.00     0.031 A 
ATOM     27  C   UNL A   1      42.160  30.457  35.537  1.00  0.00     0.049 A 
ATOM     28  C   UNL A   1      37.898  33.101  32.994  1.00  0.00     0.074 A 
ATOM     29  C   UNL A   1      42.495  30.910  36.801  1.00  0.00     0.029 A 
ATOM     30  N   UNL A   1      41.086  31.226  35.110  1.00  0.00    -0.354 N 
ATOM     31  N   UNL A   1      38.865  32.577  33.709  1.00  0.00    -0.248 NA
ATOM     32  C   UNL A   1      37.144  34.160  33.674  1.00  0.00     0.031 C 
ATOM     33  C   UNL A   1      41.586  31.910  37.161  1.00  0.00     0.029 A 
ATOM     34  C   UNL A   1      40.729  32.132  36.094  1.00  0.00     0.049 A 
ATOM     35  H   UNL A   1      40.642  31.139  34.236  1.00  0.00     0.167 HD
ATOM     36  C   UNL A   1      38.854  33.262  34.917  1.00  0.00     0.074 A 
ATOM     37  C   UNL A   1      37.786  34.239  34.833  1.00  0.00     0.031 C 
ATOM     38  C   UNL A   1      39.664  33.102  35.991  1.00  0.00     0.031 A 
BRANCH  25  39
ATOM     39  C   UNL A   1      43.867  28.583  35.411  1.00  0.00    -0.014 A 
ATOM     40  C   UNL A   1      45.219  28.956  35.296  1.00  0.00     0.010 A 
ATOM     41  C   UNL A   1      43.540  27.423  36.139  1.00  0.00     0.010 A 
ATOM     42  C   UNL A   1      46.225  28.146  35.834  1.00  0.00     0.020 A 
ATOM     43  C   UNL A   1      44.540  26.628  36.706  1.00  0.00     0.020 A 
ATOM     44  C   UNL A   1      45.879  26.980  36.524  1.00  0.00     0.054 A 
BRANCH  44  45
ATOM     45  S   UNL A   1      47.206  25.929  37.176  1.00  0.00     0.124 S 
ATOM     46  O   UNL A   1      48.254  26.117  36.175  1.00  0.00    -0.237 OA
ATOM     47  O   UNL A   1      47.474  26.524  38.483  1.00  0.00    -0.237 OA
ATOM     48  O   UNL A   1      46.610  24.597  37.211  1.00  0.00    -0.744 OA
ENDBRANCH  44  45
ENDBRANCH  25  39
BRANCH  26  49
ATOM     49  C   UNL A   1      36.328  33.425  30.930  1.00  0.00    -0.014 A 
ATOM     50  C   UNL A   1      35.146  33.692  31.638  1.00  0.00     0.010 A 
ATOM     51  C   UNL A   1      36.451  33.883  29.603  1.00  0.00     0.010 A 
ATOM     52  C   UNL A   1      34.110  34.413  31.036  1.00  0.00     0.020 A 
ATOM     53  C   UNL A   1      35.430  34.628  29.008  1.00  0.00     0.020 A 
ATOM     54  C   UNL A   1      34.263  34.886  29.729  1.00  0.00     0.054 A 
BRANCH  54  55
ATOM     55  S   UNL A   1      32.945  35.902  29.007  1.00  0.00     0.124 S 
ATOM     56  O   UNL A   1      32.303  34.962  28.095  1.00  0.00    -0.237 OA
ATOM     57  O   UNL A   1      32.163  36.280  30.182  1.00  0.00    -0.237 OA
ATOM     58  O   UNL A   1      33.669  37.000  28.370  1.00  0.00    -0.744 OA
ENDBRANCH  54  55
ENDBRANCH  26  49
BRANCH  38  59
ATOM     59  C   UNL A   1      39.472  34.035  37.155  1.00  0.00    -0.014 A 
ATOM     60  C   UNL A   1      38.785  33.634  38.313  1.00  0.00     0.010 A 
ATOM     61  C   UNL A   1      40.075  35.307  37.117  1.00  0.00     0.010 A 
ATOM     62  C   UNL A   1      38.702  34.492  39.413  1.00  0.00     0.020 A 
ATOM     63  C   UNL A   1      40.017  36.155  38.223  1.00  0.00     0.020 A 
ATOM     64  C   UNL A   1      39.327  35.743  39.364  1.00  0.00     0.054 A 
BRANCH  64  65
ATOM     65  S   UNL A   1      39.283  36.799  40.838  1.00  0.00     0.124 S 
ATOM     66  O   UNL A   1      38.631  38.003  40.330  1.00  0.00    -0.237 OA
ATOM     67  O   UNL A   1      38.493  36.005  41.776  1.00  0.00    -0.237 OA
ATOM     68  O   UNL A   1      40.690  36.955  41.195  1.00  0.00    -0.744 OA
ENDBRANCH  64  65
ENDBRANCH  38  59
ENDBRANCH  12  13
ENDBRANCH   5   7
ENDBRANCH   2   3
ENDBRANCH   1   2
BRANCH   1  69
ATOM     69  C   UNL A   1      36.646  23.011  25.407  1.00  0.00     0.117 C 
BRANCH  69  70
ATOM     70  N   UNL A   1      35.882  24.210  25.689  1.00  0.00    -0.356 N 
ATOM     71  C   UNL A   1      34.538  24.415  25.592  1.00  0.00     0.224 C 
ATOM     72  H   UNL A   1      36.408  24.985  25.993  1.00  0.00     0.163 HD
ATOM     73  O   UNL A   1      34.113  25.515  25.944  1.00  0.00    -0.275 OA
BRANCH  71  74
ATOM     74  C   UNL A   1      33.636  23.317  25.022  1.00  0.00     0.094 C 
ATOM     75  C   UNL A   1      33.114  22.321  26.105  1.00  0.00     0.002 C 
ATOM     76  C   UNL A   1      32.311  23.883  24.438  1.00  0.00     0.094 C 
ATOM     77  C   UNL A   1      32.441  23.038  27.277  1.00  0.00     0.005 C 
ATOM     78  C   UNL A   1      31.898  21.727  25.433  1.00  0.00     0.009 C 
ATOM     79  C   UNL A   1      31.228  23.062  25.176  1.00  0.00     0.002 C 
ATOM     80  C   UNL A   1      31.139  23.561  26.642  1.00  0.00     0.005 C 
BRANCH  76  81
ATOM     81  C   UNL A   1      32.174  24.062  22.904  1.00  0.00     0.229 C 
ATOM     82  O   UNL A   1      32.588  23.136  22.183  1.00  0.00    -0.274 OA
ATOM     83  N   UNL A   1      31.660  25.126  22.219  1.00  0.00    -0.317 N 
ATOM     84  H   UNL A   1      31.768  25.111  21.240  1.00  0.00     0.170 HD
BRANCH  83  85
ATOM     85  C   UNL A   1      31.013  26.210  22.744  1.00  0.00     0.108 A 
ATOM     86  S   UNL A   1      29.498  25.877  23.474  1.00  0.00    -0.122 S 
ATOM     87  C   UNL A   1      31.477  27.457  23.167  1.00  0.00     0.078 A 
ATOM     88  C   UNL A   1      29.140  27.541  23.363  1.00  0.00     0.011 A 
ATOM     89  C   UNL A   1      30.293  28.289  23.150  1.00  0.00    -0.019 A 
ATOM     90  C   UNL A   1      27.730  28.053  23.373  1.00  0.00     0.047 C 
ATOM     91  C   UNL A   1      30.169  29.746  22.851  1.00  0.00     0.037 C 
ATOM     92  C   UNL A   1      27.667  29.512  22.899  1.00  0.00     0.006 C 
ATOM     93  C   UNL A   1      28.860  30.326  23.401  1.00  0.00     0.005 C 
BRANCH  87  94
ATOM     94  C   UNL A   1      32.918  27.716  23.262  1.00  0.00     0.254 C 
ATOM     95  O   UNL A   1      33.663  27.400  22.327  1.00  0.00    -0.269 OA
ATOM     96  N   UNL A   1      33.590  28.152  24.372  1.00  0.00    -0.349 N 
ATOM     97  H   UNL A   1      34.553  27.980  24.265  1.00  0.00     0.164 HD
BRANCH  96  98
ATOM     98  C   UNL A   1      33.345  28.793  25.672  1.00  0.00     0.082 C 
ATOM     99  C   UNL A   1      34.667  28.911  26.443  1.00  0.00     0.025 C 
ATOM    100  C   UNL A   1      32.404  30.001  25.674  1.00  0.00     0.025 C 
ATOM    101  C   UNL A   1      34.552  29.706  27.735  1.00  0.00     0.002 C 
ATOM    102  C   UNL A   1      32.472  30.875  26.929  1.00  0.00     0.002 C 
ATOM    103  C   UNL A   1      33.864  31.044  27.526  1.00  0.00     0.000 C 
ENDBRANCH  96  98
ENDBRANCH  87  94
ENDBRANCH  83  85
ENDBRANCH  76  81
ENDBRANCH  71  74
ENDBRANCH  69  70
ENDBRANCH   1  69
TORSDOF 17
ENDMDL
MODEL 2
REMARK VINA RESULT:     -13.1      1.234      8.136
REMARK SMILES O=C(NCCCNC(=O)[C@H]1[C@H]2CC[C@H](C2)[C@@H]1C(=O)Nc1sc2c(c1C(=O)NC1CCCCC1)CCCC2)c1ccc(-c2c3nc(c(-c4ccc(S(=O)(=O)[O-])cc4)c4ccc([nH]4)c(-c4ccc(S(=O)(=O)[O-])cc4)c4nc(c(-c5ccc(S(=O)(=O)[O-])cc5)c5ccc2[nH]5)C=C4)C=C3)cc1
REMARK SMILES IDX 5 1 4 2 3 3 1 4 2 5 38 7 39 8 97 9 40 10 96 11 41 12 42 13
REMARK SMILES IDX 43 14 90 15 44 16 95 17 89 18 91 19 45 20 94 21 88 22 87 23
REMARK SMILES IDX 46 25 76 26 57 27 75 28 58 29 61 30 74 31 92 32 59 33 60 34
REMARK SMILES IDX 73 36 93 37 62 38 47 39 48 40 56 41 49 42 55 43 50 44 51 45
REMARK SMILES IDX 52 46 53 47 54 48 77 49 78 50 86 51 79 52 85 53 80 54 81 55
REMARK SMILES IDX 82 56 83 57 84 58 63 59 64 60 72 61 65 62 71 63 66 64 67 65
REMARK SMILES IDX 68 66 69 67 70 68 6 69 7 70 8 71 9 73 10 74 11 75 16 76
REMARK SMILES IDX 12 77 15 78 14 79 13 80 17 81 18 82 19 83 20 85 21 86 24 87
REMARK SMILES IDX 22 88 23 89 37 90 34 91 36 92 35 93 25 94 26 95 27 96 28 98
REMARK SMILES IDX 29 99 33 100 30 101 32 102 31 103
REMARK H PARENT 3 6 91 24 61 35 7 72 19 84 27 97
REMARK Flexibility Score: inf
ROOT
ATOM      1  C   UNL A   1      37.976  22.951  25.939  1.00  0.00     0.042 C 
ENDROOT
BRANCH   1   2
ATOM      2  C   UNL A   1      38.709  24.079  26.643  1.00  0.00     0.118 C 
BRANCH   2   3
ATOM      3  N   UNL A   1      39.955  24.443  25.981  1.00  0.00    -0.352 N 
ATOM      4  O   UNL A   1      41.692  25.737  25.374  1.00  0.00    -0.269 OA
ATOM      5  C   UNL A   1      40.804  25.506  26.189  1.00  0.00     0.251 C 
ATOM      6  H   UNL A   1      40.237  23.827  25.268  1.00  0.00     0.163 HD
BRANCH   5   7
ATOM      7  C   UNL A   1      40.634  26.386  27.367  1.00  0.00     0.039 A 
ATOM      8  C   UNL A   1      41.348  27.579  27.482  1.00  0.00     0.014 A 
ATOM      9  C   UNL A   1      39.718  26.028  28.362  1.00  0.00     0.014 A 
ATOM     10  C   UNL A   1      41.298  28.310  28.661  1.00  0.00     0.010 A 
ATOM     11  C   UNL A   1      39.576  26.833  29.496  1.00  0.00     0.010 A 
ATOM     12  C   UNL A   1      40.391  27.963  29.670  1.00  0.00    -0.014 A 
BRANCH  12  13
ATOM     13  C   UNL A   1      40.251  28.830  30.865  1.00  0.00     0.031 A 
ATOM     14  C   UNL A   1      39.226  29.927  30.906  1.00  0.00     0.074 A 
ATOM     15  C   UNL A   1      41.076  28.627  31.913  1.00  0.00     0.049 A 
ATOM     16  N   UNL A   1      39.026  30.831  31.829  1.00  0.00    -0.248 NA
ATOM     17  C   UNL A   1      38.314  30.028  29.757  1.00  0.00     0.031 C 
ATOM     18  C   UNL A   1      42.101  27.582  31.990  1.00  0.00     0.029 A 
ATOM     19  N   UNL A   1      41.187  29.288  33.108  1.00  0.00    -0.354 N 
ATOM     20  C   UNL A   1      37.991  31.631  31.360  1.00  0.00     0.074 A 
ATOM     21  C   UNL A   1      37.617  31.114  30.061  1.00  0.00     0.031 C 
ATOM     22  C   UNL A   1      42.718  27.657  33.176  1.00  0.00     0.029 A 
ATOM     23  C   UNL A   1      42.195  28.803  33.907  1.00  0.00     0.049 A 
ATOM     24  H   UNL A   1      40.603  30.035  33.370  1.00  0.00     0.167 HD
ATOM     25  C   UNL A   1      37.413  32.702  31.958  1.00  0.00     0.031 A 
ATOM     26  C   UNL A   1      42.683  29.253  35.077  1.00  0.00     0.031 A 
ATOM     27  C   UNL A   1      37.810  33.209  33.246  1.00  0.00     0.049 A 
ATOM     28  C   UNL A   1      42.062  30.467  35.700  1.00  0.00     0.074 A 
ATOM     29  C   UNL A   1      37.277  34.272  33.953  1.00  0.00     0.029 A 
ATOM     30  N   UNL A   1      38.845  32.696  34.016  1.00  0.00    -0.354 N 
ATOM     31  N   UNL A   1      41.073  31.202  35.251  1.00  0.00    -0.248 NA
ATOM     32  C   UNL A   1      42.615  30.912  36.985  1.00  0.00     0.031 C 
ATOM     33  C   UNL A   1      38.029  34.440  35.121  1.00  0.00     0.029 A 
ATOM     34  C   UNL A   1      38.983  33.436  35.178  1.00  0.00     0.049 A 
ATOM     35  H   UNL A   1      39.400  31.921  33.771  1.00  0.00     0.167 HD
ATOM     36  C   UNL A   1      40.865  32.182  36.212  1.00  0.00     0.074 A 
ATOM     37  C   UNL A   1      41.830  31.944  37.267  1.00  0.00     0.031 C 
ATOM     38  C   UNL A   1      39.949  33.181  36.221  1.00  0.00     0.031 A 
BRANCH  25  39
ATOM     39  C   UNL A   1      36.331  33.423  31.195  1.00  0.00    -0.014 A 
ATOM     40  C   UNL A   1      36.570  33.979  29.925  1.00  0.00     0.010 A 
ATOM     41  C   UNL A   1      35.048  33.545  31.761  1.00  0.00     0.010 A 
ATOM     42  C   UNL A   1      35.570  34.704  29.269  1.00  0.00     0.020 A 
ATOM     43  C   UNL A   1      34.035  34.242  31.094  1.00  0.00     0.020 A 
ATOM     44  C   UNL A   1      34.312  34.842  29.865  1.00  0.00     0.054 A 
BRANCH  44  45
ATOM     45  S   UNL A   1      33.047  35.821  29.011  1.00  0.00     0.124 S 
ATOM     46  O   UNL A   1      32.362  34.801  28.221  1.00  0.00    -0.237 OA
ATOM     47  O   UNL A   1      32.273  36.381  30.117  1.00  0.00    -0.237 OA
ATOM     48  O   UNL A   1      33.819  36.792  28.241  1.00  0.00    -0.744 OA
ENDBRANCH  44  45
ENDBRANCH  25  39
BRANCH  26  49
ATOM     49  C   UNL A   1      43.834  28.545  35.699  1.00  0.00    -0.014 A 
ATOM     50  C   UNL A   1      45.153  28.924  35.403  1.00  0.00     0.010 A 
ATOM     51  C   UNL A   1      43.607  27.549  36.668  1.00  0.00     0.010 A 
ATOM     52  C   UNL A   1      46.226  28.325  36.072  1.00  0.00     0.020 A 
ATOM     53  C   UNL A   1      44.673  26.970  37.359  1.00  0.00     0.020 A 
ATOM     54  C   UNL A   1      45.978  27.360  37.054  1.00  0.00     0.054 A 
BRANCH  54  55
ATOM     55  S   UNL A   1      47.381  26.672  37.975  1.00  0.00     0.124 S 
ATOM     56  O   UNL A   1      47.492  27.599  39.096  1.00  0.00    -0.237 OA
ATOM     57  O   UNL A   1      46.909  25.329  38.307  1.00  0.00    -0.237 OA
ATOM     58  O   UNL A   1      48.478  26.717  37.011  1.00  0.00    -0.744 OA
ENDBRANCH  54  55
ENDBRANCH  26  49
BRANCH  38  59
ATOM     59  C   UNL A   1      39.900  34.070  37.433  1.00  0.00    -0.014 A 
ATOM     60  C   UNL A   1      39.094  33.759  38.541  1.00  0.00     0.010 A 
ATOM     61  C   UNL A   1      40.754  35.188  37.494  1.00  0.00     0.010 A 
ATOM     62  C   UNL A   1      39.140  34.556  39.689  1.00  0.00     0.020 A 
ATOM     63  C   UNL A   1      40.822  35.970  38.648  1.00  0.00     0.020 A 
ATOM     64  C   UNL A   1      40.011  35.650  39.738  1.00  0.00     0.054 A 
BRANCH  64  65
ATOM     65  S   UNL A   1      40.118  36.612  41.272  1.00  0.00     0.124 S 
ATOM     66  O   UNL A   1      39.724  35.629  42.276  1.00  0.00    -0.237 OA
ATOM     67  O   UNL A   1      41.523  37.011  41.300  1.00  0.00    -0.237 OA
ATOM     68  O   UNL A   1      39.172  37.705  41.063  1.00  0.00    -0.744 OA
ENDBRANCH  64  65
ENDBRANCH  38  59
ENDBRANCH  12  13
ENDBRANCH   5   7
ENDBRANCH   2   3
ENDBRANCH   1   2
BRANCH   1  69
ATOM     69  C   UNL A   1      36.989  23.413  24.886  1.00  0.00     0.117 C 
BRANCH  69  70
ATOM     70  N   UNL A   1      35.951  24.282  25.403  1.00  0.00    -0.356 N 
ATOM     71  C   UNL A   1      34.673  24.452  24.961  1.00  0.00     0.224 C 
ATOM     72  H   UNL A   1      36.205  24.826  26.183  1.00  0.00     0.163 HD
ATOM     73  O   UNL A   1      33.954  25.214  25.606  1.00  0.00    -0.275 OA
BRANCH  71  74
ATOM     74  C   UNL A   1      34.205  23.742  23.687  1.00  0.00     0.094 C 
ATOM     75  C   UNL A   1      33.836  22.242  23.915  1.00  0.00     0.002 C 
ATOM     76  C   UNL A   1      32.869  24.324  23.143  1.00  0.00     0.094 C 
ATOM     77  C   UNL A   1      32.831  22.058  25.053  1.00  0.00     0.005 C 
ATOM     78  C   UNL A   1      32.941  21.951  22.732  1.00  0.00     0.009 C 
ATOM     79  C   UNL A   1      31.967  23.073  23.027  1.00  0.00     0.002 C 
ATOM     80  C   UNL A   1      31.537  22.637  24.452  1.00  0.00     0.005 C 
BRANCH  76  81
ATOM     81  C   UNL A   1      32.904  25.314  21.949  1.00  0.00     0.229 C 
ATOM     82  O   UNL A   1      32.919  24.826  20.805  1.00  0.00    -0.274 OA
ATOM     83  N   UNL A   1      32.934  26.679  21.983  1.00  0.00    -0.317 N 
ATOM     84  H   UNL A   1      33.077  27.136  21.123  1.00  0.00     0.170 HD
BRANCH  83  85
ATOM     85  C   UNL A   1      32.788  27.480  23.081  1.00  0.00     0.108 A 
ATOM     86  S   UNL A   1      34.118  28.507  23.424  1.00  0.00    -0.122 S 
ATOM     87  C   UNL A   1      31.654  27.934  23.759  1.00  0.00     0.078 A 
ATOM     88  C   UNL A   1      33.493  28.700  24.999  1.00  0.00     0.011 A 
ATOM     89  C   UNL A   1      32.159  28.311  25.062  1.00  0.00    -0.019 A 
ATOM     90  C   UNL A   1      34.359  29.118  26.151  1.00  0.00     0.047 C 
ATOM     91  C   UNL A   1      31.484  28.240  26.391  1.00  0.00     0.037 C 
ATOM     92  C   UNL A   1      33.656  28.864  27.493  1.00  0.00     0.006 C 
ATOM     93  C   UNL A   1      32.158  29.162  27.416  1.00  0.00     0.005 C 
BRANCH  87  94
ATOM     94  C   UNL A   1      30.318  27.708  23.197  1.00  0.00     0.254 C 
ATOM     95  O   UNL A   1      29.845  26.566  23.173  1.00  0.00    -0.269 OA
ATOM     96  N   UNL A   1      29.556  28.629  22.529  1.00  0.00    -0.349 N 
ATOM     97  H   UNL A   1      28.849  28.169  22.022  1.00  0.00     0.164 HD
BRANCH  96  98
ATOM     98  C   UNL A   1      29.446  30.081  22.322  1.00  0.00     0.082 C 
ATOM     99  C   UNL A   1      28.478  30.362  21.165  1.00  0.00     0.025 C 
ATOM    100  C   UNL A   1      29.330  30.946  23.580  1.00  0.00     0.025 C 
ATOM    101  C   UNL A   1      28.168  31.839  20.973  1.00  0.00     0.002 C 
ATOM    102  C   UNL A   1      28.829  32.373  23.344  1.00  0.00     0.002 C 
ATOM    103  C   UNL A   1      27.756  32.512  22.270  1.00  0.00     0.000 C 
ENDBRANCH  96  98
ENDBRANCH  87  94
ENDBRANCH  83  85
ENDBRANCH  76  81
ENDBRANCH  71  74
ENDBRANCH  69  70
ENDBRANCH   1  69
TORSDOF 17
ENDMDL
MODEL 3
REMARK VINA RESULT:     -12.8      5.817      9.996
REMARK SMILES O=C(NCCCNC(=O)[C@H]1[C@H]2CC[C@H](C2)[C@@H]1C(=O)Nc1sc2c(c1C(=O)NC1CCCCC1)CCCC2)c1ccc(-c2c3nc(c(-c4ccc(S(=O)(=O)[O-])cc4)c4ccc([nH]4)c(-c4ccc(S(=O)(=O)[O-])cc4)c4nc(c(-c5ccc(S(=O)(=O)[O-])cc5)c5ccc2[nH]5)C=C4)C=C3)cc1
REMARK SMILES IDX 5 1 4 2 3 3 1 4 2 5 38 7 39 8 97 9 40 10 96 11 41 12 42 13
REMARK SMILES IDX 43 14 90 15 44 16 95 17 89 18 91 19 45 20 94 21 88 22 87 23
REMARK SMILES IDX 46 25 76 26 57 27 75 28 58 29 61 30 74 31 92 32 59 33 60 34
REMARK SMILES IDX 73 36 93 37 62 38 47 39 48 40 56 41 49 42 55 43 50 44 51 45
REMARK SMILES IDX 52 46 53 47 54 48 77 49 78 50 86 51 79 52 85 53 80 54 81 55
REMARK SMILES IDX 82 56 83 57 84 58 63 59 64 60 72 61 65 62 71 63 66 64 67 65
REMARK SMILES IDX 68 66 69 67 70 68 6 69 7 70 8 71 9 73 10 74 11 75 16 76
REMARK SMILES IDX 12 77 15 78 14 79 13 80 17 81 18 82 19 83 20 85 21 86 24 87
REMARK SMILES IDX 22 88 23 89 37 90 34 91 36 92 35 93 25 94 26 95 27 96 28 98
REMARK SMILES IDX 29 99 33 100 30 101 32 102 31 103
REMARK H PARENT 3 6 91 24 61 35 7 72 19 84 27 97
REMARK Flexibility Score: inf
ROOT
ATOM      1  C   UNL A   1      37.569  20.861  25.206  1.00  0.00     0.042 C 
ENDROOT
BRANCH   1   2
ATOM      2  C   UNL A   1      38.908  21.309  25.766  1.00  0.00     0.118 C 
BRANCH   2   3
ATOM      3  N   UNL A   1      39.849  20.209  25.929  1.00  0.00    -0.352 N 
ATOM      4  O   UNL A   1      41.841  19.173  26.063  1.00  0.00    -0.269 OA
ATOM      5  C   UNL A   1      41.204  20.215  26.171  1.00  0.00     0.251 C 
ATOM      6  H   UNL A   1      39.451  19.312  25.854  1.00  0.00     0.163 HD
BRANCH   5   7
ATOM      7  C   UNL A   1      41.898  21.473  26.530  1.00  0.00     0.039 A 
ATOM      8  C   UNL A   1      42.324  21.711  27.838  1.00  0.00     0.014 A 
ATOM      9  C   UNL A   1      42.157  22.421  25.535  1.00  0.00     0.014 A 
ATOM     10  C   UNL A   1      42.826  22.955  28.192  1.00  0.00     0.010 A 
ATOM     11  C   UNL A   1      42.778  23.627  25.869  1.00  0.00     0.010 A 
ATOM     12  C   UNL A   1      43.086  23.918  27.208  1.00  0.00    -0.014 A 
BRANCH  12  13
ATOM     13  C   UNL A   1      43.749  25.191  27.581  1.00  0.00     0.031 A 
ATOM     14  C   UNL A   1      42.977  26.298  28.240  1.00  0.00     0.074 A 
ATOM     15  C   UNL A   1      45.059  25.346  27.302  1.00  0.00     0.049 A 
ATOM     16  N   UNL A   1      43.374  27.504  28.553  1.00  0.00    -0.248 NA
ATOM     17  C   UNL A   1      41.574  26.018  28.584  1.00  0.00     0.031 C 
ATOM     18  C   UNL A   1      45.914  24.333  26.676  1.00  0.00     0.029 A 
ATOM     19  N   UNL A   1      45.900  26.409  27.503  1.00  0.00    -0.354 N 
ATOM     20  C   UNL A   1      42.264  28.140  29.096  1.00  0.00     0.074 A 
ATOM     21  C   UNL A   1      41.173  27.191  29.055  1.00  0.00     0.031 C 
ATOM     22  C   UNL A   1      47.159  24.813  26.566  1.00  0.00     0.029 A 
ATOM     23  C   UNL A   1      47.174  26.193  27.033  1.00  0.00     0.049 A 
ATOM     24  H   UNL A   1      45.620  27.245  27.941  1.00  0.00     0.167 HD
ATOM     25  C   UNL A   1      42.167  29.403  29.580  1.00  0.00     0.031 A 
ATOM     26  C   UNL A   1      48.229  27.021  26.941  1.00  0.00     0.031 A 
ATOM     27  C   UNL A   1      43.262  30.338  29.600  1.00  0.00     0.049 A 
ATOM     28  C   UNL A   1      48.088  28.429  27.437  1.00  0.00     0.074 A 
ATOM     29  C   UNL A   1      43.278  31.634  30.086  1.00  0.00     0.029 A 
ATOM     30  N   UNL A   1      44.533  30.083  29.102  1.00  0.00    -0.354 N 
ATOM     31  N   UNL A   1      47.036  29.010  27.963  1.00  0.00    -0.248 NA
ATOM     32  C   UNL A   1      49.271  29.293  27.331  1.00  0.00     0.031 C 
ATOM     33  C   UNL A   1      44.540  32.181  29.828  1.00  0.00     0.029 A 
ATOM     34  C   UNL A   1      45.333  31.203  29.246  1.00  0.00     0.049 A 
ATOM     35  H   UNL A   1      44.821  29.230  28.704  1.00  0.00     0.167 HD
ATOM     36  C   UNL A   1      47.437  30.301  28.279  1.00  0.00     0.074 A 
ATOM     37  C   UNL A   1      48.828  30.414  27.886  1.00  0.00     0.031 C 
ATOM     38  C   UNL A   1      46.719  31.296  28.853  1.00  0.00     0.031 A 
BRANCH  25  39
ATOM     39  C   UNL A   1      40.815  29.856  30.071  1.00  0.00    -0.014 A 
ATOM     40  C   UNL A   1      39.828  30.325  29.185  1.00  0.00     0.010 A 
ATOM     41  C   UNL A   1      40.527  29.811  31.448  1.00  0.00     0.010 A 
ATOM     42  C   UNL A   1      38.608  30.806  29.673  1.00  0.00     0.020 A 
ATOM     43  C   UNL A   1      39.298  30.261  31.938  1.00  0.00     0.020 A 
ATOM     44  C   UNL A   1      38.357  30.783  31.048  1.00  0.00     0.054 A 
BRANCH  44  45
ATOM     45  S   UNL A   1      36.783  31.450  31.656  1.00  0.00     0.124 S 
ATOM     46  O   UNL A   1      37.235  32.535  32.525  1.00  0.00    -0.237 OA
ATOM     47  O   UNL A   1      36.116  31.871  30.426  1.00  0.00    -0.237 OA
ATOM     48  O   UNL A   1      36.166  30.318  32.341  1.00  0.00    -0.744 OA
ENDBRANCH  44  45
ENDBRANCH  25  39
BRANCH  26  49
ATOM     49  C   UNL A   1      49.490  26.519  26.331  1.00  0.00    -0.014 A 
ATOM     50  C   UNL A   1      49.823  26.842  25.006  1.00  0.00     0.010 A 
ATOM     51  C   UNL A   1      50.409  25.793  27.112  1.00  0.00     0.010 A 
ATOM     52  C   UNL A   1      51.057  26.456  24.475  1.00  0.00     0.020 A 
ATOM     53  C   UNL A   1      51.655  25.431  26.595  1.00  0.00     0.020 A 
ATOM     54  C   UNL A   1      51.970  25.763  25.277  1.00  0.00     0.054 A 
BRANCH  54  55
ATOM     55  S   UNL A   1      53.602  25.361  24.595  1.00  0.00     0.124 S 
ATOM     56  O   UNL A   1      53.454  25.758  23.198  1.00  0.00    -0.237 OA
ATOM     57  O   UNL A   1      54.492  26.195  25.400  1.00  0.00    -0.237 OA
ATOM     58  O   UNL A   1      53.727  23.924  24.829  1.00  0.00    -0.744 OA
ENDBRANCH  54  55
ENDBRANCH  26  49
BRANCH  38  59
ATOM     59  C   UNL A   1      47.430  32.589  29.146  1.00  0.00    -0.014 A 
ATOM     60  C   UNL A   1      48.194  32.759  30.313  1.00  0.00     0.010 A 
ATOM     61  C   UNL A   1      47.404  33.616  28.184  1.00  0.00     0.010 A 
ATOM     62  C   UNL A   1      48.918  33.938  30.513  1.00  0.00     0.020 A 
ATOM     63  C   UNL A   1      48.146  34.783  28.367  1.00  0.00     0.020 A 
ATOM     64  C   UNL A   1      48.896  34.938  29.535  1.00  0.00     0.054 A 
BRANCH  64  65
ATOM     65  S   UNL A   1      49.916  36.418  29.776  1.00  0.00     0.124 S 
ATOM     66  O   UNL A   1      49.919  37.008  28.440  1.00  0.00    -0.237 OA
ATOM     67  O   UNL A   1      49.168  37.159  30.789  1.00  0.00    -0.237 OA
ATOM     68  O   UNL A   1      51.200  35.886  30.225  1.00  0.00    -0.744 OA
ENDBRANCH  64  65
ENDBRANCH  38  59
ENDBRANCH  12  13
ENDBRANCH   5   7
ENDBRANCH   2   3
ENDBRANCH   1   2
BRANCH   1  69
ATOM     69  C   UNL A   1      37.063  21.706  24.054  1.00  0.00     0.117 C 
BRANCH  69  70
ATOM     70  N   UNL A   1      36.668  23.044  24.445  1.00  0.00    -0.356 N 
ATOM     71  C   UNL A   1      35.430  23.515  24.769  1.00  0.00     0.224 C 
ATOM     72  H   UNL A   1      37.395  23.707  24.480  1.00  0.00     0.163 HD
ATOM     73  O   UNL A   1      35.354  24.690  25.125  1.00  0.00    -0.275 OA
BRANCH  71  74
ATOM     74  C   UNL A   1      34.207  22.602  24.638  1.00  0.00     0.094 C 
ATOM     75  C   UNL A   1      33.790  21.931  25.985  1.00  0.00     0.002 C 
ATOM     76  C   UNL A   1      32.921  23.388  24.256  1.00  0.00     0.094 C 
ATOM     77  C   UNL A   1      33.602  22.952  27.108  1.00  0.00     0.005 C 
ATOM     78  C   UNL A   1      32.347  21.565  25.724  1.00  0.00     0.009 C 
ATOM     79  C   UNL A   1      31.920  22.973  25.360  1.00  0.00     0.002 C 
ATOM     80  C   UNL A   1      32.315  23.683  26.682  1.00  0.00     0.005 C 
BRANCH  76  81
ATOM     81  C   UNL A   1      32.433  23.374  22.784  1.00  0.00     0.229 C 
ATOM     82  O   UNL A   1      32.697  22.364  22.106  1.00  0.00    -0.274 OA
ATOM     83  N   UNL A   1      31.749  24.345  22.111  1.00  0.00    -0.317 N 
ATOM     84  H   UNL A   1      31.631  24.207  21.143  1.00  0.00     0.170 HD
BRANCH  83  85
ATOM     85  C   UNL A   1      31.210  25.487  22.634  1.00  0.00     0.108 A 
ATOM     86  S   UNL A   1      29.756  25.274  23.518  1.00  0.00    -0.122 S 
ATOM     87  C   UNL A   1      31.773  26.727  22.944  1.00  0.00     0.078 A 
ATOM     88  C   UNL A   1      29.473  26.948  23.350  1.00  0.00     0.011 A 
ATOM     89  C   UNL A   1      30.637  27.620  22.991  1.00  0.00    -0.019 A 
ATOM     90  C   UNL A   1      28.097  27.536  23.463  1.00  0.00     0.047 C 
ATOM     91  C   UNL A   1      30.557  29.066  22.626  1.00  0.00     0.037 C 
ATOM     92  C   UNL A   1      28.062  28.972  22.918  1.00  0.00     0.006 C 
ATOM     93  C   UNL A   1      29.337  29.743  23.263  1.00  0.00     0.005 C 
BRANCH  87  94
ATOM     94  C   UNL A   1      33.228  26.911  22.891  1.00  0.00     0.254 C 
ATOM     95  O   UNL A   1      33.868  26.480  21.924  1.00  0.00    -0.269 OA
ATOM     96  N   UNL A   1      34.019  27.394  23.898  1.00  0.00    -0.349 N 
ATOM     97  H   UNL A   1      34.959  27.160  23.722  1.00  0.00     0.164 HD
BRANCH  96  98
ATOM     98  C   UNL A   1      33.926  28.147  25.157  1.00  0.00     0.082 C 
ATOM     99  C   UNL A   1      33.332  29.536  24.881  1.00  0.00     0.025 C 
ATOM    100  C   UNL A   1      33.415  27.380  26.379  1.00  0.00     0.025 C 
ATOM    101  C   UNL A   1      33.042  30.338  26.140  1.00  0.00     0.002 C 
ATOM    102  C   UNL A   1      32.957  28.253  27.550  1.00  0.00     0.002 C 
ATOM    103  C   UNL A   1      32.244  29.541  27.157  1.00  0.00     0.000 C 
ENDBRANCH  96  98
ENDBRANCH  87  94
ENDBRANCH  83  85
ENDBRANCH  76  81
ENDBRANCH  71  74
ENDBRANCH  69  70
ENDBRANCH   1  69
TORSDOF 17
ENDMDL
