MODEL 1
REMARK VINA RESULT:      -9.9      0.000      0.000
REMARK SMILES C[C@@H]1SC[C@H](C(=O)NCCCNC(=O)c2ccc(-c3c4nc(c(-c5ccc(S(=O)(=O)[O-])cc5)c5ccc([nH]5)c(-c5ccc(S(=O)(=O)[O-])cc5)c5nc(c(-c6ccc(S(=O)(=O)[O-])cc6)c6ccc3[nH]6)C=C5)C=C4)cc2)N1C(=O)C[NH2+]CC(F)(F)F
REMARK SMILES IDX 9 1 8 2 6 3 7 4 5 6 1 7 2 8 3 9 75 10 4 11 76 12 77 13 78 14
REMARK SMILES IDX 79 15 80 18 81 19 82 20 83 21 84 22 10 23 11 24 12 25 13 26
REMARK SMILES IDX 14 28 15 29 16 30 74 31 17 32 73 33 18 34 19 35 20 36 67 37
REMARK SMILES IDX 21 38 72 39 66 40 68 41 22 42 71 43 65 44 64 45 23 47 53 48
REMARK SMILES IDX 34 49 52 50 35 51 38 52 51 53 69 54 36 55 37 56 50 58 70 59
REMARK SMILES IDX 39 60 24 61 25 62 33 63 26 64 32 65 27 66 28 67 29 68 30 69
REMARK SMILES IDX 31 70 54 71 55 72 63 73 56 74 62 75 57 76 58 77 59 78 60 79
REMARK SMILES IDX 61 80 40 81 41 82 49 83 42 84 48 85 43 86 44 87 45 88 46 89
REMARK SMILES IDX 47 90
REMARK H PARENT 8 5 79 16 79 17 12 27 68 46 38 57
REMARK Flexibility Score: inf
ROOT
ATOM      1  C   UNL A   1      34.743  24.686  25.442  1.00  0.00     0.117 C 
ENDROOT
BRANCH   1   2
ATOM      2  N   UNL A   1      34.608  24.606  24.000  1.00  0.00    -0.354 N 
ATOM      3  C   UNL A   1      33.512  24.745  23.205  1.00  0.00     0.243 C 
ATOM      4  O   UNL A   1      33.614  24.353  22.038  1.00  0.00    -0.273 OA
ATOM      5  H   UNL A   1      35.446  24.421  23.518  1.00  0.00     0.163 HD
BRANCH   3   6
ATOM      6  C   UNL A   1      32.145  25.183  23.761  1.00  0.00     0.185 C 
ATOM      7  C   UNL A   1      31.088  27.189  26.744  1.00  0.00     0.043 C 
ATOM      8  C   UNL A   1      30.908  26.538  25.378  1.00  0.00     0.141 C 
ATOM      9  S   UNL A   1      30.347  24.818  25.661  1.00  0.00    -0.135 SA
ATOM     10  N   UNL A   1      32.074  26.459  24.495  1.00  0.00    -0.313 N 
ATOM     11  C   UNL A   1      31.654  24.067  24.673  1.00  0.00     0.107 C 
BRANCH  10  12
ATOM     12  C   UNL A   1      32.625  27.565  23.854  1.00  0.00     0.279 C 
ATOM     13  O   UNL A   1      32.223  27.949  22.753  1.00  0.00    -0.268 OA
BRANCH  12  14
ATOM     14  C   UNL A   1      33.801  28.296  24.504  1.00  0.00     0.362 C 
BRANCH  14  15
ATOM     15  N   UNL A   1      33.468  29.723  24.626  1.00  0.00    -0.331 N 
ATOM     16  H   UNL A   1      32.749  29.956  23.940  1.00  0.00     0.346 HD
ATOM     17  H   UNL A   1      34.316  30.265  24.463  1.00  0.00     0.346 HD
BRANCH  15  18
ATOM     18  C   UNL A   1      32.961  30.049  25.984  1.00  0.00     0.378 C 
BRANCH  18  19
ATOM     19  C   UNL A   1      33.930  29.995  27.182  1.00  0.00     0.438 C 
ATOM     20  F   UNL A   1      33.879  28.790  27.791  1.00  0.00    -0.165 F 
ATOM     21  F   UNL A   1      35.203  30.196  26.772  1.00  0.00    -0.165 F 
ATOM     22  F   UNL A   1      33.640  30.943  28.098  1.00  0.00    -0.165 F 
ENDBRANCH  18  19
ENDBRANCH  15  18
ENDBRANCH  14  15
ENDBRANCH  12  14
ENDBRANCH  10  12
ENDBRANCH   3   6
ENDBRANCH   1   2
BRANCH   1  23
ATOM     23  C   UNL A   1      35.803  23.718  25.949  1.00  0.00     0.042 C 
BRANCH  23  24
ATOM     24  C   UNL A   1      36.988  23.559  25.007  1.00  0.00     0.118 C 
BRANCH  24  25
ATOM     25  N   UNL A   1      37.944  22.565  25.477  1.00  0.00    -0.352 N 
ATOM     26  C   UNL A   1      39.111  22.745  26.179  1.00  0.00     0.251 C 
ATOM     27  H   UNL A   1      37.722  21.630  25.260  1.00  0.00     0.163 HD
ATOM     28  O   UNL A   1      39.899  21.810  26.306  1.00  0.00    -0.269 OA
BRANCH  26  29
ATOM     29  C   UNL A   1      39.422  24.068  26.758  1.00  0.00     0.039 A 
ATOM     30  C   UNL A   1      39.001  24.363  28.058  1.00  0.00     0.014 A 
ATOM     31  C   UNL A   1      40.137  25.014  26.019  1.00  0.00     0.014 A 
ATOM     32  C   UNL A   1      39.356  25.584  28.637  1.00  0.00     0.010 A 
ATOM     33  C   UNL A   1      40.570  26.183  26.630  1.00  0.00     0.010 A 
ATOM     34  C   UNL A   1      40.173  26.488  27.940  1.00  0.00    -0.014 A 
BRANCH  34  35
ATOM     35  C   UNL A   1      40.606  27.777  28.537  1.00  0.00     0.031 A 
ATOM     36  C   UNL A   1      42.006  27.916  29.073  1.00  0.00     0.074 A 
ATOM     37  C   UNL A   1      39.724  28.787  28.677  1.00  0.00     0.049 A 
ATOM     38  N   UNL A   1      42.547  28.914  29.724  1.00  0.00    -0.248 NA
ATOM     39  C   UNL A   1      42.905  26.766  28.883  1.00  0.00     0.031 C 
ATOM     40  C   UNL A   1      38.332  28.768  28.221  1.00  0.00     0.029 A 
ATOM     41  N   UNL A   1      39.868  30.025  29.251  1.00  0.00    -0.354 N 
ATOM     42  C   UNL A   1      43.834  28.499  30.046  1.00  0.00     0.074 A 
ATOM     43  C   UNL A   1      43.973  27.142  29.568  1.00  0.00     0.031 C 
ATOM     44  C   UNL A   1      37.762  29.951  28.504  1.00  0.00     0.029 A 
ATOM     45  C   UNL A   1      38.727  30.790  29.207  1.00  0.00     0.049 A 
ATOM     46  H   UNL A   1      40.709  30.335  29.658  1.00  0.00     0.167 HD
ATOM     47  C   UNL A   1      44.818  29.190  30.670  1.00  0.00     0.031 A 
ATOM     48  C   UNL A   1      38.482  32.027  29.683  1.00  0.00     0.031 A 
ATOM     49  C   UNL A   1      44.675  30.544  31.134  1.00  0.00     0.049 A 
ATOM     50  C   UNL A   1      39.581  32.770  30.392  1.00  0.00     0.074 A 
ATOM     51  C   UNL A   1      45.627  31.357  31.723  1.00  0.00     0.029 A 
ATOM     52  N   UNL A   1      43.503  31.283  31.068  1.00  0.00    -0.354 N 
ATOM     53  N   UNL A   1      40.811  32.386  30.637  1.00  0.00    -0.248 NA
ATOM     54  C   UNL A   1      39.261  34.118  30.881  1.00  0.00     0.031 C 
ATOM     55  C   UNL A   1      45.014  32.564  32.070  1.00  0.00     0.029 A 
ATOM     56  C   UNL A   1      43.699  32.532  31.631  1.00  0.00     0.049 A 
ATOM     57  H   UNL A   1      42.656  30.966  30.678  1.00  0.00     0.167 HD
ATOM     58  C   UNL A   1      41.425  33.459  31.274  1.00  0.00     0.074 A 
ATOM     59  C   UNL A   1      40.429  34.508  31.375  1.00  0.00     0.031 C 
ATOM     60  C   UNL A   1      42.700  33.569  31.722  1.00  0.00     0.031 A 
BRANCH  47  61
ATOM     61  C   UNL A   1      46.124  28.474  30.907  1.00  0.00    -0.014 A 
ATOM     62  C   UNL A   1      47.233  28.670  30.063  1.00  0.00     0.010 A 
ATOM     63  C   UNL A   1      46.242  27.589  31.994  1.00  0.00     0.010 A 
ATOM     64  C   UNL A   1      48.410  27.942  30.261  1.00  0.00     0.020 A 
ATOM     65  C   UNL A   1      47.431  26.888  32.217  1.00  0.00     0.020 A 
ATOM     66  C   UNL A   1      48.499  27.050  31.332  1.00  0.00     0.054 A 
BRANCH  66  67
ATOM     67  S   UNL A   1      50.033  26.109  31.557  1.00  0.00     0.124 S 
ATOM     68  O   UNL A   1      50.302  25.649  30.196  1.00  0.00    -0.237 OA
ATOM     69  O   UNL A   1      50.954  27.117  32.073  1.00  0.00    -0.237 OA
ATOM     70  O   UNL A   1      49.662  25.062  32.506  1.00  0.00    -0.744 OA
ENDBRANCH  66  67
ENDBRANCH  47  61
BRANCH  48  71
ATOM     71  C   UNL A   1      37.148  32.651  29.465  1.00  0.00    -0.014 A 
ATOM     72  C   UNL A   1      36.222  32.723  30.520  1.00  0.00     0.010 A 
ATOM     73  C   UNL A   1      36.811  33.214  28.220  1.00  0.00     0.010 A 
ATOM     74  C   UNL A   1      34.983  33.343  30.335  1.00  0.00     0.020 A 
ATOM     75  C   UNL A   1      35.584  33.859  28.039  1.00  0.00     0.020 A 
ATOM     76  C   UNL A   1      34.676  33.915  29.098  1.00  0.00     0.054 A 
BRANCH  76  77
ATOM     77  S   UNL A   1      33.094  34.784  28.909  1.00  0.00     0.124 S 
ATOM     78  O   UNL A   1      32.570  34.763  30.271  1.00  0.00    -0.237 OA
ATOM     79  O   UNL A   1      33.512  36.092  28.411  1.00  0.00    -0.237 OA
ATOM     80  O   UNL A   1      32.364  33.963  27.944  1.00  0.00    -0.744 OA
ENDBRANCH  76  77
ENDBRANCH  48  71
BRANCH  60  81
ATOM     81  C   UNL A   1      43.121  34.886  32.321  1.00  0.00    -0.014 A 
ATOM     82  C   UNL A   1      43.783  35.863  31.557  1.00  0.00     0.010 A 
ATOM     83  C   UNL A   1      42.772  35.176  33.653  1.00  0.00     0.010 A 
ATOM     84  C   UNL A   1      44.109  37.099  32.125  1.00  0.00     0.020 A 
ATOM     85  C   UNL A   1      43.068  36.420  34.213  1.00  0.00     0.020 A 
ATOM     86  C   UNL A   1      43.744  37.371  33.447  1.00  0.00     0.054 A 
BRANCH  86  87
ATOM     87  S   UNL A   1      44.121  39.006  34.138  1.00  0.00     0.124 S 
ATOM     88  O   UNL A   1      45.255  39.427  33.322  1.00  0.00    -0.237 OA
ATOM     89  O   UNL A   1      42.878  39.740  33.916  1.00  0.00    -0.237 OA
ATOM     90  O   UNL A   1      44.430  38.727  35.539  1.00  0.00    -0.744 OA
ENDBRANCH  86  87
ENDBRANCH  60  81
ENDBRANCH  34  35
ENDBRANCH  26  29
ENDBRANCH  24  25
ENDBRANCH  23  24
ENDBRANCH   1  23
TORSDOF 18
ENDMDL
MODEL 2
REMARK VINA RESULT:      -9.8      2.980      9.213
REMARK SMILES C[C@@H]1SC[C@H](C(=O)NCCCNC(=O)c2ccc(-c3c4nc(c(-c5ccc(S(=O)(=O)[O-])cc5)c5ccc([nH]5)c(-c5ccc(S(=O)(=O)[O-])cc5)c5nc(c(-c6ccc(S(=O)(=O)[O-])cc6)c6ccc3[nH]6)C=C5)C=C4)cc2)N1C(=O)C[NH2+]CC(F)(F)F
REMARK SMILES IDX 9 1 8 2 6 3 7 4 5 6 1 7 2 8 3 9 75 10 4 11 76 12 77 13 78 14
REMARK SMILES IDX 79 15 80 18 81 19 82 20 83 21 84 22 10 23 11 24 12 25 13 26
REMARK SMILES IDX 14 28 15 29 16 30 74 31 17 32 73 33 18 34 19 35 20 36 67 37
REMARK SMILES IDX 21 38 72 39 66 40 68 41 22 42 71 43 65 44 64 45 23 47 53 48
REMARK SMILES IDX 34 49 52 50 35 51 38 52 51 53 69 54 36 55 37 56 50 58 70 59
REMARK SMILES IDX 39 60 24 61 25 62 33 63 26 64 32 65 27 66 28 67 29 68 30 69
REMARK SMILES IDX 31 70 54 71 55 72 63 73 56 74 62 75 57 76 58 77 59 78 60 79
REMARK SMILES IDX 61 80 40 81 41 82 49 83 42 84 48 85 43 86 44 87 45 88 46 89
REMARK SMILES IDX 47 90
REMARK H PARENT 8 5 79 16 79 17 12 27 68 46 38 57
REMARK Flexibility Score: inf
ROOT
ATOM      1  C   UNL A   1      31.597  27.969  26.801  1.00  0.00     0.117 C 
ENDROOT
BRANCH   1   2
ATOM      2  N   UNL A   1      30.893  26.732  26.522  1.00  0.00    -0.354 N 
ATOM      3  C   UNL A   1      31.082  25.809  25.539  1.00  0.00     0.243 C 
ATOM      4  O   UNL A   1      30.171  24.994  25.355  1.00  0.00    -0.273 OA
ATOM      5  H   UNL A   1      30.159  26.527  27.145  1.00  0.00     0.163 HD
BRANCH   3   6
ATOM      6  C   UNL A   1      32.270  25.880  24.563  1.00  0.00     0.185 C 
ATOM      7  C   UNL A   1      32.567  25.684  20.833  1.00  0.00     0.043 C 
ATOM      8  C   UNL A   1      33.036  26.016  22.244  1.00  0.00     0.141 C 
ATOM      9  S   UNL A   1      33.829  24.515  22.927  1.00  0.00    -0.135 SA
ATOM     10  N   UNL A   1      32.029  26.439  23.221  1.00  0.00    -0.313 N 
ATOM     11  C   UNL A   1      32.811  24.465  24.412  1.00  0.00     0.107 C 
BRANCH  10  12
ATOM     12  C   UNL A   1      31.394  27.677  23.179  1.00  0.00     0.279 C 
ATOM     13  O   UNL A   1      31.992  28.727  23.428  1.00  0.00    -0.268 OA
BRANCH  12  14
ATOM     14  C   UNL A   1      29.898  27.740  22.870  1.00  0.00     0.362 C 
BRANCH  14  15
ATOM     15  N   UNL A   1      29.582  29.056  22.294  1.00  0.00    -0.331 N 
ATOM     16  H   UNL A   1      29.307  28.934  21.319  1.00  0.00     0.346 HD
ATOM     17  H   UNL A   1      30.411  29.644  22.367  1.00  0.00     0.346 HD
BRANCH  15  18
ATOM     18  C   UNL A   1      28.473  29.719  23.028  1.00  0.00     0.378 C 
BRANCH  18  19
ATOM     19  C   UNL A   1      28.511  31.246  23.227  1.00  0.00     0.438 C 
ATOM     20  F   UNL A   1      27.264  31.746  23.372  1.00  0.00    -0.165 F 
ATOM     21  F   UNL A   1      29.214  31.564  24.338  1.00  0.00    -0.165 F 
ATOM     22  F   UNL A   1      29.095  31.869  22.181  1.00  0.00    -0.165 F 
ENDBRANCH  18  19
ENDBRANCH  15  18
ENDBRANCH  14  15
ENDBRANCH  12  14
ENDBRANCH  10  12
ENDBRANCH   3   6
ENDBRANCH   1   2
BRANCH   1  23
ATOM     23  C   UNL A   1      33.064  27.707  27.112  1.00  0.00     0.042 C 
BRANCH  23  24
ATOM     24  C   UNL A   1      34.010  28.740  26.517  1.00  0.00     0.118 C 
BRANCH  24  25
ATOM     25  N   UNL A   1      33.863  30.052  27.133  1.00  0.00    -0.352 N 
ATOM     26  C   UNL A   1      34.693  30.694  28.020  1.00  0.00     0.251 C 
ATOM     27  H   UNL A   1      33.052  30.550  26.878  1.00  0.00     0.163 HD
ATOM     28  O   UNL A   1      34.304  31.707  28.598  1.00  0.00    -0.269 OA
BRANCH  26  29
ATOM     29  C   UNL A   1      36.040  30.151  28.289  1.00  0.00     0.039 A 
ATOM     30  C   UNL A   1      37.023  30.234  27.299  1.00  0.00     0.014 A 
ATOM     31  C   UNL A   1      36.333  29.567  29.523  1.00  0.00     0.014 A 
ATOM     32  C   UNL A   1      38.318  29.790  27.574  1.00  0.00     0.010 A 
ATOM     33  C   UNL A   1      37.642  29.215  29.826  1.00  0.00     0.010 A 
ATOM     34  C   UNL A   1      38.646  29.309  28.851  1.00  0.00    -0.014 A 
BRANCH  34  35
ATOM     35  C   UNL A   1      40.021  28.866  29.195  1.00  0.00     0.031 A 
ATOM     36  C   UNL A   1      40.964  29.823  29.875  1.00  0.00     0.074 A 
ATOM     37  C   UNL A   1      40.450  27.644  28.822  1.00  0.00     0.049 A 
ATOM     38  N   UNL A   1      42.230  29.671  30.165  1.00  0.00    -0.248 NA
ATOM     39  C   UNL A   1      40.417  31.138  30.247  1.00  0.00     0.031 C 
ATOM     40  C   UNL A   1      39.643  26.633  28.136  1.00  0.00     0.029 A 
ATOM     41  N   UNL A   1      41.679  27.047  28.961  1.00  0.00    -0.354 N 
ATOM     42  C   UNL A   1      42.637  30.878  30.721  1.00  0.00     0.074 A 
ATOM     43  C   UNL A   1      41.499  31.768  30.678  1.00  0.00     0.031 C 
ATOM     44  C   UNL A   1      40.387  25.531  27.945  1.00  0.00     0.029 A 
ATOM     45  C   UNL A   1      41.736  25.775  28.445  1.00  0.00     0.049 A 
ATOM     46  H   UNL A   1      42.446  27.490  29.391  1.00  0.00     0.167 HD
ATOM     47  C   UNL A   1      43.844  31.213  31.236  1.00  0.00     0.031 A 
ATOM     48  C   UNL A   1      42.761  24.903  28.376  1.00  0.00     0.031 A 
ATOM     49  C   UNL A   1      44.970  30.318  31.284  1.00  0.00     0.049 A 
ATOM     50  C   UNL A   1      44.101  25.301  28.933  1.00  0.00     0.074 A 
ATOM     51  C   UNL A   1      46.218  30.535  31.839  1.00  0.00     0.029 A 
ATOM     52  N   UNL A   1      44.985  29.037  30.751  1.00  0.00    -0.354 N 
ATOM     53  N   UNL A   1      44.453  26.425  29.509  1.00  0.00    -0.248 NA
ATOM     54  C   UNL A   1      45.179  24.307  28.840  1.00  0.00     0.031 C 
ATOM     55  C   UNL A   1      47.008  29.410  31.586  1.00  0.00     0.029 A 
ATOM     56  C   UNL A   1      46.230  28.462  30.938  1.00  0.00     0.049 A 
ATOM     57  H   UNL A   1      44.223  28.602  30.305  1.00  0.00     0.167 HD
ATOM     58  C   UNL A   1      45.782  26.261  29.883  1.00  0.00     0.074 A 
ATOM     59  C   UNL A   1      46.170  24.927  29.468  1.00  0.00     0.031 C 
ATOM     60  C   UNL A   1      46.602  27.132  30.523  1.00  0.00     0.031 A 
BRANCH  47  61
ATOM     61  C   UNL A   1      44.008  32.617  31.761  1.00  0.00    -0.014 A 
ATOM     62  C   UNL A   1      43.715  32.940  33.099  1.00  0.00     0.010 A 
ATOM     63  C   UNL A   1      44.465  33.631  30.900  1.00  0.00     0.010 A 
ATOM     64  C   UNL A   1      43.807  34.261  33.545  1.00  0.00     0.020 A 
ATOM     65  C   UNL A   1      44.594  34.947  31.352  1.00  0.00     0.020 A 
ATOM     66  C   UNL A   1      44.239  35.258  32.666  1.00  0.00     0.054 A 
BRANCH  66  67
ATOM     67  S   UNL A   1      44.335  36.967  33.267  1.00  0.00     0.124 S 
ATOM     68  O   UNL A   1      43.167  37.042  34.141  1.00  0.00    -0.237 OA
ATOM     69  O   UNL A   1      45.629  36.994  33.945  1.00  0.00    -0.237 OA
ATOM     70  O   UNL A   1      44.255  37.768  32.048  1.00  0.00    -0.744 OA
ENDBRANCH  66  67
ENDBRANCH  47  61
BRANCH  48  71
ATOM     71  C   UNL A   1      42.543  23.552  27.788  1.00  0.00    -0.014 A 
ATOM     72  C   UNL A   1      42.890  23.301  26.450  1.00  0.00     0.010 A 
ATOM     73  C   UNL A   1      42.031  22.502  28.571  1.00  0.00     0.010 A 
ATOM     74  C   UNL A   1      42.725  22.025  25.902  1.00  0.00     0.020 A 
ATOM     75  C   UNL A   1      41.891  21.218  28.036  1.00  0.00     0.020 A 
ATOM     76  C   UNL A   1      42.235  20.989  26.702  1.00  0.00     0.054 A 
BRANCH  76  77
ATOM     77  S   UNL A   1      42.109  19.325  25.990  1.00  0.00     0.124 S 
ATOM     78  O   UNL A   1      42.936  19.442  24.793  1.00  0.00    -0.237 OA
ATOM     79  O   UNL A   1      42.650  18.485  27.056  1.00  0.00    -0.237 OA
ATOM     80  O   UNL A   1      40.675  19.164  25.748  1.00  0.00    -0.744 OA
ENDBRANCH  76  77
ENDBRANCH  48  71
BRANCH  60  81
ATOM     81  C   UNL A   1      47.992  26.661  30.867  1.00  0.00    -0.014 A 
ATOM     82  C   UNL A   1      49.074  26.863  29.994  1.00  0.00     0.010 A 
ATOM     83  C   UNL A   1      48.225  26.078  32.126  1.00  0.00     0.010 A 
ATOM     84  C   UNL A   1      50.363  26.469  30.367  1.00  0.00     0.020 A 
ATOM     85  C   UNL A   1      49.515  25.711  32.513  1.00  0.00     0.020 A 
ATOM     86  C   UNL A   1      50.575  25.900  31.627  1.00  0.00     0.054 A 
BRANCH  86  87
ATOM     87  S   UNL A   1      52.266  25.456  32.111  1.00  0.00     0.124 S 
ATOM     88  O   UNL A   1      52.161  24.011  32.294  1.00  0.00    -0.237 OA
ATOM     89  O   UNL A   1      53.052  25.889  30.958  1.00  0.00    -0.237 OA
ATOM     90  O   UNL A   1      52.490  26.225  33.333  1.00  0.00    -0.744 OA
ENDBRANCH  86  87
ENDBRANCH  60  81
ENDBRANCH  34  35
ENDBRANCH  26  29
ENDBRANCH  24  25
ENDBRANCH  23  24
ENDBRANCH   1  23
TORSDOF 18
ENDMDL
MODEL 3
REMARK VINA RESULT:      -9.6      4.524      5.654
REMARK SMILES C[C@@H]1SC[C@H](C(=O)NCCCNC(=O)c2ccc(-c3c4nc(c(-c5ccc(S(=O)(=O)[O-])cc5)c5ccc([nH]5)c(-c5ccc(S(=O)(=O)[O-])cc5)c5nc(c(-c6ccc(S(=O)(=O)[O-])cc6)c6ccc3[nH]6)C=C5)C=C4)cc2)N1C(=O)C[NH2+]CC(F)(F)F
REMARK SMILES IDX 9 1 8 2 6 3 7 4 5 6 1 7 2 8 3 9 75 10 4 11 76 12 77 13 78 14
REMARK SMILES IDX 79 15 80 18 81 19 82 20 83 21 84 22 10 23 11 24 12 25 13 26
REMARK SMILES IDX 14 28 15 29 16 30 74 31 17 32 73 33 18 34 19 35 20 36 67 37
REMARK SMILES IDX 21 38 72 39 66 40 68 41 22 42 71 43 65 44 64 45 23 47 53 48
REMARK SMILES IDX 34 49 52 50 35 51 38 52 51 53 69 54 36 55 37 56 50 58 70 59
REMARK SMILES IDX 39 60 24 61 25 62 33 63 26 64 32 65 27 66 28 67 29 68 30 69
REMARK SMILES IDX 31 70 54 71 55 72 63 73 56 74 62 75 57 76 58 77 59 78 60 79
REMARK SMILES IDX 61 80 40 81 41 82 49 83 42 84 48 85 43 86 44 87 45 88 46 89
REMARK SMILES IDX 47 90
REMARK H PARENT 8 5 79 16 79 17 12 27 68 46 38 57
REMARK Flexibility Score: inf
ROOT
ATOM      1  C   UNL A   1      36.353  22.412  25.507  1.00  0.00     0.117 C 
ENDROOT
BRANCH   1   2
ATOM      2  N   UNL A   1      35.550  22.246  26.703  1.00  0.00    -0.354 N 
ATOM      3  C   UNL A   1      34.311  22.720  27.010  1.00  0.00     0.243 C 
ATOM      4  O   UNL A   1      33.972  22.672  28.197  1.00  0.00    -0.273 OA
ATOM      5  H   UNL A   1      35.970  21.702  27.408  1.00  0.00     0.163 HD
BRANCH   3   6
ATOM      6  C   UNL A   1      33.438  23.462  25.982  1.00  0.00     0.185 C 
ATOM      7  C   UNL A   1      33.207  23.374  22.243  1.00  0.00     0.043 C 
ATOM      8  C   UNL A   1      32.721  23.683  23.654  1.00  0.00     0.141 C 
ATOM      9  S   UNL A   1      33.381  25.327  24.114  1.00  0.00    -0.135 SA
ATOM     10  N   UNL A   1      33.102  22.763  24.728  1.00  0.00    -0.313 N 
ATOM     11  C   UNL A   1      34.155  24.760  25.639  1.00  0.00     0.107 C 
BRANCH  10  12
ATOM     12  C   UNL A   1      32.571  21.483  24.865  1.00  0.00     0.279 C 
ATOM     13  O   UNL A   1      31.583  21.257  25.569  1.00  0.00    -0.268 OA
BRANCH  12  14
ATOM     14  C   UNL A   1      33.261  20.310  24.168  1.00  0.00     0.362 C 
BRANCH  14  15
ATOM     15  N   UNL A   1      33.680  19.330  25.182  1.00  0.00    -0.331 N 
ATOM     16  H   UNL A   1      33.183  19.520  26.053  1.00  0.00     0.346 HD
ATOM     17  H   UNL A   1      34.688  19.416  25.313  1.00  0.00     0.346 HD
BRANCH  15  18
ATOM     18  C   UNL A   1      33.383  17.940  24.751  1.00  0.00     0.378 C 
BRANCH  18  19
ATOM     19  C   UNL A   1      34.545  16.944  24.572  1.00  0.00     0.438 C 
ATOM     20  F   UNL A   1      34.585  16.059  25.593  1.00  0.00    -0.165 F 
ATOM     21  F   UNL A   1      34.398  16.242  23.425  1.00  0.00    -0.165 F 
ATOM     22  F   UNL A   1      35.737  17.575  24.515  1.00  0.00    -0.165 F 
ENDBRANCH  18  19
ENDBRANCH  15  18
ENDBRANCH  14  15
ENDBRANCH  12  14
ENDBRANCH  10  12
ENDBRANCH   3   6
ENDBRANCH   1   2
BRANCH   1  23
ATOM     23  C   UNL A   1      37.046  23.767  25.494  1.00  0.00     0.042 C 
BRANCH  23  24
ATOM     24  C   UNL A   1      38.013  23.972  26.652  1.00  0.00     0.118 C 
BRANCH  24  25
ATOM     25  N   UNL A   1      39.406  23.863  26.241  1.00  0.00    -0.352 N 
ATOM     26  C   UNL A   1      40.463  24.695  26.521  1.00  0.00     0.251 C 
ATOM     27  H   UNL A   1      39.622  23.081  25.682  1.00  0.00     0.163 HD
ATOM     28  O   UNL A   1      41.524  24.562  25.916  1.00  0.00    -0.269 OA
BRANCH  26  29
ATOM     29  C   UNL A   1      40.310  25.759  27.535  1.00  0.00     0.039 A 
ATOM     30  C   UNL A   1      39.488  25.537  28.643  1.00  0.00     0.014 A 
ATOM     31  C   UNL A   1      40.986  26.973  27.394  1.00  0.00     0.014 A 
ATOM     32  C   UNL A   1      39.398  26.510  29.642  1.00  0.00     0.010 A 
ATOM     33  C   UNL A   1      40.972  27.896  28.431  1.00  0.00     0.010 A 
ATOM     34  C   UNL A   1      40.166  27.682  29.560  1.00  0.00    -0.014 A 
BRANCH  34  35
ATOM     35  C   UNL A   1      40.130  28.721  30.620  1.00  0.00     0.031 A 
ATOM     36  C   UNL A   1      41.056  28.611  31.802  1.00  0.00     0.074 A 
ATOM     37  C   UNL A   1      39.215  29.708  30.568  1.00  0.00     0.049 A 
ATOM     38  N   UNL A   1      41.112  29.349  32.881  1.00  0.00    -0.248 NA
ATOM     39  C   UNL A   1      42.025  27.502  31.784  1.00  0.00     0.031 C 
ATOM     40  C   UNL A   1      38.245  29.911  29.488  1.00  0.00     0.029 A 
ATOM     41  N   UNL A   1      38.945  30.724  31.450  1.00  0.00    -0.354 N 
ATOM     42  C   UNL A   1      42.094  28.775  33.680  1.00  0.00     0.074 A 
ATOM     43  C   UNL A   1      42.570  27.599  32.986  1.00  0.00     0.031 C 
ATOM     44  C   UNL A   1      37.511  31.003  29.757  1.00  0.00     0.029 A 
ATOM     45  C   UNL A   1      37.919  31.546  31.049  1.00  0.00     0.049 A 
ATOM     46  H   UNL A   1      39.439  30.851  32.292  1.00  0.00     0.167 HD
ATOM     47  C   UNL A   1      42.570  29.197  34.875  1.00  0.00     0.031 A 
ATOM     48  C   UNL A   1      37.363  32.614  31.655  1.00  0.00     0.031 A 
ATOM     49  C   UNL A   1      42.099  30.374  35.555  1.00  0.00     0.049 A 
ATOM     50  C   UNL A   1      37.891  33.054  32.993  1.00  0.00     0.074 A 
ATOM     51  C   UNL A   1      42.555  30.924  36.739  1.00  0.00     0.029 A 
ATOM     52  N   UNL A   1      41.059  31.179  35.113  1.00  0.00    -0.354 N 
ATOM     53  N   UNL A   1      38.861  32.535  33.707  1.00  0.00    -0.248 NA
ATOM     54  C   UNL A   1      37.256  34.231  33.602  1.00  0.00     0.031 C 
ATOM     55  C   UNL A   1      41.749  32.025  37.046  1.00  0.00     0.029 A 
ATOM     56  C   UNL A   1      40.840  32.205  36.016  1.00  0.00     0.049 A 
ATOM     57  H   UNL A   1      40.552  31.040  34.280  1.00  0.00     0.167 HD
ATOM     58  C   UNL A   1      38.979  33.345  34.832  1.00  0.00     0.074 A 
ATOM     59  C   UNL A   1      37.982  34.388  34.701  1.00  0.00     0.031 C 
ATOM     60  C   UNL A   1      39.844  33.239  35.871  1.00  0.00     0.031 A 
BRANCH  47  61
ATOM     61  C   UNL A   1      43.638  28.357  35.531  1.00  0.00    -0.014 A 
ATOM     62  C   UNL A   1      44.997  28.500  35.192  1.00  0.00     0.010 A 
ATOM     63  C   UNL A   1      43.275  27.408  36.503  1.00  0.00     0.010 A 
ATOM     64  C   UNL A   1      45.960  27.663  35.761  1.00  0.00     0.020 A 
ATOM     65  C   UNL A   1      44.241  26.595  37.102  1.00  0.00     0.020 A 
ATOM     66  C   UNL A   1      45.575  26.710  36.707  1.00  0.00     0.054 A 
BRANCH  66  67
ATOM     67  S   UNL A   1      46.844  25.627  37.418  1.00  0.00     0.124 S 
ATOM     68  O   UNL A   1      47.789  26.595  37.970  1.00  0.00    -0.237 OA
ATOM     69  O   UNL A   1      46.090  24.855  38.402  1.00  0.00    -0.237 OA
ATOM     70  O   UNL A   1      47.332  24.864  36.272  1.00  0.00    -0.744 OA
ENDBRANCH  66  67
ENDBRANCH  47  61
BRANCH  48  71
ATOM     71  C   UNL A   1      36.269  33.362  30.976  1.00  0.00    -0.014 A 
ATOM     72  C   UNL A   1      35.070  33.630  31.657  1.00  0.00     0.010 A 
ATOM     73  C   UNL A   1      36.435  33.846  29.665  1.00  0.00     0.010 A 
ATOM     74  C   UNL A   1      34.053  34.366  31.040  1.00  0.00     0.020 A 
ATOM     75  C   UNL A   1      35.432  34.606  29.056  1.00  0.00     0.020 A 
ATOM     76  C   UNL A   1      34.246  34.857  29.746  1.00  0.00     0.054 A 
BRANCH  76  77
ATOM     77  S   UNL A   1      32.943  35.878  29.001  1.00  0.00     0.124 S 
ATOM     78  O   UNL A   1      32.324  34.945  28.065  1.00  0.00    -0.237 OA
ATOM     79  O   UNL A   1      32.133  36.247  30.158  1.00  0.00    -0.237 OA
ATOM     80  O   UNL A   1      33.681  36.983  28.389  1.00  0.00    -0.744 OA
ENDBRANCH  76  77
ENDBRANCH  48  71
BRANCH  60  81
ATOM     81  C   UNL A   1      39.795  34.306  36.934  1.00  0.00    -0.014 A 
ATOM     82  C   UNL A   1      40.547  35.488  36.827  1.00  0.00     0.010 A 
ATOM     83  C   UNL A   1      38.914  34.150  38.021  1.00  0.00     0.010 A 
ATOM     84  C   UNL A   1      40.435  36.486  37.800  1.00  0.00     0.020 A 
ATOM     85  C   UNL A   1      38.777  35.157  38.978  1.00  0.00     0.020 A 
ATOM     86  C   UNL A   1      39.546  36.315  38.867  1.00  0.00     0.054 A 
BRANCH  86  87
ATOM     87  S   UNL A   1      39.373  37.652  40.081  1.00  0.00     0.124 S 
ATOM     88  O   UNL A   1      38.221  38.385  39.563  1.00  0.00    -0.237 OA
ATOM     89  O   UNL A   1      39.147  36.923  41.327  1.00  0.00    -0.237 OA
ATOM     90  O   UNL A   1      40.649  38.359  40.003  1.00  0.00    -0.744 OA
ENDBRANCH  86  87
ENDBRANCH  60  81
ENDBRANCH  34  35
ENDBRANCH  26  29
ENDBRANCH  24  25
ENDBRANCH  23  24
ENDBRANCH   1  23
TORSDOF 18
ENDMDL
