MODEL 1
REMARK VINA RESULT:     -10.6      0.000      0.000
REMARK SMILES CC(C)[C@H](NC(=O)CCNC(=O)c1ccoc1)C(=O)NCCCNC(=O)c1ccc(-c2c3nc(c(-c4ccc(S(=O)(=O)[O-])cc4)c4ccc([nH]4)c(-c4ccc(S(=O)(=O)[O-])cc4)c4nc(c(-c5ccc(S(=O)(=O)[O-])cc5)c5ccc2[nH]5)C=C4)C=C3)cc1
REMARK SMILES IDX 21 1 20 2 18 3 19 4 4 6 2 7 1 8 3 9 5 10 6 11 7 13 8 14 9 15
REMARK SMILES IDX 10 16 11 17 12 19 13 20 14 21 17 22 15 23 16 24 22 25 23 26
REMARK SMILES IDX 24 27 25 28 26 30 27 31 28 32 86 33 29 34 85 35 30 36 31 37
REMARK SMILES IDX 32 38 79 39 33 40 84 41 78 42 80 43 34 44 83 45 77 46 76 47
REMARK SMILES IDX 35 49 65 50 46 51 64 52 47 53 50 54 63 55 81 56 48 57 49 58
REMARK SMILES IDX 62 60 82 61 51 62 36 63 37 64 45 65 38 66 44 67 39 68 40 69
REMARK SMILES IDX 41 70 42 71 43 72 66 73 67 74 75 75 68 76 74 77 69 78 70 79
REMARK SMILES IDX 71 80 72 81 73 82 52 83 53 84 61 85 54 86 60 87 55 88 56 89
REMARK SMILES IDX 57 90 58 91 59 92
REMARK H PARENT 20 5 5 12 10 18 24 29 80 48 50 59
REMARK Flexibility Score: inf
ROOT
ATOM      1  C   UNL A   1      32.288  27.094  25.562  1.00  0.00     0.117 C 
ENDROOT
BRANCH   1   2
ATOM      2  N   UNL A   1      33.162  26.532  24.556  1.00  0.00    -0.354 N 
ATOM      3  C   UNL A   1      33.730  25.298  24.419  1.00  0.00     0.242 C 
ATOM      4  O   UNL A   1      34.161  25.029  23.290  1.00  0.00    -0.273 OA
ATOM      5  H   UNL A   1      33.389  27.157  23.831  1.00  0.00     0.163 HD
BRANCH   3   6
ATOM      6  C   UNL A   1      33.837  24.222  25.560  1.00  0.00     0.173 C 
BRANCH   6   7
ATOM      7  C   UNL A   1      35.105  23.329  25.584  1.00  0.00     0.015 C 
ATOM      8  C   UNL A   1      36.444  24.051  25.731  1.00  0.00     0.010 C 
ATOM      9  C   UNL A   1      34.989  22.246  26.668  1.00  0.00     0.010 C 
ENDBRANCH   6   7
BRANCH   6  10
ATOM     10  N   UNL A   1      32.568  23.533  25.873  1.00  0.00    -0.344 N 
ATOM     11  C   UNL A   1      31.732  22.648  25.272  1.00  0.00     0.222 C 
ATOM     12  H   UNL A   1      32.237  23.784  26.766  1.00  0.00     0.164 HD
ATOM     13  O   UNL A   1      30.629  22.500  25.807  1.00  0.00    -0.275 OA
BRANCH  11  14
ATOM     14  C   UNL A   1      32.062  21.858  24.020  1.00  0.00     0.121 C 
BRANCH  14  15
ATOM     15  C   UNL A   1      32.460  20.390  24.216  1.00  0.00     0.126 C 
BRANCH  15  16
ATOM     16  N   UNL A   1      32.241  19.552  23.046  1.00  0.00    -0.351 N 
ATOM     17  C   UNL A   1      32.430  18.231  22.771  1.00  0.00     0.254 C 
ATOM     18  H   UNL A   1      31.875  20.053  22.281  1.00  0.00     0.163 HD
ATOM     19  O   UNL A   1      32.136  17.834  21.647  1.00  0.00    -0.269 OA
BRANCH  17  20
ATOM     20  C   UNL A   1      33.028  17.372  23.750  1.00  0.00     0.077 A 
ATOM     21  C   UNL A   1      32.665  17.080  25.089  1.00  0.00     0.056 A 
ATOM     22  C   UNL A   1      34.108  16.560  23.469  1.00  0.00     0.208 A 
ATOM     23  C   UNL A   1      33.564  16.137  25.532  1.00  0.00     0.195 A 
ATOM     24  O   UNL A   1      34.453  15.825  24.554  1.00  0.00    -0.472 OA
ENDBRANCH  17  20
ENDBRANCH  15  16
ENDBRANCH  14  15
ENDBRANCH  11  14
ENDBRANCH   6  10
ENDBRANCH   3   6
ENDBRANCH   1   2
BRANCH   1  25
ATOM     25  C   UNL A   1      32.941  27.950  26.623  1.00  0.00     0.042 C 
BRANCH  25  26
ATOM     26  C   UNL A   1      33.761  29.092  26.040  1.00  0.00     0.118 C 
BRANCH  26  27
ATOM     27  N   UNL A   1      33.746  30.314  26.852  1.00  0.00    -0.352 N 
ATOM     28  C   UNL A   1      34.627  30.802  27.790  1.00  0.00     0.251 C 
ATOM     29  H   UNL A   1      32.963  30.890  26.698  1.00  0.00     0.163 HD
ATOM     30  O   UNL A   1      34.323  31.797  28.443  1.00  0.00    -0.269 OA
BRANCH  28  31
ATOM     31  C   UNL A   1      35.912  30.115  28.038  1.00  0.00     0.039 A 
ATOM     32  C   UNL A   1      36.931  30.189  27.084  1.00  0.00     0.014 A 
ATOM     33  C   UNL A   1      36.126  29.429  29.229  1.00  0.00     0.014 A 
ATOM     34  C   UNL A   1      38.198  29.684  27.389  1.00  0.00     0.010 A 
ATOM     35  C   UNL A   1      37.413  29.062  29.587  1.00  0.00     0.010 A 
ATOM     36  C   UNL A   1      38.468  29.182  28.672  1.00  0.00    -0.014 A 
BRANCH  36  37
ATOM     37  C   UNL A   1      39.832  28.776  29.099  1.00  0.00     0.031 A 
ATOM     38  C   UNL A   1      40.732  29.776  29.780  1.00  0.00     0.074 A 
ATOM     39  C   UNL A   1      40.303  27.557  28.765  1.00  0.00     0.049 A 
ATOM     40  N   UNL A   1      41.999  29.672  30.085  1.00  0.00    -0.248 NA
ATOM     41  C   UNL A   1      40.143  31.086  30.113  1.00  0.00     0.031 C 
ATOM     42  C   UNL A   1      39.560  26.524  28.037  1.00  0.00     0.029 A 
ATOM     43  N   UNL A   1      41.532  26.984  28.980  1.00  0.00    -0.354 N 
ATOM     44  C   UNL A   1      42.367  30.913  30.594  1.00  0.00     0.074 A 
ATOM     45  C   UNL A   1      41.207  31.769  30.507  1.00  0.00     0.031 C 
ATOM     46  C   UNL A   1      40.335  25.435  27.898  1.00  0.00     0.029 A 
ATOM     47  C   UNL A   1      41.644  25.707  28.481  1.00  0.00     0.049 A 
ATOM     48  H   UNL A   1      42.266  27.444  29.449  1.00  0.00     0.167 HD
ATOM     49  C   UNL A   1      43.556  31.297  31.113  1.00  0.00     0.031 A 
ATOM     50  C   UNL A   1      42.685  24.853  28.482  1.00  0.00     0.031 A 
ATOM     51  C   UNL A   1      44.687  30.422  31.255  1.00  0.00     0.049 A 
ATOM     52  C   UNL A   1      43.977  25.281  29.122  1.00  0.00     0.074 A 
ATOM     53  C   UNL A   1      45.904  30.681  31.859  1.00  0.00     0.029 A 
ATOM     54  N   UNL A   1      44.735  29.115  30.797  1.00  0.00    -0.354 N 
ATOM     55  N   UNL A   1      44.279  26.434  29.673  1.00  0.00    -0.248 NA
ATOM     56  C   UNL A   1      45.062  24.292  29.154  1.00  0.00     0.031 C 
ATOM     57  C   UNL A   1      46.704  29.541  31.730  1.00  0.00     0.029 A 
ATOM     58  C   UNL A   1      45.966  28.558  31.090  1.00  0.00     0.049 A 
ATOM     59  H   UNL A   1      44.002  28.651  30.331  1.00  0.00     0.167 HD
ATOM     60  C   UNL A   1      45.582  26.299  30.138  1.00  0.00     0.074 A 
ATOM     61  C   UNL A   1      46.002  24.949  29.821  1.00  0.00     0.031 C 
ATOM     62  C   UNL A   1      46.361  27.210  30.771  1.00  0.00     0.031 A 
BRANCH  49  63
ATOM     63  C   UNL A   1      43.687  32.723  31.580  1.00  0.00    -0.014 A 
ATOM     64  C   UNL A   1      44.218  33.720  30.740  1.00  0.00     0.010 A 
ATOM     65  C   UNL A   1      43.239  33.081  32.864  1.00  0.00     0.010 A 
ATOM     66  C   UNL A   1      44.341  35.036  31.191  1.00  0.00     0.020 A 
ATOM     67  C   UNL A   1      43.331  34.403  33.309  1.00  0.00     0.020 A 
ATOM     68  C   UNL A   1      43.897  35.369  32.475  1.00  0.00     0.054 A 
BRANCH  68  69
ATOM     69  S   UNL A   1      44.041  37.091  33.023  1.00  0.00     0.124 S 
ATOM     70  O   UNL A   1      43.949  37.818  31.758  1.00  0.00    -0.237 OA
ATOM     71  O   UNL A   1      42.895  37.241  33.916  1.00  0.00    -0.237 OA
ATOM     72  O   UNL A   1      45.347  37.140  33.676  1.00  0.00    -0.744 OA
ENDBRANCH  68  69
ENDBRANCH  49  63
BRANCH  50  73
ATOM     73  C   UNL A   1      42.541  23.498  27.881  1.00  0.00    -0.014 A 
ATOM     74  C   UNL A   1      42.929  23.266  26.550  1.00  0.00     0.010 A 
ATOM     75  C   UNL A   1      42.028  22.429  28.638  1.00  0.00     0.010 A 
ATOM     76  C   UNL A   1      42.784  21.998  25.979  1.00  0.00     0.020 A 
ATOM     77  C   UNL A   1      41.906  21.153  28.080  1.00  0.00     0.020 A 
ATOM     78  C   UNL A   1      42.273  20.949  26.748  1.00  0.00     0.054 A 
BRANCH  78  79
ATOM     79  S   UNL A   1      42.134  19.301  26.000  1.00  0.00     0.124 S 
ATOM     80  O   UNL A   1      42.656  18.443  27.057  1.00  0.00    -0.237 OA
ATOM     81  O   UNL A   1      40.699  19.190  25.743  1.00  0.00    -0.237 OA
ATOM     82  O   UNL A   1      42.966  19.398  24.802  1.00  0.00    -0.744 OA
ENDBRANCH  78  79
ENDBRANCH  50  73
BRANCH  62  83
ATOM     83  C   UNL A   1      47.734  26.770  31.196  1.00  0.00    -0.014 A 
ATOM     84  C   UNL A   1      47.966  26.245  32.479  1.00  0.00     0.010 A 
ATOM     85  C   UNL A   1      48.794  26.825  30.273  1.00  0.00     0.010 A 
ATOM     86  C   UNL A   1      49.242  25.807  32.841  1.00  0.00     0.020 A 
ATOM     87  C   UNL A   1      50.066  26.364  30.621  1.00  0.00     0.020 A 
ATOM     88  C   UNL A   1      50.284  25.870  31.910  1.00  0.00     0.054 A 
BRANCH  88  89
ATOM     89  S   UNL A   1      51.919  25.250  32.387  1.00  0.00     0.124 S 
ATOM     90  O   UNL A   1      52.789  25.919  31.424  1.00  0.00    -0.237 OA
ATOM     91  O   UNL A   1      52.044  25.703  33.770  1.00  0.00    -0.237 OA
ATOM     92  O   UNL A   1      51.802  23.802  32.220  1.00  0.00    -0.744 OA
ENDBRANCH  88  89
ENDBRANCH  62  83
ENDBRANCH  36  37
ENDBRANCH  28  31
ENDBRANCH  26  27
ENDBRANCH  25  26
ENDBRANCH   1  25
TORSDOF 19
ENDMDL
MODEL 2
REMARK VINA RESULT:     -10.6      1.550      2.388
REMARK SMILES CC(C)[C@H](NC(=O)CCNC(=O)c1ccoc1)C(=O)NCCCNC(=O)c1ccc(-c2c3nc(c(-c4ccc(S(=O)(=O)[O-])cc4)c4ccc([nH]4)c(-c4ccc(S(=O)(=O)[O-])cc4)c4nc(c(-c5ccc(S(=O)(=O)[O-])cc5)c5ccc2[nH]5)C=C4)C=C3)cc1
REMARK SMILES IDX 21 1 20 2 18 3 19 4 4 6 2 7 1 8 3 9 5 10 6 11 7 13 8 14 9 15
REMARK SMILES IDX 10 16 11 17 12 19 13 20 14 21 17 22 15 23 16 24 22 25 23 26
REMARK SMILES IDX 24 27 25 28 26 30 27 31 28 32 86 33 29 34 85 35 30 36 31 37
REMARK SMILES IDX 32 38 79 39 33 40 84 41 78 42 80 43 34 44 83 45 77 46 76 47
REMARK SMILES IDX 35 49 65 50 46 51 64 52 47 53 50 54 63 55 81 56 48 57 49 58
REMARK SMILES IDX 62 60 82 61 51 62 36 63 37 64 45 65 38 66 44 67 39 68 40 69
REMARK SMILES IDX 41 70 42 71 43 72 66 73 67 74 75 75 68 76 74 77 69 78 70 79
REMARK SMILES IDX 71 80 72 81 73 82 52 83 53 84 61 85 54 86 60 87 55 88 56 89
REMARK SMILES IDX 57 90 58 91 59 92
REMARK H PARENT 20 5 5 12 10 18 24 29 80 48 50 59
REMARK Flexibility Score: inf
ROOT
ATOM      1  C   UNL A   1      31.597  29.430  25.297  1.00  0.00     0.117 C 
ENDROOT
BRANCH   1   2
ATOM      2  N   UNL A   1      30.889  28.472  24.476  1.00  0.00    -0.354 N 
ATOM      3  C   UNL A   1      30.746  27.117  24.562  1.00  0.00     0.242 C 
ATOM      4  O   UNL A   1      29.819  26.633  23.899  1.00  0.00    -0.273 OA
ATOM      5  H   UNL A   1      30.420  28.874  23.709  1.00  0.00     0.163 HD
BRANCH   3   6
ATOM      6  C   UNL A   1      31.635  26.171  25.447  1.00  0.00     0.173 C 
BRANCH   6   7
ATOM      7  C   UNL A   1      32.859  25.500  24.770  1.00  0.00     0.015 C 
ATOM      8  C   UNL A   1      33.280  26.062  23.413  1.00  0.00     0.010 C 
ATOM      9  C   UNL A   1      34.070  25.494  25.716  1.00  0.00     0.010 C 
ENDBRANCH   6   7
BRANCH   6  10
ATOM     10  N   UNL A   1      30.876  25.313  26.381  1.00  0.00    -0.344 N 
ATOM     11  C   UNL A   1      30.605  23.991  26.534  1.00  0.00     0.222 C 
ATOM     12  H   UNL A   1      30.447  25.847  27.088  1.00  0.00     0.164 HD
ATOM     13  O   UNL A   1      29.715  23.714  27.343  1.00  0.00    -0.275 OA
BRANCH  11  14
ATOM     14  C   UNL A   1      31.310  22.871  25.791  1.00  0.00     0.121 C 
BRANCH  14  15
ATOM     15  C   UNL A   1      32.521  22.237  26.486  1.00  0.00     0.126 C 
BRANCH  15  16
ATOM     16  N   UNL A   1      32.948  20.974  25.904  1.00  0.00    -0.351 N 
ATOM     17  C   UNL A   1      33.910  20.614  25.009  1.00  0.00     0.254 C 
ATOM     18  H   UNL A   1      32.423  20.207  26.229  1.00  0.00     0.163 HD
ATOM     19  O   UNL A   1      34.007  19.425  24.721  1.00  0.00    -0.269 OA
BRANCH  17  20
ATOM     20  C   UNL A   1      34.716  21.617  24.376  1.00  0.00     0.077 A 
ATOM     21  C   UNL A   1      36.084  21.957  24.532  1.00  0.00     0.056 A 
ATOM     22  C   UNL A   1      34.243  22.423  23.361  1.00  0.00     0.208 A 
ATOM     23  C   UNL A   1      36.334  22.960  23.624  1.00  0.00     0.195 A 
ATOM     24  O   UNL A   1      35.214  23.257  22.917  1.00  0.00    -0.472 OA
ENDBRANCH  17  20
ENDBRANCH  15  16
ENDBRANCH  14  15
ENDBRANCH  11  14
ENDBRANCH   6  10
ENDBRANCH   3   6
ENDBRANCH   1   2
BRANCH   1  25
ATOM     25  C   UNL A   1      33.080  29.200  25.477  1.00  0.00     0.042 C 
BRANCH  25  26
ATOM     26  C   UNL A   1      33.484  29.065  26.938  1.00  0.00     0.118 C 
BRANCH  26  27
ATOM     27  N   UNL A   1      33.550  30.340  27.661  1.00  0.00    -0.352 N 
ATOM     28  C   UNL A   1      34.535  30.902  28.441  1.00  0.00     0.251 C 
ATOM     29  H   UNL A   1      32.742  30.895  27.572  1.00  0.00     0.163 HD
ATOM     30  O   UNL A   1      34.298  31.937  29.058  1.00  0.00    -0.269 OA
BRANCH  28  31
ATOM     31  C   UNL A   1      35.854  30.249  28.564  1.00  0.00     0.039 A 
ATOM     32  C   UNL A   1      36.733  30.253  27.478  1.00  0.00     0.014 A 
ATOM     33  C   UNL A   1      36.242  29.665  29.767  1.00  0.00     0.014 A 
ATOM     34  C   UNL A   1      38.040  29.785  27.646  1.00  0.00     0.010 A 
ATOM     35  C   UNL A   1      37.572  29.339  29.974  1.00  0.00     0.010 A 
ATOM     36  C   UNL A   1      38.491  29.393  28.916  1.00  0.00    -0.014 A 
BRANCH  36  37
ATOM     37  C   UNL A   1      39.907  29.035  29.184  1.00  0.00     0.031 A 
ATOM     38  C   UNL A   1      40.853  30.076  29.729  1.00  0.00     0.074 A 
ATOM     39  C   UNL A   1      40.372  27.821  28.822  1.00  0.00     0.049 A 
ATOM     40  N   UNL A   1      42.150  30.014  29.881  1.00  0.00    -0.248 NA
ATOM     41  C   UNL A   1      40.269  31.378  30.101  1.00  0.00     0.031 C 
ATOM     42  C   UNL A   1      39.578  26.750  28.212  1.00  0.00     0.029 A 
ATOM     43  N   UNL A   1      41.634  27.287  28.899  1.00  0.00    -0.354 N 
ATOM     44  C   UNL A   1      42.539  31.277  30.314  1.00  0.00     0.074 A 
ATOM     45  C   UNL A   1      41.352  32.099  30.349  1.00  0.00     0.031 C 
ATOM     46  C   UNL A   1      40.363  25.680  28.004  1.00  0.00     0.029 A 
ATOM     47  C   UNL A   1      41.724  26.001  28.418  1.00  0.00     0.049 A 
ATOM     48  H   UNL A   1      42.405  27.779  29.266  1.00  0.00     0.167 HD
ATOM     49  C   UNL A   1      43.770  31.707  30.677  1.00  0.00     0.031 A 
ATOM     50  C   UNL A   1      42.782  25.176  28.312  1.00  0.00     0.031 A 
ATOM     51  C   UNL A   1      44.936  30.867  30.699  1.00  0.00     0.049 A 
ATOM     52  C   UNL A   1      44.128  25.655  28.781  1.00  0.00     0.074 A 
ATOM     53  C   UNL A   1      46.208  31.173  31.145  1.00  0.00     0.029 A 
ATOM     54  N   UNL A   1      44.967  29.549  30.268  1.00  0.00    -0.354 N 
ATOM     55  N   UNL A   1      44.459  26.829  29.266  1.00  0.00    -0.248 NA
ATOM     56  C   UNL A   1      45.239  24.697  28.703  1.00  0.00     0.031 C 
ATOM     57  C   UNL A   1      47.021  30.053  30.946  1.00  0.00     0.029 A 
ATOM     58  C   UNL A   1      46.241  29.034  30.422  1.00  0.00     0.049 A 
ATOM     59  H   UNL A   1      44.197  29.055  29.905  1.00  0.00     0.167 HD
ATOM     60  C   UNL A   1      45.813  26.742  29.573  1.00  0.00     0.074 A 
ATOM     61  C   UNL A   1      46.232  25.396  29.237  1.00  0.00     0.031 C 
ATOM     62  C   UNL A   1      46.635  27.689  30.087  1.00  0.00     0.031 A 
BRANCH  49  63
ATOM     63  C   UNL A   1      43.914  33.147  31.092  1.00  0.00    -0.014 A 
ATOM     64  C   UNL A   1      43.874  34.187  30.146  1.00  0.00     0.010 A 
ATOM     65  C   UNL A   1      44.054  33.469  32.454  1.00  0.00     0.010 A 
ATOM     66  C   UNL A   1      44.017  35.517  30.547  1.00  0.00     0.020 A 
ATOM     67  C   UNL A   1      44.166  34.801  32.864  1.00  0.00     0.020 A 
ATOM     68  C   UNL A   1      44.164  35.816  31.905  1.00  0.00     0.054 A 
BRANCH  68  69
ATOM     69  S   UNL A   1      44.318  37.553  32.400  1.00  0.00     0.124 S 
ATOM     70  O   UNL A   1      45.701  37.611  32.869  1.00  0.00    -0.237 OA
ATOM     71  O   UNL A   1      44.049  38.267  31.153  1.00  0.00    -0.237 OA
ATOM     72  O   UNL A   1      43.301  37.710  33.436  1.00  0.00    -0.744 OA
ENDBRANCH  68  69
ENDBRANCH  49  63
BRANCH  50  73
ATOM     73  C   UNL A   1      42.608  23.803  27.763  1.00  0.00    -0.014 A 
ATOM     74  C   UNL A   1      42.452  22.705  28.628  1.00  0.00     0.010 A 
ATOM     75  C   UNL A   1      42.584  23.586  26.373  1.00  0.00     0.010 A 
ATOM     76  C   UNL A   1      42.300  21.414  28.115  1.00  0.00     0.020 A 
ATOM     77  C   UNL A   1      42.405  22.299  25.855  1.00  0.00     0.020 A 
ATOM     78  C   UNL A   1      42.278  21.219  26.731  1.00  0.00     0.054 A 
BRANCH  78  79
ATOM     79  S   UNL A   1      42.036  19.539  26.087  1.00  0.00     0.124 S 
ATOM     80  O   UNL A   1      42.409  18.718  27.233  1.00  0.00    -0.237 OA
ATOM     81  O   UNL A   1      40.616  19.535  25.740  1.00  0.00    -0.237 OA
ATOM     82  O   UNL A   1      42.947  19.476  24.946  1.00  0.00    -0.744 OA
ENDBRANCH  78  79
ENDBRANCH  50  73
BRANCH  62  83
ATOM     83  C   UNL A   1      48.062  27.297  30.352  1.00  0.00    -0.014 A 
ATOM     84  C   UNL A   1      49.094  27.671  29.476  1.00  0.00     0.010 A 
ATOM     85  C   UNL A   1      48.378  26.598  31.531  1.00  0.00     0.010 A 
ATOM     86  C   UNL A   1      50.418  27.329  29.760  1.00  0.00     0.020 A 
ATOM     87  C   UNL A   1      49.703  26.277  31.833  1.00  0.00     0.020 A 
ATOM     88  C   UNL A   1      50.714  26.633  30.938  1.00  0.00     0.054 A 
BRANCH  88  89
ATOM     89  S   UNL A   1      52.445  26.244  31.309  1.00  0.00     0.124 S 
ATOM     90  O   UNL A   1      52.879  27.441  32.023  1.00  0.00    -0.237 OA
ATOM     91  O   UNL A   1      52.336  25.033  32.120  1.00  0.00    -0.237 OA
ATOM     92  O   UNL A   1      53.047  26.052  29.991  1.00  0.00    -0.744 OA
ENDBRANCH  88  89
ENDBRANCH  62  83
ENDBRANCH  36  37
ENDBRANCH  28  31
ENDBRANCH  26  27
ENDBRANCH  25  26
ENDBRANCH   1  25
TORSDOF 19
ENDMDL
MODEL 3
REMARK VINA RESULT:      -9.9      4.538     10.036
REMARK SMILES CC(C)[C@H](NC(=O)CCNC(=O)c1ccoc1)C(=O)NCCCNC(=O)c1ccc(-c2c3nc(c(-c4ccc(S(=O)(=O)[O-])cc4)c4ccc([nH]4)c(-c4ccc(S(=O)(=O)[O-])cc4)c4nc(c(-c5ccc(S(=O)(=O)[O-])cc5)c5ccc2[nH]5)C=C4)C=C3)cc1
REMARK SMILES IDX 21 1 20 2 18 3 19 4 4 6 2 7 1 8 3 9 5 10 6 11 7 13 8 14 9 15
REMARK SMILES IDX 10 16 11 17 12 19 13 20 14 21 17 22 15 23 16 24 22 25 23 26
REMARK SMILES IDX 24 27 25 28 26 30 27 31 28 32 86 33 29 34 85 35 30 36 31 37
REMARK SMILES IDX 32 38 79 39 33 40 84 41 78 42 80 43 34 44 83 45 77 46 76 47
REMARK SMILES IDX 35 49 65 50 46 51 64 52 47 53 50 54 63 55 81 56 48 57 49 58
REMARK SMILES IDX 62 60 82 61 51 62 36 63 37 64 45 65 38 66 44 67 39 68 40 69
REMARK SMILES IDX 41 70 42 71 43 72 66 73 67 74 75 75 68 76 74 77 69 78 70 79
REMARK SMILES IDX 71 80 72 81 73 82 52 83 53 84 61 85 54 86 60 87 55 88 56 89
REMARK SMILES IDX 57 90 58 91 59 92
REMARK H PARENT 20 5 5 12 10 18 24 29 80 48 50 59
REMARK Flexibility Score: inf
ROOT
ATOM      1  C   UNL A   1      35.762  24.247  25.995  1.00  0.00     0.117 C 
ENDROOT
BRANCH   1   2
ATOM      2  N   UNL A   1      35.111  24.657  24.769  1.00  0.00    -0.354 N 
ATOM      3  C   UNL A   1      34.089  25.527  24.519  1.00  0.00     0.242 C 
ATOM      4  O   UNL A   1      33.981  25.901  23.343  1.00  0.00    -0.273 OA
ATOM      5  H   UNL A   1      35.475  24.227  23.962  1.00  0.00     0.163 HD
BRANCH   3   6
ATOM      6  C   UNL A   1      33.098  26.090  25.600  1.00  0.00     0.173 C 
BRANCH   6   7
ATOM      7  C   UNL A   1      33.512  27.386  26.345  1.00  0.00     0.015 C 
ATOM      8  C   UNL A   1      33.966  28.557  25.473  1.00  0.00     0.010 C 
ATOM      9  C   UNL A   1      32.391  27.856  27.285  1.00  0.00     0.010 C 
ENDBRANCH   6   7
BRANCH   6  10
ATOM     10  N   UNL A   1      32.449  25.057  26.434  1.00  0.00    -0.344 N 
ATOM     11  C   UNL A   1      31.419  24.180  26.324  1.00  0.00     0.222 C 
ATOM     12  H   UNL A   1      32.885  24.985  27.314  1.00  0.00     0.164 HD
ATOM     13  O   UNL A   1      31.059  23.638  27.374  1.00  0.00    -0.275 OA
BRANCH  11  14
ATOM     14  C   UNL A   1      30.706  23.838  25.029  1.00  0.00     0.121 C 
BRANCH  14  15
ATOM     15  C   UNL A   1      31.164  22.567  24.304  1.00  0.00     0.126 C 
BRANCH  15  16
ATOM     16  N   UNL A   1      32.608  22.442  24.174  1.00  0.00    -0.351 N 
ATOM     17  C   UNL A   1      33.482  21.399  24.229  1.00  0.00     0.254 C 
ATOM     18  H   UNL A   1      33.052  23.305  24.010  1.00  0.00     0.163 HD
ATOM     19  O   UNL A   1      34.675  21.646  24.076  1.00  0.00    -0.269 OA
BRANCH  17  20
ATOM     20  C   UNL A   1      33.012  20.081  24.537  1.00  0.00     0.077 A 
ATOM     21  C   UNL A   1      32.632  19.001  23.700  1.00  0.00     0.056 A 
ATOM     22  C   UNL A   1      32.932  19.600  25.828  1.00  0.00     0.208 A 
ATOM     23  C   UNL A   1      32.323  17.956  24.541  1.00  0.00     0.195 A 
ATOM     24  O   UNL A   1      32.492  18.319  25.838  1.00  0.00    -0.472 OA
ENDBRANCH  17  20
ENDBRANCH  15  16
ENDBRANCH  14  15
ENDBRANCH  11  14
ENDBRANCH   6  10
ENDBRANCH   3   6
ENDBRANCH   1   2
BRANCH   1  25
ATOM     25  C   UNL A   1      37.166  23.705  25.866  1.00  0.00     0.042 C 
BRANCH  25  26
ATOM     26  C   UNL A   1      38.160  24.416  26.772  1.00  0.00     0.118 C 
BRANCH  26  27
ATOM     27  N   UNL A   1      39.400  24.820  26.099  1.00  0.00    -0.352 N 
ATOM     28  C   UNL A   1      40.259  25.874  26.313  1.00  0.00     0.251 C 
ATOM     29  H   UNL A   1      39.666  24.229  25.358  1.00  0.00     0.163 HD
ATOM     30  O   UNL A   1      41.172  26.079  25.518  1.00  0.00    -0.269 OA
BRANCH  28  31
ATOM     31  C   UNL A   1      40.064  26.774  27.469  1.00  0.00     0.039 A 
ATOM     32  C   UNL A   1      39.522  26.270  28.655  1.00  0.00     0.014 A 
ATOM     33  C   UNL A   1      40.451  28.109  27.396  1.00  0.00     0.014 A 
ATOM     34  C   UNL A   1      39.493  27.076  29.796  1.00  0.00     0.010 A 
ATOM     35  C   UNL A   1      40.558  28.856  28.558  1.00  0.00     0.010 A 
ATOM     36  C   UNL A   1      40.079  28.352  29.775  1.00  0.00    -0.014 A 
BRANCH  36  37
ATOM     37  C   UNL A   1      40.214  29.187  30.995  1.00  0.00     0.031 A 
ATOM     38  C   UNL A   1      41.328  28.910  31.973  1.00  0.00     0.074 A 
ATOM     39  C   UNL A   1      39.270  30.106  31.286  1.00  0.00     0.049 A 
ATOM     40  N   UNL A   1      41.525  29.414  33.164  1.00  0.00    -0.248 NA
ATOM     41  C   UNL A   1      42.321  27.892  31.584  1.00  0.00     0.031 C 
ATOM     42  C   UNL A   1      38.098  30.417  30.462  1.00  0.00     0.029 A 
ATOM     43  N   UNL A   1      39.136  30.940  32.369  1.00  0.00    -0.354 N 
ATOM     44  C   UNL A   1      42.626  28.740  33.680  1.00  0.00     0.074 A 
ATOM     45  C   UNL A   1      43.021  27.756  32.699  1.00  0.00     0.031 C 
ATOM     46  C   UNL A   1      37.388  31.394  31.050  1.00  0.00     0.029 A 
ATOM     47  C   UNL A   1      38.023  31.745  32.316  1.00  0.00     0.049 A 
ATOM     48  H   UNL A   1      39.779  30.959  33.115  1.00  0.00     0.167 HD
ATOM     49  C   UNL A   1      43.270  28.940  34.854  1.00  0.00     0.031 A 
ATOM     50  C   UNL A   1      37.558  32.658  33.190  1.00  0.00     0.031 A 
ATOM     51  C   UNL A   1      42.910  29.963  35.798  1.00  0.00     0.049 A 
ATOM     52  C   UNL A   1      38.325  32.907  34.458  1.00  0.00     0.074 A 
ATOM     53  C   UNL A   1      43.556  30.317  36.968  1.00  0.00     0.029 A 
ATOM     54  N   UNL A   1      41.815  30.802  35.671  1.00  0.00    -0.354 N 
ATOM     55  N   UNL A   1      39.414  32.315  34.891  1.00  0.00    -0.248 NA
ATOM     56  C   UNL A   1      37.812  33.956  35.350  1.00  0.00     0.031 C 
ATOM     57  C   UNL A   1      42.826  31.346  37.572  1.00  0.00     0.029 A 
ATOM     58  C   UNL A   1      41.756  31.665  36.751  1.00  0.00     0.049 A 
ATOM     59  H   UNL A   1      41.173  30.787  34.925  1.00  0.00     0.167 HD
ATOM     60  C   UNL A   1      39.729  32.936  36.094  1.00  0.00     0.074 A 
ATOM     61  C   UNL A   1      38.727  33.961  36.310  1.00  0.00     0.031 C 
ATOM     62  C   UNL A   1      40.754  32.682  36.943  1.00  0.00     0.031 A 
BRANCH  49  63
ATOM     63  C   UNL A   1      44.436  28.043  35.174  1.00  0.00    -0.014 A 
ATOM     64  C   UNL A   1      44.266  26.863  35.920  1.00  0.00     0.010 A 
ATOM     65  C   UNL A   1      45.717  28.367  34.691  1.00  0.00     0.010 A 
ATOM     66  C   UNL A   1      45.360  26.046  36.216  1.00  0.00     0.020 A 
ATOM     67  C   UNL A   1      46.810  27.537  34.958  1.00  0.00     0.020 A 
ATOM     68  C   UNL A   1      46.627  26.390  35.734  1.00  0.00     0.054 A 
BRANCH  68  69
ATOM     69  S   UNL A   1      48.024  25.296  36.108  1.00  0.00     0.124 S 
ATOM     70  O   UNL A   1      48.236  25.556  37.530  1.00  0.00    -0.237 OA
ATOM     71  O   UNL A   1      47.492  23.975  35.784  1.00  0.00    -0.237 OA
ATOM     72  O   UNL A   1      49.084  25.772  35.223  1.00  0.00    -0.744 OA
ENDBRANCH  68  69
ENDBRANCH  49  63
BRANCH  50  73
ATOM     73  C   UNL A   1      36.316  33.421  32.884  1.00  0.00    -0.014 A 
ATOM     74  C   UNL A   1      35.065  32.948  33.316  1.00  0.00     0.010 A 
ATOM     75  C   UNL A   1      36.378  34.632  32.169  1.00  0.00     0.010 A 
ATOM     76  C   UNL A   1      33.897  33.656  33.019  1.00  0.00     0.020 A 
ATOM     77  C   UNL A   1      35.215  35.358  31.894  1.00  0.00     0.020 A 
ATOM     78  C   UNL A   1      33.980  34.857  32.310  1.00  0.00     0.054 A 
BRANCH  78  79
ATOM     79  S   UNL A   1      32.455  35.783  31.974  1.00  0.00     0.124 S 
ATOM     80  O   UNL A   1      31.448  34.960  32.636  1.00  0.00    -0.237 OA
ATOM     81  O   UNL A   1      32.726  37.077  32.598  1.00  0.00    -0.237 OA
ATOM     82  O   UNL A   1      32.384  35.808  30.515  1.00  0.00    -0.744 OA
ENDBRANCH  78  79
ENDBRANCH  50  73
BRANCH  62  83
ATOM     83  C   UNL A   1      40.869  33.547  38.168  1.00  0.00    -0.014 A 
ATOM     84  C   UNL A   1      40.258  33.180  39.378  1.00  0.00     0.010 A 
ATOM     85  C   UNL A   1      41.655  34.713  38.118  1.00  0.00     0.010 A 
ATOM     86  C   UNL A   1      40.408  33.979  40.514  1.00  0.00     0.020 A 
ATOM     87  C   UNL A   1      41.830  35.501  39.258  1.00  0.00     0.020 A 
ATOM     88  C   UNL A   1      41.193  35.135  40.446  1.00  0.00     0.054 A 
BRANCH  88  89
ATOM     89  S   UNL A   1      41.414  36.129  41.946  1.00  0.00     0.124 S 
ATOM     90  O   UNL A   1      40.033  36.391  42.341  1.00  0.00    -0.237 OA
ATOM     91  O   UNL A   1      42.160  35.229  42.822  1.00  0.00    -0.237 OA
ATOM     92  O   UNL A   1      42.160  37.297  41.480  1.00  0.00    -0.744 OA
ENDBRANCH  88  89
ENDBRANCH  62  83
ENDBRANCH  36  37
ENDBRANCH  28  31
ENDBRANCH  26  27
ENDBRANCH  25  26
ENDBRANCH   1  25
TORSDOF 19
ENDMDL
