MODEL 1
REMARK VINA RESULT:     -11.4      0.000      0.000
REMARK SMILES O=C(NCCCNC(=O)c1c(F)cccc1NS(=O)(=O)C(F)(F)F)c1ccc(-c2c3nc(c(-c4ccc(S(=O)(=O)[O-])cc4)c4ccc([nH]4)c(-c4ccc(S(=O)(=O)[O-])cc4)c4nc(c(-c5ccc(S(=O)(=O)[O-])cc5)c5ccc2[nH]5)C=C4)C=C3)cc1
REMARK SMILES IDX 5 1 4 2 3 3 1 4 2 5 25 7 26 8 84 9 27 10 83 11 28 12 29 13
REMARK SMILES IDX 30 14 77 15 31 16 82 17 76 18 78 19 32 20 81 21 75 22 74 23
REMARK SMILES IDX 33 25 63 26 44 27 62 28 45 29 48 30 61 31 79 32 46 33 47 34
REMARK SMILES IDX 60 36 80 37 49 38 34 39 35 40 43 41 36 42 42 43 37 44 38 45
REMARK SMILES IDX 39 46 40 47 41 48 64 49 65 50 73 51 66 52 72 53 67 54 68 55
REMARK SMILES IDX 69 56 70 57 71 58 50 59 51 60 59 61 52 62 58 63 53 64 54 65
REMARK SMILES IDX 55 66 56 67 57 68 6 69 7 70 8 71 9 73 10 74 11 75 16 76
REMARK SMILES IDX 12 77 13 78 15 79 14 80 17 81 18 83 19 84 20 85 21 86 22 87
REMARK SMILES IDX 23 88 24 89
REMARK H PARENT 3 6 78 24 48 35 7 72 17 82
REMARK Flexibility Score: inf
ROOT
ATOM      1  C   UNL A   1      38.125  19.948  25.002  1.00  0.00     0.042 C 
ENDROOT
BRANCH   1   2
ATOM      2  C   UNL A   1      39.216  20.345  25.988  1.00  0.00     0.118 C 
BRANCH   2   3
ATOM      3  N   UNL A   1      40.327  19.400  26.006  1.00  0.00    -0.352 N 
ATOM      4  O   UNL A   1      42.459  18.689  25.951  1.00  0.00    -0.269 OA
ATOM      5  C   UNL A   1      41.678  19.615  26.151  1.00  0.00     0.251 C 
ATOM      6  H   UNL A   1      40.068  18.456  25.897  1.00  0.00     0.163 HD
BRANCH   5   7
ATOM      7  C   UNL A   1      42.192  20.952  26.526  1.00  0.00     0.039 A 
ATOM      8  C   UNL A   1      42.380  21.940  25.561  1.00  0.00     0.014 A 
ATOM      9  C   UNL A   1      42.468  21.234  27.869  1.00  0.00     0.014 A 
ATOM     10  C   UNL A   1      43.008  23.130  25.902  1.00  0.00     0.010 A 
ATOM     11  C   UNL A   1      42.996  22.480  28.229  1.00  0.00     0.010 A 
ATOM     12  C   UNL A   1      43.306  23.427  27.243  1.00  0.00    -0.014 A 
BRANCH  12  13
ATOM     13  C   UNL A   1      43.876  24.762  27.562  1.00  0.00     0.031 A 
ATOM     14  C   UNL A   1      45.316  25.095  27.279  1.00  0.00     0.074 A 
ATOM     15  C   UNL A   1      43.046  25.712  28.039  1.00  0.00     0.049 A 
ATOM     16  N   UNL A   1      45.930  26.246  27.399  1.00  0.00    -0.248 NA
ATOM     17  C   UNL A   1      46.184  24.003  26.809  1.00  0.00     0.031 C 
ATOM     18  C   UNL A   1      41.634  25.503  28.378  1.00  0.00     0.029 A 
ATOM     19  N   UNL A   1      43.247  27.048  28.277  1.00  0.00    -0.354 N 
ATOM     20  C   UNL A   1      47.251  26.018  27.034  1.00  0.00     0.074 A 
ATOM     21  C   UNL A   1      47.360  24.611  26.714  1.00  0.00     0.031 C 
ATOM     22  C   UNL A   1      41.079  26.678  28.703  1.00  0.00     0.029 A 
ATOM     23  C   UNL A   1      42.105  27.713  28.660  1.00  0.00     0.049 A 
ATOM     24  H   UNL A   1      44.122  27.486  28.184  1.00  0.00     0.167 HD
ATOM     25  C   UNL A   1      48.277  26.902  26.964  1.00  0.00     0.031 A 
ATOM     26  C   UNL A   1      41.899  29.011  28.948  1.00  0.00     0.031 A 
ATOM     27  C   UNL A   1      48.165  28.302  27.285  1.00  0.00     0.049 A 
ATOM     28  C   UNL A   1      43.049  29.968  28.847  1.00  0.00     0.074 A 
ATOM     29  C   UNL A   1      49.149  29.276  27.246  1.00  0.00     0.029 A 
ATOM     30  N   UNL A   1      47.000  28.931  27.696  1.00  0.00    -0.354 N 
ATOM     31  N   UNL A   1      44.288  29.729  28.490  1.00  0.00    -0.248 NA
ATOM     32  C   UNL A   1      42.774  31.369  29.189  1.00  0.00     0.031 C 
ATOM     33  C   UNL A   1      48.587  30.486  27.668  1.00  0.00     0.029 A 
ATOM     34  C   UNL A   1      47.242  30.275  27.924  1.00  0.00     0.049 A 
ATOM     35  H   UNL A   1      46.129  28.486  27.810  1.00  0.00     0.167 HD
ATOM     36  C   UNL A   1      44.943  30.951  28.567  1.00  0.00     0.074 A 
ATOM     37  C   UNL A   1      43.954  31.932  28.967  1.00  0.00     0.031 C 
ATOM     38  C   UNL A   1      46.249  31.234  28.340  1.00  0.00     0.031 A 
BRANCH  25  39
ATOM     39  C   UNL A   1      49.622  26.378  26.531  1.00  0.00    -0.014 A 
ATOM     40  C   UNL A   1      50.025  26.446  25.186  1.00  0.00     0.010 A 
ATOM     41  C   UNL A   1      50.515  25.863  27.488  1.00  0.00     0.010 A 
ATOM     42  C   UNL A   1      51.287  25.983  24.801  1.00  0.00     0.020 A 
ATOM     43  C   UNL A   1      51.787  25.420  27.111  1.00  0.00     0.020 A 
ATOM     44  C   UNL A   1      52.159  25.469  25.766  1.00  0.00     0.054 A 
BRANCH  44  45
ATOM     45  S   UNL A   1      53.802  24.901  25.242  1.00  0.00     0.124 S 
ATOM     46  O   UNL A   1      53.586  23.466  25.083  1.00  0.00    -0.237 OA
ATOM     47  O   UNL A   1      54.019  25.644  24.002  1.00  0.00    -0.237 OA
ATOM     48  O   UNL A   1      54.671  25.282  26.353  1.00  0.00    -0.744 OA
ENDBRANCH  44  45
ENDBRANCH  25  39
BRANCH  26  49
ATOM     49  C   UNL A   1      40.550  29.464  29.379  1.00  0.00    -0.014 A 
ATOM     50  C   UNL A   1      40.275  29.730  30.731  1.00  0.00     0.010 A 
ATOM     51  C   UNL A   1      39.538  29.659  28.421  1.00  0.00     0.010 A 
ATOM     52  C   UNL A   1      39.004  30.167  31.119  1.00  0.00     0.020 A 
ATOM     53  C   UNL A   1      38.278  30.124  28.800  1.00  0.00     0.020 A 
ATOM     54  C   UNL A   1      38.014  30.361  30.151  1.00  0.00     0.054 A 
BRANCH  54  55
ATOM     55  S   UNL A   1      36.388  30.982  30.660  1.00  0.00     0.124 S 
ATOM     56  O   UNL A   1      35.976  29.981  31.639  1.00  0.00    -0.237 OA
ATOM     57  O   UNL A   1      36.703  32.303  31.198  1.00  0.00    -0.237 OA
ATOM     58  O   UNL A   1      35.624  30.992  29.413  1.00  0.00    -0.744 OA
ENDBRANCH  54  55
ENDBRANCH  26  49
BRANCH  38  59
ATOM     59  C   UNL A   1      46.671  32.665  28.520  1.00  0.00    -0.014 A 
ATOM     60  C   UNL A   1      47.137  33.129  29.764  1.00  0.00     0.010 A 
ATOM     61  C   UNL A   1      46.607  33.554  27.432  1.00  0.00     0.010 A 
ATOM     62  C   UNL A   1      47.486  34.471  29.929  1.00  0.00     0.020 A 
ATOM     63  C   UNL A   1      46.979  34.891  27.589  1.00  0.00     0.020 A 
ATOM     64  C   UNL A   1      47.396  35.346  28.842  1.00  0.00     0.054 A 
BRANCH  64  65
ATOM     65  S   UNL A   1      47.863  37.083  29.076  1.00  0.00     0.124 S 
ATOM     66  O   UNL A   1      48.846  36.989  30.151  1.00  0.00    -0.237 OA
ATOM     67  O   UNL A   1      48.395  37.455  27.767  1.00  0.00    -0.237 OA
ATOM     68  O   UNL A   1      46.604  37.732  29.436  1.00  0.00    -0.744 OA
ENDBRANCH  64  65
ENDBRANCH  38  59
ENDBRANCH  12  13
ENDBRANCH   5   7
ENDBRANCH   2   3
ENDBRANCH   1   2
BRANCH   1  69
ATOM     69  C   UNL A   1      37.045  21.009  24.836  1.00  0.00     0.118 C 
BRANCH  69  70
ATOM     70  N   UNL A   1      36.276  21.187  26.061  1.00  0.00    -0.352 N 
ATOM     71  C   UNL A   1      34.944  21.478  26.212  1.00  0.00     0.256 C 
ATOM     72  H   UNL A   1      36.785  21.085  26.897  1.00  0.00     0.163 HD
ATOM     73  O   UNL A   1      34.523  21.885  27.291  1.00  0.00    -0.269 OA
BRANCH  71  74
ATOM     74  C   UNL A   1      34.027  21.389  25.067  1.00  0.00     0.099 A 
ATOM     75  C   UNL A   1      34.013  22.422  24.126  1.00  0.00     0.138 A 
ATOM     76  C   UNL A   1      33.168  20.290  24.913  1.00  0.00     0.065 A 
ATOM     77  F   UNL A   1      34.862  23.456  24.225  1.00  0.00    -0.206 F 
ATOM     78  C   UNL A   1      33.089  22.430  23.087  1.00  0.00     0.040 A 
ATOM     79  C   UNL A   1      32.220  20.322  23.882  1.00  0.00     0.028 A 
ATOM     80  C   UNL A   1      32.178  21.386  22.976  1.00  0.00     0.005 A 
BRANCH  76  81
ATOM     81  N   UNL A   1      33.177  19.177  25.832  1.00  0.00    -0.275 N 
ATOM     82  H   UNL A   1      33.335  19.313  26.794  1.00  0.00     0.180 HD
BRANCH  81  83
ATOM     83  S   UNL A   1      32.903  17.609  25.190  1.00  0.00     0.333 S 
ATOM     84  O   UNL A   1      32.918  16.673  26.301  1.00  0.00    -0.197 OA
ATOM     85  O   UNL A   1      31.691  17.762  24.403  1.00  0.00    -0.197 OA
BRANCH  83  86
ATOM     86  C   UNL A   1      34.339  17.288  24.042  1.00  0.00     0.516 C 
ATOM     87  F   UNL A   1      34.034  17.561  22.741  1.00  0.00    -0.155 F 
ATOM     88  F   UNL A   1      35.419  18.066  24.353  1.00  0.00    -0.155 F 
ATOM     89  F   UNL A   1      34.771  15.997  24.089  1.00  0.00    -0.155 F 
ENDBRANCH  83  86
ENDBRANCH  81  83
ENDBRANCH  76  81
ENDBRANCH  71  74
ENDBRANCH  69  70
ENDBRANCH   1  69
TORSDOF 16
ENDMDL
MODEL 2
REMARK VINA RESULT:     -11.3      6.540      8.849
REMARK SMILES O=C(NCCCNC(=O)c1c(F)cccc1NS(=O)(=O)C(F)(F)F)c1ccc(-c2c3nc(c(-c4ccc(S(=O)(=O)[O-])cc4)c4ccc([nH]4)c(-c4ccc(S(=O)(=O)[O-])cc4)c4nc(c(-c5ccc(S(=O)(=O)[O-])cc5)c5ccc2[nH]5)C=C4)C=C3)cc1
REMARK SMILES IDX 5 1 4 2 3 3 1 4 2 5 25 7 26 8 84 9 27 10 83 11 28 12 29 13
REMARK SMILES IDX 30 14 77 15 31 16 82 17 76 18 78 19 32 20 81 21 75 22 74 23
REMARK SMILES IDX 33 25 63 26 44 27 62 28 45 29 48 30 61 31 79 32 46 33 47 34
REMARK SMILES IDX 60 36 80 37 49 38 34 39 35 40 43 41 36 42 42 43 37 44 38 45
REMARK SMILES IDX 39 46 40 47 41 48 64 49 65 50 73 51 66 52 72 53 67 54 68 55
REMARK SMILES IDX 69 56 70 57 71 58 50 59 51 60 59 61 52 62 58 63 53 64 54 65
REMARK SMILES IDX 55 66 56 67 57 68 6 69 7 70 8 71 9 73 10 74 11 75 16 76
REMARK SMILES IDX 12 77 13 78 15 79 14 80 17 81 18 83 19 84 20 85 21 86 22 87
REMARK SMILES IDX 23 88 24 89
REMARK H PARENT 3 6 78 24 48 35 7 72 17 82
REMARK Flexibility Score: inf
ROOT
ATOM      1  C   UNL A   1      37.547  23.463  25.704  1.00  0.00     0.042 C 
ENDROOT
BRANCH   1   2
ATOM      2  C   UNL A   1      38.505  24.209  26.623  1.00  0.00     0.118 C 
BRANCH   2   3
ATOM      3  N   UNL A   1      39.840  24.346  26.051  1.00  0.00    -0.352 N 
ATOM      4  O   UNL A   1      41.838  25.284  25.623  1.00  0.00    -0.269 OA
ATOM      5  C   UNL A   1      40.856  25.220  26.358  1.00  0.00     0.251 C 
ATOM      6  H   UNL A   1      40.047  23.709  25.328  1.00  0.00     0.163 HD
BRANCH   5   7
ATOM      7  C   UNL A   1      40.765  26.092  27.551  1.00  0.00     0.039 A 
ATOM      8  C   UNL A   1      39.888  25.789  28.591  1.00  0.00     0.014 A 
ATOM      9  C   UNL A   1      41.589  27.219  27.647  1.00  0.00     0.014 A 
ATOM     10  C   UNL A   1      39.701  26.696  29.625  1.00  0.00     0.010 A 
ATOM     11  C   UNL A   1      41.481  28.076  28.750  1.00  0.00     0.010 A 
ATOM     12  C   UNL A   1      40.509  27.841  29.732  1.00  0.00    -0.014 A 
BRANCH  12  13
ATOM     13  C   UNL A   1      40.339  28.719  30.920  1.00  0.00     0.031 A 
ATOM     14  C   UNL A   1      41.260  28.632  32.106  1.00  0.00     0.074 A 
ATOM     15  C   UNL A   1      39.381  29.667  30.878  1.00  0.00     0.049 A 
ATOM     16  N   UNL A   1      41.306  29.400  33.166  1.00  0.00    -0.248 NA
ATOM     17  C   UNL A   1      42.250  27.543  32.116  1.00  0.00     0.031 C 
ATOM     18  C   UNL A   1      38.408  29.835  29.792  1.00  0.00     0.029 A 
ATOM     19  N   UNL A   1      39.092  30.695  31.739  1.00  0.00    -0.354 N 
ATOM     20  C   UNL A   1      42.315  28.886  33.970  1.00  0.00     0.074 A 
ATOM     21  C   UNL A   1      42.840  27.721  33.292  1.00  0.00     0.031 C 
ATOM     22  C   UNL A   1      37.687  30.943  30.012  1.00  0.00     0.029 A 
ATOM     23  C   UNL A   1      38.097  31.529  31.283  1.00  0.00     0.049 A 
ATOM     24  H   UNL A   1      39.552  30.823  32.600  1.00  0.00     0.167 HD
ATOM     25  C   UNL A   1      42.770  29.348  35.162  1.00  0.00     0.031 A 
ATOM     26  C   UNL A   1      37.566  32.641  31.822  1.00  0.00     0.031 A 
ATOM     27  C   UNL A   1      42.244  30.508  35.836  1.00  0.00     0.049 A 
ATOM     28  C   UNL A   1      38.099  33.137  33.134  1.00  0.00     0.074 A 
ATOM     29  C   UNL A   1      42.637  31.053  37.047  1.00  0.00     0.029 A 
ATOM     30  N   UNL A   1      41.218  31.308  35.356  1.00  0.00    -0.354 N 
ATOM     31  N   UNL A   1      39.062  32.638  33.871  1.00  0.00    -0.248 NA
ATOM     32  C   UNL A   1      37.473  34.345  33.686  1.00  0.00     0.031 C 
ATOM     33  C   UNL A   1      41.825  32.160  37.315  1.00  0.00     0.029 A 
ATOM     34  C   UNL A   1      40.958  32.334  36.249  1.00  0.00     0.049 A 
ATOM     35  H   UNL A   1      40.743  31.166  34.504  1.00  0.00     0.167 HD
ATOM     36  C   UNL A   1      39.155  33.470  34.978  1.00  0.00     0.074 A 
ATOM     37  C   UNL A   1      38.179  34.525  34.793  1.00  0.00     0.031 C 
ATOM     38  C   UNL A   1      39.969  33.364  36.058  1.00  0.00     0.031 A 
BRANCH  25  39
ATOM     39  C   UNL A   1      43.890  28.589  35.825  1.00  0.00    -0.014 A 
ATOM     40  C   UNL A   1      45.231  28.955  35.618  1.00  0.00     0.010 A 
ATOM     41  C   UNL A   1      43.596  27.534  36.707  1.00  0.00     0.010 A 
ATOM     42  C   UNL A   1      46.261  28.261  36.261  1.00  0.00     0.020 A 
ATOM     43  C   UNL A   1      44.622  26.853  37.370  1.00  0.00     0.020 A 
ATOM     44  C   UNL A   1      45.950  27.211  37.131  1.00  0.00     0.054 A 
BRANCH  44  45
ATOM     45  S   UNL A   1      47.306  26.347  37.974  1.00  0.00     0.124 S 
ATOM     46  O   UNL A   1      46.974  24.948  37.717  1.00  0.00    -0.237 OA
ATOM     47  O   UNL A   1      48.489  26.849  37.278  1.00  0.00    -0.237 OA
ATOM     48  O   UNL A   1      47.176  26.774  39.365  1.00  0.00    -0.744 OA
ENDBRANCH  44  45
ENDBRANCH  25  39
BRANCH  26  49
ATOM     49  C   UNL A   1      36.455  33.340  31.124  1.00  0.00    -0.014 A 
ATOM     50  C   UNL A   1      35.181  33.434  31.707  1.00  0.00     0.010 A 
ATOM     51  C   UNL A   1      36.684  33.941  29.873  1.00  0.00     0.010 A 
ATOM     52  C   UNL A   1      34.149  34.105  31.043  1.00  0.00     0.020 A 
ATOM     53  C   UNL A   1      35.665  34.638  29.220  1.00  0.00     0.020 A 
ATOM     54  C   UNL A   1      34.399  34.703  29.804  1.00  0.00     0.054 A 
BRANCH  54  55
ATOM     55  S   UNL A   1      33.067  35.618  28.979  1.00  0.00     0.124 S 
ATOM     56  O   UNL A   1      33.812  36.626  28.232  1.00  0.00    -0.237 OA
ATOM     57  O   UNL A   1      32.418  34.585  28.176  1.00  0.00    -0.237 OA
ATOM     58  O   UNL A   1      32.266  36.126  30.092  1.00  0.00    -0.744 OA
ENDBRANCH  54  55
ENDBRANCH  26  49
BRANCH  38  59
ATOM     59  C   UNL A   1      39.829  34.423  37.116  1.00  0.00    -0.014 A 
ATOM     60  C   UNL A   1      40.533  35.637  37.020  1.00  0.00     0.010 A 
ATOM     61  C   UNL A   1      38.979  34.204  38.214  1.00  0.00     0.010 A 
ATOM     62  C   UNL A   1      40.427  36.595  38.030  1.00  0.00     0.020 A 
ATOM     63  C   UNL A   1      38.852  35.171  39.214  1.00  0.00     0.020 A 
ATOM     64  C   UNL A   1      39.593  36.351  39.126  1.00  0.00     0.054 A 
BRANCH  64  65
ATOM     65  S   UNL A   1      39.463  37.613  40.423  1.00  0.00     0.124 S 
ATOM     66  O   UNL A   1      40.736  38.314  40.291  1.00  0.00    -0.237 OA
ATOM     67  O   UNL A   1      38.281  38.372  40.019  1.00  0.00    -0.237 OA
ATOM     68  O   UNL A   1      39.304  36.831  41.648  1.00  0.00    -0.744 OA
ENDBRANCH  64  65
ENDBRANCH  38  59
ENDBRANCH  12  13
ENDBRANCH   5   7
ENDBRANCH   2   3
ENDBRANCH   1   2
BRANCH   1  69
ATOM     69  C   UNL A   1      36.091  23.871  25.889  1.00  0.00     0.118 C 
BRANCH  69  70
ATOM     70  N   UNL A   1      35.467  24.218  24.619  1.00  0.00    -0.352 N 
ATOM     71  C   UNL A   1      34.581  23.493  23.863  1.00  0.00     0.256 C 
ATOM     72  H   UNL A   1      35.716  25.097  24.251  1.00  0.00     0.163 HD
ATOM     73  O   UNL A   1      34.384  23.794  22.689  1.00  0.00    -0.269 OA
BRANCH  71  74
ATOM     74  C   UNL A   1      33.927  22.301  24.421  1.00  0.00     0.099 A 
ATOM     75  C   UNL A   1      34.661  21.119  24.548  1.00  0.00     0.138 A 
ATOM     76  C   UNL A   1      32.580  22.335  24.818  1.00  0.00     0.065 A 
ATOM     77  F   UNL A   1      35.962  21.079  24.224  1.00  0.00    -0.206 F 
ATOM     78  C   UNL A   1      34.054  19.942  24.970  1.00  0.00     0.040 A 
ATOM     79  C   UNL A   1      31.971  21.138  25.213  1.00  0.00     0.028 A 
ATOM     80  C   UNL A   1      32.701  19.947  25.287  1.00  0.00     0.005 A 
BRANCH  76  81
ATOM     81  N   UNL A   1      31.793  23.543  24.749  1.00  0.00    -0.275 N 
ATOM     82  H   UNL A   1      31.349  23.813  23.914  1.00  0.00     0.180 HD
BRANCH  81  83
ATOM     83  S   UNL A   1      31.659  24.490  26.174  1.00  0.00     0.333 S 
ATOM     84  O   UNL A   1      31.330  23.591  27.267  1.00  0.00    -0.197 OA
ATOM     85  O   UNL A   1      32.907  25.235  26.215  1.00  0.00    -0.197 OA
BRANCH  83  86
ATOM     86  C   UNL A   1      30.253  25.673  25.851  1.00  0.00     0.516 C 
ATOM     87  F   UNL A   1      30.565  26.956  26.194  1.00  0.00    -0.155 F 
ATOM     88  F   UNL A   1      29.911  25.703  24.528  1.00  0.00    -0.155 F 
ATOM     89  F   UNL A   1      29.121  25.341  26.533  1.00  0.00    -0.155 F 
ENDBRANCH  83  86
ENDBRANCH  81  83
ENDBRANCH  76  81
ENDBRANCH  71  74
ENDBRANCH  69  70
ENDBRANCH   1  69
TORSDOF 16
ENDMDL
MODEL 3
REMARK VINA RESULT:     -11.1      1.398      2.827
REMARK SMILES O=C(NCCCNC(=O)c1c(F)cccc1NS(=O)(=O)C(F)(F)F)c1ccc(-c2c3nc(c(-c4ccc(S(=O)(=O)[O-])cc4)c4ccc([nH]4)c(-c4ccc(S(=O)(=O)[O-])cc4)c4nc(c(-c5ccc(S(=O)(=O)[O-])cc5)c5ccc2[nH]5)C=C4)C=C3)cc1
REMARK SMILES IDX 5 1 4 2 3 3 1 4 2 5 25 7 26 8 84 9 27 10 83 11 28 12 29 13
REMARK SMILES IDX 30 14 77 15 31 16 82 17 76 18 78 19 32 20 81 21 75 22 74 23
REMARK SMILES IDX 33 25 63 26 44 27 62 28 45 29 48 30 61 31 79 32 46 33 47 34
REMARK SMILES IDX 60 36 80 37 49 38 34 39 35 40 43 41 36 42 42 43 37 44 38 45
REMARK SMILES IDX 39 46 40 47 41 48 64 49 65 50 73 51 66 52 72 53 67 54 68 55
REMARK SMILES IDX 69 56 70 57 71 58 50 59 51 60 59 61 52 62 58 63 53 64 54 65
REMARK SMILES IDX 55 66 56 67 57 68 6 69 7 70 8 71 9 73 10 74 11 75 16 76
REMARK SMILES IDX 12 77 13 78 15 79 14 80 17 81 18 83 19 84 20 85 21 86 22 87
REMARK SMILES IDX 23 88 24 89
REMARK H PARENT 3 6 78 24 48 35 7 72 17 82
REMARK Flexibility Score: inf
ROOT
ATOM      1  C   UNL A   1      37.762  20.052  24.994  1.00  0.00     0.042 C 
ENDROOT
BRANCH   1   2
ATOM      2  C   UNL A   1      38.980  20.614  25.713  1.00  0.00     0.118 C 
BRANCH   2   3
ATOM      3  N   UNL A   1      40.034  19.622  25.893  1.00  0.00    -0.352 N 
ATOM      4  O   UNL A   1      42.122  18.813  26.095  1.00  0.00    -0.269 OA
ATOM      5  C   UNL A   1      41.372  19.783  26.167  1.00  0.00     0.251 C 
ATOM      6  H   UNL A   1      39.740  18.687  25.805  1.00  0.00     0.163 HD
BRANCH   5   7
ATOM      7  C   UNL A   1      41.913  21.113  26.527  1.00  0.00     0.039 A 
ATOM      8  C   UNL A   1      42.064  22.107  25.561  1.00  0.00     0.014 A 
ATOM      9  C   UNL A   1      42.253  21.384  27.858  1.00  0.00     0.014 A 
ATOM     10  C   UNL A   1      42.716  23.290  25.882  1.00  0.00     0.010 A 
ATOM     11  C   UNL A   1      42.807  22.623  28.201  1.00  0.00     0.010 A 
ATOM     12  C   UNL A   1      43.078  23.575  27.209  1.00  0.00    -0.014 A 
BRANCH  12  13
ATOM     13  C   UNL A   1      43.673  24.903  27.510  1.00  0.00     0.031 A 
ATOM     14  C   UNL A   1      45.117  25.209  27.216  1.00  0.00     0.074 A 
ATOM     15  C   UNL A   1      42.862  25.873  27.981  1.00  0.00     0.049 A 
ATOM     16  N   UNL A   1      45.751  26.350  27.321  1.00  0.00    -0.248 NA
ATOM     17  C   UNL A   1      45.964  24.097  26.755  1.00  0.00     0.031 C 
ATOM     18  C   UNL A   1      41.448  25.691  28.330  1.00  0.00     0.029 A 
ATOM     19  N   UNL A   1      43.086  27.207  28.204  1.00  0.00    -0.354 N 
ATOM     20  C   UNL A   1      47.066  26.095  26.952  1.00  0.00     0.074 A 
ATOM     21  C   UNL A   1      47.150  24.684  26.647  1.00  0.00     0.031 C 
ATOM     22  C   UNL A   1      40.915  26.880  28.645  1.00  0.00     0.029 A 
ATOM     23  C   UNL A   1      41.958  27.896  28.585  1.00  0.00     0.049 A 
ATOM     24  H   UNL A   1      43.969  27.630  28.102  1.00  0.00     0.167 HD
ATOM     25  C   UNL A   1      48.107  26.961  26.866  1.00  0.00     0.031 A 
ATOM     26  C   UNL A   1      41.776  29.200  28.860  1.00  0.00     0.031 A 
ATOM     27  C   UNL A   1      48.020  28.366  27.173  1.00  0.00     0.049 A 
ATOM     28  C   UNL A   1      42.942  30.137  28.743  1.00  0.00     0.074 A 
ATOM     29  C   UNL A   1      49.021  29.323  27.119  1.00  0.00     0.029 A 
ATOM     30  N   UNL A   1      46.868  29.019  27.583  1.00  0.00    -0.354 N 
ATOM     31  N   UNL A   1      44.174  29.872  28.382  1.00  0.00    -0.248 NA
ATOM     32  C   UNL A   1      42.692  31.546  29.071  1.00  0.00     0.031 C 
ATOM     33  C   UNL A   1      48.481  30.547  27.531  1.00  0.00     0.029 A 
ATOM     34  C   UNL A   1      47.134  30.362  27.795  1.00  0.00     0.049 A 
ATOM     35  H   UNL A   1      45.990  28.591  27.706  1.00  0.00     0.167 HD
ATOM     36  C   UNL A   1      44.850  31.083  28.443  1.00  0.00     0.074 A 
ATOM     37  C   UNL A   1      43.880  32.085  28.836  1.00  0.00     0.031 C 
ATOM     38  C   UNL A   1      46.160  31.341  28.205  1.00  0.00     0.031 A 
BRANCH  25  39
ATOM     39  C   UNL A   1      49.440  26.409  26.433  1.00  0.00    -0.014 A 
ATOM     40  C   UNL A   1      49.936  26.652  25.140  1.00  0.00     0.010 A 
ATOM     41  C   UNL A   1      50.232  25.689  27.346  1.00  0.00     0.010 A 
ATOM     42  C   UNL A   1      51.188  26.159  24.758  1.00  0.00     0.020 A 
ATOM     43  C   UNL A   1      51.494  25.214  26.976  1.00  0.00     0.020 A 
ATOM     44  C   UNL A   1      51.958  25.440  25.678  1.00  0.00     0.054 A 
BRANCH  44  45
ATOM     45  S   UNL A   1      53.591  24.837  25.164  1.00  0.00     0.124 S 
ATOM     46  O   UNL A   1      54.441  25.311  26.253  1.00  0.00    -0.237 OA
ATOM     47  O   UNL A   1      53.397  23.390  25.105  1.00  0.00    -0.237 OA
ATOM     48  O   UNL A   1      53.809  25.486  23.874  1.00  0.00    -0.744 OA
ENDBRANCH  44  45
ENDBRANCH  25  39
BRANCH  26  49
ATOM     49  C   UNL A   1      40.437  29.681  29.293  1.00  0.00    -0.014 A 
ATOM     50  C   UNL A   1      39.417  29.919  28.356  1.00  0.00     0.010 A 
ATOM     51  C   UNL A   1      40.172  29.877  30.661  1.00  0.00     0.010 A 
ATOM     52  C   UNL A   1      38.159  30.360  28.780  1.00  0.00     0.020 A 
ATOM     53  C   UNL A   1      38.910  30.289  31.090  1.00  0.00     0.020 A 
ATOM     54  C   UNL A   1      37.915  30.542  30.145  1.00  0.00     0.054 A 
BRANCH  54  55
ATOM     55  S   UNL A   1      36.263  31.060  30.686  1.00  0.00     0.124 S 
ATOM     56  O   UNL A   1      35.497  30.967  29.447  1.00  0.00    -0.237 OA
ATOM     57  O   UNL A   1      35.935  30.071  31.710  1.00  0.00    -0.237 OA
ATOM     58  O   UNL A   1      36.482  32.416  31.188  1.00  0.00    -0.744 OA
ENDBRANCH  54  55
ENDBRANCH  26  49
BRANCH  38  59
ATOM     59  C   UNL A   1      46.607  32.767  28.368  1.00  0.00    -0.014 A 
ATOM     60  C   UNL A   1      46.558  33.667  27.287  1.00  0.00     0.010 A 
ATOM     61  C   UNL A   1      47.077  33.214  29.615  1.00  0.00     0.010 A 
ATOM     62  C   UNL A   1      47.016  34.977  27.439  1.00  0.00     0.020 A 
ATOM     63  C   UNL A   1      47.513  34.531  29.777  1.00  0.00     0.020 A 
ATOM     64  C   UNL A   1      47.500  35.398  28.682  1.00  0.00     0.054 A 
BRANCH  64  65
ATOM     65  S   UNL A   1      48.081  37.107  28.861  1.00  0.00     0.124 S 
ATOM     66  O   UNL A   1      46.941  37.748  29.510  1.00  0.00    -0.237 OA
ATOM     67  O   UNL A   1      49.275  36.958  29.690  1.00  0.00    -0.237 OA
ATOM     68  O   UNL A   1      48.335  37.529  27.485  1.00  0.00    -0.744 OA
ENDBRANCH  64  65
ENDBRANCH  38  59
ENDBRANCH  12  13
ENDBRANCH   5   7
ENDBRANCH   2   3
ENDBRANCH   1   2
BRANCH   1  69
ATOM     69  C   UNL A   1      36.637  21.065  24.824  1.00  0.00     0.118 C 
BRANCH  69  70
ATOM     70  N   UNL A   1      35.817  21.161  26.025  1.00  0.00    -0.352 N 
ATOM     71  C   UNL A   1      34.451  21.209  26.138  1.00  0.00     0.256 C 
ATOM     72  H   UNL A   1      36.314  21.197  26.874  1.00  0.00     0.163 HD
ATOM     73  O   UNL A   1      33.934  21.585  27.186  1.00  0.00    -0.269 OA
BRANCH  71  74
ATOM     74  C   UNL A   1      33.596  20.894  24.984  1.00  0.00     0.099 A 
ATOM     75  C   UNL A   1      33.435  19.560  24.602  1.00  0.00     0.138 A 
ATOM     76  C   UNL A   1      32.951  21.912  24.264  1.00  0.00     0.065 A 
ATOM     77  F   UNL A   1      34.000  18.568  25.307  1.00  0.00    -0.206 F 
ATOM     78  C   UNL A   1      32.723  19.226  23.456  1.00  0.00     0.040 A 
ATOM     79  C   UNL A   1      32.262  21.568  23.094  1.00  0.00     0.028 A 
ATOM     80  C   UNL A   1      32.151  20.234  22.689  1.00  0.00     0.005 A 
BRANCH  76  81
ATOM     81  N   UNL A   1      33.050  23.301  24.646  1.00  0.00    -0.275 N 
ATOM     82  H   UNL A   1      32.397  23.707  25.260  1.00  0.00     0.180 HD
BRANCH  81  83
ATOM     83  S   UNL A   1      34.345  24.217  23.992  1.00  0.00     0.333 S 
ATOM     84  O   UNL A   1      35.359  24.339  25.026  1.00  0.00    -0.197 OA
ATOM     85  O   UNL A   1      34.668  23.529  22.754  1.00  0.00    -0.197 OA
BRANCH  83  86
ATOM     86  C   UNL A   1      33.615  25.886  23.590  1.00  0.00     0.516 C 
ATOM     87  F   UNL A   1      32.256  25.900  23.707  1.00  0.00    -0.155 F 
ATOM     88  F   UNL A   1      34.080  26.859  24.430  1.00  0.00    -0.155 F 
ATOM     89  F   UNL A   1      33.910  26.298  22.326  1.00  0.00    -0.155 F 
ENDBRANCH  83  86
ENDBRANCH  81  83
ENDBRANCH  76  81
ENDBRANCH  71  74
ENDBRANCH  69  70
ENDBRANCH   1  69
TORSDOF 16
ENDMDL
