MODEL 1
REMARK VINA RESULT:     -11.5      0.000      0.000
REMARK SMILES O=C(NCCCNC(=O)c1cc(-c2ccccc2)ccc1F)c1ccc(-c2c3nc(c(-c4ccc(S(=O)(=O)[O-])cc4)c4ccc([nH]4)c(-c4ccc(S(=O)(=O)[O-])cc4)c4nc(c(-c5ccc(S(=O)(=O)[O-])cc5)c5ccc2[nH]5)C=C4)C=C3)cc1
REMARK SMILES IDX 4 1 3 2 1 3 2 4 23 6 24 7 82 8 25 9 81 10 26 11 27 12 28 13
REMARK SMILES IDX 75 14 29 15 80 16 74 17 76 18 30 19 79 20 73 21 72 22 31 24
REMARK SMILES IDX 61 25 42 26 60 27 43 28 46 29 59 30 77 31 44 32 45 33 58 35
REMARK SMILES IDX 78 36 47 37 32 38 33 39 41 40 34 41 40 42 35 43 36 44 37 45
REMARK SMILES IDX 38 46 39 47 62 48 63 49 71 50 64 51 70 52 65 53 66 54 67 55
REMARK SMILES IDX 68 56 69 57 48 58 49 59 57 60 50 61 56 62 51 63 52 64 53 65
REMARK SMILES IDX 54 66 55 67 5 68 6 69 7 70 8 71 9 73 10 74 11 75 21 76 12 77
REMARK SMILES IDX 20 78 22 79 19 80 13 81 14 82 18 83 15 84 17 85 16 86
REMARK H PARENT 3 5 76 23 46 34 7 72
REMARK Flexibility Score: inf
ROOT
ATOM      1  C   UNL A   1      33.628  28.559  27.208  1.00  0.00     0.118 C 
ENDROOT
BRANCH   1   2
ATOM      2  N   UNL A   1      33.555  29.970  27.556  1.00  0.00    -0.352 N 
ATOM      3  O   UNL A   1      34.149  31.888  28.575  1.00  0.00    -0.269 OA
ATOM      4  C   UNL A   1      34.478  30.769  28.184  1.00  0.00     0.251 C 
ATOM      5  H   UNL A   1      32.716  30.420  27.303  1.00  0.00     0.163 HD
BRANCH   4   6
ATOM      6  C   UNL A   1      35.857  30.283  28.399  1.00  0.00     0.039 A 
ATOM      7  C   UNL A   1      36.820  30.411  27.394  1.00  0.00     0.014 A 
ATOM      8  C   UNL A   1      36.206  29.730  29.633  1.00  0.00     0.014 A 
ATOM      9  C   UNL A   1      38.085  29.868  27.570  1.00  0.00     0.010 A 
ATOM     10  C   UNL A   1      37.510  29.276  29.848  1.00  0.00     0.010 A 
ATOM     11  C   UNL A   1      38.456  29.331  28.813  1.00  0.00    -0.014 A 
BRANCH  11  12
ATOM     12  C   UNL A   1      39.877  28.976  29.047  1.00  0.00     0.031 A 
ATOM     13  C   UNL A   1      40.435  27.648  28.625  1.00  0.00     0.074 A 
ATOM     14  C   UNL A   1      40.659  29.885  29.667  1.00  0.00     0.049 A 
ATOM     15  N   UNL A   1      41.648  27.186  28.786  1.00  0.00    -0.248 NA
ATOM     16  C   UNL A   1      39.524  26.715  27.943  1.00  0.00     0.031 C 
ATOM     17  C   UNL A   1      40.212  31.202  30.134  1.00  0.00     0.029 A 
ATOM     18  N   UNL A   1      41.985  29.848  30.011  1.00  0.00    -0.354 N 
ATOM     19  C   UNL A   1      41.643  25.902  28.253  1.00  0.00     0.074 A 
ATOM     20  C   UNL A   1      40.303  25.654  27.767  1.00  0.00     0.031 C 
ATOM     21  C   UNL A   1      41.249  31.856  30.675  1.00  0.00     0.029 A 
ATOM     22  C   UNL A   1      42.412  30.980  30.667  1.00  0.00     0.049 A 
ATOM     23  H   UNL A   1      42.575  29.087  29.808  1.00  0.00     0.167 HD
ATOM     24  C   UNL A   1      42.666  25.017  28.185  1.00  0.00     0.031 A 
ATOM     25  C   UNL A   1      43.594  31.269  31.240  1.00  0.00     0.031 A 
ATOM     26  C   UNL A   1      43.997  25.286  28.666  1.00  0.00     0.049 A 
ATOM     27  C   UNL A   1      44.692  30.247  31.184  1.00  0.00     0.074 A 
ATOM     28  C   UNL A   1      45.120  24.481  28.573  1.00  0.00     0.029 A 
ATOM     29  N   UNL A   1      44.383  26.432  29.346  1.00  0.00    -0.354 N 
ATOM     30  N   UNL A   1      44.690  29.073  30.598  1.00  0.00    -0.248 NA
ATOM     31  C   UNL A   1      45.945  30.581  31.870  1.00  0.00     0.031 C 
ATOM     32  C   UNL A   1      46.165  25.107  29.260  1.00  0.00     0.029 A 
ATOM     33  C   UNL A   1      45.712  26.330  29.725  1.00  0.00     0.049 A 
ATOM     34  H   UNL A   1      43.800  27.203  29.531  1.00  0.00     0.167 HD
ATOM     35  C   UNL A   1      45.946  28.532  30.841  1.00  0.00     0.074 A 
ATOM     36  C   UNL A   1      46.690  29.518  31.597  1.00  0.00     0.031 C 
ATOM     37  C   UNL A   1      46.435  27.321  30.481  1.00  0.00     0.031 A 
BRANCH  24  38
ATOM     38  C   UNL A   1      42.402  23.655  27.600  1.00  0.00    -0.014 A 
ATOM     39  C   UNL A   1      42.744  23.347  26.273  1.00  0.00     0.010 A 
ATOM     40  C   UNL A   1      41.912  22.632  28.436  1.00  0.00     0.010 A 
ATOM     41  C   UNL A   1      42.596  22.042  25.790  1.00  0.00     0.020 A 
ATOM     42  C   UNL A   1      41.784  21.322  27.964  1.00  0.00     0.020 A 
ATOM     43  C   UNL A   1      42.123  21.038  26.640  1.00  0.00     0.054 A 
BRANCH  43  44
ATOM     44  S   UNL A   1      42.009  19.341  26.005  1.00  0.00     0.124 S 
ATOM     45  O   UNL A   1      40.577  19.210  25.748  1.00  0.00    -0.237 OA
ATOM     46  O   UNL A   1      42.857  19.389  24.816  1.00  0.00    -0.237 OA
ATOM     47  O   UNL A   1      42.522  18.523  27.101  1.00  0.00    -0.744 OA
ENDBRANCH  43  44
ENDBRANCH  24  38
BRANCH  25  48
ATOM     48  C   UNL A   1      43.769  32.548  31.979  1.00  0.00    -0.014 A 
ATOM     49  C   UNL A   1      43.468  32.640  33.348  1.00  0.00     0.010 A 
ATOM     50  C   UNL A   1      44.236  33.691  31.302  1.00  0.00     0.010 A 
ATOM     51  C   UNL A   1      43.598  33.861  34.017  1.00  0.00     0.020 A 
ATOM     52  C   UNL A   1      44.401  34.903  31.975  1.00  0.00     0.020 A 
ATOM     53  C   UNL A   1      44.060  34.985  33.325  1.00  0.00     0.054 A 
BRANCH  53  54
ATOM     54  S   UNL A   1      44.230  36.556  34.216  1.00  0.00     0.124 S 
ATOM     55  O   UNL A   1      45.498  37.058  33.699  1.00  0.00    -0.237 OA
ATOM     56  O   UNL A   1      43.039  37.288  33.796  1.00  0.00    -0.237 OA
ATOM     57  O   UNL A   1      44.241  36.151  35.620  1.00  0.00    -0.744 OA
ENDBRANCH  53  54
ENDBRANCH  25  48
BRANCH  37  58
ATOM     58  C   UNL A   1      47.843  26.996  30.896  1.00  0.00    -0.014 A 
ATOM     59  C   UNL A   1      48.097  26.242  32.054  1.00  0.00     0.010 A 
ATOM     60  C   UNL A   1      48.920  27.395  30.084  1.00  0.00     0.010 A 
ATOM     61  C   UNL A   1      49.407  25.906  32.404  1.00  0.00     0.020 A 
ATOM     62  C   UNL A   1      50.228  27.036  30.414  1.00  0.00     0.020 A 
ATOM     63  C   UNL A   1      50.463  26.300  31.578  1.00  0.00     0.054 A 
BRANCH  63  64
ATOM     64  S   UNL A   1      52.148  25.793  32.019  1.00  0.00     0.124 S 
ATOM     65  O   UNL A   1      51.963  24.384  32.358  1.00  0.00    -0.237 OA
ATOM     66  O   UNL A   1      52.891  26.052  30.789  1.00  0.00    -0.237 OA
ATOM     67  O   UNL A   1      52.490  26.663  33.142  1.00  0.00    -0.744 OA
ENDBRANCH  63  64
ENDBRANCH  37  58
ENDBRANCH  11  12
ENDBRANCH   4   6
ENDBRANCH   1   2
BRANCH   1  68
ATOM     68  C   UNL A   1      32.280  27.863  27.306  1.00  0.00     0.042 C 
BRANCH  68  69
ATOM     69  C   UNL A   1      32.127  26.685  26.359  1.00  0.00     0.118 C 
BRANCH  69  70
ATOM     70  N   UNL A   1      31.430  25.566  26.976  1.00  0.00    -0.352 N 
ATOM     71  C   UNL A   1      31.427  24.239  26.638  1.00  0.00     0.254 C 
ATOM     72  H   UNL A   1      30.874  25.799  27.754  1.00  0.00     0.163 HD
ATOM     73  O   UNL A   1      30.657  23.465  27.201  1.00  0.00    -0.269 OA
BRANCH  71  74
ATOM     74  C   UNL A   1      32.306  23.731  25.573  1.00  0.00     0.076 A 
ATOM     75  C   UNL A   1      33.638  23.438  25.892  1.00  0.00     0.025 A 
ATOM     76  C   UNL A   1      31.867  23.609  24.258  1.00  0.00     0.135 A 
ATOM     77  C   UNL A   1      34.523  22.972  24.906  1.00  0.00    -0.017 A 
ATOM     78  C   UNL A   1      32.710  23.101  23.278  1.00  0.00     0.041 A 
ATOM     79  F   UNL A   1      30.625  23.971  23.904  1.00  0.00    -0.206 F 
ATOM     80  C   UNL A   1      34.028  22.777  23.603  1.00  0.00     0.012 A 
BRANCH  77  81
ATOM     81  C   UNL A   1      35.944  22.755  25.212  1.00  0.00    -0.018 A 
ATOM     82  C   UNL A   1      36.579  21.534  24.935  1.00  0.00     0.009 A 
ATOM     83  C   UNL A   1      36.697  23.769  25.828  1.00  0.00     0.009 A 
ATOM     84  C   UNL A   1      37.923  21.336  25.268  1.00  0.00     0.001 A 
ATOM     85  C   UNL A   1      38.037  23.571  26.163  1.00  0.00     0.001 A 
ATOM     86  C   UNL A   1      38.649  22.354  25.882  1.00  0.00     0.000 A 
ENDBRANCH  77  81
ENDBRANCH  71  74
ENDBRANCH  69  70
ENDBRANCH  68  69
ENDBRANCH   1  68
TORSDOF 14
ENDMDL
MODEL 2
REMARK VINA RESULT:     -11.1      2.612      9.298
REMARK SMILES O=C(NCCCNC(=O)c1cc(-c2ccccc2)ccc1F)c1ccc(-c2c3nc(c(-c4ccc(S(=O)(=O)[O-])cc4)c4ccc([nH]4)c(-c4ccc(S(=O)(=O)[O-])cc4)c4nc(c(-c5ccc(S(=O)(=O)[O-])cc5)c5ccc2[nH]5)C=C4)C=C3)cc1
REMARK SMILES IDX 4 1 3 2 1 3 2 4 23 6 24 7 82 8 25 9 81 10 26 11 27 12 28 13
REMARK SMILES IDX 75 14 29 15 80 16 74 17 76 18 30 19 79 20 73 21 72 22 31 24
REMARK SMILES IDX 61 25 42 26 60 27 43 28 46 29 59 30 77 31 44 32 45 33 58 35
REMARK SMILES IDX 78 36 47 37 32 38 33 39 41 40 34 41 40 42 35 43 36 44 37 45
REMARK SMILES IDX 38 46 39 47 62 48 63 49 71 50 64 51 70 52 65 53 66 54 67 55
REMARK SMILES IDX 68 56 69 57 48 58 49 59 57 60 50 61 56 62 51 63 52 64 53 65
REMARK SMILES IDX 54 66 55 67 5 68 6 69 7 70 8 71 9 73 10 74 11 75 21 76 12 77
REMARK SMILES IDX 20 78 22 79 19 80 13 81 14 82 18 83 15 84 17 85 16 86
REMARK H PARENT 3 5 76 23 46 34 7 72
REMARK Flexibility Score: inf
ROOT
ATOM      1  C   UNL A   1      36.870  23.699  25.120  1.00  0.00     0.118 C 
ENDROOT
BRANCH   1   2
ATOM      2  N   UNL A   1      37.879  22.698  25.439  1.00  0.00    -0.352 N 
ATOM      3  O   UNL A   1      39.891  21.910  26.069  1.00  0.00    -0.269 OA
ATOM      4  C   UNL A   1      39.085  22.839  26.077  1.00  0.00     0.251 C 
ATOM      5  H   UNL A   1      37.663  21.781  25.152  1.00  0.00     0.163 HD
BRANCH   4   6
ATOM      6  C   UNL A   1      39.419  24.106  26.763  1.00  0.00     0.039 A 
ATOM      7  C   UNL A   1      39.046  24.313  28.093  1.00  0.00     0.014 A 
ATOM      8  C   UNL A   1      40.149  25.083  26.082  1.00  0.00     0.014 A 
ATOM      9  C   UNL A   1      39.281  25.540  28.698  1.00  0.00     0.010 A 
ATOM     10  C   UNL A   1      40.477  26.280  26.726  1.00  0.00     0.010 A 
ATOM     11  C   UNL A   1      40.034  26.521  28.036  1.00  0.00    -0.014 A 
BRANCH  11  12
ATOM     12  C   UNL A   1      40.471  27.723  28.788  1.00  0.00     0.031 A 
ATOM     13  C   UNL A   1      39.552  28.888  29.010  1.00  0.00     0.074 A 
ATOM     14  C   UNL A   1      41.734  27.744  29.262  1.00  0.00     0.049 A 
ATOM     15  N   UNL A   1      39.799  30.016  29.624  1.00  0.00    -0.248 NA
ATOM     16  C   UNL A   1      38.184  28.785  28.474  1.00  0.00     0.031 C 
ATOM     17  C   UNL A   1      42.718  26.668  29.088  1.00  0.00     0.029 A 
ATOM     18  N   UNL A   1      42.411  28.692  29.983  1.00  0.00    -0.354 N 
ATOM     19  C   UNL A   1      38.635  30.769  29.527  1.00  0.00     0.074 A 
ATOM     20  C   UNL A   1      37.679  29.972  28.790  1.00  0.00     0.031 C 
ATOM     21  C   UNL A   1      43.857  27.005  29.709  1.00  0.00     0.029 A 
ATOM     22  C   UNL A   1      43.714  28.347  30.255  1.00  0.00     0.049 A 
ATOM     23  H   UNL A   1      42.003  29.538  30.279  1.00  0.00     0.167 HD
ATOM     24  C   UNL A   1      38.397  32.013  30.008  1.00  0.00     0.031 A 
ATOM     25  C   UNL A   1      44.704  29.046  30.839  1.00  0.00     0.031 A 
ATOM     26  C   UNL A   1      39.359  32.788  30.749  1.00  0.00     0.049 A 
ATOM     27  C   UNL A   1      44.417  30.438  31.322  1.00  0.00     0.074 A 
ATOM     28  C   UNL A   1      39.186  34.027  31.343  1.00  0.00     0.029 A 
ATOM     29  N   UNL A   1      40.674  32.415  30.982  1.00  0.00    -0.354 N 
ATOM     30  N   UNL A   1      43.283  31.097  31.296  1.00  0.00    -0.248 NA
ATOM     31  C   UNL A   1      45.540  31.184  31.902  1.00  0.00     0.031 C 
ATOM     32  C   UNL A   1      40.415  34.435  31.870  1.00  0.00     0.029 A 
ATOM     33  C   UNL A   1      41.338  33.423  31.662  1.00  0.00     0.049 A 
ATOM     34  H   UNL A   1      41.077  31.560  30.705  1.00  0.00     0.167 HD
ATOM     35  C   UNL A   1      43.556  32.334  31.864  1.00  0.00     0.074 A 
ATOM     36  C   UNL A   1      44.952  32.320  32.252  1.00  0.00     0.031 C 
ATOM     37  C   UNL A   1      42.728  33.393  32.036  1.00  0.00     0.031 A 
BRANCH  24  38
ATOM     38  C   UNL A   1      37.059  32.647  29.732  1.00  0.00    -0.014 A 
ATOM     39  C   UNL A   1      35.998  32.548  30.647  1.00  0.00     0.010 A 
ATOM     40  C   UNL A   1      36.906  33.458  28.591  1.00  0.00     0.010 A 
ATOM     41  C   UNL A   1      34.805  33.244  30.423  1.00  0.00     0.020 A 
ATOM     42  C   UNL A   1      35.724  34.172  28.374  1.00  0.00     0.020 A 
ATOM     43  C   UNL A   1      34.678  34.056  29.291  1.00  0.00     0.054 A 
BRANCH  43  44
ATOM     44  S   UNL A   1      33.145  35.001  29.064  1.00  0.00     0.124 S 
ATOM     45  O   UNL A   1      33.653  36.299  28.627  1.00  0.00    -0.237 OA
ATOM     46  O   UNL A   1      32.442  34.227  28.044  1.00  0.00    -0.237 OA
ATOM     47  O   UNL A   1      32.528  34.988  30.388  1.00  0.00    -0.744 OA
ENDBRANCH  43  44
ENDBRANCH  24  38
BRANCH  25  48
ATOM     48  C   UNL A   1      46.072  28.466  30.929  1.00  0.00    -0.014 A 
ATOM     49  C   UNL A   1      47.011  28.666  29.904  1.00  0.00     0.010 A 
ATOM     50  C   UNL A   1      46.436  27.697  32.051  1.00  0.00     0.010 A 
ATOM     51  C   UNL A   1      48.277  28.079  29.984  1.00  0.00     0.020 A 
ATOM     52  C   UNL A   1      47.711  27.139  32.151  1.00  0.00     0.020 A 
ATOM     53  C   UNL A   1      48.617  27.316  31.106  1.00  0.00     0.054 A 
BRANCH  53  54
ATOM     54  S   UNL A   1      50.269  26.572  31.193  1.00  0.00     0.124 S 
ATOM     55  O   UNL A   1      50.925  27.414  32.187  1.00  0.00    -0.237 OA
ATOM     56  O   UNL A   1      49.978  25.204  31.613  1.00  0.00    -0.237 OA
ATOM     57  O   UNL A   1      50.774  26.703  29.828  1.00  0.00    -0.744 OA
ENDBRANCH  53  54
ENDBRANCH  25  48
BRANCH  37  58
ATOM     58  C   UNL A   1      43.309  34.622  32.678  1.00  0.00    -0.014 A 
ATOM     59  C   UNL A   1      43.798  35.681  31.894  1.00  0.00     0.010 A 
ATOM     60  C   UNL A   1      43.305  34.747  34.079  1.00  0.00     0.010 A 
ATOM     61  C   UNL A   1      44.291  36.839  32.501  1.00  0.00     0.020 A 
ATOM     62  C   UNL A   1      43.770  35.914  34.688  1.00  0.00     0.020 A 
ATOM     63  C   UNL A   1      44.268  36.950  33.894  1.00  0.00     0.054 A 
BRANCH  63  64
ATOM     64  S   UNL A   1      44.851  38.490  34.653  1.00  0.00     0.124 S 
ATOM     65  O   UNL A   1      44.817  39.418  33.526  1.00  0.00    -0.237 OA
ATOM     66  O   UNL A   1      43.855  38.729  35.695  1.00  0.00    -0.237 OA
ATOM     67  O   UNL A   1      46.187  38.153  35.141  1.00  0.00    -0.744 OA
ENDBRANCH  63  64
ENDBRANCH  37  58
ENDBRANCH  11  12
ENDBRANCH   4   6
ENDBRANCH   1   2
BRANCH   1  68
ATOM     68  C   UNL A   1      35.554  23.450  25.840  1.00  0.00     0.042 C 
BRANCH  68  69
ATOM     69  C   UNL A   1      34.454  22.916  24.940  1.00  0.00     0.118 C 
BRANCH  69  70
ATOM     70  N   UNL A   1      34.413  23.595  23.653  1.00  0.00    -0.352 N 
ATOM     71  C   UNL A   1      33.637  24.644  23.237  1.00  0.00     0.254 C 
ATOM     72  H   UNL A   1      35.038  23.246  22.978  1.00  0.00     0.163 HD
ATOM     73  O   UNL A   1      33.652  24.987  22.059  1.00  0.00    -0.269 OA
BRANCH  71  74
ATOM     74  C   UNL A   1      32.747  25.342  24.178  1.00  0.00     0.076 A 
ATOM     75  C   UNL A   1      33.158  26.579  24.691  1.00  0.00     0.025 A 
ATOM     76  C   UNL A   1      31.557  24.770  24.621  1.00  0.00     0.135 A 
ATOM     77  C   UNL A   1      32.354  27.274  25.610  1.00  0.00    -0.017 A 
ATOM     78  C   UNL A   1      30.723  25.463  25.489  1.00  0.00     0.041 A 
ATOM     79  F   UNL A   1      31.184  23.546  24.221  1.00  0.00    -0.206 F 
ATOM     80  C   UNL A   1      31.116  26.711  25.974  1.00  0.00     0.012 A 
BRANCH  77  81
ATOM     81  C   UNL A   1      32.822  28.524  26.224  1.00  0.00    -0.018 A 
ATOM     82  C   UNL A   1      34.094  28.628  26.808  1.00  0.00     0.009 A 
ATOM     83  C   UNL A   1      31.979  29.648  26.268  1.00  0.00     0.009 A 
ATOM     84  C   UNL A   1      34.506  29.816  27.419  1.00  0.00     0.001 A 
ATOM     85  C   UNL A   1      32.387  30.833  26.881  1.00  0.00     0.001 A 
ATOM     86  C   UNL A   1      33.652  30.916  27.456  1.00  0.00     0.000 A 
ENDBRANCH  77  81
ENDBRANCH  71  74
ENDBRANCH  69  70
ENDBRANCH  68  69
ENDBRANCH   1  68
TORSDOF 14
ENDMDL
MODEL 3
REMARK VINA RESULT:     -11.0      2.918      9.139
REMARK SMILES O=C(NCCCNC(=O)c1cc(-c2ccccc2)ccc1F)c1ccc(-c2c3nc(c(-c4ccc(S(=O)(=O)[O-])cc4)c4ccc([nH]4)c(-c4ccc(S(=O)(=O)[O-])cc4)c4nc(c(-c5ccc(S(=O)(=O)[O-])cc5)c5ccc2[nH]5)C=C4)C=C3)cc1
REMARK SMILES IDX 4 1 3 2 1 3 2 4 23 6 24 7 82 8 25 9 81 10 26 11 27 12 28 13
REMARK SMILES IDX 75 14 29 15 80 16 74 17 76 18 30 19 79 20 73 21 72 22 31 24
REMARK SMILES IDX 61 25 42 26 60 27 43 28 46 29 59 30 77 31 44 32 45 33 58 35
REMARK SMILES IDX 78 36 47 37 32 38 33 39 41 40 34 41 40 42 35 43 36 44 37 45
REMARK SMILES IDX 38 46 39 47 62 48 63 49 71 50 64 51 70 52 65 53 66 54 67 55
REMARK SMILES IDX 68 56 69 57 48 58 49 59 57 60 50 61 56 62 51 63 52 64 53 65
REMARK SMILES IDX 54 66 55 67 5 68 6 69 7 70 8 71 9 73 10 74 11 75 21 76 12 77
REMARK SMILES IDX 20 78 22 79 19 80 13 81 14 82 18 83 15 84 17 85 16 86
REMARK H PARENT 3 5 76 23 46 34 7 72
REMARK Flexibility Score: inf
ROOT
ATOM      1  C   UNL A   1      36.959  23.700  25.262  1.00  0.00     0.118 C 
ENDROOT
BRANCH   1   2
ATOM      2  N   UNL A   1      38.028  22.742  25.507  1.00  0.00    -0.352 N 
ATOM      3  O   UNL A   1      40.103  22.039  26.027  1.00  0.00    -0.269 OA
ATOM      4  C   UNL A   1      39.253  22.925  26.098  1.00  0.00     0.251 C 
ATOM      5  H   UNL A   1      37.846  21.824  25.201  1.00  0.00     0.163 HD
BRANCH   4   6
ATOM      6  C   UNL A   1      39.554  24.187  26.808  1.00  0.00     0.039 A 
ATOM      7  C   UNL A   1      39.183  24.356  28.144  1.00  0.00     0.014 A 
ATOM      8  C   UNL A   1      40.252  25.199  26.143  1.00  0.00     0.014 A 
ATOM      9  C   UNL A   1      39.386  25.577  28.773  1.00  0.00     0.010 A 
ATOM     10  C   UNL A   1      40.548  26.392  26.810  1.00  0.00     0.010 A 
ATOM     11  C   UNL A   1      40.107  26.593  28.127  1.00  0.00    -0.014 A 
BRANCH  11  12
ATOM     12  C   UNL A   1      40.512  27.791  28.901  1.00  0.00     0.031 A 
ATOM     13  C   UNL A   1      39.576  28.944  29.114  1.00  0.00     0.074 A 
ATOM     14  C   UNL A   1      41.764  27.821  29.404  1.00  0.00     0.049 A 
ATOM     15  N   UNL A   1      39.796  30.068  29.745  1.00  0.00    -0.248 NA
ATOM     16  C   UNL A   1      38.222  28.832  28.546  1.00  0.00     0.031 C 
ATOM     17  C   UNL A   1      42.764  26.758  29.241  1.00  0.00     0.029 A 
ATOM     18  N   UNL A   1      42.414  28.769  30.150  1.00  0.00    -0.354 N 
ATOM     19  C   UNL A   1      38.626  30.809  29.629  1.00  0.00     0.074 A 
ATOM     20  C   UNL A   1      37.696  30.010  28.862  1.00  0.00     0.031 C 
ATOM     21  C   UNL A   1      43.884  27.101  29.891  1.00  0.00     0.029 A 
ATOM     22  C   UNL A   1      43.715  28.435  30.448  1.00  0.00     0.049 A 
ATOM     23  H   UNL A   1      41.990  29.607  30.446  1.00  0.00     0.167 HD
ATOM     24  C   UNL A   1      38.364  32.045  30.117  1.00  0.00     0.031 A 
ATOM     25  C   UNL A   1      44.683  29.139  31.062  1.00  0.00     0.031 A 
ATOM     26  C   UNL A   1      39.300  32.823  30.888  1.00  0.00     0.049 A 
ATOM     27  C   UNL A   1      44.369  30.522  31.552  1.00  0.00     0.074 A 
ATOM     28  C   UNL A   1      39.100  34.054  31.490  1.00  0.00     0.029 A 
ATOM     29  N   UNL A   1      40.614  32.462  31.147  1.00  0.00    -0.354 N 
ATOM     30  N   UNL A   1      43.229  31.169  31.507  1.00  0.00    -0.248 NA
ATOM     31  C   UNL A   1      45.470  31.274  32.165  1.00  0.00     0.031 C 
ATOM     32  C   UNL A   1      40.311  34.469  32.050  1.00  0.00     0.029 A 
ATOM     33  C   UNL A   1      41.250  33.470  31.852  1.00  0.00     0.049 A 
ATOM     34  H   UNL A   1      41.032  31.614  30.870  1.00  0.00     0.167 HD
ATOM     35  C   UNL A   1      43.475  32.403  32.094  1.00  0.00     0.074 A 
ATOM     36  C   UNL A   1      44.862  32.401  32.514  1.00  0.00     0.031 C 
ATOM     37  C   UNL A   1      42.632  33.451  32.258  1.00  0.00     0.031 A 
BRANCH  24  38
ATOM     38  C   UNL A   1      37.026  32.668  29.817  1.00  0.00    -0.014 A 
ATOM     39  C   UNL A   1      35.966  32.608  30.738  1.00  0.00     0.010 A 
ATOM     40  C   UNL A   1      36.870  33.430  28.643  1.00  0.00     0.010 A 
ATOM     41  C   UNL A   1      34.773  33.294  30.486  1.00  0.00     0.020 A 
ATOM     42  C   UNL A   1      35.688  34.135  28.398  1.00  0.00     0.020 A 
ATOM     43  C   UNL A   1      34.644  34.058  29.321  1.00  0.00     0.054 A 
BRANCH  43  44
ATOM     44  S   UNL A   1      33.111  34.993  29.058  1.00  0.00     0.124 S 
ATOM     45  O   UNL A   1      32.441  34.192  28.035  1.00  0.00    -0.237 OA
ATOM     46  O   UNL A   1      32.491  34.966  30.380  1.00  0.00    -0.237 OA
ATOM     47  O   UNL A   1      33.574  36.306  28.615  1.00  0.00    -0.744 OA
ENDBRANCH  43  44
ENDBRANCH  24  38
BRANCH  25  48
ATOM     48  C   UNL A   1      46.054  28.573  31.177  1.00  0.00    -0.014 A 
ATOM     49  C   UNL A   1      47.008  28.775  30.166  1.00  0.00     0.010 A 
ATOM     50  C   UNL A   1      46.409  27.815  32.310  1.00  0.00     0.010 A 
ATOM     51  C   UNL A   1      48.278  28.201  30.270  1.00  0.00     0.020 A 
ATOM     52  C   UNL A   1      47.687  27.270  32.434  1.00  0.00     0.020 A 
ATOM     53  C   UNL A   1      48.608  27.449  31.401  1.00  0.00     0.054 A 
BRANCH  53  54
ATOM     54  S   UNL A   1      50.265  26.722  31.520  1.00  0.00     0.124 S 
ATOM     55  O   UNL A   1      50.708  27.195  32.827  1.00  0.00    -0.237 OA
ATOM     56  O   UNL A   1      49.990  25.291  31.424  1.00  0.00    -0.237 OA
ATOM     57  O   UNL A   1      50.970  27.292  30.374  1.00  0.00    -0.744 OA
ENDBRANCH  53  54
ENDBRANCH  25  48
BRANCH  37  58
ATOM     58  C   UNL A   1      43.184  34.680  32.926  1.00  0.00    -0.014 A 
ATOM     59  C   UNL A   1      43.733  35.727  32.166  1.00  0.00     0.010 A 
ATOM     60  C   UNL A   1      43.093  34.817  34.323  1.00  0.00     0.010 A 
ATOM     61  C   UNL A   1      44.200  36.885  32.794  1.00  0.00     0.020 A 
ATOM     62  C   UNL A   1      43.531  35.984  34.951  1.00  0.00     0.020 A 
ATOM     63  C   UNL A   1      44.090  37.008  34.182  1.00  0.00     0.054 A 
BRANCH  63  64
ATOM     64  S   UNL A   1      44.640  38.548  34.964  1.00  0.00     0.124 S 
ATOM     65  O   UNL A   1      44.554  38.218  36.384  1.00  0.00    -0.237 OA
ATOM     66  O   UNL A   1      45.992  38.709  34.436  1.00  0.00    -0.237 OA
ATOM     67  O   UNL A   1      43.673  39.540  34.497  1.00  0.00    -0.744 OA
ENDBRANCH  63  64
ENDBRANCH  37  58
ENDBRANCH  11  12
ENDBRANCH   4   6
ENDBRANCH   1   2
BRANCH   1  68
ATOM     68  C   UNL A   1      35.727  23.426  26.110  1.00  0.00     0.042 C 
BRANCH  68  69
ATOM     69  C   UNL A   1      34.510  24.239  25.702  1.00  0.00     0.118 C 
BRANCH  69  70
ATOM     70  N   UNL A   1      33.353  23.964  26.542  1.00  0.00    -0.352 N 
ATOM     71  C   UNL A   1      32.288  23.131  26.325  1.00  0.00     0.254 C 
ATOM     72  H   UNL A   1      33.334  24.451  27.397  1.00  0.00     0.163 HD
ATOM     73  O   UNL A   1      31.334  23.142  27.099  1.00  0.00    -0.269 OA
BRANCH  71  74
ATOM     74  C   UNL A   1      32.247  22.251  25.147  1.00  0.00     0.076 A 
ATOM     75  C   UNL A   1      32.528  20.891  25.322  1.00  0.00     0.025 A 
ATOM     76  C   UNL A   1      32.014  22.750  23.868  1.00  0.00     0.135 A 
ATOM     77  C   UNL A   1      32.525  20.013  24.226  1.00  0.00    -0.017 A 
ATOM     78  C   UNL A   1      31.954  21.892  22.778  1.00  0.00     0.041 A 
ATOM     79  F   UNL A   1      31.835  24.062  23.657  1.00  0.00    -0.206 F 
ATOM     80  C   UNL A   1      32.201  20.530  22.957  1.00  0.00     0.012 A 
BRANCH  77  81
ATOM     81  C   UNL A   1      32.912  18.605  24.387  1.00  0.00    -0.018 A 
ATOM     82  C   UNL A   1      33.513  17.881  23.345  1.00  0.00     0.009 A 
ATOM     83  C   UNL A   1      32.654  17.935  25.596  1.00  0.00     0.009 A 
ATOM     84  C   UNL A   1      33.840  16.531  23.508  1.00  0.00     0.001 A 
ATOM     85  C   UNL A   1      32.978  16.587  25.759  1.00  0.00     0.001 A 
ATOM     86  C   UNL A   1      33.571  15.886  24.713  1.00  0.00     0.000 A 
ENDBRANCH  77  81
ENDBRANCH  71  74
ENDBRANCH  69  70
ENDBRANCH  68  69
ENDBRANCH   1  68
TORSDOF 14
ENDMDL
