MODEL 1
REMARK VINA RESULT:     -11.4      0.000      0.000
REMARK SMILES CC(C)n1cc(C(=O)NCCCNC(=O)c2ccc(-c3c4nc(c(-c5ccc(S(=O)(=O)[O-])cc5)c5ccc([nH]5)c(-c5ccc(S(=O)(=O)[O-])cc5)c5nc(c(-c6ccc(S(=O)(=O)[O-])cc6)c6ccc3[nH]6)C=C5)C=C4)cc2)c2ccccc2c1=O
REMARK SMILES IDX 12 1 11 2 10 3 9 4 7 5 8 6 6 8 4 9 5 10 82 11 81 12 83 13
REMARK SMILES IDX 76 14 80 15 77 16 79 17 78 18 2 19 1 20 3 21 13 22 14 23
REMARK SMILES IDX 15 25 16 26 17 27 75 28 18 29 74 30 19 31 20 32 21 33 68 34
REMARK SMILES IDX 22 35 73 36 67 37 69 38 23 39 72 40 66 41 65 42 24 44 54 45
REMARK SMILES IDX 35 46 53 47 36 48 39 49 52 50 70 51 37 52 38 53 51 55 71 56
REMARK SMILES IDX 40 57 25 58 26 59 34 60 27 61 33 62 28 63 29 64 30 65 31 66
REMARK SMILES IDX 32 67 55 68 56 69 64 70 57 71 63 72 58 73 59 74 60 75 61 76
REMARK SMILES IDX 62 77 41 78 42 79 50 80 43 81 49 82 44 83 45 84 46 85 47 86
REMARK SMILES IDX 48 87
REMARK H PARENT 9 7 13 24 69 43 39 54
REMARK Flexibility Score: inf
ROOT
ATOM      1  C   UNL A   1      33.095  28.656  27.532  1.00  0.00     0.118 C 
ENDROOT
BRANCH   1   2
ATOM      2  C   UNL A   1      32.800  28.160  26.118  1.00  0.00     0.042 C 
BRANCH   2   3
ATOM      3  C   UNL A   1      34.044  28.143  25.229  1.00  0.00     0.118 C 
BRANCH   3   4
ATOM      4  N   UNL A   1      33.770  27.419  24.000  1.00  0.00    -0.352 N 
ATOM      5  C   UNL A   1      33.793  26.108  23.635  1.00  0.00     0.253 C 
ATOM      6  O   UNL A   1      33.663  25.915  22.424  1.00  0.00    -0.269 OA
ATOM      7  H   UNL A   1      33.507  28.012  23.261  1.00  0.00     0.163 HD
BRANCH   5   8
ATOM      8  C   UNL A   1      33.877  24.957  24.611  1.00  0.00     0.064 A 
ATOM      9  N   UNL A   1      35.241  23.284  25.732  1.00  0.00    -0.312 N 
ATOM     10  C   UNL A   1      35.007  24.243  24.747  1.00  0.00     0.104 A 
ATOM     11  C   UNL A   1      34.219  22.902  26.610  1.00  0.00     0.258 A 
ATOM     12  C   UNL A   1      32.869  23.456  26.334  1.00  0.00     0.048 A 
ATOM     13  O   UNL A   1      34.346  22.153  27.570  1.00  0.00    -0.269 OA
ATOM     14  C   UNL A   1      32.700  24.486  25.397  1.00  0.00     0.001 A 
ATOM     15  C   UNL A   1      31.771  22.904  27.021  1.00  0.00     0.014 A 
ATOM     16  C   UNL A   1      31.392  24.971  25.214  1.00  0.00     0.010 A 
ATOM     17  C   UNL A   1      30.485  23.381  26.793  1.00  0.00     0.001 A 
ATOM     18  C   UNL A   1      30.298  24.422  25.894  1.00  0.00     0.001 A 
BRANCH   9  19
ATOM     19  C   UNL A   1      36.641  22.767  25.852  1.00  0.00     0.084 C 
ATOM     20  C   UNL A   1      36.916  21.651  24.828  1.00  0.00     0.031 C 
ATOM     21  C   UNL A   1      37.774  23.793  25.747  1.00  0.00     0.031 C 
ENDBRANCH   9  19
ENDBRANCH   5   8
ENDBRANCH   3   4
ENDBRANCH   2   3
ENDBRANCH   1   2
BRANCH   1  22
ATOM     22  N   UNL A   1      33.239  30.107  27.587  1.00  0.00    -0.352 N 
ATOM     23  C   UNL A   1      34.308  30.864  28.004  1.00  0.00     0.251 C 
ATOM     24  H   UNL A   1      32.455  30.618  27.279  1.00  0.00     0.163 HD
ATOM     25  O   UNL A   1      34.173  32.069  28.184  1.00  0.00    -0.269 OA
BRANCH  23  26
ATOM     26  C   UNL A   1      35.605  30.206  28.261  1.00  0.00     0.039 A 
ATOM     27  C   UNL A   1      35.882  29.679  29.523  1.00  0.00     0.014 A 
ATOM     28  C   UNL A   1      36.565  30.156  27.248  1.00  0.00     0.014 A 
ATOM     29  C   UNL A   1      37.178  29.285  29.830  1.00  0.00     0.010 A 
ATOM     30  C   UNL A   1      37.842  29.664  27.533  1.00  0.00     0.010 A 
ATOM     31  C   UNL A   1      38.177  29.281  28.842  1.00  0.00    -0.014 A 
BRANCH  31  32
ATOM     32  C   UNL A   1      39.564  28.894  29.210  1.00  0.00     0.031 A 
ATOM     33  C   UNL A   1      40.404  29.791  30.083  1.00  0.00     0.074 A 
ATOM     34  C   UNL A   1      40.041  27.698  28.812  1.00  0.00     0.049 A 
ATOM     35  N   UNL A   1      41.623  29.600  30.520  1.00  0.00    -0.248 NA
ATOM     36  C   UNL A   1      39.806  31.064  30.523  1.00  0.00     0.031 C 
ATOM     37  C   UNL A   1      39.303  26.733  27.994  1.00  0.00     0.029 A 
ATOM     38  N   UNL A   1      41.236  27.073  29.064  1.00  0.00    -0.354 N 
ATOM     39  C   UNL A   1      41.941  30.728  31.270  1.00  0.00     0.074 A 
ATOM     40  C   UNL A   1      40.804  31.617  31.200  1.00  0.00     0.031 C 
ATOM     41  C   UNL A   1      40.031  25.614  27.870  1.00  0.00     0.029 A 
ATOM     42  C   UNL A   1      41.321  25.811  28.524  1.00  0.00     0.049 A 
ATOM     43  H   UNL A   1      41.963  27.488  29.584  1.00  0.00     0.167 HD
ATOM     44  C   UNL A   1      43.071  30.986  31.969  1.00  0.00     0.031 A 
ATOM     45  C   UNL A   1      42.325  24.910  28.536  1.00  0.00     0.031 A 
ATOM     46  C   UNL A   1      44.190  30.082  32.047  1.00  0.00     0.049 A 
ATOM     47  C   UNL A   1      43.594  25.248  29.263  1.00  0.00     0.074 A 
ATOM     48  C   UNL A   1      45.375  30.249  32.742  1.00  0.00     0.029 A 
ATOM     49  N   UNL A   1      44.264  28.845  31.422  1.00  0.00    -0.354 N 
ATOM     50  N   UNL A   1      43.873  26.317  29.970  1.00  0.00    -0.248 NA
ATOM     51  C   UNL A   1      44.683  24.265  29.200  1.00  0.00     0.031 C 
ATOM     52  C   UNL A   1      46.196  29.151  32.474  1.00  0.00     0.029 A 
ATOM     53  C   UNL A   1      45.489  28.255  31.686  1.00  0.00     0.049 A 
ATOM     54  H   UNL A   1      43.552  28.446  30.872  1.00  0.00     0.167 HD
ATOM     55  C   UNL A   1      45.165  26.130  30.448  1.00  0.00     0.074 A 
ATOM     56  C   UNL A   1      45.602  24.835  29.970  1.00  0.00     0.031 C 
ATOM     57  C   UNL A   1      45.918  26.963  31.208  1.00  0.00     0.031 A 
BRANCH  44  58
ATOM     58  C   UNL A   1      43.178  32.293  32.715  1.00  0.00    -0.014 A 
ATOM     59  C   UNL A   1      42.699  32.384  34.037  1.00  0.00     0.010 A 
ATOM     60  C   UNL A   1      43.621  33.463  32.072  1.00  0.00     0.010 A 
ATOM     61  C   UNL A   1      42.623  33.619  34.685  1.00  0.00     0.020 A 
ATOM     62  C   UNL A   1      43.578  34.697  32.729  1.00  0.00     0.020 A 
ATOM     63  C   UNL A   1      43.053  34.771  34.021  1.00  0.00     0.054 A 
BRANCH  63  64
ATOM     64  S   UNL A   1      42.907  36.372  34.863  1.00  0.00     0.124 S 
ATOM     65  O   UNL A   1      43.807  36.207  36.000  1.00  0.00    -0.237 OA
ATOM     66  O   UNL A   1      43.350  37.312  33.836  1.00  0.00    -0.237 OA
ATOM     67  O   UNL A   1      41.486  36.453  35.197  1.00  0.00    -0.744 OA
ENDBRANCH  63  64
ENDBRANCH  44  58
BRANCH  45  68
ATOM     68  C   UNL A   1      42.134  23.605  27.842  1.00  0.00    -0.014 A 
ATOM     69  C   UNL A   1      41.484  22.540  28.497  1.00  0.00     0.010 A 
ATOM     70  C   UNL A   1      42.694  23.382  26.573  1.00  0.00     0.010 A 
ATOM     71  C   UNL A   1      41.463  21.264  27.931  1.00  0.00     0.020 A 
ATOM     72  C   UNL A   1      42.641  22.113  25.986  1.00  0.00     0.020 A 
ATOM     73  C   UNL A   1      42.058  21.055  26.686  1.00  0.00     0.054 A 
BRANCH  73  74
ATOM     74  S   UNL A   1      42.086  19.372  26.010  1.00  0.00     0.124 S 
ATOM     75  O   UNL A   1      40.673  19.144  25.720  1.00  0.00    -0.237 OA
ATOM     76  O   UNL A   1      42.954  19.513  24.843  1.00  0.00    -0.237 OA
ATOM     77  O   UNL A   1      42.638  18.573  27.101  1.00  0.00    -0.744 OA
ENDBRANCH  73  74
ENDBRANCH  45  68
BRANCH  57  78
ATOM     78  C   UNL A   1      47.307  26.521  31.588  1.00  0.00    -0.014 A 
ATOM     79  C   UNL A   1      48.363  26.674  30.669  1.00  0.00     0.010 A 
ATOM     80  C   UNL A   1      47.538  25.820  32.785  1.00  0.00     0.010 A 
ATOM     81  C   UNL A   1      49.608  26.090  30.916  1.00  0.00     0.020 A 
ATOM     82  C   UNL A   1      48.793  25.265  33.051  1.00  0.00     0.020 A 
ATOM     83  C   UNL A   1      49.810  25.377  32.100  1.00  0.00     0.054 A 
BRANCH  83  84
ATOM     84  S   UNL A   1      51.414  24.576  32.373  1.00  0.00     0.124 S 
ATOM     85  O   UNL A   1      52.283  25.307  31.456  1.00  0.00    -0.237 OA
ATOM     86  O   UNL A   1      51.653  24.816  33.794  1.00  0.00    -0.237 OA
ATOM     87  O   UNL A   1      51.166  23.180  32.018  1.00  0.00    -0.744 OA
ENDBRANCH  83  84
ENDBRANCH  57  78
ENDBRANCH  31  32
ENDBRANCH  23  26
ENDBRANCH   1  22
TORSDOF 14
ENDMDL
MODEL 2
REMARK VINA RESULT:     -11.2      2.542      9.513
REMARK SMILES CC(C)n1cc(C(=O)NCCCNC(=O)c2ccc(-c3c4nc(c(-c5ccc(S(=O)(=O)[O-])cc5)c5ccc([nH]5)c(-c5ccc(S(=O)(=O)[O-])cc5)c5nc(c(-c6ccc(S(=O)(=O)[O-])cc6)c6ccc3[nH]6)C=C5)C=C4)cc2)c2ccccc2c1=O
REMARK SMILES IDX 12 1 11 2 10 3 9 4 7 5 8 6 6 8 4 9 5 10 82 11 81 12 83 13
REMARK SMILES IDX 76 14 80 15 77 16 79 17 78 18 2 19 1 20 3 21 13 22 14 23
REMARK SMILES IDX 15 25 16 26 17 27 75 28 18 29 74 30 19 31 20 32 21 33 68 34
REMARK SMILES IDX 22 35 73 36 67 37 69 38 23 39 72 40 66 41 65 42 24 44 54 45
REMARK SMILES IDX 35 46 53 47 36 48 39 49 52 50 70 51 37 52 38 53 51 55 71 56
REMARK SMILES IDX 40 57 25 58 26 59 34 60 27 61 33 62 28 63 29 64 30 65 31 66
REMARK SMILES IDX 32 67 55 68 56 69 64 70 57 71 63 72 58 73 59 74 60 75 61 76
REMARK SMILES IDX 62 77 41 78 42 79 50 80 43 81 49 82 44 83 45 84 46 85 47 86
REMARK SMILES IDX 48 87
REMARK H PARENT 9 7 13 24 69 43 39 54
REMARK Flexibility Score: inf
ROOT
ATOM      1  C   UNL A   1      36.933  23.260  25.260  1.00  0.00     0.118 C 
ENDROOT
BRANCH   1   2
ATOM      2  C   UNL A   1      35.609  22.622  25.676  1.00  0.00     0.042 C 
BRANCH   2   3
ATOM      3  C   UNL A   1      34.996  23.290  26.907  1.00  0.00     0.118 C 
BRANCH   3   4
ATOM      4  N   UNL A   1      33.548  23.197  26.857  1.00  0.00    -0.352 N 
ATOM      5  C   UNL A   1      32.547  24.027  26.456  1.00  0.00     0.253 C 
ATOM      6  O   UNL A   1      31.414  23.635  26.744  1.00  0.00    -0.269 OA
ATOM      7  H   UNL A   1      33.212  22.334  27.190  1.00  0.00     0.163 HD
BRANCH   5   8
ATOM      8  C   UNL A   1      32.763  25.283  25.643  1.00  0.00     0.064 A 
ATOM      9  N   UNL A   1      33.057  27.697  25.598  1.00  0.00    -0.312 N 
ATOM     10  C   UNL A   1      32.706  26.498  26.216  1.00  0.00     0.104 A 
ATOM     11  C   UNL A   1      33.395  27.726  24.239  1.00  0.00     0.258 A 
ATOM     12  C   UNL A   1      33.210  26.459  23.486  1.00  0.00     0.048 A 
ATOM     13  O   UNL A   1      33.817  28.699  23.629  1.00  0.00    -0.269 OA
ATOM     14  C   UNL A   1      32.947  25.259  24.164  1.00  0.00     0.001 A 
ATOM     15  C   UNL A   1      33.286  26.504  22.081  1.00  0.00     0.014 A 
ATOM     16  C   UNL A   1      32.812  24.101  23.378  1.00  0.00     0.010 A 
ATOM     17  C   UNL A   1      33.111  25.348  21.328  1.00  0.00     0.001 A 
ATOM     18  C   UNL A   1      32.883  24.144  21.980  1.00  0.00     0.001 A 
BRANCH   9  19
ATOM     19  C   UNL A   1      33.141  28.909  26.473  1.00  0.00     0.084 C 
ATOM     20  C   UNL A   1      31.883  29.058  27.347  1.00  0.00     0.031 C 
ATOM     21  C   UNL A   1      34.366  29.025  27.386  1.00  0.00     0.031 C 
ENDBRANCH   9  19
ENDBRANCH   5   8
ENDBRANCH   3   4
ENDBRANCH   2   3
ENDBRANCH   1   2
BRANCH   1  22
ATOM     22  N   UNL A   1      38.076  22.410  25.579  1.00  0.00    -0.352 N 
ATOM     23  C   UNL A   1      39.284  22.746  26.143  1.00  0.00     0.251 C 
ATOM     24  H   UNL A   1      37.965  21.457  25.358  1.00  0.00     0.163 HD
ATOM     25  O   UNL A   1      40.209  21.940  26.140  1.00  0.00    -0.269 OA
BRANCH  23  26
ATOM     26  C   UNL A   1      39.463  24.093  26.723  1.00  0.00     0.039 A 
ATOM     27  C   UNL A   1      40.085  25.096  25.978  1.00  0.00     0.014 A 
ATOM     28  C   UNL A   1      39.048  24.340  28.033  1.00  0.00     0.014 A 
ATOM     29  C   UNL A   1      40.469  26.274  26.605  1.00  0.00     0.010 A 
ATOM     30  C   UNL A   1      39.346  25.568  28.630  1.00  0.00     0.010 A 
ATOM     31  C   UNL A   1      40.113  26.522  27.941  1.00  0.00    -0.014 A 
BRANCH  31  32
ATOM     32  C   UNL A   1      40.573  27.774  28.598  1.00  0.00     0.031 A 
ATOM     33  C   UNL A   1      42.020  27.951  28.980  1.00  0.00     0.074 A 
ATOM     34  C   UNL A   1      39.695  28.779  28.785  1.00  0.00     0.049 A 
ATOM     35  N   UNL A   1      42.599  28.984  29.538  1.00  0.00    -0.248 NA
ATOM     36  C   UNL A   1      42.937  26.831  28.706  1.00  0.00     0.031 C 
ATOM     37  C   UNL A   1      38.277  28.732  28.420  1.00  0.00     0.029 A 
ATOM     38  N   UNL A   1      39.865  30.043  29.292  1.00  0.00    -0.354 N 
ATOM     39  C   UNL A   1      43.937  28.635  29.693  1.00  0.00     0.074 A 
ATOM     40  C   UNL A   1      44.080  27.282  29.207  1.00  0.00     0.031 C 
ATOM     41  C   UNL A   1      37.724  29.931  28.650  1.00  0.00     0.029 A 
ATOM     42  C   UNL A   1      38.721  30.806  29.259  1.00  0.00     0.049 A 
ATOM     43  H   UNL A   1      40.723  30.372  29.645  1.00  0.00     0.167 HD
ATOM     44  C   UNL A   1      44.954  29.385  30.179  1.00  0.00     0.031 A 
ATOM     45  C   UNL A   1      38.487  32.066  29.681  1.00  0.00     0.031 A 
ATOM     46  C   UNL A   1      44.801  30.740  30.643  1.00  0.00     0.049 A 
ATOM     47  C   UNL A   1      39.618  32.854  30.276  1.00  0.00     0.074 A 
ATOM     48  C   UNL A   1      45.776  31.587  31.140  1.00  0.00     0.029 A 
ATOM     49  N   UNL A   1      43.608  31.450  30.661  1.00  0.00    -0.354 N 
ATOM     50  N   UNL A   1      40.876  32.508  30.409  1.00  0.00    -0.248 NA
ATOM     51  C   UNL A   1      39.305  34.198  30.777  1.00  0.00     0.031 C 
ATOM     52  C   UNL A   1      45.161  32.778  31.531  1.00  0.00     0.029 A 
ATOM     53  C   UNL A   1      43.818  32.711  31.194  1.00  0.00     0.049 A 
ATOM     54  H   UNL A   1      42.742  31.107  30.342  1.00  0.00     0.167 HD
ATOM     55  C   UNL A   1      41.509  33.596  30.997  1.00  0.00     0.074 A 
ATOM     56  C   UNL A   1      40.500  34.621  31.170  1.00  0.00     0.031 C 
ATOM     57  C   UNL A   1      42.808  33.727  31.363  1.00  0.00     0.031 A 
BRANCH  44  58
ATOM     58  C   UNL A   1      46.334  28.778  30.243  1.00  0.00    -0.014 A 
ATOM     59  C   UNL A   1      47.197  28.887  29.134  1.00  0.00     0.010 A 
ATOM     60  C   UNL A   1      46.729  27.985  31.335  1.00  0.00     0.010 A 
ATOM     61  C   UNL A   1      48.404  28.186  29.098  1.00  0.00     0.020 A 
ATOM     62  C   UNL A   1      47.953  27.307  31.318  1.00  0.00     0.020 A 
ATOM     63  C   UNL A   1      48.770  27.391  30.188  1.00  0.00     0.054 A 
BRANCH  63  64
ATOM     64  S   UNL A   1      50.321  26.454  30.106  1.00  0.00     0.124 S 
ATOM     65  O   UNL A   1      49.849  25.095  29.862  1.00  0.00    -0.237 OA
ATOM     66  O   UNL A   1      51.018  27.091  28.990  1.00  0.00    -0.237 OA
ATOM     67  O   UNL A   1      50.926  26.679  31.417  1.00  0.00    -0.744 OA
ENDBRANCH  63  64
ENDBRANCH  44  58
BRANCH  45  68
ATOM     68  C   UNL A   1      37.120  32.639  29.525  1.00  0.00    -0.014 A 
ATOM     69  C   UNL A   1      36.702  33.155  28.282  1.00  0.00     0.010 A 
ATOM     70  C   UNL A   1      36.270  32.771  30.636  1.00  0.00     0.010 A 
ATOM     71  C   UNL A   1      35.501  33.857  28.171  1.00  0.00     0.020 A 
ATOM     72  C   UNL A   1      35.047  33.440  30.519  1.00  0.00     0.020 A 
ATOM     73  C   UNL A   1      34.689  34.010  29.296  1.00  0.00     0.054 A 
BRANCH  73  74
ATOM     74  S   UNL A   1      33.172  34.993  29.143  1.00  0.00     0.124 S 
ATOM     75  O   UNL A   1      32.652  34.954  30.507  1.00  0.00    -0.237 OA
ATOM     76  O   UNL A   1      33.676  36.289  28.697  1.00  0.00    -0.237 OA
ATOM     77  O   UNL A   1      32.386  34.259  28.153  1.00  0.00    -0.744 OA
ENDBRANCH  73  74
ENDBRANCH  45  68
BRANCH  57  78
ATOM     78  C   UNL A   1      43.243  35.023  31.996  1.00  0.00    -0.014 A 
ATOM     79  C   UNL A   1      43.016  35.240  33.368  1.00  0.00     0.010 A 
ATOM     80  C   UNL A   1      43.734  36.080  31.208  1.00  0.00     0.010 A 
ATOM     81  C   UNL A   1      43.222  36.502  33.931  1.00  0.00     0.020 A 
ATOM     82  C   UNL A   1      43.975  37.335  31.775  1.00  0.00     0.020 A 
ATOM     83  C   UNL A   1      43.687  37.546  33.126  1.00  0.00     0.054 A 
BRANCH  83  84
ATOM     84  S   UNL A   1      43.890  39.191  33.862  1.00  0.00     0.124 S 
ATOM     85  O   UNL A   1      42.695  39.887  33.395  1.00  0.00    -0.237 OA
ATOM     86  O   UNL A   1      43.930  38.898  35.293  1.00  0.00    -0.237 OA
ATOM     87  O   UNL A   1      45.152  39.667  33.297  1.00  0.00    -0.744 OA
ENDBRANCH  83  84
ENDBRANCH  57  78
ENDBRANCH  31  32
ENDBRANCH  23  26
ENDBRANCH   1  22
TORSDOF 14
ENDMDL
MODEL 3
REMARK VINA RESULT:     -11.1      0.889      8.356
REMARK SMILES CC(C)n1cc(C(=O)NCCCNC(=O)c2ccc(-c3c4nc(c(-c5ccc(S(=O)(=O)[O-])cc5)c5ccc([nH]5)c(-c5ccc(S(=O)(=O)[O-])cc5)c5nc(c(-c6ccc(S(=O)(=O)[O-])cc6)c6ccc3[nH]6)C=C5)C=C4)cc2)c2ccccc2c1=O
REMARK SMILES IDX 12 1 11 2 10 3 9 4 7 5 8 6 6 8 4 9 5 10 82 11 81 12 83 13
REMARK SMILES IDX 76 14 80 15 77 16 79 17 78 18 2 19 1 20 3 21 13 22 14 23
REMARK SMILES IDX 15 25 16 26 17 27 75 28 18 29 74 30 19 31 20 32 21 33 68 34
REMARK SMILES IDX 22 35 73 36 67 37 69 38 23 39 72 40 66 41 65 42 24 44 54 45
REMARK SMILES IDX 35 46 53 47 36 48 39 49 52 50 70 51 37 52 38 53 51 55 71 56
REMARK SMILES IDX 40 57 25 58 26 59 34 60 27 61 33 62 28 63 29 64 30 65 31 66
REMARK SMILES IDX 32 67 55 68 56 69 64 70 57 71 63 72 58 73 59 74 60 75 61 76
REMARK SMILES IDX 62 77 41 78 42 79 50 80 43 81 49 82 44 83 45 84 46 85 47 86
REMARK SMILES IDX 48 87
REMARK H PARENT 9 7 13 24 69 43 39 54
REMARK Flexibility Score: inf
ROOT
ATOM      1  C   UNL A   1      33.333  28.617  27.555  1.00  0.00     0.118 C 
ENDROOT
BRANCH   1   2
ATOM      2  C   UNL A   1      32.940  28.208  26.136  1.00  0.00     0.042 C 
BRANCH   2   3
ATOM      3  C   UNL A   1      34.123  28.238  25.168  1.00  0.00     0.118 C 
BRANCH   3   4
ATOM      4  N   UNL A   1      33.783  27.533  23.944  1.00  0.00    -0.352 N 
ATOM      5  C   UNL A   1      33.772  26.227  23.562  1.00  0.00     0.253 C 
ATOM      6  O   UNL A   1      33.584  26.050  22.356  1.00  0.00    -0.269 OA
ATOM      7  H   UNL A   1      33.495  28.139  23.225  1.00  0.00     0.163 HD
BRANCH   5   8
ATOM      8  C   UNL A   1      33.884  25.063  24.520  1.00  0.00     0.064 A 
ATOM      9  N   UNL A   1      35.276  23.361  25.560  1.00  0.00    -0.312 N 
ATOM     10  C   UNL A   1      35.012  24.335  24.598  1.00  0.00     0.104 A 
ATOM     11  C   UNL A   1      34.289  22.978  26.476  1.00  0.00     0.258 A 
ATOM     12  C   UNL A   1      32.934  23.549  26.265  1.00  0.00     0.048 A 
ATOM     13  O   UNL A   1      34.448  22.215  27.420  1.00  0.00    -0.269 OA
ATOM     14  C   UNL A   1      32.737  24.593  25.349  1.00  0.00     0.001 A 
ATOM     15  C   UNL A   1      31.861  23.001  26.992  1.00  0.00     0.014 A 
ATOM     16  C   UNL A   1      31.428  25.095  25.228  1.00  0.00     0.010 A 
ATOM     17  C   UNL A   1      30.572  23.493  26.824  1.00  0.00     0.001 A 
ATOM     18  C   UNL A   1      30.358  24.548  25.948  1.00  0.00     0.001 A 
BRANCH   9  19
ATOM     19  C   UNL A   1      36.674  22.827  25.613  1.00  0.00     0.084 C 
ATOM     20  C   UNL A   1      37.064  22.141  24.292  1.00  0.00     0.031 C 
ATOM     21  C   UNL A   1      37.785  23.819  25.976  1.00  0.00     0.031 C 
ENDBRANCH   9  19
ENDBRANCH   5   8
ENDBRANCH   3   4
ENDBRANCH   2   3
ENDBRANCH   1   2
BRANCH   1  22
ATOM     22  N   UNL A   1      33.433  30.065  27.701  1.00  0.00    -0.352 N 
ATOM     23  C   UNL A   1      34.483  30.827  28.159  1.00  0.00     0.251 C 
ATOM     24  H   UNL A   1      32.632  30.571  27.433  1.00  0.00     0.163 HD
ATOM     25  O   UNL A   1      34.314  32.014  28.417  1.00  0.00    -0.269 OA
BRANCH  23  26
ATOM     26  C   UNL A   1      35.802  30.194  28.363  1.00  0.00     0.039 A 
ATOM     27  C   UNL A   1      36.133  29.657  29.608  1.00  0.00     0.014 A 
ATOM     28  C   UNL A   1      36.728  30.177  27.319  1.00  0.00     0.014 A 
ATOM     29  C   UNL A   1      37.446  29.288  29.866  1.00  0.00     0.010 A 
ATOM     30  C   UNL A   1      38.024  29.709  27.554  1.00  0.00     0.010 A 
ATOM     31  C   UNL A   1      38.411  29.318  28.846  1.00  0.00    -0.014 A 
BRANCH  31  32
ATOM     32  C   UNL A   1      39.818  28.957  29.162  1.00  0.00     0.031 A 
ATOM     33  C   UNL A   1      40.370  27.611  28.767  1.00  0.00     0.074 A 
ATOM     34  C   UNL A   1      40.617  29.872  29.745  1.00  0.00     0.049 A 
ATOM     35  N   UNL A   1      41.579  27.139  28.943  1.00  0.00    -0.248 NA
ATOM     36  C   UNL A   1      39.457  26.674  28.091  1.00  0.00     0.031 C 
ATOM     37  C   UNL A   1      40.198  31.220  30.139  1.00  0.00     0.029 A 
ATOM     38  N   UNL A   1      41.948  29.828  30.077  1.00  0.00    -0.354 N 
ATOM     39  C   UNL A   1      41.566  25.852  28.414  1.00  0.00     0.074 A 
ATOM     40  C   UNL A   1      40.223  25.600  27.946  1.00  0.00     0.031 C 
ATOM     41  C   UNL A   1      41.263  31.895  30.593  1.00  0.00     0.029 A 
ATOM     42  C   UNL A   1      42.420  31.007  30.606  1.00  0.00     0.049 A 
ATOM     43  H   UNL A   1      42.510  29.030  29.948  1.00  0.00     0.167 HD
ATOM     44  C   UNL A   1      42.589  24.971  28.314  1.00  0.00     0.031 A 
ATOM     45  C   UNL A   1      43.644  31.340  31.067  1.00  0.00     0.031 A 
ATOM     46  C   UNL A   1      43.929  25.243  28.768  1.00  0.00     0.049 A 
ATOM     47  C   UNL A   1      44.745  30.322  31.003  1.00  0.00     0.074 A 
ATOM     48  C   UNL A   1      45.038  24.418  28.696  1.00  0.00     0.029 A 
ATOM     49  N   UNL A   1      44.348  26.423  29.367  1.00  0.00    -0.354 N 
ATOM     50  N   UNL A   1      44.715  29.113  30.495  1.00  0.00    -0.248 NA
ATOM     51  C   UNL A   1      46.045  30.707  31.569  1.00  0.00     0.031 C 
ATOM     52  C   UNL A   1      46.105  25.066  29.321  1.00  0.00     0.029 A 
ATOM     53  C   UNL A   1      45.688  26.332  29.701  1.00  0.00     0.049 A 
ATOM     54  H   UNL A   1      43.775  27.207  29.530  1.00  0.00     0.167 HD
ATOM     55  C   UNL A   1      45.993  28.596  30.669  1.00  0.00     0.074 A 
ATOM     56  C   UNL A   1      46.779  29.633  31.305  1.00  0.00     0.031 C 
ATOM     57  C   UNL A   1      46.466  27.370  30.334  1.00  0.00     0.031 A 
BRANCH  44  58
ATOM     58  C   UNL A   1      42.324  23.623  27.690  1.00  0.00    -0.014 A 
ATOM     59  C   UNL A   1      41.893  22.552  28.497  1.00  0.00     0.010 A 
ATOM     60  C   UNL A   1      42.630  23.375  26.339  1.00  0.00     0.010 A 
ATOM     61  C   UNL A   1      41.813  21.256  27.981  1.00  0.00     0.020 A 
ATOM     62  C   UNL A   1      42.519  22.085  25.809  1.00  0.00     0.020 A 
ATOM     63  C   UNL A   1      42.137  21.030  26.640  1.00  0.00     0.054 A 
BRANCH  63  64
ATOM     64  S   UNL A   1      42.069  19.334  25.998  1.00  0.00     0.124 S 
ATOM     65  O   UNL A   1      42.611  18.560  27.110  1.00  0.00    -0.237 OA
ATOM     66  O   UNL A   1      40.643  19.152  25.736  1.00  0.00    -0.237 OA
ATOM     67  O   UNL A   1      42.910  19.387  24.804  1.00  0.00    -0.744 OA
ENDBRANCH  63  64
ENDBRANCH  44  58
BRANCH  45  68
ATOM     68  C   UNL A   1      43.865  32.712  31.605  1.00  0.00    -0.014 A 
ATOM     69  C   UNL A   1      43.634  32.988  32.967  1.00  0.00     0.010 A 
ATOM     70  C   UNL A   1      44.201  33.771  30.744  1.00  0.00     0.010 A 
ATOM     71  C   UNL A   1      43.658  34.301  33.441  1.00  0.00     0.020 A 
ATOM     72  C   UNL A   1      44.265  35.084  31.224  1.00  0.00     0.020 A 
ATOM     73  C   UNL A   1      43.957  35.343  32.561  1.00  0.00     0.054 A 
BRANCH  73  74
ATOM     74  S   UNL A   1      43.906  37.045  33.185  1.00  0.00     0.124 S 
ATOM     75  O   UNL A   1      43.882  37.817  31.945  1.00  0.00    -0.237 OA
ATOM     76  O   UNL A   1      42.669  37.062  33.961  1.00  0.00    -0.237 OA
ATOM     77  O   UNL A   1      45.132  37.160  33.970  1.00  0.00    -0.744 OA
ENDBRANCH  73  74
ENDBRANCH  45  68
BRANCH  57  78
ATOM     78  C   UNL A   1      47.906  27.052  30.641  1.00  0.00    -0.014 A 
ATOM     79  C   UNL A   1      48.228  26.335  31.809  1.00  0.00     0.010 A 
ATOM     80  C   UNL A   1      48.944  27.592  29.862  1.00  0.00     0.010 A 
ATOM     81  C   UNL A   1      49.558  26.207  32.219  1.00  0.00     0.020 A 
ATOM     82  C   UNL A   1      50.278  27.436  30.250  1.00  0.00     0.020 A 
ATOM     83  C   UNL A   1      50.573  26.771  31.443  1.00  0.00     0.054 A 
BRANCH  83  84
ATOM     84  S   UNL A   1      52.286  26.646  32.025  1.00  0.00     0.124 S 
ATOM     85  O   UNL A   1      52.945  27.712  31.277  1.00  0.00    -0.237 OA
ATOM     86  O   UNL A   1      52.153  26.873  33.462  1.00  0.00    -0.237 OA
ATOM     87  O   UNL A   1      52.678  25.287  31.651  1.00  0.00    -0.744 OA
ENDBRANCH  83  84
ENDBRANCH  57  78
ENDBRANCH  31  32
ENDBRANCH  23  26
ENDBRANCH   1  22
TORSDOF 14
ENDMDL
