MODEL 1
REMARK VINA RESULT:     -12.0      0.000      0.000
REMARK SMILES O=C(CC1CCN(C(=O)NCc2ccccn2)CC1)NCCCNC(=O)c1ccc(-c2c3nc(c(-c4ccc(S(=O)(=O)[O-])cc4)c4ccc([nH]4)c(-c4ccc(S(=O)(=O)[O-])cc4)c4nc(c(-c5ccc(S(=O)(=O)[O-])cc5)c5ccc2[nH]5)C=C4)C=C3)cc1
REMARK SMILES IDX 22 1 21 2 20 3 1 4 2 5 3 7 4 8 5 9 19 10 6 11 18 12 7 13
REMARK SMILES IDX 8 14 9 15 10 16 11 18 12 19 13 20 17 21 14 22 16 23 15 24
REMARK SMILES IDX 23 25 24 26 25 27 26 29 27 30 28 31 86 32 29 33 85 34 30 35
REMARK SMILES IDX 31 36 32 37 79 38 33 39 84 40 78 41 80 42 34 43 83 44 77 45
REMARK SMILES IDX 76 46 35 48 65 49 46 50 64 51 47 52 50 53 63 54 81 55 48 56
REMARK SMILES IDX 49 57 62 59 82 60 51 61 36 62 37 63 45 64 38 65 44 66 39 67
REMARK SMILES IDX 40 68 41 69 42 70 43 71 66 72 67 73 75 74 68 75 74 76 69 77
REMARK SMILES IDX 70 78 71 79 72 80 73 81 52 82 53 83 61 84 54 85 60 86 55 87
REMARK SMILES IDX 56 88 57 89 58 90 59 91
REMARK H PARENT 20 6 10 17 24 28 80 47 50 58
REMARK Flexibility Score: inf
ROOT
ATOM      1  C   UNL A   1      40.113  22.409  27.331  1.00  0.00     0.042 C 
ENDROOT
BRANCH   1   2
ATOM      2  C   UNL A   1      39.661  21.604  26.119  1.00  0.00     0.117 C 
BRANCH   2   3
ATOM      3  N   UNL A   1      38.453  22.140  25.519  1.00  0.00    -0.356 N 
ATOM      4  O   UNL A   1      37.621  20.134  24.760  1.00  0.00    -0.275 OA
ATOM      5  C   UNL A   1      37.481  21.326  24.973  1.00  0.00     0.220 C 
ATOM      6  H   UNL A   1      38.324  23.115  25.501  1.00  0.00     0.163 HD
BRANCH   5   7
ATOM      7  C   UNL A   1      36.152  22.045  24.784  1.00  0.00     0.103 C 
BRANCH   7   8
ATOM      8  C   UNL A   1      35.737  22.791  26.075  1.00  0.00     0.002 C 
ATOM      9  C   UNL A   1      34.791  21.934  26.945  1.00  0.00     0.026 C 
ATOM     10  C   UNL A   1      35.078  24.165  25.821  1.00  0.00     0.026 C 
ATOM     11  C   UNL A   1      33.326  21.943  26.475  1.00  0.00     0.121 C 
ATOM     12  C   UNL A   1      33.691  23.988  25.214  1.00  0.00     0.121 C 
ATOM     13  N   UNL A   1      32.855  23.304  26.181  1.00  0.00    -0.325 N 
ATOM     14  C   UNL A   1      31.740  23.759  26.819  1.00  0.00     0.317 C 
ATOM     15  O   UNL A   1      31.061  23.020  27.540  1.00  0.00    -0.249 OA
ATOM     16  N   UNL A   1      31.287  25.018  26.725  1.00  0.00    -0.332 N 
ATOM     17  H   UNL A   1      30.422  25.119  27.183  1.00  0.00     0.165 HD
BRANCH  16  18
ATOM     18  C   UNL A   1      31.717  26.277  26.136  1.00  0.00     0.174 C 
BRANCH  18  19
ATOM     19  C   UNL A   1      30.759  26.859  25.118  1.00  0.00     0.060 A 
ATOM     20  C   UNL A   1      31.003  28.060  24.452  1.00  0.00     0.026 A 
ATOM     21  N   UNL A   1      29.658  26.111  24.856  1.00  0.00    -0.259 NA
ATOM     22  C   UNL A   1      30.127  28.471  23.448  1.00  0.00     0.004 A 
ATOM     23  C   UNL A   1      28.813  26.542  23.890  1.00  0.00     0.111 A 
ATOM     24  C   UNL A   1      29.017  27.692  23.151  1.00  0.00     0.020 A 
ENDBRANCH  18  19
ENDBRANCH  16  18
ENDBRANCH   7   8
ENDBRANCH   5   7
ENDBRANCH   2   3
ENDBRANCH   1   2
BRANCH   1  25
ATOM     25  C   UNL A   1      41.483  23.074  27.198  1.00  0.00     0.118 C 
BRANCH  25  26
ATOM     26  N   UNL A   1      41.573  24.009  26.091  1.00  0.00    -0.352 N 
ATOM     27  C   UNL A   1      41.456  25.382  26.079  1.00  0.00     0.251 C 
ATOM     28  H   UNL A   1      41.746  23.599  25.212  1.00  0.00     0.163 HD
ATOM     29  O   UNL A   1      41.383  25.962  24.998  1.00  0.00    -0.269 OA
BRANCH  27  30
ATOM     30  C   UNL A   1      41.374  26.172  27.337  1.00  0.00     0.039 A 
ATOM     31  C   UNL A   1      42.457  26.994  27.675  1.00  0.00     0.014 A 
ATOM     32  C   UNL A   1      40.285  26.087  28.209  1.00  0.00     0.014 A 
ATOM     33  C   UNL A   1      42.409  27.784  28.828  1.00  0.00     0.010 A 
ATOM     34  C   UNL A   1      40.213  26.911  29.332  1.00  0.00     0.010 A 
ATOM     35  C   UNL A   1      41.266  27.781  29.641  1.00  0.00    -0.014 A 
BRANCH  35  36
ATOM     36  C   UNL A   1      41.108  28.749  30.755  1.00  0.00     0.031 A 
ATOM     37  C   UNL A   1      41.929  28.637  32.007  1.00  0.00     0.074 A 
ATOM     38  C   UNL A   1      40.135  29.678  30.661  1.00  0.00     0.049 A 
ATOM     39  N   UNL A   1      41.873  29.363  33.095  1.00  0.00    -0.248 NA
ATOM     40  C   UNL A   1      42.931  27.562  32.052  1.00  0.00     0.031 C 
ATOM     41  C   UNL A   1      39.240  29.849  29.512  1.00  0.00     0.029 A 
ATOM     42  N   UNL A   1      39.721  30.637  31.549  1.00  0.00    -0.354 N 
ATOM     43  C   UNL A   1      42.828  28.835  33.955  1.00  0.00     0.074 A 
ATOM     44  C   UNL A   1      43.421  27.701  33.277  1.00  0.00     0.031 C 
ATOM     45  C   UNL A   1      38.391  30.856  29.763  1.00  0.00     0.029 A 
ATOM     46  C   UNL A   1      38.653  31.377  31.100  1.00  0.00     0.049 A 
ATOM     47  H   UNL A   1      40.147  30.782  32.425  1.00  0.00     0.167 HD
ATOM     48  C   UNL A   1      43.184  29.264  35.191  1.00  0.00     0.031 A 
ATOM     49  C   UNL A   1      37.950  32.357  31.700  1.00  0.00     0.031 A 
ATOM     50  C   UNL A   1      42.572  30.382  35.863  1.00  0.00     0.049 A 
ATOM     51  C   UNL A   1      38.346  32.798  33.081  1.00  0.00     0.074 A 
ATOM     52  C   UNL A   1      42.895  30.930  37.092  1.00  0.00     0.029 A 
ATOM     53  N   UNL A   1      41.500  31.115  35.370  1.00  0.00    -0.354 N 
ATOM     54  N   UNL A   1      39.309  32.339  33.844  1.00  0.00    -0.248 NA
ATOM     55  C   UNL A   1      37.571  33.895  33.674  1.00  0.00     0.031 C 
ATOM     56  C   UNL A   1      41.984  31.955  37.369  1.00  0.00     0.029 A 
ATOM     57  C   UNL A   1      41.133  32.089  36.284  1.00  0.00     0.049 A 
ATOM     58  H   UNL A   1      41.067  30.966  34.500  1.00  0.00     0.167 HD
ATOM     59  C   UNL A   1      39.273  33.112  34.999  1.00  0.00     0.074 A 
ATOM     60  C   UNL A   1      38.204  34.075  34.825  1.00  0.00     0.031 C 
ATOM     61  C   UNL A   1      40.060  33.035  36.101  1.00  0.00     0.031 A 
BRANCH  48  62
ATOM     62  C   UNL A   1      44.280  28.516  35.907  1.00  0.00    -0.014 A 
ATOM     63  C   UNL A   1      43.984  27.429  36.751  1.00  0.00     0.010 A 
ATOM     64  C   UNL A   1      45.626  28.864  35.689  1.00  0.00     0.010 A 
ATOM     65  C   UNL A   1      45.011  26.731  37.394  1.00  0.00     0.020 A 
ATOM     66  C   UNL A   1      46.657  28.149  36.308  1.00  0.00     0.020 A 
ATOM     67  C   UNL A   1      46.341  27.097  37.170  1.00  0.00     0.054 A 
BRANCH  67  68
ATOM     68  S   UNL A   1      47.652  26.158  38.001  1.00  0.00     0.124 S 
ATOM     69  O   UNL A   1      48.417  27.221  38.648  1.00  0.00    -0.237 OA
ATOM     70  O   UNL A   1      46.900  25.288  38.900  1.00  0.00    -0.237 OA
ATOM     71  O   UNL A   1      48.338  25.476  36.906  1.00  0.00    -0.744 OA
ENDBRANCH  67  68
ENDBRANCH  48  62
BRANCH  49  72
ATOM     72  C   UNL A   1      36.812  32.992  30.983  1.00  0.00    -0.014 A 
ATOM     73  C   UNL A   1      35.488  32.726  31.371  1.00  0.00     0.010 A 
ATOM     74  C   UNL A   1      37.048  33.895  29.929  1.00  0.00     0.010 A 
ATOM     75  C   UNL A   1      34.419  33.339  30.710  1.00  0.00     0.020 A 
ATOM     76  C   UNL A   1      35.984  34.531  29.284  1.00  0.00     0.020 A 
ATOM     77  C   UNL A   1      34.675  34.240  29.672  1.00  0.00     0.054 A 
BRANCH  77  78
ATOM     78  S   UNL A   1      33.274  35.066  28.868  1.00  0.00     0.124 S 
ATOM     79  O   UNL A   1      32.463  35.468  30.013  1.00  0.00    -0.237 OA
ATOM     80  O   UNL A   1      33.925  36.152  28.140  1.00  0.00    -0.237 OA
ATOM     81  O   UNL A   1      32.698  34.019  28.028  1.00  0.00    -0.744 OA
ENDBRANCH  77  78
ENDBRANCH  49  72
BRANCH  61  82
ATOM     82  C   UNL A   1      39.812  34.037  37.197  1.00  0.00    -0.014 A 
ATOM     83  C   UNL A   1      39.030  33.714  38.320  1.00  0.00     0.010 A 
ATOM     84  C   UNL A   1      40.414  35.307  37.123  1.00  0.00     0.010 A 
ATOM     85  C   UNL A   1      38.830  34.653  39.335  1.00  0.00     0.020 A 
ATOM     86  C   UNL A   1      40.240  36.238  38.149  1.00  0.00     0.020 A 
ATOM     87  C   UNL A   1      39.438  35.909  39.243  1.00  0.00     0.054 A 
BRANCH  87  88
ATOM     88  S   UNL A   1      39.200  37.094  40.597  1.00  0.00     0.124 S 
ATOM     89  O   UNL A   1      38.612  36.254  41.635  1.00  0.00    -0.237 OA
ATOM     90  O   UNL A   1      40.561  37.559  40.858  1.00  0.00    -0.237 OA
ATOM     91  O   UNL A   1      38.305  38.098  40.025  1.00  0.00    -0.744 OA
ENDBRANCH  87  88
ENDBRANCH  61  82
ENDBRANCH  35  36
ENDBRANCH  27  30
ENDBRANCH  25  26
ENDBRANCH   1  25
TORSDOF 16
ENDMDL
MODEL 2
REMARK VINA RESULT:     -11.8      4.615     10.616
REMARK SMILES O=C(CC1CCN(C(=O)NCc2ccccn2)CC1)NCCCNC(=O)c1ccc(-c2c3nc(c(-c4ccc(S(=O)(=O)[O-])cc4)c4ccc([nH]4)c(-c4ccc(S(=O)(=O)[O-])cc4)c4nc(c(-c5ccc(S(=O)(=O)[O-])cc5)c5ccc2[nH]5)C=C4)C=C3)cc1
REMARK SMILES IDX 22 1 21 2 20 3 1 4 2 5 3 7 4 8 5 9 19 10 6 11 18 12 7 13
REMARK SMILES IDX 8 14 9 15 10 16 11 18 12 19 13 20 17 21 14 22 16 23 15 24
REMARK SMILES IDX 23 25 24 26 25 27 26 29 27 30 28 31 86 32 29 33 85 34 30 35
REMARK SMILES IDX 31 36 32 37 79 38 33 39 84 40 78 41 80 42 34 43 83 44 77 45
REMARK SMILES IDX 76 46 35 48 65 49 46 50 64 51 47 52 50 53 63 54 81 55 48 56
REMARK SMILES IDX 49 57 62 59 82 60 51 61 36 62 37 63 45 64 38 65 44 66 39 67
REMARK SMILES IDX 40 68 41 69 42 70 43 71 66 72 67 73 75 74 68 75 74 76 69 77
REMARK SMILES IDX 70 78 71 79 72 80 73 81 52 82 53 83 61 84 54 85 60 86 55 87
REMARK SMILES IDX 56 88 57 89 58 90 59 91
REMARK H PARENT 20 6 10 17 24 28 80 47 50 58
REMARK Flexibility Score: inf
ROOT
ATOM      1  C   UNL A   1      31.959  28.166  26.895  1.00  0.00     0.042 C 
ENDROOT
BRANCH   1   2
ATOM      2  C   UNL A   1      31.581  28.353  25.431  1.00  0.00     0.117 C 
BRANCH   2   3
ATOM      3  N   UNL A   1      31.802  27.153  24.646  1.00  0.00    -0.356 N 
ATOM      4  O   UNL A   1      33.830  27.783  23.761  1.00  0.00    -0.275 OA
ATOM      5  C   UNL A   1      32.974  26.935  23.949  1.00  0.00     0.220 C 
ATOM      6  H   UNL A   1      31.092  26.473  24.608  1.00  0.00     0.163 HD
BRANCH   5   7
ATOM      7  C   UNL A   1      33.159  25.478  23.551  1.00  0.00     0.103 C 
BRANCH   7   8
ATOM      8  C   UNL A   1      33.053  24.549  24.784  1.00  0.00     0.002 C 
ATOM      9  C   UNL A   1      34.358  24.554  25.610  1.00  0.00     0.026 C 
ATOM     10  C   UNL A   1      32.683  23.088  24.439  1.00  0.00     0.026 C 
ATOM     11  C   UNL A   1      35.467  23.656  25.036  1.00  0.00     0.121 C 
ATOM     12  C   UNL A   1      33.845  22.394  23.739  1.00  0.00     0.121 C 
ATOM     13  N   UNL A   1      34.959  22.328  24.666  1.00  0.00    -0.325 N 
ATOM     14  C   UNL A   1      35.556  21.228  25.206  1.00  0.00     0.317 C 
ATOM     15  O   UNL A   1      36.574  21.321  25.900  1.00  0.00    -0.249 OA
ATOM     16  N   UNL A   1      35.105  19.976  25.040  1.00  0.00    -0.332 N 
ATOM     17  H   UNL A   1      35.726  19.320  25.431  1.00  0.00     0.165 HD
BRANCH  16  18
ATOM     18  C   UNL A   1      33.954  19.315  24.443  1.00  0.00     0.174 C 
BRANCH  18  19
ATOM     19  C   UNL A   1      33.777  17.866  24.847  1.00  0.00     0.060 A 
ATOM     20  C   UNL A   1      32.557  17.347  25.279  1.00  0.00     0.026 A 
ATOM     21  N   UNL A   1      34.878  17.084  24.718  1.00  0.00    -0.259 NA
ATOM     22  C   UNL A   1      32.449  15.979  25.525  1.00  0.00     0.004 A 
ATOM     23  C   UNL A   1      34.752  15.762  24.982  1.00  0.00     0.111 A 
ATOM     24  C   UNL A   1      33.564  15.166  25.362  1.00  0.00     0.020 A 
ENDBRANCH  18  19
ENDBRANCH  16  18
ENDBRANCH   7   8
ENDBRANCH   5   7
ENDBRANCH   2   3
ENDBRANCH   1   2
BRANCH   1  25
ATOM     25  C   UNL A   1      33.344  28.683  27.282  1.00  0.00     0.118 C 
BRANCH  25  26
ATOM     26  N   UNL A   1      33.383  30.111  27.545  1.00  0.00    -0.352 N 
ATOM     27  C   UNL A   1      34.372  30.878  28.119  1.00  0.00     0.251 C 
ATOM     28  H   UNL A   1      32.578  30.607  27.270  1.00  0.00     0.163 HD
ATOM     29  O   UNL A   1      34.121  32.045  28.415  1.00  0.00    -0.269 OA
BRANCH  27  30
ATOM     30  C   UNL A   1      35.717  30.323  28.425  1.00  0.00     0.039 A 
ATOM     31  C   UNL A   1      36.675  30.301  27.403  1.00  0.00     0.014 A 
ATOM     32  C   UNL A   1      36.042  29.783  29.673  1.00  0.00     0.014 A 
ATOM     33  C   UNL A   1      37.964  29.822  27.655  1.00  0.00     0.010 A 
ATOM     34  C   UNL A   1      37.341  29.352  29.942  1.00  0.00     0.010 A 
ATOM     35  C   UNL A   1      38.319  29.387  28.940  1.00  0.00    -0.014 A 
BRANCH  35  36
ATOM     36  C   UNL A   1      39.725  29.061  29.284  1.00  0.00     0.031 A 
ATOM     37  C   UNL A   1      40.643  30.094  29.873  1.00  0.00     0.074 A 
ATOM     38  C   UNL A   1      40.196  27.839  28.962  1.00  0.00     0.049 A 
ATOM     39  N   UNL A   1      41.912  29.990  30.174  1.00  0.00    -0.248 NA
ATOM     40  C   UNL A   1      40.067  31.419  30.144  1.00  0.00     0.031 C 
ATOM     41  C   UNL A   1      39.409  26.770  28.338  1.00  0.00     0.029 A 
ATOM     42  N   UNL A   1      41.448  27.296  29.093  1.00  0.00    -0.354 N 
ATOM     43  C   UNL A   1      42.290  31.233  30.669  1.00  0.00     0.074 A 
ATOM     44  C   UNL A   1      41.124  32.087  30.588  1.00  0.00     0.031 C 
ATOM     45  C   UNL A   1      40.195  25.699  28.150  1.00  0.00     0.029 A 
ATOM     46  C   UNL A   1      41.545  26.015  28.602  1.00  0.00     0.049 A 
ATOM     47  H   UNL A   1      42.205  27.776  29.499  1.00  0.00     0.167 HD
ATOM     48  C   UNL A   1      43.495  31.620  31.154  1.00  0.00     0.031 A 
ATOM     49  C   UNL A   1      42.604  25.188  28.511  1.00  0.00     0.031 A 
ATOM     50  C   UNL A   1      44.654  30.765  31.211  1.00  0.00     0.049 A 
ATOM     51  C   UNL A   1      43.936  25.650  29.031  1.00  0.00     0.074 A 
ATOM     52  C   UNL A   1      45.905  31.044  31.733  1.00  0.00     0.029 A 
ATOM     53  N   UNL A   1      44.710  29.469  30.715  1.00  0.00    -0.354 N 
ATOM     54  N   UNL A   1      44.252  26.802  29.572  1.00  0.00    -0.248 NA
ATOM     55  C   UNL A   1      45.049  24.696  28.942  1.00  0.00     0.031 C 
ATOM     56  C   UNL A   1      46.733  29.940  31.501  1.00  0.00     0.029 A 
ATOM     57  C   UNL A   1      45.981  28.949  30.892  1.00  0.00     0.049 A 
ATOM     58  H   UNL A   1      43.957  28.991  30.300  1.00  0.00     0.167 HD
ATOM     59  C   UNL A   1      45.595  26.701  29.914  1.00  0.00     0.074 A 
ATOM     60  C   UNL A   1      46.026  25.372  29.531  1.00  0.00     0.031 C 
ATOM     61  C   UNL A   1      46.397  27.626  30.498  1.00  0.00     0.031 A 
BRANCH  48  62
ATOM     62  C   UNL A   1      43.629  33.035  31.655  1.00  0.00    -0.014 A 
ATOM     63  C   UNL A   1      44.085  34.064  30.809  1.00  0.00     0.010 A 
ATOM     64  C   UNL A   1      43.240  33.356  32.968  1.00  0.00     0.010 A 
ATOM     65  C   UNL A   1      44.187  35.376  31.279  1.00  0.00     0.020 A 
ATOM     66  C   UNL A   1      43.313  34.674  33.434  1.00  0.00     0.020 A 
ATOM     67  C   UNL A   1      43.802  35.673  32.589  1.00  0.00     0.054 A 
BRANCH  67  68
ATOM     68  S   UNL A   1      43.924  37.389  33.164  1.00  0.00     0.124 S 
ATOM     69  O   UNL A   1      43.770  38.134  31.916  1.00  0.00    -0.237 OA
ATOM     70  O   UNL A   1      42.808  37.493  34.099  1.00  0.00    -0.237 OA
ATOM     71  O   UNL A   1      45.252  37.459  33.769  1.00  0.00    -0.744 OA
ENDBRANCH  67  68
ENDBRANCH  48  62
BRANCH  49  72
ATOM     72  C   UNL A   1      42.434  23.836  27.914  1.00  0.00    -0.014 A 
ATOM     73  C   UNL A   1      42.548  23.650  26.526  1.00  0.00     0.010 A 
ATOM     74  C   UNL A   1      42.192  22.721  28.737  1.00  0.00     0.010 A 
ATOM     75  C   UNL A   1      42.408  22.376  25.968  1.00  0.00     0.020 A 
ATOM     76  C   UNL A   1      42.079  21.440  28.186  1.00  0.00     0.020 A 
ATOM     77  C   UNL A   1      42.177  21.279  26.803  1.00  0.00     0.054 A 
BRANCH  77  78
ATOM     78  S   UNL A   1      42.057  19.628  26.061  1.00  0.00     0.124 S 
ATOM     79  O   UNL A   1      42.978  19.735  24.934  1.00  0.00    -0.237 OA
ATOM     80  O   UNL A   1      42.490  18.759  27.154  1.00  0.00    -0.237 OA
ATOM     81  O   UNL A   1      40.644  19.515  25.707  1.00  0.00    -0.744 OA
ENDBRANCH  77  78
ENDBRANCH  49  72
BRANCH  61  82
ATOM     82  C   UNL A   1      47.819  27.222  30.784  1.00  0.00    -0.014 A 
ATOM     83  C   UNL A   1      48.146  26.446  31.910  1.00  0.00     0.010 A 
ATOM     84  C   UNL A   1      48.837  27.584  29.882  1.00  0.00     0.010 A 
ATOM     85  C   UNL A   1      49.469  26.065  32.145  1.00  0.00     0.020 A 
ATOM     86  C   UNL A   1      50.156  27.181  30.098  1.00  0.00     0.020 A 
ATOM     87  C   UNL A   1      50.467  26.434  31.236  1.00  0.00     0.054 A 
BRANCH  87  88
ATOM     88  S   UNL A   1      52.170  25.888  31.540  1.00  0.00     0.124 S 
ATOM     89  O   UNL A   1      52.629  26.859  32.528  1.00  0.00    -0.237 OA
ATOM     90  O   UNL A   1      51.985  24.525  32.036  1.00  0.00    -0.237 OA
ATOM     91  O   UNL A   1      52.804  25.986  30.227  1.00  0.00    -0.744 OA
ENDBRANCH  87  88
ENDBRANCH  61  82
ENDBRANCH  35  36
ENDBRANCH  27  30
ENDBRANCH  25  26
ENDBRANCH   1  25
TORSDOF 16
ENDMDL
MODEL 3
REMARK VINA RESULT:     -11.7      6.452     12.207
REMARK SMILES O=C(CC1CCN(C(=O)NCc2ccccn2)CC1)NCCCNC(=O)c1ccc(-c2c3nc(c(-c4ccc(S(=O)(=O)[O-])cc4)c4ccc([nH]4)c(-c4ccc(S(=O)(=O)[O-])cc4)c4nc(c(-c5ccc(S(=O)(=O)[O-])cc5)c5ccc2[nH]5)C=C4)C=C3)cc1
REMARK SMILES IDX 22 1 21 2 20 3 1 4 2 5 3 7 4 8 5 9 19 10 6 11 18 12 7 13
REMARK SMILES IDX 8 14 9 15 10 16 11 18 12 19 13 20 17 21 14 22 16 23 15 24
REMARK SMILES IDX 23 25 24 26 25 27 26 29 27 30 28 31 86 32 29 33 85 34 30 35
REMARK SMILES IDX 31 36 32 37 79 38 33 39 84 40 78 41 80 42 34 43 83 44 77 45
REMARK SMILES IDX 76 46 35 48 65 49 46 50 64 51 47 52 50 53 63 54 81 55 48 56
REMARK SMILES IDX 49 57 62 59 82 60 51 61 36 62 37 63 45 64 38 65 44 66 39 67
REMARK SMILES IDX 40 68 41 69 42 70 43 71 66 72 67 73 75 74 68 75 74 76 69 77
REMARK SMILES IDX 70 78 71 79 72 80 73 81 52 82 53 83 61 84 54 85 60 86 55 87
REMARK SMILES IDX 56 88 57 89 58 90 59 91
REMARK H PARENT 20 6 10 17 24 28 80 47 50 58
REMARK Flexibility Score: inf
ROOT
ATOM      1  C   UNL A   1      34.869  30.199  27.508  1.00  0.00     0.042 C 
ENDROOT
BRANCH   1   2
ATOM      2  C   UNL A   1      33.354  30.368  27.469  1.00  0.00     0.117 C 
BRANCH   2   3
ATOM      3  N   UNL A   1      32.657  29.096  27.462  1.00  0.00    -0.356 N 
ATOM      4  O   UNL A   1      31.510  29.433  25.497  1.00  0.00    -0.275 OA
ATOM      5  C   UNL A   1      31.861  28.700  26.405  1.00  0.00     0.220 C 
ATOM      6  H   UNL A   1      32.754  28.496  28.236  1.00  0.00     0.163 HD
BRANCH   5   7
ATOM      7  C   UNL A   1      31.573  27.205  26.414  1.00  0.00     0.103 C 
BRANCH   7   8
ATOM      8  C   UNL A   1      32.869  26.389  26.195  1.00  0.00     0.002 C 
ATOM      9  C   UNL A   1      33.522  26.718  24.835  1.00  0.00     0.026 C 
ATOM     10  C   UNL A   1      32.674  24.860  26.302  1.00  0.00     0.026 C 
ATOM     11  C   UNL A   1      32.875  26.000  23.639  1.00  0.00     0.121 C 
ATOM     12  C   UNL A   1      31.882  24.339  25.109  1.00  0.00     0.121 C 
ATOM     13  N   UNL A   1      32.662  24.571  23.908  1.00  0.00    -0.325 N 
ATOM     14  C   UNL A   1      33.197  23.658  23.048  1.00  0.00     0.317 C 
ATOM     15  O   UNL A   1      33.748  24.007  21.999  1.00  0.00    -0.249 OA
ATOM     16  N   UNL A   1      33.173  22.334  23.255  1.00  0.00    -0.332 N 
ATOM     17  H   UNL A   1      33.527  21.847  22.476  1.00  0.00     0.165 HD
BRANCH  16  18
ATOM     18  C   UNL A   1      32.773  21.415  24.309  1.00  0.00     0.174 C 
BRANCH  18  19
ATOM     19  C   UNL A   1      32.986  19.950  23.985  1.00  0.00     0.060 A 
ATOM     20  C   UNL A   1      32.255  19.280  23.004  1.00  0.00     0.026 A 
ATOM     21  N   UNL A   1      33.973  19.334  24.683  1.00  0.00    -0.259 NA
ATOM     22  C   UNL A   1      32.588  17.964  22.689  1.00  0.00     0.004 A 
ATOM     23  C   UNL A   1      34.263  18.049  24.370  1.00  0.00     0.111 A 
ATOM     24  C   UNL A   1      33.620  17.337  23.375  1.00  0.00     0.020 A 
ENDBRANCH  18  19
ENDBRANCH  16  18
ENDBRANCH   7   8
ENDBRANCH   5   7
ENDBRANCH   2   3
ENDBRANCH   1   2
BRANCH   1  25
ATOM     25  C   UNL A   1      35.604  31.136  28.465  1.00  0.00     0.118 C 
BRANCH  25  26
ATOM     26  N   UNL A   1      35.552  30.712  29.853  1.00  0.00    -0.352 N 
ATOM     27  C   UNL A   1      36.517  30.115  30.634  1.00  0.00     0.251 C 
ATOM     28  H   UNL A   1      34.693  30.878  30.307  1.00  0.00     0.163 HD
ATOM     29  O   UNL A   1      36.198  29.671  31.735  1.00  0.00    -0.269 OA
BRANCH  27  30
ATOM     30  C   UNL A   1      37.919  29.959  30.164  1.00  0.00     0.039 A 
ATOM     31  C   UNL A   1      38.931  29.840  31.125  1.00  0.00     0.014 A 
ATOM     32  C   UNL A   1      38.265  29.974  28.809  1.00  0.00     0.014 A 
ATOM     33  C   UNL A   1      40.260  29.654  30.730  1.00  0.00     0.010 A 
ATOM     34  C   UNL A   1      39.581  29.738  28.412  1.00  0.00     0.010 A 
ATOM     35  C   UNL A   1      40.587  29.556  29.369  1.00  0.00    -0.014 A 
BRANCH  35  36
ATOM     36  C   UNL A   1      41.949  29.164  28.928  1.00  0.00     0.031 A 
ATOM     37  C   UNL A   1      43.048  30.179  28.796  1.00  0.00     0.074 A 
ATOM     38  C   UNL A   1      42.155  27.886  28.550  1.00  0.00     0.049 A 
ATOM     39  N   UNL A   1      44.273  30.013  28.368  1.00  0.00    -0.248 NA
ATOM     40  C   UNL A   1      42.726  31.562  29.178  1.00  0.00     0.031 C 
ATOM     41  C   UNL A   1      41.146  26.823  28.586  1.00  0.00     0.029 A 
ATOM     42  N   UNL A   1      43.269  27.269  28.041  1.00  0.00    -0.354 N 
ATOM     43  C   UNL A   1      44.870  31.267  28.426  1.00  0.00     0.074 A 
ATOM     44  C   UNL A   1      43.858  32.191  28.892  1.00  0.00     0.031 C 
ATOM     45  C   UNL A   1      41.690  25.685  28.129  1.00  0.00     0.029 A 
ATOM     46  C   UNL A   1      43.070  25.944  27.732  1.00  0.00     0.049 A 
ATOM     47  H   UNL A   1      44.129  27.730  27.910  1.00  0.00     0.167 HD
ATOM     48  C   UNL A   1      46.147  31.610  28.128  1.00  0.00     0.031 A 
ATOM     49  C   UNL A   1      43.898  25.039  27.178  1.00  0.00     0.031 A 
ATOM     50  C   UNL A   1      47.140  30.683  27.645  1.00  0.00     0.049 A 
ATOM     51  C   UNL A   1      45.301  25.450  26.831  1.00  0.00     0.074 A 
ATOM     52  C   UNL A   1      48.474  30.920  27.365  1.00  0.00     0.029 A 
ATOM     53  N   UNL A   1      46.903  29.346  27.356  1.00  0.00    -0.354 N 
ATOM     54  N   UNL A   1      45.871  26.623  26.972  1.00  0.00    -0.248 NA
ATOM     55  C   UNL A   1      46.174  24.415  26.264  1.00  0.00     0.031 C 
ATOM     56  C   UNL A   1      49.030  29.743  26.853  1.00  0.00     0.029 A 
ATOM     57  C   UNL A   1      48.059  28.755  26.873  1.00  0.00     0.049 A 
ATOM     58  H   UNL A   1      46.042  28.886  27.478  1.00  0.00     0.167 HD
ATOM     59  C   UNL A   1      47.181  26.458  26.537  1.00  0.00     0.074 A 
ATOM     60  C   UNL A   1      47.320  25.071  26.142  1.00  0.00     0.031 C 
ATOM     61  C   UNL A   1      48.180  27.374  26.476  1.00  0.00     0.031 A 
BRANCH  48  62
ATOM     62  C   UNL A   1      46.546  33.053  28.303  1.00  0.00    -0.014 A 
ATOM     63  C   UNL A   1      47.083  33.516  29.519  1.00  0.00     0.010 A 
ATOM     64  C   UNL A   1      46.439  33.948  27.222  1.00  0.00     0.010 A 
ATOM     65  C   UNL A   1      47.467  34.852  29.662  1.00  0.00     0.020 A 
ATOM     66  C   UNL A   1      46.850  35.279  27.352  1.00  0.00     0.020 A 
ATOM     67  C   UNL A   1      47.346  35.726  28.578  1.00  0.00     0.054 A 
BRANCH  67  68
ATOM     68  S   UNL A   1      47.874  37.449  28.787  1.00  0.00     0.124 S 
ATOM     69  O   UNL A   1      46.757  38.015  29.539  1.00  0.00    -0.237 OA
ATOM     70  O   UNL A   1      49.124  37.312  29.530  1.00  0.00    -0.237 OA
ATOM     71  O   UNL A   1      48.015  37.938  27.418  1.00  0.00    -0.744 OA
ENDBRANCH  67  68
ENDBRANCH  48  62
BRANCH  49  72
ATOM     72  C   UNL A   1      43.418  23.652  26.935  1.00  0.00    -0.014 A 
ATOM     73  C   UNL A   1      43.069  23.236  25.639  1.00  0.00     0.010 A 
ATOM     74  C   UNL A   1      43.339  22.730  27.995  1.00  0.00     0.010 A 
ATOM     75  C   UNL A   1      42.637  21.926  25.408  1.00  0.00     0.020 A 
ATOM     76  C   UNL A   1      42.934  21.412  27.764  1.00  0.00     0.020 A 
ATOM     77  C   UNL A   1      42.575  21.022  26.472  1.00  0.00     0.054 A 
BRANCH  77  78
ATOM     78  S   UNL A   1      42.066  19.313  26.138  1.00  0.00     0.124 S 
ATOM     79  O   UNL A   1      40.635  19.465  25.899  1.00  0.00    -0.237 OA
ATOM     80  O   UNL A   1      42.871  18.968  24.969  1.00  0.00    -0.237 OA
ATOM     81  O   UNL A   1      42.425  18.605  27.364  1.00  0.00    -0.744 OA
ENDBRANCH  77  78
ENDBRANCH  49  72
BRANCH  61  82
ATOM     82  C   UNL A   1      49.522  26.898  25.988  1.00  0.00    -0.014 A 
ATOM     83  C   UNL A   1      49.964  27.169  24.681  1.00  0.00     0.010 A 
ATOM     84  C   UNL A   1      50.376  26.211  26.872  1.00  0.00     0.010 A 
ATOM     85  C   UNL A   1      51.222  26.736  24.257  1.00  0.00     0.020 A 
ATOM     86  C   UNL A   1      51.646  25.800  26.460  1.00  0.00     0.020 A 
ATOM     87  C   UNL A   1      52.056  26.054  25.150  1.00  0.00     0.054 A 
BRANCH  87  88
ATOM     88  S   UNL A   1      53.703  25.543  24.588  1.00  0.00     0.124 S 
ATOM     89  O   UNL A   1      53.649  25.856  23.163  1.00  0.00    -0.237 OA
ATOM     90  O   UNL A   1      54.590  26.388  25.385  1.00  0.00    -0.237 OA
ATOM     91  O   UNL A   1      53.753  24.118  24.912  1.00  0.00    -0.744 OA
ENDBRANCH  87  88
ENDBRANCH  61  82
ENDBRANCH  35  36
ENDBRANCH  27  30
ENDBRANCH  25  26
ENDBRANCH   1  25
TORSDOF 16
ENDMDL
