MODEL 1
REMARK VINA RESULT:     -12.1      0.000      0.000
REMARK SMILES C[C@H]1[C@H](C(=O)NCCCNC(=O)c2ccc(-c3c4nc(c(-c5ccc(S(=O)(=O)[O-])cc5)c5ccc([nH]5)c(-c5ccc(S(=O)(=O)[O-])cc5)c5nc(c(-c6ccc(S(=O)(=O)[O-])cc6)c6ccc3[nH]6)C=C5)C=C4)cc2)CCN1C(=O)Nc1ccc(F)c(Cl)c1
REMARK SMILES IDX 8 1 7 2 6 3 4 4 5 5 3 7 1 8 2 9 75 10 73 11 74 12 76 13
REMARK SMILES IDX 77 14 78 15 79 17 80 18 86 19 81 20 84 21 82 22 85 23 83 24
REMARK SMILES IDX 9 25 10 26 11 27 12 29 13 30 14 31 72 32 15 33 71 34 16 35
REMARK SMILES IDX 17 36 18 37 65 38 19 39 70 40 64 41 66 42 20 43 69 44 63 45
REMARK SMILES IDX 62 46 21 48 51 49 32 50 50 51 33 52 36 53 49 54 67 55 34 56
REMARK SMILES IDX 35 57 48 59 68 60 37 61 22 62 23 63 31 64 24 65 30 66 25 67
REMARK SMILES IDX 26 68 27 69 28 70 29 71 52 72 53 73 61 74 54 75 60 76 55 77
REMARK SMILES IDX 56 78 57 79 58 80 59 81 38 82 39 83 47 84 40 85 46 86 41 87
REMARK SMILES IDX 42 88 43 89 44 90 45 91
REMARK H PARENT 6 6 78 16 10 28 66 47 36 58
REMARK Flexibility Score: inf
ROOT
ATOM      1  C   UNL A   1      34.167  30.101  26.889  1.00  0.00     0.042 C 
ENDROOT
BRANCH   1   2
ATOM      2  C   UNL A   1      32.685  30.039  27.242  1.00  0.00     0.117 C 
BRANCH   2   3
ATOM      3  N   UNL A   1      32.212  28.689  27.516  1.00  0.00    -0.356 N 
ATOM      4  C   UNL A   1      31.796  27.674  26.716  1.00  0.00     0.225 C 
ATOM      5  O   UNL A   1      31.552  26.598  27.276  1.00  0.00    -0.275 OA
ATOM      6  H   UNL A   1      32.189  28.468  28.475  1.00  0.00     0.163 HD
BRANCH   4   7
ATOM      7  C   UNL A   1      31.569  27.793  25.215  1.00  0.00     0.102 C 
ATOM      8  C   UNL A   1      33.165  28.826  23.546  1.00  0.00     0.032 C 
ATOM      9  C   UNL A   1      32.870  27.605  24.420  1.00  0.00     0.096 C 
ATOM     10  N   UNL A   1      32.669  26.396  23.617  1.00  0.00    -0.321 N 
ATOM     11  C   UNL A   1      30.537  26.846  24.619  1.00  0.00     0.037 C 
ATOM     12  C   UNL A   1      31.246  26.121  23.489  1.00  0.00     0.122 C 
BRANCH  10  13
ATOM     13  C   UNL A   1      33.517  25.700  22.792  1.00  0.00     0.322 C 
ATOM     14  O   UNL A   1      33.679  26.061  21.620  1.00  0.00    -0.248 OA
ATOM     15  N   UNL A   1      34.325  24.703  23.227  1.00  0.00    -0.308 N 
ATOM     16  H   UNL A   1      35.151  24.626  22.696  1.00  0.00     0.171 HD
BRANCH  15  17
ATOM     17  C   UNL A   1      34.259  23.757  24.256  1.00  0.00     0.044 A 
ATOM     18  C   UNL A   1      35.036  23.965  25.399  1.00  0.00     0.029 A 
ATOM     19  C   UNL A   1      33.496  22.600  24.163  1.00  0.00     0.049 A 
ATOM     20  C   UNL A   1      34.926  23.098  26.491  1.00  0.00     0.043 A 
ATOM     21  C   UNL A   1      33.367  21.740  25.253  1.00  0.00     0.078 A 
ATOM     22  C   UNL A   1      34.068  22.005  26.423  1.00  0.00     0.141 A 
ATOM     23  Cl  UNL A   1      32.303  20.390  25.142  1.00  0.00    -0.081 Cl
ATOM     24  F   UNL A   1      33.928  21.222  27.501  1.00  0.00    -0.205 F 
ENDBRANCH  15  17
ENDBRANCH  10  13
ENDBRANCH   4   7
ENDBRANCH   2   3
ENDBRANCH   1   2
BRANCH   1  25
ATOM     25  C   UNL A   1      35.109  29.396  27.854  1.00  0.00     0.118 C 
BRANCH  25  26
ATOM     26  N   UNL A   1      35.291  30.127  29.093  1.00  0.00    -0.352 N 
ATOM     27  C   UNL A   1      36.406  30.320  29.875  1.00  0.00     0.251 C 
ATOM     28  H   UNL A   1      34.474  30.560  29.435  1.00  0.00     0.163 HD
ATOM     29  O   UNL A   1      36.255  30.825  30.986  1.00  0.00    -0.269 OA
BRANCH  27  30
ATOM     30  C   UNL A   1      37.770  29.920  29.434  1.00  0.00     0.039 A 
ATOM     31  C   UNL A   1      38.707  29.580  30.417  1.00  0.00     0.014 A 
ATOM     32  C   UNL A   1      38.175  29.948  28.098  1.00  0.00     0.014 A 
ATOM     33  C   UNL A   1      40.015  29.229  30.061  1.00  0.00     0.010 A 
ATOM     34  C   UNL A   1      39.453  29.509  27.735  1.00  0.00     0.010 A 
ATOM     35  C   UNL A   1      40.396  29.163  28.712  1.00  0.00    -0.014 A 
BRANCH  35  36
ATOM     36  C   UNL A   1      41.779  28.762  28.323  1.00  0.00     0.031 A 
ATOM     37  C   UNL A   1      42.892  29.782  28.273  1.00  0.00     0.074 A 
ATOM     38  C   UNL A   1      42.038  27.484  27.983  1.00  0.00     0.049 A 
ATOM     39  N   UNL A   1      44.149  29.615  27.945  1.00  0.00    -0.248 NA
ATOM     40  C   UNL A   1      42.542  31.170  28.613  1.00  0.00     0.031 C 
ATOM     41  C   UNL A   1      41.051  26.401  27.939  1.00  0.00     0.029 A 
ATOM     42  N   UNL A   1      43.212  26.875  27.609  1.00  0.00    -0.354 N 
ATOM     43  C   UNL A   1      44.733  30.876  28.024  1.00  0.00     0.074 A 
ATOM     44  C   UNL A   1      43.682  31.804  28.380  1.00  0.00     0.031 C 
ATOM     45  C   UNL A   1      41.665  25.260  27.591  1.00  0.00     0.029 A 
ATOM     46  C   UNL A   1      43.080  25.531  27.353  1.00  0.00     0.049 A 
ATOM     47  H   UNL A   1      44.067  27.357  27.532  1.00  0.00     0.167 HD
ATOM     48  C   UNL A   1      46.029  31.231  27.841  1.00  0.00     0.031 A 
ATOM     49  C   UNL A   1      43.990  24.613  26.969  1.00  0.00     0.031 A 
ATOM     50  C   UNL A   1      47.083  30.312  27.501  1.00  0.00     0.049 A 
ATOM     51  C   UNL A   1      45.424  25.025  26.787  1.00  0.00     0.074 A 
ATOM     52  C   UNL A   1      48.434  30.571  27.344  1.00  0.00     0.029 A 
ATOM     53  N   UNL A   1      46.908  28.957  27.268  1.00  0.00    -0.354 N 
ATOM     54  N   UNL A   1      45.964  26.213  26.924  1.00  0.00    -0.248 NA
ATOM     55  C   UNL A   1      46.375  23.968  26.414  1.00  0.00     0.031 C 
ATOM     56  C   UNL A   1      49.070  29.380  26.977  1.00  0.00     0.029 A 
ATOM     57  C   UNL A   1      48.123  28.370  26.954  1.00  0.00     0.049 A 
ATOM     58  H   UNL A   1      46.048  28.482  27.319  1.00  0.00     0.167 HD
ATOM     59  C   UNL A   1      47.321  26.042  26.671  1.00  0.00     0.074 A 
ATOM     60  C   UNL A   1      47.522  24.635  26.394  1.00  0.00     0.031 C 
ATOM     61  C   UNL A   1      48.311  26.969  26.669  1.00  0.00     0.031 A 
BRANCH  48  62
ATOM     62  C   UNL A   1      46.377  32.689  28.007  1.00  0.00    -0.014 A 
ATOM     63  C   UNL A   1      46.672  33.222  29.275  1.00  0.00     0.010 A 
ATOM     64  C   UNL A   1      46.435  33.530  26.881  1.00  0.00     0.010 A 
ATOM     65  C   UNL A   1      46.971  34.579  29.421  1.00  0.00     0.020 A 
ATOM     66  C   UNL A   1      46.762  34.883  27.020  1.00  0.00     0.020 A 
ATOM     67  C   UNL A   1      47.007  35.403  28.292  1.00  0.00     0.054 A 
BRANCH  67  68
ATOM     68  S   UNL A   1      47.405  37.159  28.509  1.00  0.00     0.124 S 
ATOM     69  O   UNL A   1      46.080  37.747  28.694  1.00  0.00    -0.237 OA
ATOM     70  O   UNL A   1      48.260  37.153  29.693  1.00  0.00    -0.237 OA
ATOM     71  O   UNL A   1      48.077  37.519  27.263  1.00  0.00    -0.744 OA
ENDBRANCH  67  68
ENDBRANCH  48  62
BRANCH  49  72
ATOM     72  C   UNL A   1      43.568  23.204  26.748  1.00  0.00    -0.014 A 
ATOM     73  C   UNL A   1      43.708  22.606  25.484  1.00  0.00     0.010 A 
ATOM     74  C   UNL A   1      43.046  22.445  27.812  1.00  0.00     0.010 A 
ATOM     75  C   UNL A   1      43.323  21.276  25.283  1.00  0.00     0.020 A 
ATOM     76  C   UNL A   1      42.685  21.109  27.621  1.00  0.00     0.020 A 
ATOM     77  C   UNL A   1      42.817  20.535  26.355  1.00  0.00     0.054 A 
BRANCH  77  78
ATOM     78  S   UNL A   1      42.387  18.792  26.092  1.00  0.00     0.124 S 
ATOM     79  O   UNL A   1      43.321  18.405  25.040  1.00  0.00    -0.237 OA
ATOM     80  O   UNL A   1      42.632  18.202  27.405  1.00  0.00    -0.237 OA
ATOM     81  O   UNL A   1      40.982  18.844  25.695  1.00  0.00    -0.744 OA
ENDBRANCH  77  78
ENDBRANCH  49  72
BRANCH  61  82
ATOM     82  C   UNL A   1      49.705  26.487  26.374  1.00  0.00    -0.014 A 
ATOM     83  C   UNL A   1      50.542  26.007  27.398  1.00  0.00     0.010 A 
ATOM     84  C   UNL A   1      50.175  26.486  25.048  1.00  0.00     0.010 A 
ATOM     85  C   UNL A   1      51.837  25.571  27.106  1.00  0.00     0.020 A 
ATOM     86  C   UNL A   1      51.461  26.028  24.749  1.00  0.00     0.020 A 
ATOM     87  C   UNL A   1      52.290  25.589  25.783  1.00  0.00     0.054 A 
BRANCH  87  88
ATOM     88  S   UNL A   1      53.967  24.997  25.425  1.00  0.00     0.124 S 
ATOM     89  O   UNL A   1      53.716  23.635  24.962  1.00  0.00    -0.237 OA
ATOM     90  O   UNL A   1      54.429  25.932  24.402  1.00  0.00    -0.237 OA
ATOM     91  O   UNL A   1      54.653  25.101  26.711  1.00  0.00    -0.744 OA
ENDBRANCH  87  88
ENDBRANCH  61  82
ENDBRANCH  35  36
ENDBRANCH  27  30
ENDBRANCH  25  26
ENDBRANCH   1  25
TORSDOF 15
ENDMDL
MODEL 2
REMARK VINA RESULT:     -12.1      3.182      4.138
REMARK SMILES C[C@H]1[C@H](C(=O)NCCCNC(=O)c2ccc(-c3c4nc(c(-c5ccc(S(=O)(=O)[O-])cc5)c5ccc([nH]5)c(-c5ccc(S(=O)(=O)[O-])cc5)c5nc(c(-c6ccc(S(=O)(=O)[O-])cc6)c6ccc3[nH]6)C=C5)C=C4)cc2)CCN1C(=O)Nc1ccc(F)c(Cl)c1
REMARK SMILES IDX 8 1 7 2 6 3 4 4 5 5 3 7 1 8 2 9 75 10 73 11 74 12 76 13
REMARK SMILES IDX 77 14 78 15 79 17 80 18 86 19 81 20 84 21 82 22 85 23 83 24
REMARK SMILES IDX 9 25 10 26 11 27 12 29 13 30 14 31 72 32 15 33 71 34 16 35
REMARK SMILES IDX 17 36 18 37 65 38 19 39 70 40 64 41 66 42 20 43 69 44 63 45
REMARK SMILES IDX 62 46 21 48 51 49 32 50 50 51 33 52 36 53 49 54 67 55 34 56
REMARK SMILES IDX 35 57 48 59 68 60 37 61 22 62 23 63 31 64 24 65 30 66 25 67
REMARK SMILES IDX 26 68 27 69 28 70 29 71 52 72 53 73 61 74 54 75 60 76 55 77
REMARK SMILES IDX 56 78 57 79 58 80 59 81 38 82 39 83 47 84 40 85 46 86 41 87
REMARK SMILES IDX 42 88 43 89 44 90 45 91
REMARK H PARENT 6 6 78 16 10 28 66 47 36 58
REMARK Flexibility Score: inf
ROOT
ATOM      1  C   UNL A   1      33.990  27.629  25.944  1.00  0.00     0.042 C 
ENDROOT
BRANCH   1   2
ATOM      2  C   UNL A   1      33.187  26.702  25.038  1.00  0.00     0.117 C 
BRANCH   2   3
ATOM      3  N   UNL A   1      33.658  26.690  23.660  1.00  0.00    -0.356 N 
ATOM      4  C   UNL A   1      33.256  26.019  22.550  1.00  0.00     0.225 C 
ATOM      5  O   UNL A   1      33.818  26.321  21.491  1.00  0.00    -0.275 OA
ATOM      6  H   UNL A   1      34.422  27.289  23.501  1.00  0.00     0.163 HD
BRANCH   4   7
ATOM      7  C   UNL A   1      32.215  24.906  22.542  1.00  0.00     0.102 C 
ATOM      8  C   UNL A   1      32.689  22.427  22.378  1.00  0.00     0.032 C 
ATOM      9  C   UNL A   1      32.704  23.657  23.289  1.00  0.00     0.096 C 
ATOM     10  N   UNL A   1      31.798  23.501  24.430  1.00  0.00    -0.321 N 
ATOM     11  C   UNL A   1      30.850  25.266  23.110  1.00  0.00     0.037 C 
ATOM     12  C   UNL A   1      30.561  24.225  24.178  1.00  0.00     0.122 C 
BRANCH  10  13
ATOM     13  C   UNL A   1      31.803  22.621  25.484  1.00  0.00     0.322 C 
ATOM     14  O   UNL A   1      30.751  22.354  26.077  1.00  0.00    -0.248 OA
ATOM     15  N   UNL A   1      32.890  21.890  25.835  1.00  0.00    -0.308 N 
ATOM     16  H   UNL A   1      32.649  21.029  26.249  1.00  0.00     0.171 HD
BRANCH  15  17
ATOM     17  C   UNL A   1      34.274  22.073  25.746  1.00  0.00     0.044 A 
ATOM     18  C   UNL A   1      34.807  23.304  26.141  1.00  0.00     0.029 A 
ATOM     19  C   UNL A   1      35.127  21.104  25.235  1.00  0.00     0.049 A 
ATOM     20  C   UNL A   1      36.192  23.496  26.162  1.00  0.00     0.043 A 
ATOM     21  C   UNL A   1      36.510  21.280  25.270  1.00  0.00     0.078 A 
ATOM     22  C   UNL A   1      37.039  22.471  25.754  1.00  0.00     0.141 A 
ATOM     23  Cl  UNL A   1      37.538  19.998  24.753  1.00  0.00    -0.081 Cl
ATOM     24  F   UNL A   1      38.364  22.650  25.842  1.00  0.00    -0.205 F 
ENDBRANCH  15  17
ENDBRANCH  10  13
ENDBRANCH   4   7
ENDBRANCH   2   3
ENDBRANCH   1   2
BRANCH   1  25
ATOM     25  C   UNL A   1      33.321  28.020  27.253  1.00  0.00     0.118 C 
BRANCH  25  26
ATOM     26  N   UNL A   1      33.232  29.456  27.429  1.00  0.00    -0.352 N 
ATOM     27  C   UNL A   1      34.149  30.371  27.893  1.00  0.00     0.251 C 
ATOM     28  H   UNL A   1      32.364  29.845  27.172  1.00  0.00     0.163 HD
ATOM     29  O   UNL A   1      33.760  31.514  28.126  1.00  0.00    -0.269 OA
BRANCH  27  30
ATOM     30  C   UNL A   1      35.573  30.018  28.142  1.00  0.00     0.039 A 
ATOM     31  C   UNL A   1      35.938  29.626  29.436  1.00  0.00     0.014 A 
ATOM     32  C   UNL A   1      36.567  30.139  27.169  1.00  0.00     0.014 A 
ATOM     33  C   UNL A   1      37.271  29.318  29.735  1.00  0.00     0.010 A 
ATOM     34  C   UNL A   1      37.880  29.742  27.443  1.00  0.00     0.010 A 
ATOM     35  C   UNL A   1      38.254  29.345  28.734  1.00  0.00    -0.014 A 
BRANCH  35  36
ATOM     36  C   UNL A   1      39.670  28.989  29.038  1.00  0.00     0.031 A 
ATOM     37  C   UNL A   1      40.594  29.991  29.688  1.00  0.00     0.074 A 
ATOM     38  C   UNL A   1      40.144  27.772  28.704  1.00  0.00     0.049 A 
ATOM     39  N   UNL A   1      41.856  29.859  30.013  1.00  0.00    -0.248 NA
ATOM     40  C   UNL A   1      40.034  31.317  29.992  1.00  0.00     0.031 C 
ATOM     41  C   UNL A   1      39.379  26.721  28.028  1.00  0.00     0.029 A 
ATOM     42  N   UNL A   1      41.384  27.211  28.889  1.00  0.00    -0.354 N 
ATOM     43  C   UNL A   1      42.243  31.087  30.543  1.00  0.00     0.074 A 
ATOM     44  C   UNL A   1      41.097  31.964  30.447  1.00  0.00     0.031 C 
ATOM     45  C   UNL A   1      40.156  25.635  27.883  1.00  0.00     0.029 A 
ATOM     46  C   UNL A   1      41.482  25.921  28.422  1.00  0.00     0.049 A 
ATOM     47  H   UNL A   1      42.133  27.688  29.315  1.00  0.00     0.167 HD
ATOM     48  C   UNL A   1      43.434  31.449  31.081  1.00  0.00     0.031 A 
ATOM     49  C   UNL A   1      42.518  25.059  28.425  1.00  0.00     0.031 A 
ATOM     50  C   UNL A   1      44.574  30.577  31.192  1.00  0.00     0.049 A 
ATOM     51  C   UNL A   1      43.825  25.476  29.041  1.00  0.00     0.074 A 
ATOM     52  C   UNL A   1      45.806  30.840  31.768  1.00  0.00     0.029 A 
ATOM     53  N   UNL A   1      44.623  29.273  30.723  1.00  0.00    -0.354 N 
ATOM     54  N   UNL A   1      44.150  26.623  29.587  1.00  0.00    -0.248 NA
ATOM     55  C   UNL A   1      44.901  24.473  29.055  1.00  0.00     0.031 C 
ATOM     56  C   UNL A   1      46.614  29.708  31.611  1.00  0.00     0.029 A 
ATOM     57  C   UNL A   1      45.869  28.724  30.982  1.00  0.00     0.049 A 
ATOM     58  H   UNL A   1      43.883  28.807  30.273  1.00  0.00     0.167 HD
ATOM     59  C   UNL A   1      45.462  26.474  30.026  1.00  0.00     0.074 A 
ATOM     60  C   UNL A   1      45.862  25.121  29.699  1.00  0.00     0.031 C 
ATOM     61  C   UNL A   1      46.261  27.379  30.643  1.00  0.00     0.031 A 
BRANCH  48  62
ATOM     62  C   UNL A   1      43.561  32.861  31.593  1.00  0.00    -0.014 A 
ATOM     63  C   UNL A   1      44.070  33.885  30.775  1.00  0.00     0.010 A 
ATOM     64  C   UNL A   1      43.141  33.174  32.900  1.00  0.00     0.010 A 
ATOM     65  C   UNL A   1      44.205  35.186  31.268  1.00  0.00     0.020 A 
ATOM     66  C   UNL A   1      43.247  34.480  33.387  1.00  0.00     0.020 A 
ATOM     67  C   UNL A   1      43.798  35.474  32.574  1.00  0.00     0.054 A 
BRANCH  67  68
ATOM     68  S   UNL A   1      43.976  37.172  33.186  1.00  0.00     0.124 S 
ATOM     69  O   UNL A   1      42.834  37.286  34.090  1.00  0.00    -0.237 OA
ATOM     70  O   UNL A   1      45.287  37.148  33.830  1.00  0.00    -0.237 OA
ATOM     71  O   UNL A   1      43.896  37.986  31.976  1.00  0.00    -0.744 OA
ENDBRANCH  67  68
ENDBRANCH  48  62
BRANCH  49  72
ATOM     72  C   UNL A   1      42.352  23.703  27.835  1.00  0.00    -0.014 A 
ATOM     73  C   UNL A   1      42.794  23.433  26.529  1.00  0.00     0.010 A 
ATOM     74  C   UNL A   1      41.771  22.668  28.590  1.00  0.00     0.010 A 
ATOM     75  C   UNL A   1      42.648  22.154  25.982  1.00  0.00     0.020 A 
ATOM     76  C   UNL A   1      41.647  21.383  28.057  1.00  0.00     0.020 A 
ATOM     77  C   UNL A   1      42.078  21.135  26.753  1.00  0.00     0.054 A 
BRANCH  77  78
ATOM     78  S   UNL A   1      41.960  19.466  26.052  1.00  0.00     0.124 S 
ATOM     79  O   UNL A   1      42.512  18.646  27.126  1.00  0.00    -0.237 OA
ATOM     80  O   UNL A   1      40.526  19.321  25.817  1.00  0.00    -0.237 OA
ATOM     81  O   UNL A   1      42.776  19.547  24.842  1.00  0.00    -0.744 OA
ENDBRANCH  77  78
ENDBRANCH  49  72
BRANCH  61  82
ATOM     82  C   UNL A   1      47.646  26.929  31.022  1.00  0.00    -0.014 A 
ATOM     83  C   UNL A   1      47.887  26.255  32.234  1.00  0.00     0.010 A 
ATOM     84  C   UNL A   1      48.718  27.155  30.140  1.00  0.00     0.010 A 
ATOM     85  C   UNL A   1      49.181  25.851  32.573  1.00  0.00     0.020 A 
ATOM     86  C   UNL A   1      50.009  26.731  30.464  1.00  0.00     0.020 A 
ATOM     87  C   UNL A   1      50.235  26.097  31.687  1.00  0.00     0.054 A 
BRANCH  87  88
ATOM     88  S   UNL A   1      51.903  25.543  32.138  1.00  0.00     0.124 S 
ATOM     89  O   UNL A   1      52.669  25.882  30.942  1.00  0.00    -0.237 OA
ATOM     90  O   UNL A   1      52.201  26.344  33.323  1.00  0.00    -0.237 OA
ATOM     91  O   UNL A   1      51.736  24.113  32.387  1.00  0.00    -0.744 OA
ENDBRANCH  87  88
ENDBRANCH  61  82
ENDBRANCH  35  36
ENDBRANCH  27  30
ENDBRANCH  25  26
ENDBRANCH   1  25
TORSDOF 15
ENDMDL
MODEL 3
REMARK VINA RESULT:     -12.0      3.644      4.716
REMARK SMILES C[C@H]1[C@H](C(=O)NCCCNC(=O)c2ccc(-c3c4nc(c(-c5ccc(S(=O)(=O)[O-])cc5)c5ccc([nH]5)c(-c5ccc(S(=O)(=O)[O-])cc5)c5nc(c(-c6ccc(S(=O)(=O)[O-])cc6)c6ccc3[nH]6)C=C5)C=C4)cc2)CCN1C(=O)Nc1ccc(F)c(Cl)c1
REMARK SMILES IDX 8 1 7 2 6 3 4 4 5 5 3 7 1 8 2 9 75 10 73 11 74 12 76 13
REMARK SMILES IDX 77 14 78 15 79 17 80 18 86 19 81 20 84 21 82 22 85 23 83 24
REMARK SMILES IDX 9 25 10 26 11 27 12 29 13 30 14 31 72 32 15 33 71 34 16 35
REMARK SMILES IDX 17 36 18 37 65 38 19 39 70 40 64 41 66 42 20 43 69 44 63 45
REMARK SMILES IDX 62 46 21 48 51 49 32 50 50 51 33 52 36 53 49 54 67 55 34 56
REMARK SMILES IDX 35 57 48 59 68 60 37 61 22 62 23 63 31 64 24 65 30 66 25 67
REMARK SMILES IDX 26 68 27 69 28 70 29 71 52 72 53 73 61 74 54 75 60 76 55 77
REMARK SMILES IDX 56 78 57 79 58 80 59 81 38 82 39 83 47 84 40 85 46 86 41 87
REMARK SMILES IDX 42 88 43 89 44 90 45 91
REMARK H PARENT 6 6 78 16 10 28 66 47 36 58
REMARK Flexibility Score: inf
ROOT
ATOM      1  C   UNL A   1      32.148  27.506  26.978  1.00  0.00     0.042 C 
ENDROOT
BRANCH   1   2
ATOM      2  C   UNL A   1      31.937  26.281  26.096  1.00  0.00     0.117 C 
BRANCH   2   3
ATOM      3  N   UNL A   1      31.439  25.122  26.824  1.00  0.00    -0.356 N 
ATOM      4  C   UNL A   1      31.794  23.812  26.833  1.00  0.00     0.225 C 
ATOM      5  O   UNL A   1      31.223  23.093  27.661  1.00  0.00    -0.275 OA
ATOM      6  H   UNL A   1      30.695  25.331  27.432  1.00  0.00     0.163 HD
BRANCH   4   7
ATOM      7  C   UNL A   1      32.793  23.179  25.872  1.00  0.00     0.102 C 
ATOM      8  C   UNL A   1      32.229  21.664  23.926  1.00  0.00     0.032 C 
ATOM      9  C   UNL A   1      32.243  23.105  24.439  1.00  0.00     0.096 C 
ATOM     10  N   UNL A   1      33.121  23.961  23.637  1.00  0.00    -0.321 N 
ATOM     11  C   UNL A   1      34.158  23.844  25.796  1.00  0.00     0.037 C 
ATOM     12  C   UNL A   1      34.388  24.149  24.326  1.00  0.00     0.122 C 
BRANCH  10  13
ATOM     13  C   UNL A   1      33.063  24.345  22.320  1.00  0.00     0.322 C 
ATOM     14  O   UNL A   1      33.671  23.701  21.457  1.00  0.00    -0.248 OA
ATOM     15  N   UNL A   1      32.241  25.324  21.868  1.00  0.00    -0.308 N 
ATOM     16  H   UNL A   1      31.963  25.183  20.934  1.00  0.00     0.171 HD
BRANCH  15  17
ATOM     17  C   UNL A   1      31.697  26.489  22.420  1.00  0.00     0.044 A 
ATOM     18  C   UNL A   1      32.562  27.539  22.738  1.00  0.00     0.029 A 
ATOM     19  C   UNL A   1      30.345  26.620  22.708  1.00  0.00     0.049 A 
ATOM     20  C   UNL A   1      32.050  28.757  23.199  1.00  0.00     0.043 A 
ATOM     21  C   UNL A   1      29.823  27.835  23.150  1.00  0.00     0.078 A 
ATOM     22  C   UNL A   1      30.678  28.908  23.374  1.00  0.00     0.141 A 
ATOM     23  Cl  UNL A   1      28.122  27.996  23.366  1.00  0.00    -0.081 Cl
ATOM     24  F   UNL A   1      30.201  30.101  23.754  1.00  0.00    -0.205 F 
ENDBRANCH  15  17
ENDBRANCH  10  13
ENDBRANCH   4   7
ENDBRANCH   2   3
ENDBRANCH   1   2
BRANCH   1  25
ATOM     25  C   UNL A   1      33.493  28.204  26.833  1.00  0.00     0.118 C 
BRANCH  25  26
ATOM     26  N   UNL A   1      33.406  29.635  27.052  1.00  0.00    -0.352 N 
ATOM     27  C   UNL A   1      34.272  30.511  27.664  1.00  0.00     0.251 C 
ATOM     28  H   UNL A   1      32.585  30.052  26.703  1.00  0.00     0.163 HD
ATOM     29  O   UNL A   1      33.876  31.654  27.891  1.00  0.00    -0.269 OA
BRANCH  27  30
ATOM     30  C   UNL A   1      35.646  30.118  28.078  1.00  0.00     0.039 A 
ATOM     31  C   UNL A   1      36.654  30.122  27.106  1.00  0.00     0.014 A 
ATOM     32  C   UNL A   1      35.953  29.670  29.365  1.00  0.00     0.014 A 
ATOM     33  C   UNL A   1      37.957  29.727  27.432  1.00  0.00     0.010 A 
ATOM     34  C   UNL A   1      37.273  29.365  29.714  1.00  0.00     0.010 A 
ATOM     35  C   UNL A   1      38.289  29.370  28.748  1.00  0.00    -0.014 A 
BRANCH  35  36
ATOM     36  C   UNL A   1      39.681  28.977  29.110  1.00  0.00     0.031 A 
ATOM     37  C   UNL A   1      40.595  29.945  29.823  1.00  0.00     0.074 A 
ATOM     38  C   UNL A   1      40.144  27.757  28.773  1.00  0.00     0.049 A 
ATOM     39  N   UNL A   1      41.837  29.779  30.204  1.00  0.00    -0.248 NA
ATOM     40  C   UNL A   1      40.049  31.278  30.127  1.00  0.00     0.031 C 
ATOM     41  C   UNL A   1      39.391  26.735  28.041  1.00  0.00     0.029 A 
ATOM     42  N   UNL A   1      41.363  27.165  29.004  1.00  0.00    -0.354 N 
ATOM     43  C   UNL A   1      42.224  30.988  30.776  1.00  0.00     0.074 A 
ATOM     44  C   UNL A   1      41.103  31.892  30.645  1.00  0.00     0.031 C 
ATOM     45  C   UNL A   1      40.151  25.636  27.910  1.00  0.00     0.029 A 
ATOM     46  C   UNL A   1      41.456  25.883  28.517  1.00  0.00     0.049 A 
ATOM     47  H   UNL A   1      42.100  27.617  29.474  1.00  0.00     0.167 HD
ATOM     48  C   UNL A   1      43.396  31.313  31.376  1.00  0.00     0.031 A 
ATOM     49  C   UNL A   1      42.472  24.998  28.550  1.00  0.00     0.031 A 
ATOM     50  C   UNL A   1      44.511  30.414  31.523  1.00  0.00     0.049 A 
ATOM     51  C   UNL A   1      43.757  25.374  29.235  1.00  0.00     0.074 A 
ATOM     52  C   UNL A   1      45.719  30.639  32.160  1.00  0.00     0.029 A 
ATOM     53  N   UNL A   1      44.555  29.119  31.030  1.00  0.00    -0.354 N 
ATOM     54  N   UNL A   1      44.080  26.503  29.819  1.00  0.00    -0.248 NA
ATOM     55  C   UNL A   1      44.809  24.348  29.278  1.00  0.00     0.031 C 
ATOM     56  C   UNL A   1      46.510  29.493  32.018  1.00  0.00     0.029 A 
ATOM     57  C   UNL A   1      45.775  28.538  31.335  1.00  0.00     0.049 A 
ATOM     58  H   UNL A   1      43.827  28.678  30.536  1.00  0.00     0.167 HD
ATOM     59  C   UNL A   1      45.366  26.317  30.315  1.00  0.00     0.074 A 
ATOM     60  C   UNL A   1      45.753  24.962  29.980  1.00  0.00     0.031 C 
ATOM     61  C   UNL A   1      46.154  27.192  30.987  1.00  0.00     0.031 A 
BRANCH  48  62
ATOM     62  C   UNL A   1      43.528  32.711  31.923  1.00  0.00    -0.014 A 
ATOM     63  C   UNL A   1      43.212  32.998  33.263  1.00  0.00     0.010 A 
ATOM     64  C   UNL A   1      43.998  33.748  31.095  1.00  0.00     0.010 A 
ATOM     65  C   UNL A   1      43.316  34.302  33.754  1.00  0.00     0.020 A 
ATOM     66  C   UNL A   1      44.130  35.049  31.590  1.00  0.00     0.020 A 
ATOM     67  C   UNL A   1      43.768  35.322  32.911  1.00  0.00     0.054 A 
BRANCH  67  68
ATOM     68  S   UNL A   1      43.901  37.004  33.575  1.00  0.00     0.124 S 
ATOM     69  O   UNL A   1      42.789  37.042  34.522  1.00  0.00    -0.237 OA
ATOM     70  O   UNL A   1      45.234  37.012  34.172  1.00  0.00    -0.237 OA
ATOM     71  O   UNL A   1      43.746  37.855  32.397  1.00  0.00    -0.744 OA
ENDBRANCH  67  68
ENDBRANCH  48  62
BRANCH  49  72
ATOM     72  C   UNL A   1      42.305  23.658  27.925  1.00  0.00    -0.014 A 
ATOM     73  C   UNL A   1      43.016  23.319  26.761  1.00  0.00     0.010 A 
ATOM     74  C   UNL A   1      41.450  22.706  28.509  1.00  0.00     0.010 A 
ATOM     75  C   UNL A   1      42.867  22.053  26.185  1.00  0.00     0.020 A 
ATOM     76  C   UNL A   1      41.318  21.432  27.950  1.00  0.00     0.020 A 
ATOM     77  C   UNL A   1      42.021  21.116  26.786  1.00  0.00     0.054 A 
BRANCH  77  78
ATOM     78  S   UNL A   1      41.893  19.457  26.062  1.00  0.00     0.124 S 
ATOM     79  O   UNL A   1      40.465  19.363  25.771  1.00  0.00    -0.237 OA
ATOM     80  O   UNL A   1      42.771  19.548  24.899  1.00  0.00    -0.237 OA
ATOM     81  O   UNL A   1      42.375  18.583  27.129  1.00  0.00    -0.744 OA
ENDBRANCH  77  78
ENDBRANCH  49  72
BRANCH  61  82
ATOM     82  C   UNL A   1      47.510  26.704  31.421  1.00  0.00    -0.014 A 
ATOM     83  C   UNL A   1      47.694  26.080  32.669  1.00  0.00     0.010 A 
ATOM     84  C   UNL A   1      48.610  26.843  30.555  1.00  0.00     0.010 A 
ATOM     85  C   UNL A   1      48.963  25.640  33.058  1.00  0.00     0.020 A 
ATOM     86  C   UNL A   1      49.875  26.382  30.932  1.00  0.00     0.020 A 
ATOM     87  C   UNL A   1      50.046  25.800  32.188  1.00  0.00     0.054 A 
BRANCH  87  88
ATOM     88  S   UNL A   1      51.678  25.200  32.705  1.00  0.00     0.124 S 
ATOM     89  O   UNL A   1      51.655  25.456  34.143  1.00  0.00    -0.237 OA
ATOM     90  O   UNL A   1      51.644  23.792  32.317  1.00  0.00    -0.237 OA
ATOM     91  O   UNL A   1      52.609  26.028  31.940  1.00  0.00    -0.744 OA
ENDBRANCH  87  88
ENDBRANCH  61  82
ENDBRANCH  35  36
ENDBRANCH  27  30
ENDBRANCH  25  26
ENDBRANCH   1  25
TORSDOF 15
ENDMDL
