MODEL 1
REMARK VINA RESULT:      -9.7      0.000      0.000
REMARK SMILES C#CCN(CC(=O)NCCCNC(=O)c1ccc(-c2c3nc(c(-c4ccc(S(=O)(=O)[O-])cc4)c4ccc([nH]4)c(-c4ccc(S(=O)(=O)[O-])cc4)c4nc(c(-c5ccc(S(=O)(=O)[O-])cc5)c5ccc2[nH]5)C=C4)C=C3)cc1)C(=O)CCOc1ccc(C)cc1
REMARK SMILES IDX 6 1 7 2 8 3 5 5 4 6 3 7 2 8 1 9 75 10 76 11 77 12 78 13
REMARK SMILES IDX 79 14 80 15 81 16 86 17 82 18 85 19 83 20 84 21 9 22 10 23
REMARK SMILES IDX 11 24 12 25 13 26 14 28 15 29 16 30 74 31 17 32 73 33 18 34
REMARK SMILES IDX 19 35 20 36 67 37 21 38 72 39 66 40 68 41 22 42 71 43 65 44
REMARK SMILES IDX 64 45 23 47 53 48 34 49 52 50 35 51 38 52 51 53 69 54 36 55
REMARK SMILES IDX 37 56 50 58 70 59 39 60 24 61 25 62 33 63 26 64 32 65 27 66
REMARK SMILES IDX 28 67 29 68 30 69 31 70 54 71 55 72 63 73 56 74 62 75 57 76
REMARK SMILES IDX 58 77 59 78 60 79 61 80 40 81 41 82 49 83 42 84 48 85 43 86
REMARK SMILES IDX 44 87 45 88 46 89 47 90
REMARK H PARENT 8 4 12 27 68 46 38 57
REMARK Flexibility Score: inf
ROOT
ATOM      1  C   UNL A   1      30.924  28.933  23.259  1.00  0.00     0.239 C 
ATOM      2  O   UNL A   1      31.173  29.462  22.175  1.00  0.00    -0.273 OA
ATOM      3  N   UNL A   1      31.483  29.477  24.375  1.00  0.00    -0.354 N 
ATOM      4  H   UNL A   1      31.786  30.410  24.296  1.00  0.00     0.163 HD
ENDROOT
BRANCH   1   5
ATOM      5  C   UNL A   1      30.034  27.685  23.380  1.00  0.00     0.220 C 
BRANCH   5   6
ATOM      6  N   UNL A   1      30.727  26.405  23.187  1.00  0.00    -0.322 N 
BRANCH   6   7
ATOM      7  C   UNL A   1      30.326  25.236  24.035  1.00  0.00     0.209 C 
BRANCH   7   8
ATOM      8  C   UNL A   1      31.062  25.142  25.361  1.00  0.00    -0.085 C 
ATOM      9  C   UNL A   1      31.695  25.062  26.498  1.00  0.00     0.006 C 
ENDBRANCH   7   8
ENDBRANCH   6   7
BRANCH   6  10
ATOM     10  C   UNL A   1      31.702  26.258  22.197  1.00  0.00     0.227 C 
ATOM     11  O   UNL A   1      31.426  26.360  21.000  1.00  0.00    -0.275 OA
BRANCH  10  12
ATOM     12  C   UNL A   1      33.177  26.112  22.620  1.00  0.00     0.141 C 
BRANCH  12  13
ATOM     13  C   UNL A   1      33.742  24.680  22.431  1.00  0.00     0.239 C 
BRANCH  13  14
ATOM     14  O   UNL A   1      33.657  23.764  23.566  1.00  0.00    -0.493 OA
BRANCH  14  15
ATOM     15  C   UNL A   1      34.789  23.493  24.286  1.00  0.00     0.119 A 
ATOM     16  C   UNL A   1      35.104  24.170  25.461  1.00  0.00     0.046 A 
ATOM     17  C   UNL A   1      35.713  22.577  23.866  1.00  0.00     0.046 A 
ATOM     18  C   UNL A   1      36.352  23.958  26.111  1.00  0.00     0.007 A 
ATOM     19  C   UNL A   1      36.994  22.475  24.391  1.00  0.00     0.007 A 
ATOM     20  C   UNL A   1      37.333  23.143  25.541  1.00  0.00    -0.051 A 
ATOM     21  C   UNL A   1      38.691  22.863  26.108  1.00  0.00     0.044 C 
ENDBRANCH  14  15
ENDBRANCH  13  14
ENDBRANCH  12  13
ENDBRANCH  10  12
ENDBRANCH   6  10
ENDBRANCH   5   6
ENDBRANCH   1   5
BRANCH   3  22
ATOM     22  C   UNL A   1      31.682  28.847  25.660  1.00  0.00     0.117 C 
BRANCH  22  23
ATOM     23  C   UNL A   1      33.112  28.337  25.788  1.00  0.00     0.042 C 
BRANCH  23  24
ATOM     24  C   UNL A   1      33.702  28.544  27.181  1.00  0.00     0.118 C 
BRANCH  24  25
ATOM     25  N   UNL A   1      33.670  29.946  27.584  1.00  0.00    -0.352 N 
ATOM     26  C   UNL A   1      34.596  30.662  28.303  1.00  0.00     0.251 C 
ATOM     27  H   UNL A   1      32.874  30.450  27.300  1.00  0.00     0.163 HD
ATOM     28  O   UNL A   1      34.298  31.741  28.797  1.00  0.00    -0.269 OA
BRANCH  26  29
ATOM     29  C   UNL A   1      35.949  30.099  28.471  1.00  0.00     0.039 A 
ATOM     30  C   UNL A   1      36.862  30.179  27.418  1.00  0.00     0.014 A 
ATOM     31  C   UNL A   1      36.310  29.527  29.693  1.00  0.00     0.014 A 
ATOM     32  C   UNL A   1      38.174  29.752  27.623  1.00  0.00     0.010 A 
ATOM     33  C   UNL A   1      37.632  29.176  29.918  1.00  0.00     0.010 A 
ATOM     34  C   UNL A   1      38.577  29.290  28.887  1.00  0.00    -0.014 A 
BRANCH  34  35
ATOM     35  C   UNL A   1      39.986  28.936  29.175  1.00  0.00     0.031 A 
ATOM     36  C   UNL A   1      40.922  29.981  29.713  1.00  0.00     0.074 A 
ATOM     37  C   UNL A   1      40.437  27.709  28.850  1.00  0.00     0.049 A 
ATOM     38  N   UNL A   1      42.211  29.905  29.914  1.00  0.00    -0.248 NA
ATOM     39  C   UNL A   1      40.335  31.292  30.044  1.00  0.00     0.031 C 
ATOM     40  C   UNL A   1      39.625  26.629  28.280  1.00  0.00     0.029 A 
ATOM     41  N   UNL A   1      41.695  27.168  28.934  1.00  0.00    -0.354 N 
ATOM     42  C   UNL A   1      42.594  31.160  30.372  1.00  0.00     0.074 A 
ATOM     43  C   UNL A   1      41.410  31.991  30.377  1.00  0.00     0.031 C 
ATOM     44  C   UNL A   1      40.402  25.552  28.084  1.00  0.00     0.029 A 
ATOM     45  C   UNL A   1      41.772  25.878  28.464  1.00  0.00     0.049 A 
ATOM     46  H   UNL A   1      42.469  27.656  29.296  1.00  0.00     0.167 HD
ATOM     47  C   UNL A   1      43.819  31.575  30.770  1.00  0.00     0.031 A 
ATOM     48  C   UNL A   1      42.832  25.057  28.334  1.00  0.00     0.031 A 
ATOM     49  C   UNL A   1      44.987  30.736  30.766  1.00  0.00     0.049 A 
ATOM     50  C   UNL A   1      44.189  25.552  28.751  1.00  0.00     0.074 A 
ATOM     51  C   UNL A   1      46.262  31.035  31.211  1.00  0.00     0.029 A 
ATOM     52  N   UNL A   1      45.023  29.435  30.286  1.00  0.00    -0.354 N 
ATOM     53  N   UNL A   1      44.518  26.716  29.259  1.00  0.00    -0.248 NA
ATOM     54  C   UNL A   1      45.316  24.627  28.576  1.00  0.00     0.031 C 
ATOM     55  C   UNL A   1      47.083  29.935  30.947  1.00  0.00     0.029 A 
ATOM     56  C   UNL A   1      46.308  28.930  30.388  1.00  0.00     0.049 A 
ATOM     57  H   UNL A   1      44.250  28.943  29.926  1.00  0.00     0.167 HD
ATOM     58  C   UNL A   1      45.890  26.658  29.476  1.00  0.00     0.074 A 
ATOM     59  C   UNL A   1      46.323  25.338  29.065  1.00  0.00     0.031 C 
ATOM     60  C   UNL A   1      46.717  27.614  29.966  1.00  0.00     0.031 A 
BRANCH  47  61
ATOM     61  C   UNL A   1      43.957  33.000  31.233  1.00  0.00    -0.014 A 
ATOM     62  C   UNL A   1      44.359  34.017  30.347  1.00  0.00     0.010 A 
ATOM     63  C   UNL A   1      43.644  33.337  32.563  1.00  0.00     0.010 A 
ATOM     64  C   UNL A   1      44.486  35.335  30.792  1.00  0.00     0.020 A 
ATOM     65  C   UNL A   1      43.742  34.661  33.005  1.00  0.00     0.020 A 
ATOM     66  C   UNL A   1      44.179  35.648  32.120  1.00  0.00     0.054 A 
BRANCH  66  67
ATOM     67  S   UNL A   1      44.331  37.373  32.660  1.00  0.00     0.124 S 
ATOM     68  O   UNL A   1      45.706  37.414  33.151  1.00  0.00    -0.237 OA
ATOM     69  O   UNL A   1      44.082  38.117  31.429  1.00  0.00    -0.237 OA
ATOM     70  O   UNL A   1      43.300  37.507  33.686  1.00  0.00    -0.744 OA
ENDBRANCH  66  67
ENDBRANCH  47  61
BRANCH  48  71
ATOM     71  C   UNL A   1      42.648  23.687  27.782  1.00  0.00    -0.014 A 
ATOM     72  C   UNL A   1      42.511  22.585  28.644  1.00  0.00     0.010 A 
ATOM     73  C   UNL A   1      42.588  23.478  26.391  1.00  0.00     0.010 A 
ATOM     74  C   UNL A   1      42.328  21.300  28.127  1.00  0.00     0.020 A 
ATOM     75  C   UNL A   1      42.378  22.197  25.871  1.00  0.00     0.020 A 
ATOM     76  C   UNL A   1      42.259  21.114  26.743  1.00  0.00     0.054 A 
BRANCH  76  77
ATOM     77  S   UNL A   1      41.963  19.444  26.099  1.00  0.00     0.124 S 
ATOM     78  O   UNL A   1      42.452  18.606  27.190  1.00  0.00    -0.237 OA
ATOM     79  O   UNL A   1      40.516  19.436  25.894  1.00  0.00    -0.237 OA
ATOM     80  O   UNL A   1      42.757  19.404  24.873  1.00  0.00    -0.744 OA
ENDBRANCH  76  77
ENDBRANCH  48  71
BRANCH  60  81
ATOM     81  C   UNL A   1      48.176  27.269  30.092  1.00  0.00    -0.014 A 
ATOM     82  C   UNL A   1      49.092  27.644  29.094  1.00  0.00     0.010 A 
ATOM     83  C   UNL A   1      48.647  26.640  31.259  1.00  0.00     0.010 A 
ATOM     84  C   UNL A   1      50.455  27.384  29.255  1.00  0.00     0.020 A 
ATOM     85  C   UNL A   1      50.012  26.403  31.435  1.00  0.00     0.020 A 
ATOM     86  C   UNL A   1      50.907  26.771  30.429  1.00  0.00     0.054 A 
BRANCH  86  87
ATOM     87  S   UNL A   1      52.689  26.515  30.645  1.00  0.00     0.124 S 
ATOM     88  O   UNL A   1      53.119  27.802  31.182  1.00  0.00    -0.237 OA
ATOM     89  O   UNL A   1      52.739  25.395  31.582  1.00  0.00    -0.237 OA
ATOM     90  O   UNL A   1      53.162  26.213  29.297  1.00  0.00    -0.744 OA
ENDBRANCH  86  87
ENDBRANCH  60  81
ENDBRANCH  34  35
ENDBRANCH  26  29
ENDBRANCH  24  25
ENDBRANCH  23  24
ENDBRANCH  22  23
ENDBRANCH   3  22
TORSDOF 21
ENDMDL
MODEL 2
REMARK VINA RESULT:      -9.1      3.263      8.303
REMARK SMILES C#CCN(CC(=O)NCCCNC(=O)c1ccc(-c2c3nc(c(-c4ccc(S(=O)(=O)[O-])cc4)c4ccc([nH]4)c(-c4ccc(S(=O)(=O)[O-])cc4)c4nc(c(-c5ccc(S(=O)(=O)[O-])cc5)c5ccc2[nH]5)C=C4)C=C3)cc1)C(=O)CCOc1ccc(C)cc1
REMARK SMILES IDX 6 1 7 2 8 3 5 5 4 6 3 7 2 8 1 9 75 10 76 11 77 12 78 13
REMARK SMILES IDX 79 14 80 15 81 16 86 17 82 18 85 19 83 20 84 21 9 22 10 23
REMARK SMILES IDX 11 24 12 25 13 26 14 28 15 29 16 30 74 31 17 32 73 33 18 34
REMARK SMILES IDX 19 35 20 36 67 37 21 38 72 39 66 40 68 41 22 42 71 43 65 44
REMARK SMILES IDX 64 45 23 47 53 48 34 49 52 50 35 51 38 52 51 53 69 54 36 55
REMARK SMILES IDX 37 56 50 58 70 59 39 60 24 61 25 62 33 63 26 64 32 65 27 66
REMARK SMILES IDX 28 67 29 68 30 69 31 70 54 71 55 72 63 73 56 74 62 75 57 76
REMARK SMILES IDX 58 77 59 78 60 79 61 80 40 81 41 82 49 83 42 84 48 85 43 86
REMARK SMILES IDX 44 87 45 88 46 89 47 90
REMARK H PARENT 8 4 12 27 68 46 38 57
REMARK Flexibility Score: inf
ROOT
ATOM      1  C   UNL A   1      34.850  21.688  26.270  1.00  0.00     0.239 C 
ATOM      2  O   UNL A   1      34.187  21.243  27.209  1.00  0.00    -0.273 OA
ATOM      3  N   UNL A   1      35.975  21.012  25.910  1.00  0.00    -0.354 N 
ATOM      4  H   UNL A   1      36.027  20.072  26.199  1.00  0.00     0.163 HD
ENDROOT
BRANCH   1   5
ATOM      5  C   UNL A   1      34.458  22.973  25.524  1.00  0.00     0.220 C 
BRANCH   5   6
ATOM      6  N   UNL A   1      33.734  22.766  24.264  1.00  0.00    -0.322 N 
BRANCH   6   7
ATOM      7  C   UNL A   1      32.440  22.009  24.295  1.00  0.00     0.209 C 
BRANCH   7   8
ATOM      8  C   UNL A   1      31.478  22.459  25.380  1.00  0.00    -0.085 C 
ATOM      9  C   UNL A   1      30.651  22.845  26.312  1.00  0.00     0.006 C 
ENDBRANCH   7   8
ENDBRANCH   6   7
BRANCH   6  10
ATOM     10  C   UNL A   1      34.208  23.307  23.065  1.00  0.00     0.227 C 
ATOM     11  O   UNL A   1      35.410  23.323  22.795  1.00  0.00    -0.275 OA
BRANCH  10  12
ATOM     12  C   UNL A   1      33.190  23.757  21.999  1.00  0.00     0.141 C 
BRANCH  12  13
ATOM     13  C   UNL A   1      32.586  25.161  22.265  1.00  0.00     0.239 C 
BRANCH  13  14
ATOM     14  O   UNL A   1      31.488  25.254  23.223  1.00  0.00    -0.493 OA
BRANCH  14  15
ATOM     15  C   UNL A   1      31.524  26.230  24.182  1.00  0.00     0.119 A 
ATOM     16  C   UNL A   1      30.912  27.468  24.007  1.00  0.00     0.046 A 
ATOM     17  C   UNL A   1      32.213  26.072  25.352  1.00  0.00     0.046 A 
ATOM     18  C   UNL A   1      31.082  28.507  24.965  1.00  0.00     0.007 A 
ATOM     19  C   UNL A   1      32.523  27.115  26.214  1.00  0.00     0.007 A 
ATOM     20  C   UNL A   1      31.944  28.348  26.055  1.00  0.00    -0.051 A 
ATOM     21  C   UNL A   1      32.230  29.369  27.112  1.00  0.00     0.044 C 
ENDBRANCH  14  15
ENDBRANCH  13  14
ENDBRANCH  12  13
ENDBRANCH  10  12
ENDBRANCH   6  10
ENDBRANCH   5   6
ENDBRANCH   1   5
BRANCH   3  22
ATOM     22  C   UNL A   1      37.102  21.510  25.154  1.00  0.00     0.117 C 
BRANCH  22  23
ATOM     23  C   UNL A   1      38.177  20.437  25.031  1.00  0.00     0.042 C 
BRANCH  23  24
ATOM     24  C   UNL A   1      39.429  20.744  25.847  1.00  0.00     0.118 C 
BRANCH  24  25
ATOM     25  N   UNL A   1      40.290  19.575  25.988  1.00  0.00    -0.352 N 
ATOM     26  C   UNL A   1      41.659  19.513  26.079  1.00  0.00     0.251 C 
ATOM     27  H   UNL A   1      39.824  18.708  26.024  1.00  0.00     0.163 HD
ATOM     28  O   UNL A   1      42.244  18.452  25.911  1.00  0.00    -0.269 OA
BRANCH  26  29
ATOM     29  C   UNL A   1      42.404  20.750  26.376  1.00  0.00     0.039 A 
ATOM     30  C   UNL A   1      42.998  21.462  25.334  1.00  0.00     0.014 A 
ATOM     31  C   UNL A   1      42.473  21.212  27.693  1.00  0.00     0.014 A 
ATOM     32  C   UNL A   1      43.599  22.692  25.607  1.00  0.00     0.010 A 
ATOM     33  C   UNL A   1      43.001  22.469  27.948  1.00  0.00     0.010 A 
ATOM     34  C   UNL A   1      43.563  23.222  26.907  1.00  0.00    -0.014 A 
BRANCH  34  35
ATOM     35  C   UNL A   1      44.088  24.573  27.214  1.00  0.00     0.031 A 
ATOM     36  C   UNL A   1      43.141  25.665  27.621  1.00  0.00     0.074 A 
ATOM     37  C   UNL A   1      45.396  24.832  27.019  1.00  0.00     0.049 A 
ATOM     38  N   UNL A   1      43.383  26.935  27.812  1.00  0.00    -0.248 NA
ATOM     39  C   UNL A   1      41.730  25.284  27.814  1.00  0.00     0.031 C 
ATOM     40  C   UNL A   1      46.399  23.856  26.582  1.00  0.00     0.029 A 
ATOM     41  N   UNL A   1      46.104  26.000  27.144  1.00  0.00    -0.354 N 
ATOM     42  C   UNL A   1      42.157  27.508  28.124  1.00  0.00     0.074 A 
ATOM     43  C   UNL A   1      41.165  26.458  28.054  1.00  0.00     0.031 C 
ATOM     44  C   UNL A   1      47.593  24.463  26.494  1.00  0.00     0.029 A 
ATOM     45  C   UNL A   1      47.433  25.876  26.817  1.00  0.00     0.049 A 
ATOM     46  H   UNL A   1      45.698  26.846  27.440  1.00  0.00     0.167 HD
ATOM     47  C   UNL A   1      41.886  28.792  28.457  1.00  0.00     0.031 A 
ATOM     48  C   UNL A   1      48.411  26.802  26.764  1.00  0.00     0.031 A 
ATOM     49  C   UNL A   1      42.883  29.826  28.530  1.00  0.00     0.049 A 
ATOM     50  C   UNL A   1      48.078  28.227  27.106  1.00  0.00     0.074 A 
ATOM     51  C   UNL A   1      42.729  31.143  28.922  1.00  0.00     0.029 A 
ATOM     52  N   UNL A   1      44.219  29.660  28.195  1.00  0.00    -0.354 N 
ATOM     53  N   UNL A   1      46.928  28.736  27.479  1.00  0.00    -0.248 NA
ATOM     54  C   UNL A   1      49.173  29.204  27.019  1.00  0.00     0.031 C 
ATOM     55  C   UNL A   1      43.959  31.789  28.769  1.00  0.00     0.029 A 
ATOM     56  C   UNL A   1      44.894  30.860  28.335  1.00  0.00     0.049 A 
ATOM     57  H   UNL A   1      44.628  28.813  27.901  1.00  0.00     0.167 HD
ATOM     58  C   UNL A   1      47.163  30.091  27.682  1.00  0.00     0.074 A 
ATOM     59  C   UNL A   1      48.569  30.317  27.413  1.00  0.00     0.031 C 
ATOM     60  C   UNL A   1      46.293  31.062  28.054  1.00  0.00     0.031 A 
BRANCH  47  61
ATOM     61  C   UNL A   1      40.455  29.148  28.760  1.00  0.00    -0.014 A 
ATOM     62  C   UNL A   1      40.003  29.272  30.087  1.00  0.00     0.010 A 
ATOM     63  C   UNL A   1      39.558  29.399  27.706  1.00  0.00     0.010 A 
ATOM     64  C   UNL A   1      38.671  29.599  30.353  1.00  0.00     0.020 A 
ATOM     65  C   UNL A   1      38.231  29.754  27.969  1.00  0.00     0.020 A 
ATOM     66  C   UNL A   1      37.793  29.836  29.292  1.00  0.00     0.054 A 
BRANCH  66  67
ATOM     67  S   UNL A   1      36.076  30.282  29.671  1.00  0.00     0.124 S 
ATOM     68  O   UNL A   1      35.934  29.793  31.040  1.00  0.00    -0.237 OA
ATOM     69  O   UNL A   1      36.083  31.735  29.522  1.00  0.00    -0.237 OA
ATOM     70  O   UNL A   1      35.299  29.559  28.668  1.00  0.00    -0.744 OA
ENDBRANCH  66  67
ENDBRANCH  47  61
BRANCH  48  71
ATOM     71  C   UNL A   1      49.789  26.406  26.368  1.00  0.00    -0.014 A 
ATOM     72  C   UNL A   1      50.650  25.798  27.299  1.00  0.00     0.010 A 
ATOM     73  C   UNL A   1      50.243  26.613  25.052  1.00  0.00     0.010 A 
ATOM     74  C   UNL A   1      51.942  25.416  26.926  1.00  0.00     0.020 A 
ATOM     75  C   UNL A   1      51.525  26.208  24.668  1.00  0.00     0.020 A 
ATOM     76  C   UNL A   1      52.370  25.620  25.611  1.00  0.00     0.054 A 
BRANCH  76  77
ATOM     77  S   UNL A   1      54.030  25.064  25.136  1.00  0.00     0.124 S 
ATOM     78  O   UNL A   1      53.836  23.626  24.980  1.00  0.00    -0.237 OA
ATOM     79  O   UNL A   1      54.271  25.808  23.901  1.00  0.00    -0.237 OA
ATOM     80  O   UNL A   1      54.863  25.466  26.267  1.00  0.00    -0.744 OA
ENDBRANCH  76  77
ENDBRANCH  48  71
BRANCH  60  81
ATOM     81  C   UNL A   1      46.833  32.459  28.196  1.00  0.00    -0.014 A 
ATOM     82  C   UNL A   1      46.591  33.428  27.208  1.00  0.00     0.010 A 
ATOM     83  C   UNL A   1      47.516  32.827  29.370  1.00  0.00     0.010 A 
ATOM     84  C   UNL A   1      47.034  34.741  27.385  1.00  0.00     0.020 A 
ATOM     85  C   UNL A   1      47.936  34.144  29.563  1.00  0.00     0.020 A 
ATOM     86  C   UNL A   1      47.698  35.092  28.565  1.00  0.00     0.054 A 
BRANCH  86  87
ATOM     87  S   UNL A   1      48.194  36.820  28.803  1.00  0.00     0.124 S 
ATOM     88  O   UNL A   1      48.382  37.275  27.428  1.00  0.00    -0.237 OA
ATOM     89  O   UNL A   1      47.044  37.390  29.501  1.00  0.00    -0.237 OA
ATOM     90  O   UNL A   1      49.414  36.725  29.599  1.00  0.00    -0.744 OA
ENDBRANCH  86  87
ENDBRANCH  60  81
ENDBRANCH  34  35
ENDBRANCH  26  29
ENDBRANCH  24  25
ENDBRANCH  23  24
ENDBRANCH  22  23
ENDBRANCH   3  22
TORSDOF 21
ENDMDL
MODEL 3
REMARK VINA RESULT:      -9.1      4.879     10.516
REMARK SMILES C#CCN(CC(=O)NCCCNC(=O)c1ccc(-c2c3nc(c(-c4ccc(S(=O)(=O)[O-])cc4)c4ccc([nH]4)c(-c4ccc(S(=O)(=O)[O-])cc4)c4nc(c(-c5ccc(S(=O)(=O)[O-])cc5)c5ccc2[nH]5)C=C4)C=C3)cc1)C(=O)CCOc1ccc(C)cc1
REMARK SMILES IDX 6 1 7 2 8 3 5 5 4 6 3 7 2 8 1 9 75 10 76 11 77 12 78 13
REMARK SMILES IDX 79 14 80 15 81 16 86 17 82 18 85 19 83 20 84 21 9 22 10 23
REMARK SMILES IDX 11 24 12 25 13 26 14 28 15 29 16 30 74 31 17 32 73 33 18 34
REMARK SMILES IDX 19 35 20 36 67 37 21 38 72 39 66 40 68 41 22 42 71 43 65 44
REMARK SMILES IDX 64 45 23 47 53 48 34 49 52 50 35 51 38 52 51 53 69 54 36 55
REMARK SMILES IDX 37 56 50 58 70 59 39 60 24 61 25 62 33 63 26 64 32 65 27 66
REMARK SMILES IDX 28 67 29 68 30 69 31 70 54 71 55 72 63 73 56 74 62 75 57 76
REMARK SMILES IDX 58 77 59 78 60 79 61 80 40 81 41 82 49 83 42 84 48 85 43 86
REMARK SMILES IDX 44 87 45 88 46 89 47 90
REMARK H PARENT 8 4 12 27 68 46 38 57
REMARK Flexibility Score: inf
ROOT
ATOM      1  C   UNL A   1      34.757  21.777  26.300  1.00  0.00     0.239 C 
ATOM      2  O   UNL A   1      34.296  21.100  27.221  1.00  0.00    -0.273 OA
ATOM      3  N   UNL A   1      35.716  22.694  26.605  1.00  0.00    -0.354 N 
ATOM      4  H   UNL A   1      36.195  22.555  27.454  1.00  0.00     0.163 HD
ENDROOT
BRANCH   1   5
ATOM      5  C   UNL A   1      34.273  21.630  24.849  1.00  0.00     0.220 C 
BRANCH   5   6
ATOM      6  N   UNL A   1      32.866  21.236  24.699  1.00  0.00    -0.322 N 
BRANCH   6   7
ATOM      7  C   UNL A   1      32.518  19.779  24.754  1.00  0.00     0.209 C 
BRANCH   7   8
ATOM      8  C   UNL A   1      32.440  19.102  23.396  1.00  0.00    -0.085 C 
ATOM      9  C   UNL A   1      32.372  18.521  22.231  1.00  0.00     0.006 C 
ENDBRANCH   7   8
ENDBRANCH   6   7
BRANCH   6  10
ATOM     10  C   UNL A   1      31.861  22.198  24.563  1.00  0.00     0.227 C 
ATOM     11  O   UNL A   1      31.616  22.726  23.477  1.00  0.00    -0.275 OA
BRANCH  10  12
ATOM     12  C   UNL A   1      30.944  22.491  25.767  1.00  0.00     0.141 C 
BRANCH  12  13
ATOM     13  C   UNL A   1      31.268  23.825  26.488  1.00  0.00     0.239 C 
BRANCH  13  14
ATOM     14  O   UNL A   1      32.520  24.493  26.144  1.00  0.00    -0.493 OA
BRANCH  14  15
ATOM     15  C   UNL A   1      32.580  25.859  26.193  1.00  0.00     0.119 A 
ATOM     16  C   UNL A   1      33.735  26.566  25.874  1.00  0.00     0.046 A 
ATOM     17  C   UNL A   1      31.521  26.615  26.614  1.00  0.00     0.046 A 
ATOM     18  C   UNL A   1      33.803  27.975  26.065  1.00  0.00     0.007 A 
ATOM     19  C   UNL A   1      31.618  27.957  26.958  1.00  0.00     0.007 A 
ATOM     20  C   UNL A   1      32.752  28.673  26.666  1.00  0.00    -0.051 A 
ATOM     21  C   UNL A   1      32.712  30.143  26.948  1.00  0.00     0.044 C 
ENDBRANCH  14  15
ENDBRANCH  13  14
ENDBRANCH  12  13
ENDBRANCH  10  12
ENDBRANCH   6  10
ENDBRANCH   5   6
ENDBRANCH   1   5
BRANCH   3  22
ATOM     22  C   UNL A   1      36.114  23.847  25.829  1.00  0.00     0.117 C 
BRANCH  22  23
ATOM     23  C   UNL A   1      37.534  23.672  25.305  1.00  0.00     0.042 C 
BRANCH  23  24
ATOM     24  C   UNL A   1      38.558  24.529  26.044  1.00  0.00     0.118 C 
BRANCH  24  25
ATOM     25  N   UNL A   1      39.733  23.757  26.438  1.00  0.00    -0.352 N 
ATOM     26  C   UNL A   1      40.790  24.133  27.230  1.00  0.00     0.251 C 
ATOM     27  H   UNL A   1      39.772  22.838  26.088  1.00  0.00     0.163 HD
ATOM     28  O   UNL A   1      41.823  23.478  27.237  1.00  0.00    -0.269 OA
BRANCH  26  29
ATOM     29  C   UNL A   1      40.653  25.343  28.063  1.00  0.00     0.039 A 
ATOM     30  C   UNL A   1      39.487  25.539  28.804  1.00  0.00     0.014 A 
ATOM     31  C   UNL A   1      41.709  26.256  28.128  1.00  0.00     0.014 A 
ATOM     32  C   UNL A   1      39.413  26.623  29.680  1.00  0.00     0.010 A 
ATOM     33  C   UNL A   1      41.663  27.286  29.054  1.00  0.00     0.010 A 
ATOM     34  C   UNL A   1      40.518  27.475  29.842  1.00  0.00    -0.014 A 
BRANCH  34  35
ATOM     35  C   UNL A   1      40.520  28.567  30.844  1.00  0.00     0.031 A 
ATOM     36  C   UNL A   1      41.434  28.485  32.033  1.00  0.00     0.074 A 
ATOM     37  C   UNL A   1      39.624  29.567  30.731  1.00  0.00     0.049 A 
ATOM     38  N   UNL A   1      41.499  29.270  33.076  1.00  0.00    -0.248 NA
ATOM     39  C   UNL A   1      42.382  27.358  32.066  1.00  0.00     0.031 C 
ATOM     40  C   UNL A   1      38.658  29.722  29.639  1.00  0.00     0.029 A 
ATOM     41  N   UNL A   1      39.366  30.633  31.554  1.00  0.00    -0.354 N 
ATOM     42  C   UNL A   1      42.475  28.721  33.898  1.00  0.00     0.074 A 
ATOM     43  C   UNL A   1      42.944  27.514  33.256  1.00  0.00     0.031 C 
ATOM     44  C   UNL A   1      37.927  30.828  29.853  1.00  0.00     0.029 A 
ATOM     45  C   UNL A   1      38.335  31.430  31.116  1.00  0.00     0.049 A 
ATOM     46  H   UNL A   1      39.870  30.810  32.380  1.00  0.00     0.167 HD
ATOM     47  C   UNL A   1      42.949  29.194  35.075  1.00  0.00     0.031 A 
ATOM     48  C   UNL A   1      37.768  32.515  31.680  1.00  0.00     0.031 A 
ATOM     49  C   UNL A   1      42.479  30.400  35.700  1.00  0.00     0.049 A 
ATOM     50  C   UNL A   1      38.290  33.000  33.004  1.00  0.00     0.074 A 
ATOM     51  C   UNL A   1      42.936  31.004  36.857  1.00  0.00     0.029 A 
ATOM     52  N   UNL A   1      41.436  31.181  35.224  1.00  0.00    -0.354 N 
ATOM     53  N   UNL A   1      39.270  32.516  33.728  1.00  0.00    -0.248 NA
ATOM     54  C   UNL A   1      37.630  34.176  33.587  1.00  0.00     0.031 C 
ATOM     55  C   UNL A   1      42.133  32.120  37.111  1.00  0.00     0.029 A 
ATOM     56  C   UNL A   1      41.210  32.242  36.083  1.00  0.00     0.049 A 
ATOM     57  H   UNL A   1      40.931  31.008  34.396  1.00  0.00     0.167 HD
ATOM     58  C   UNL A   1      39.353  33.335  34.848  1.00  0.00     0.074 A 
ATOM     59  C   UNL A   1      38.339  34.358  34.693  1.00  0.00     0.031 C 
ATOM     60  C   UNL A   1      40.189  33.246  35.912  1.00  0.00     0.031 A 
BRANCH  47  61
ATOM     61  C   UNL A   1      44.026  28.398  35.762  1.00  0.00    -0.014 A 
ATOM     62  C   UNL A   1      45.388  28.658  35.520  1.00  0.00     0.010 A 
ATOM     63  C   UNL A   1      43.676  27.402  36.692  1.00  0.00     0.010 A 
ATOM     64  C   UNL A   1      46.377  27.910  36.163  1.00  0.00     0.020 A 
ATOM     65  C   UNL A   1      44.664  26.670  37.359  1.00  0.00     0.020 A 
ATOM     66  C   UNL A   1      46.008  26.918  37.076  1.00  0.00     0.054 A 
BRANCH  66  67
ATOM     67  S   UNL A   1      47.317  25.981  37.912  1.00  0.00     0.124 S 
ATOM     68  O   UNL A   1      46.782  24.622  37.877  1.00  0.00    -0.237 OA
ATOM     69  O   UNL A   1      48.477  26.220  37.058  1.00  0.00    -0.237 OA
ATOM     70  O   UNL A   1      47.386  26.588  39.238  1.00  0.00    -0.744 OA
ENDBRANCH  66  67
ENDBRANCH  47  61
BRANCH  48  71
ATOM     71  C   UNL A   1      36.643  33.207  30.995  1.00  0.00    -0.014 A 
ATOM     72  C   UNL A   1      35.350  33.179  31.546  1.00  0.00     0.010 A 
ATOM     73  C   UNL A   1      36.861  33.916  29.800  1.00  0.00     0.010 A 
ATOM     74  C   UNL A   1      34.294  33.837  30.909  1.00  0.00     0.020 A 
ATOM     75  C   UNL A   1      35.812  34.599  29.174  1.00  0.00     0.020 A 
ATOM     76  C   UNL A   1      34.532  34.546  29.729  1.00  0.00     0.054 A 
BRANCH  76  77
ATOM     77  S   UNL A   1      33.158  35.440  28.952  1.00  0.00     0.124 S 
ATOM     78  O   UNL A   1      32.521  34.391  28.161  1.00  0.00    -0.237 OA
ATOM     79  O   UNL A   1      32.396  35.911  30.107  1.00  0.00    -0.237 OA
ATOM     80  O   UNL A   1      33.822  36.490  28.184  1.00  0.00    -0.744 OA
ENDBRANCH  76  77
ENDBRANCH  48  71
BRANCH  60  81
ATOM     81  C   UNL A   1      40.050  34.283  36.992  1.00  0.00    -0.014 A 
ATOM     82  C   UNL A   1      40.626  35.556  36.846  1.00  0.00     0.010 A 
ATOM     83  C   UNL A   1      39.263  34.008  38.126  1.00  0.00     0.010 A 
ATOM     84  C   UNL A   1      40.428  36.536  37.822  1.00  0.00     0.020 A 
ATOM     85  C   UNL A   1      39.041  34.993  39.090  1.00  0.00     0.020 A 
ATOM     86  C   UNL A   1      39.630  36.249  38.935  1.00  0.00     0.054 A 
BRANCH  86  87
ATOM     87  S   UNL A   1      39.327  37.563  40.149  1.00  0.00     0.124 S 
ATOM     88  O   UNL A   1      40.674  38.071  40.390  1.00  0.00    -0.237 OA
ATOM     89  O   UNL A   1      38.435  38.466  39.425  1.00  0.00    -0.237 OA
ATOM     90  O   UNL A   1      38.714  36.861  41.273  1.00  0.00    -0.744 OA
ENDBRANCH  86  87
ENDBRANCH  60  81
ENDBRANCH  34  35
ENDBRANCH  26  29
ENDBRANCH  24  25
ENDBRANCH  23  24
ENDBRANCH  22  23
ENDBRANCH   3  22
TORSDOF 21
ENDMDL
