MODEL 1
REMARK VINA RESULT:     -10.5      0.000      0.000
REMARK SMILES CCOc1oc(C[C@H]2CCCCO2)nc1C(=O)NCCCNC(=O)c1ccc(-c2c3nc(c(-c4ccc(S(=O)(=O)[O-])cc4)c4ccc([nH]4)c(-c4ccc(S(=O)(=O)[O-])cc4)c4nc(c(-c5ccc(S(=O)(=O)[O-])cc5)c5ccc2[nH]5)C=C4)C=C3)cc1
REMARK SMILES IDX 20 1 19 2 18 3 16 4 17 5 15 7 4 8 5 9 6 10 14 11 3 12 2 13
REMARK SMILES IDX 1 14 7 15 8 16 9 17 13 18 10 19 12 20 11 21 21 22 22 23
REMARK SMILES IDX 23 24 24 26 25 27 26 28 84 29 27 30 83 31 28 32 29 33 30 34
REMARK SMILES IDX 77 35 31 36 82 37 76 38 78 39 32 40 81 41 75 42 74 43 33 45
REMARK SMILES IDX 63 46 44 47 62 48 45 49 48 50 61 51 79 52 46 53 47 54 60 56
REMARK SMILES IDX 80 57 49 58 34 59 35 60 43 61 36 62 42 63 37 64 38 65 39 66
REMARK SMILES IDX 40 67 41 68 64 69 65 70 73 71 66 72 72 73 67 74 68 75 69 76
REMARK SMILES IDX 70 77 71 78 50 79 51 80 59 81 52 82 58 83 53 84 54 85 55 86
REMARK SMILES IDX 56 87 57 88
REMARK H PARENT 18 6 22 25 78 44 48 55
REMARK Flexibility Score: inf
ROOT
ATOM      1  C   UNL A   1      32.540  27.681  26.254  1.00  0.00     0.042 C 
ENDROOT
BRANCH   1   2
ATOM      2  C   UNL A   1      31.381  26.838  26.777  1.00  0.00     0.118 C 
BRANCH   2   3
ATOM      3  N   UNL A   1      31.232  25.589  26.051  1.00  0.00    -0.350 N 
ATOM      4  C   UNL A   1      30.679  25.315  24.824  1.00  0.00     0.277 C 
ATOM      5  O   UNL A   1      30.653  24.132  24.483  1.00  0.00    -0.267 OA
ATOM      6  H   UNL A   1      31.589  24.801  26.521  1.00  0.00     0.163 HD
BRANCH   4   7
ATOM      7  C   UNL A   1      30.159  26.382  23.980  1.00  0.00     0.212 A 
ATOM      8  C   UNL A   1      30.912  27.181  23.142  1.00  0.00     0.318 A 
ATOM      9  O   UNL A   1      30.099  28.121  22.586  1.00  0.00    -0.409 OA
ATOM     10  C   UNL A   1      28.875  27.871  23.140  1.00  0.00     0.202 A 
ATOM     11  N   UNL A   1      28.845  26.822  23.934  1.00  0.00    -0.204 NA
BRANCH   8  12
ATOM     12  O   UNL A   1      32.200  27.321  22.853  1.00  0.00    -0.464 OA
BRANCH  12  13
ATOM     13  C   UNL A   1      32.606  28.666  22.604  1.00  0.00     0.230 C 
ATOM     14  C   UNL A   1      34.118  28.789  22.664  1.00  0.00     0.049 C 
ENDBRANCH  12  13
ENDBRANCH   8  12
BRANCH  10  15
ATOM     15  C   UNL A   1      27.786  28.840  22.850  1.00  0.00     0.129 C 
BRANCH  15  16
ATOM     16  C   UNL A   1      28.334  30.199  22.386  1.00  0.00     0.127 C 
ATOM     17  C   UNL A   1      27.862  30.564  20.972  1.00  0.00     0.033 C 
ATOM     18  O   UNL A   1      27.875  31.202  23.310  1.00  0.00    -0.378 OA
ATOM     19  C   UNL A   1      28.331  31.963  20.581  1.00  0.00     0.005 C 
ATOM     20  C   UNL A   1      28.413  32.494  23.024  1.00  0.00     0.160 C 
ATOM     21  C   UNL A   1      27.954  32.974  21.655  1.00  0.00     0.029 C 
ENDBRANCH  15  16
ENDBRANCH  10  15
ENDBRANCH   4   7
ENDBRANCH   2   3
ENDBRANCH   1   2
BRANCH   1  22
ATOM     22  C   UNL A   1      33.499  28.164  27.343  1.00  0.00     0.118 C 
BRANCH  22  23
ATOM     23  N   UNL A   1      33.462  29.611  27.528  1.00  0.00    -0.352 N 
ATOM     24  C   UNL A   1      34.389  30.474  28.054  1.00  0.00     0.251 C 
ATOM     25  H   UNL A   1      32.630  30.041  27.223  1.00  0.00     0.163 HD
ATOM     26  O   UNL A   1      34.058  31.625  28.321  1.00  0.00    -0.269 OA
BRANCH  24  27
ATOM     27  C   UNL A   1      35.773  30.025  28.306  1.00  0.00     0.039 A 
ATOM     28  C   UNL A   1      36.696  30.044  27.255  1.00  0.00     0.014 A 
ATOM     29  C   UNL A   1      36.153  29.548  29.563  1.00  0.00     0.014 A 
ATOM     30  C   UNL A   1      38.018  29.655  27.486  1.00  0.00     0.010 A 
ATOM     31  C   UNL A   1      37.485  29.229  29.808  1.00  0.00     0.010 A 
ATOM     32  C   UNL A   1      38.431  29.280  28.773  1.00  0.00    -0.014 A 
BRANCH  32  33
ATOM     33  C   UNL A   1      39.844  28.942  29.075  1.00  0.00     0.031 A 
ATOM     34  C   UNL A   1      40.765  29.994  29.629  1.00  0.00     0.074 A 
ATOM     35  C   UNL A   1      40.321  27.721  28.757  1.00  0.00     0.049 A 
ATOM     36  N   UNL A   1      42.059  29.940  29.821  1.00  0.00    -0.248 NA
ATOM     37  C   UNL A   1      40.157  31.285  29.988  1.00  0.00     0.031 C 
ATOM     38  C   UNL A   1      39.534  26.625  28.186  1.00  0.00     0.029 A 
ATOM     39  N   UNL A   1      41.588  27.204  28.853  1.00  0.00    -0.354 N 
ATOM     40  C   UNL A   1      42.423  31.195  30.292  1.00  0.00     0.074 A 
ATOM     41  C   UNL A   1      41.222  32.001  30.322  1.00  0.00     0.031 C 
ATOM     42  C   UNL A   1      40.333  25.563  27.996  1.00  0.00     0.029 A 
ATOM     43  C   UNL A   1      41.694  25.915  28.387  1.00  0.00     0.049 A 
ATOM     44  H   UNL A   1      42.350  27.709  29.221  1.00  0.00     0.167 HD
ATOM     45  C   UNL A   1      43.645  31.635  30.677  1.00  0.00     0.031 A 
ATOM     46  C   UNL A   1      42.769  25.111  28.270  1.00  0.00     0.031 A 
ATOM     47  C   UNL A   1      44.833  30.822  30.665  1.00  0.00     0.049 A 
ATOM     48  C   UNL A   1      44.116  25.620  28.700  1.00  0.00     0.074 A 
ATOM     49  C   UNL A   1      46.107  31.156  31.088  1.00  0.00     0.029 A 
ATOM     50  N   UNL A   1      44.890  29.514  30.211  1.00  0.00    -0.354 N 
ATOM     51  N   UNL A   1      44.433  26.797  29.187  1.00  0.00    -0.248 NA
ATOM     52  C   UNL A   1      45.250  24.695  28.572  1.00  0.00     0.031 C 
ATOM     53  C   UNL A   1      46.945  30.062  30.851  1.00  0.00     0.029 A 
ATOM     54  C   UNL A   1      46.182  29.030  30.328  1.00  0.00     0.049 A 
ATOM     55  H   UNL A   1      44.125  29.004  29.858  1.00  0.00     0.167 HD
ATOM     56  C   UNL A   1      45.797  26.742  29.450  1.00  0.00     0.074 A 
ATOM     57  C   UNL A   1      46.244  25.416  29.075  1.00  0.00     0.031 C 
ATOM     58  C   UNL A   1      46.605  27.703  29.959  1.00  0.00     0.031 A 
BRANCH  45  59
ATOM     59  C   UNL A   1      43.757  33.063  31.138  1.00  0.00    -0.014 A 
ATOM     60  C   UNL A   1      43.998  34.105  30.224  1.00  0.00     0.010 A 
ATOM     61  C   UNL A   1      43.591  33.374  32.501  1.00  0.00     0.010 A 
ATOM     62  C   UNL A   1      44.118  35.423  30.669  1.00  0.00     0.020 A 
ATOM     63  C   UNL A   1      43.684  34.696  32.946  1.00  0.00     0.020 A 
ATOM     64  C   UNL A   1      43.967  35.710  32.028  1.00  0.00     0.054 A 
BRANCH  64  65
ATOM     65  S   UNL A   1      44.118  37.432  32.578  1.00  0.00     0.124 S 
ATOM     66  O   UNL A   1      43.113  37.498  33.635  1.00  0.00    -0.237 OA
ATOM     67  O   UNL A   1      45.507  37.507  33.025  1.00  0.00    -0.237 OA
ATOM     68  O   UNL A   1      43.811  38.207  31.377  1.00  0.00    -0.744 OA
ENDBRANCH  64  65
ENDBRANCH  45  59
BRANCH  46  69
ATOM     69  C   UNL A   1      42.609  23.734  27.729  1.00  0.00    -0.014 A 
ATOM     70  C   UNL A   1      42.254  22.675  28.583  1.00  0.00     0.010 A 
ATOM     71  C   UNL A   1      42.789  23.478  26.358  1.00  0.00     0.010 A 
ATOM     72  C   UNL A   1      42.097  21.381  28.078  1.00  0.00     0.020 A 
ATOM     73  C   UNL A   1      42.610  22.189  25.845  1.00  0.00     0.020 A 
ATOM     74  C   UNL A   1      42.275  21.147  26.712  1.00  0.00     0.054 A 
BRANCH  74  75
ATOM     75  S   UNL A   1      42.013  19.470  26.069  1.00  0.00     0.124 S 
ATOM     76  O   UNL A   1      40.583  19.478  25.777  1.00  0.00    -0.237 OA
ATOM     77  O   UNL A   1      42.897  19.436  24.906  1.00  0.00    -0.237 OA
ATOM     78  O   UNL A   1      42.423  18.611  27.178  1.00  0.00    -0.744 OA
ENDBRANCH  74  75
ENDBRANCH  46  69
BRANCH  58  79
ATOM     79  C   UNL A   1      48.051  27.351  30.183  1.00  0.00    -0.014 A 
ATOM     80  C   UNL A   1      49.033  27.676  29.231  1.00  0.00     0.010 A 
ATOM     81  C   UNL A   1      48.437  26.761  31.399  1.00  0.00     0.010 A 
ATOM     82  C   UNL A   1      50.379  27.405  29.490  1.00  0.00     0.020 A 
ATOM     83  C   UNL A   1      49.784  26.510  31.671  1.00  0.00     0.020 A 
ATOM     84  C   UNL A   1      50.747  26.826  30.710  1.00  0.00     0.054 A 
BRANCH  84  85
ATOM     85  S   UNL A   1      52.507  26.551  31.052  1.00  0.00     0.124 S 
ATOM     86  O   UNL A   1      53.033  26.258  29.721  1.00  0.00    -0.237 OA
ATOM     87  O   UNL A   1      52.926  27.827  31.626  1.00  0.00    -0.237 OA
ATOM     88  O   UNL A   1      52.507  25.426  31.984  1.00  0.00    -0.744 OA
ENDBRANCH  84  85
ENDBRANCH  58  79
ENDBRANCH  32  33
ENDBRANCH  24  27
ENDBRANCH  22  23
ENDBRANCH   1  22
TORSDOF 17
ENDMDL
MODEL 2
REMARK VINA RESULT:     -10.4      2.755      4.686
REMARK SMILES CCOc1oc(C[C@H]2CCCCO2)nc1C(=O)NCCCNC(=O)c1ccc(-c2c3nc(c(-c4ccc(S(=O)(=O)[O-])cc4)c4ccc([nH]4)c(-c4ccc(S(=O)(=O)[O-])cc4)c4nc(c(-c5ccc(S(=O)(=O)[O-])cc5)c5ccc2[nH]5)C=C4)C=C3)cc1
REMARK SMILES IDX 20 1 19 2 18 3 16 4 17 5 15 7 4 8 5 9 6 10 14 11 3 12 2 13
REMARK SMILES IDX 1 14 7 15 8 16 9 17 13 18 10 19 12 20 11 21 21 22 22 23
REMARK SMILES IDX 23 24 24 26 25 27 26 28 84 29 27 30 83 31 28 32 29 33 30 34
REMARK SMILES IDX 77 35 31 36 82 37 76 38 78 39 32 40 81 41 75 42 74 43 33 45
REMARK SMILES IDX 63 46 44 47 62 48 45 49 48 50 61 51 79 52 46 53 47 54 60 56
REMARK SMILES IDX 80 57 49 58 34 59 35 60 43 61 36 62 42 63 37 64 38 65 39 66
REMARK SMILES IDX 40 67 41 68 64 69 65 70 73 71 66 72 72 73 67 74 68 75 69 76
REMARK SMILES IDX 70 77 71 78 50 79 51 80 59 81 52 82 58 83 53 84 54 85 55 86
REMARK SMILES IDX 56 87 57 88
REMARK H PARENT 18 6 22 25 78 44 48 55
REMARK Flexibility Score: inf
ROOT
ATOM      1  C   UNL A   1      33.646  27.885  25.795  1.00  0.00     0.042 C 
ENDROOT
BRANCH   1   2
ATOM      2  C   UNL A   1      33.420  26.387  25.607  1.00  0.00     0.118 C 
BRANCH   2   3
ATOM      3  N   UNL A   1      33.742  25.943  24.261  1.00  0.00    -0.350 N 
ATOM      4  C   UNL A   1      34.158  24.723  23.787  1.00  0.00     0.277 C 
ATOM      5  O   UNL A   1      34.403  24.656  22.581  1.00  0.00    -0.267 OA
ATOM      6  H   UNL A   1      33.645  26.636  23.570  1.00  0.00     0.163 HD
BRANCH   4   7
ATOM      7  C   UNL A   1      34.295  23.578  24.676  1.00  0.00     0.212 A 
ATOM      8  C   UNL A   1      35.490  23.036  25.107  1.00  0.00     0.318 A 
ATOM      9  O   UNL A   1      35.224  21.926  25.850  1.00  0.00    -0.409 OA
ATOM     10  C   UNL A   1      33.863  21.820  25.814  1.00  0.00     0.202 A 
ATOM     11  N   UNL A   1      33.261  22.799  25.174  1.00  0.00    -0.204 NA
BRANCH   8  12
ATOM     12  O   UNL A   1      36.780  23.258  24.883  1.00  0.00    -0.464 OA
BRANCH  12  13
ATOM     13  C   UNL A   1      37.523  23.631  26.042  1.00  0.00     0.230 C 
ATOM     14  C   UNL A   1      38.791  22.802  26.155  1.00  0.00     0.049 C 
ENDBRANCH  12  13
ENDBRANCH   8  12
BRANCH  10  15
ATOM     15  C   UNL A   1      33.259  20.600  26.411  1.00  0.00     0.129 C 
BRANCH  15  16
ATOM     16  C   UNL A   1      32.601  19.706  25.348  1.00  0.00     0.127 C 
ATOM     17  C   UNL A   1      32.975  20.127  23.920  1.00  0.00     0.033 C 
ATOM     18  O   UNL A   1      33.040  18.354  25.570  1.00  0.00    -0.378 OA
ATOM     19  C   UNL A   1      32.396  19.159  22.893  1.00  0.00     0.005 C 
ATOM     20  C   UNL A   1      32.405  17.422  24.693  1.00  0.00     0.160 C 
ATOM     21  C   UNL A   1      32.762  17.724  23.245  1.00  0.00     0.029 C 
ENDBRANCH  15  16
ENDBRANCH  10  15
ENDBRANCH   4   7
ENDBRANCH   2   3
ENDBRANCH   1   2
BRANCH   1  22
ATOM     22  C   UNL A   1      33.393  28.378  27.221  1.00  0.00     0.118 C 
BRANCH  22  23
ATOM     23  N   UNL A   1      33.403  29.833  27.325  1.00  0.00    -0.352 N 
ATOM     24  C   UNL A   1      34.333  30.689  27.856  1.00  0.00     0.251 C 
ATOM     25  H   UNL A   1      32.607  30.275  26.951  1.00  0.00     0.163 HD
ATOM     26  O   UNL A   1      34.034  31.865  28.042  1.00  0.00    -0.269 OA
BRANCH  24  27
ATOM     27  C   UNL A   1      35.683  30.205  28.211  1.00  0.00     0.039 A 
ATOM     28  C   UNL A   1      36.678  30.186  27.228  1.00  0.00     0.014 A 
ATOM     29  C   UNL A   1      35.958  29.732  29.495  1.00  0.00     0.014 A 
ATOM     30  C   UNL A   1      37.969  29.762  27.557  1.00  0.00     0.010 A 
ATOM     31  C   UNL A   1      37.259  29.378  29.839  1.00  0.00     0.010 A 
ATOM     32  C   UNL A   1      38.278  29.391  28.874  1.00  0.00    -0.014 A 
BRANCH  32  33
ATOM     33  C   UNL A   1      39.655  29.016  29.279  1.00  0.00     0.031 A 
ATOM     34  C   UNL A   1      40.539  30.027  29.958  1.00  0.00     0.074 A 
ATOM     35  C   UNL A   1      40.142  27.804  28.948  1.00  0.00     0.049 A 
ATOM     36  N   UNL A   1      41.810  29.944  30.256  1.00  0.00    -0.248 NA
ATOM     37  C   UNL A   1      39.918  31.311  30.322  1.00  0.00     0.031 C 
ATOM     38  C   UNL A   1      39.394  26.747  28.262  1.00  0.00     0.029 A 
ATOM     39  N   UNL A   1      41.390  27.262  29.127  1.00  0.00    -0.354 N 
ATOM     40  C   UNL A   1      42.148  31.171  30.813  1.00  0.00     0.074 A 
ATOM     41  C   UNL A   1      40.959  31.994  30.778  1.00  0.00     0.031 C 
ATOM     42  C   UNL A   1      40.193  25.682  28.092  1.00  0.00     0.029 A 
ATOM     43  C   UNL A   1      41.520  25.993  28.613  1.00  0.00     0.049 A 
ATOM     44  H   UNL A   1      42.124  27.738  29.582  1.00  0.00     0.167 HD
ATOM     45  C   UNL A   1      43.338  31.573  31.321  1.00  0.00     0.031 A 
ATOM     46  C   UNL A   1      42.591  25.178  28.551  1.00  0.00     0.031 A 
ATOM     47  C   UNL A   1      44.512  30.742  31.373  1.00  0.00     0.049 A 
ATOM     48  C   UNL A   1      43.902  25.646  29.118  1.00  0.00     0.074 A 
ATOM     49  C   UNL A   1      45.749  31.037  31.918  1.00  0.00     0.029 A 
ATOM     50  N   UNL A   1      44.592  29.455  30.866  1.00  0.00    -0.354 N 
ATOM     51  N   UNL A   1      44.191  26.794  29.684  1.00  0.00    -0.248 NA
ATOM     52  C   UNL A   1      45.031  24.708  29.045  1.00  0.00     0.031 C 
ATOM     53  C   UNL A   1      46.591  29.940  31.703  1.00  0.00     0.029 A 
ATOM     54  C   UNL A   1      45.862  28.945  31.070  1.00  0.00     0.049 A 
ATOM     55  H   UNL A   1      43.854  28.974  30.426  1.00  0.00     0.167 HD
ATOM     56  C   UNL A   1      45.527  26.706  30.059  1.00  0.00     0.074 A 
ATOM     57  C   UNL A   1      45.987  25.390  29.663  1.00  0.00     0.031 C 
ATOM     58  C   UNL A   1      46.300  27.629  30.678  1.00  0.00     0.031 A 
BRANCH  45  59
ATOM     59  C   UNL A   1      43.427  32.977  31.855  1.00  0.00    -0.014 A 
ATOM     60  C   UNL A   1      43.659  34.067  30.997  1.00  0.00     0.010 A 
ATOM     61  C   UNL A   1      43.250  33.216  33.230  1.00  0.00     0.010 A 
ATOM     62  C   UNL A   1      43.758  35.363  31.509  1.00  0.00     0.020 A 
ATOM     63  C   UNL A   1      43.322  34.515  33.743  1.00  0.00     0.020 A 
ATOM     64  C   UNL A   1      43.596  35.578  32.880  1.00  0.00     0.054 A 
BRANCH  64  65
ATOM     65  S   UNL A   1      43.720  37.272  33.517  1.00  0.00     0.124 S 
ATOM     66  O   UNL A   1      42.413  37.453  34.143  1.00  0.00    -0.237 OA
ATOM     67  O   UNL A   1      44.851  37.188  34.439  1.00  0.00    -0.237 OA
ATOM     68  O   UNL A   1      43.955  38.076  32.320  1.00  0.00    -0.744 OA
ENDBRANCH  64  65
ENDBRANCH  45  59
BRANCH  46  69
ATOM     69  C   UNL A   1      42.461  23.829  27.937  1.00  0.00    -0.014 A 
ATOM     70  C   UNL A   1      42.810  23.628  26.590  1.00  0.00     0.010 A 
ATOM     71  C   UNL A   1      42.008  22.737  28.698  1.00  0.00     0.010 A 
ATOM     72  C   UNL A   1      42.694  22.361  26.011  1.00  0.00     0.020 A 
ATOM     73  C   UNL A   1      41.913  21.463  28.129  1.00  0.00     0.020 A 
ATOM     74  C   UNL A   1      42.246  21.286  26.784  1.00  0.00     0.054 A 
BRANCH  74  75
ATOM     75  S   UNL A   1      42.155  19.639  26.027  1.00  0.00     0.124 S 
ATOM     76  O   UNL A   1      43.050  19.783  24.884  1.00  0.00    -0.237 OA
ATOM     77  O   UNL A   1      42.632  18.771  27.101  1.00  0.00    -0.237 OA
ATOM     78  O   UNL A   1      40.738  19.493  25.700  1.00  0.00    -0.744 OA
ENDBRANCH  74  75
ENDBRANCH  46  69
BRANCH  58  79
ATOM     79  C   UNL A   1      47.717  27.245  31.008  1.00  0.00    -0.014 A 
ATOM     80  C   UNL A   1      48.017  26.497  32.160  1.00  0.00     0.010 A 
ATOM     81  C   UNL A   1      48.747  27.569  30.108  1.00  0.00     0.010 A 
ATOM     82  C   UNL A   1      49.329  26.089  32.411  1.00  0.00     0.020 A 
ATOM     83  C   UNL A   1      50.057  27.144  30.344  1.00  0.00     0.020 A 
ATOM     84  C   UNL A   1      50.341  26.413  31.500  1.00  0.00     0.054 A 
BRANCH  84  85
ATOM     85  S   UNL A   1      52.023  25.810  31.811  1.00  0.00     0.124 S 
ATOM     86  O   UNL A   1      52.710  26.176  30.575  1.00  0.00    -0.237 OA
ATOM     87  O   UNL A   1      52.420  26.564  32.998  1.00  0.00    -0.237 OA
ATOM     88  O   UNL A   1      51.844  24.376  32.023  1.00  0.00    -0.744 OA
ENDBRANCH  84  85
ENDBRANCH  58  79
ENDBRANCH  32  33
ENDBRANCH  24  27
ENDBRANCH  22  23
ENDBRANCH   1  22
TORSDOF 17
ENDMDL
MODEL 3
REMARK VINA RESULT:     -10.3      3.943     10.201
REMARK SMILES CCOc1oc(C[C@H]2CCCCO2)nc1C(=O)NCCCNC(=O)c1ccc(-c2c3nc(c(-c4ccc(S(=O)(=O)[O-])cc4)c4ccc([nH]4)c(-c4ccc(S(=O)(=O)[O-])cc4)c4nc(c(-c5ccc(S(=O)(=O)[O-])cc5)c5ccc2[nH]5)C=C4)C=C3)cc1
REMARK SMILES IDX 20 1 19 2 18 3 16 4 17 5 15 7 4 8 5 9 6 10 14 11 3 12 2 13
REMARK SMILES IDX 1 14 7 15 8 16 9 17 13 18 10 19 12 20 11 21 21 22 22 23
REMARK SMILES IDX 23 24 24 26 25 27 26 28 84 29 27 30 83 31 28 32 29 33 30 34
REMARK SMILES IDX 77 35 31 36 82 37 76 38 78 39 32 40 81 41 75 42 74 43 33 45
REMARK SMILES IDX 63 46 44 47 62 48 45 49 48 50 61 51 79 52 46 53 47 54 60 56
REMARK SMILES IDX 80 57 49 58 34 59 35 60 43 61 36 62 42 63 37 64 38 65 39 66
REMARK SMILES IDX 40 67 41 68 64 69 65 70 73 71 66 72 72 73 67 74 68 75 69 76
REMARK SMILES IDX 70 77 71 78 50 79 51 80 59 81 52 82 58 83 53 84 54 85 55 86
REMARK SMILES IDX 56 87 57 88
REMARK H PARENT 18 6 22 25 78 44 48 55
REMARK Flexibility Score: inf
ROOT
ATOM      1  C   UNL A   1      35.492  23.100  24.752  1.00  0.00     0.042 C 
ENDROOT
BRANCH   1   2
ATOM      2  C   UNL A   1      35.155  23.290  23.276  1.00  0.00     0.118 C 
BRANCH   2   3
ATOM      3  N   UNL A   1      33.862  23.922  23.079  1.00  0.00    -0.350 N 
ATOM      4  C   UNL A   1      32.586  23.422  23.174  1.00  0.00     0.277 C 
ATOM      5  O   UNL A   1      31.669  24.197  22.900  1.00  0.00    -0.267 OA
ATOM      6  H   UNL A   1      33.908  24.874  22.837  1.00  0.00     0.163 HD
BRANCH   4   7
ATOM      7  C   UNL A   1      32.348  22.044  23.580  1.00  0.00     0.212 A 
ATOM      8  C   UNL A   1      32.092  21.621  24.870  1.00  0.00     0.318 A 
ATOM      9  O   UNL A   1      32.012  20.261  24.877  1.00  0.00    -0.409 OA
ATOM     10  C   UNL A   1      32.257  19.908  23.580  1.00  0.00     0.202 A 
ATOM     11  N   UNL A   1      32.414  20.926  22.762  1.00  0.00    -0.204 NA
BRANCH   8  12
ATOM     12  O   UNL A   1      32.025  22.187  26.069  1.00  0.00    -0.464 OA
BRANCH  12  13
ATOM     13  C   UNL A   1      30.799  22.867  26.332  1.00  0.00     0.230 C 
ATOM     14  C   UNL A   1      31.015  24.371  26.354  1.00  0.00     0.049 C 
ENDBRANCH  12  13
ENDBRANCH   8  12
BRANCH  10  15
ATOM     15  C   UNL A   1      32.397  18.458  23.285  1.00  0.00     0.129 C 
BRANCH  15  16
ATOM     16  C   UNL A   1      33.196  17.724  24.374  1.00  0.00     0.127 C 
ATOM     17  C   UNL A   1      32.843  16.232  24.449  1.00  0.00     0.033 C 
ATOM     18  O   UNL A   1      34.596  17.862  24.069  1.00  0.00    -0.378 OA
ATOM     19  C   UNL A   1      33.727  15.509  25.462  1.00  0.00     0.005 C 
ATOM     20  C   UNL A   1      35.433  17.297  25.079  1.00  0.00     0.160 C 
ATOM     21  C   UNL A   1      35.197  15.799  25.193  1.00  0.00     0.029 C 
ENDBRANCH  15  16
ENDBRANCH  10  15
ENDBRANCH   4   7
ENDBRANCH   2   3
ENDBRANCH   1   2
BRANCH   1  22
ATOM     22  C   UNL A   1      36.798  23.768  25.184  1.00  0.00     0.118 C 
BRANCH  22  23
ATOM     23  N   UNL A   1      37.841  22.805  25.522  1.00  0.00    -0.352 N 
ATOM     24  C   UNL A   1      39.060  22.976  26.127  1.00  0.00     0.251 C 
ATOM     25  H   UNL A   1      37.634  21.874  25.274  1.00  0.00     0.163 HD
ATOM     26  O   UNL A   1      39.875  22.059  26.110  1.00  0.00    -0.269 OA
BRANCH  24  27
ATOM     27  C   UNL A   1      39.396  24.253  26.789  1.00  0.00     0.039 A 
ATOM     28  C   UNL A   1      38.952  24.478  28.096  1.00  0.00     0.014 A 
ATOM     29  C   UNL A   1      40.112  25.242  26.112  1.00  0.00     0.014 A 
ATOM     30  C   UNL A   1      39.291  25.667  28.748  1.00  0.00     0.010 A 
ATOM     31  C   UNL A   1      40.508  26.393  26.786  1.00  0.00     0.010 A 
ATOM     32  C   UNL A   1      40.103  26.617  28.110  1.00  0.00    -0.014 A 
BRANCH  32  33
ATOM     33  C   UNL A   1      40.554  27.852  28.800  1.00  0.00     0.031 A 
ATOM     34  C   UNL A   1      41.906  27.892  29.459  1.00  0.00     0.074 A 
ATOM     35  C   UNL A   1      39.709  28.896  28.919  1.00  0.00     0.049 A 
ATOM     36  N   UNL A   1      42.420  28.816  30.230  1.00  0.00    -0.248 NA
ATOM     37  C   UNL A   1      42.782  26.729  29.247  1.00  0.00     0.031 C 
ATOM     38  C   UNL A   1      38.361  28.965  28.350  1.00  0.00     0.029 A 
ATOM     39  N   UNL A   1      39.854  30.093  29.574  1.00  0.00    -0.354 N 
ATOM     40  C   UNL A   1      43.664  28.333  30.619  1.00  0.00     0.074 A 
ATOM     41  C   UNL A   1      43.811  27.020  30.029  1.00  0.00     0.031 C 
ATOM     42  C   UNL A   1      37.810  30.147  28.669  1.00  0.00     0.029 A 
ATOM     43  C   UNL A   1      38.743  30.899  29.501  1.00  0.00     0.049 A 
ATOM     44  H   UNL A   1      40.678  30.349  30.050  1.00  0.00     0.167 HD
ATOM     45  C   UNL A   1      44.605  28.934  31.386  1.00  0.00     0.031 A 
ATOM     46  C   UNL A   1      38.495  32.102  30.057  1.00  0.00     0.031 A 
ATOM     47  C   UNL A   1      44.461  30.249  31.952  1.00  0.00     0.049 A 
ATOM     48  C   UNL A   1      39.552  32.748  30.907  1.00  0.00     0.074 A 
ATOM     49  C   UNL A   1      45.378  30.969  32.697  1.00  0.00     0.029 A 
ATOM     50  N   UNL A   1      43.331  31.042  31.831  1.00  0.00    -0.354 N 
ATOM     51  N   UNL A   1      40.742  32.296  31.226  1.00  0.00    -0.248 NA
ATOM     52  C   UNL A   1      39.238  34.069  31.470  1.00  0.00     0.031 C 
ATOM     53  C   UNL A   1      44.786  32.182  33.062  1.00  0.00     0.029 A 
ATOM     54  C   UNL A   1      43.520  32.238  32.501  1.00  0.00     0.049 A 
ATOM     55  H   UNL A   1      42.514  30.792  31.341  1.00  0.00     0.167 HD
ATOM     56  C   UNL A   1      41.329  33.289  32.002  1.00  0.00     0.074 A 
ATOM     57  C   UNL A   1      40.368  34.368  32.099  1.00  0.00     0.031 C 
ATOM     58  C   UNL A   1      42.555  33.305  32.579  1.00  0.00     0.031 A 
BRANCH  45  59
ATOM     59  C   UNL A   1      45.870  28.167  31.662  1.00  0.00    -0.014 A 
ATOM     60  C   UNL A   1      45.957  27.276  32.746  1.00  0.00     0.010 A 
ATOM     61  C   UNL A   1      46.980  28.318  30.810  1.00  0.00     0.010 A 
ATOM     62  C   UNL A   1      47.145  26.585  33.002  1.00  0.00     0.020 A 
ATOM     63  C   UNL A   1      48.161  27.608  31.046  1.00  0.00     0.020 A 
ATOM     64  C   UNL A   1      48.241  26.761  32.153  1.00  0.00     0.054 A 
BRANCH  64  65
ATOM     65  S   UNL A   1      49.767  25.844  32.501  1.00  0.00     0.124 S 
ATOM     66  O   UNL A   1      49.977  25.124  31.248  1.00  0.00    -0.237 OA
ATOM     67  O   UNL A   1      50.727  26.910  32.781  1.00  0.00    -0.237 OA
ATOM     68  O   UNL A   1      49.416  25.010  33.649  1.00  0.00    -0.744 OA
ENDBRANCH  64  65
ENDBRANCH  45  59
BRANCH  46  69
ATOM     69  C   UNL A   1      37.191  32.775  29.814  1.00  0.00    -0.014 A 
ATOM     70  C   UNL A   1      36.213  32.811  30.823  1.00  0.00     0.010 A 
ATOM     71  C   UNL A   1      36.928  33.401  28.582  1.00  0.00     0.010 A 
ATOM     72  C   UNL A   1      34.989  33.447  30.600  1.00  0.00     0.020 A 
ATOM     73  C   UNL A   1      35.713  34.059  28.364  1.00  0.00     0.020 A 
ATOM     74  C   UNL A   1      34.747  34.068  29.372  1.00  0.00     0.054 A 
BRANCH  74  75
ATOM     75  S   UNL A   1      33.172  34.935  29.123  1.00  0.00     0.124 S 
ATOM     76  O   UNL A   1      33.619  36.257  28.698  1.00  0.00    -0.237 OA
ATOM     77  O   UNL A   1      32.524  34.124  28.095  1.00  0.00    -0.237 OA
ATOM     78  O   UNL A   1      32.540  34.879  30.440  1.00  0.00    -0.744 OA
ENDBRANCH  74  75
ENDBRANCH  46  69
BRANCH  58  79
ATOM     79  C   UNL A   1      42.952  34.544  33.335  1.00  0.00    -0.014 A 
ATOM     80  C   UNL A   1      42.751  34.644  34.723  1.00  0.00     0.010 A 
ATOM     81  C   UNL A   1      43.610  35.586  32.657  1.00  0.00     0.010 A 
ATOM     82  C   UNL A   1      43.191  35.773  35.418  1.00  0.00     0.020 A 
ATOM     83  C   UNL A   1      44.073  36.705  33.352  1.00  0.00     0.020 A 
ATOM     84  C   UNL A   1      43.853  36.795  34.729  1.00  0.00     0.054 A 
BRANCH  84  85
ATOM     85  S   UNL A   1      44.480  38.217  35.665  1.00  0.00     0.124 S 
ATOM     86  O   UNL A   1      44.024  39.341  34.851  1.00  0.00    -0.237 OA
ATOM     87  O   UNL A   1      43.818  38.067  36.958  1.00  0.00    -0.237 OA
ATOM     88  O   UNL A   1      45.926  38.008  35.685  1.00  0.00    -0.744 OA
ENDBRANCH  84  85
ENDBRANCH  58  79
ENDBRANCH  32  33
ENDBRANCH  24  27
ENDBRANCH  22  23
ENDBRANCH   1  22
TORSDOF 17
ENDMDL
