MODEL 1
REMARK VINA RESULT:     -11.5      0.000      0.000
REMARK SMILES CC(C)CN(C)c1cc2c(cc1Cl)C=C(C(=O)NCCCNC(=O)c1ccc(-c3c4nc(c(-c5ccc(S(=O)(=O)[O-])cc5)c5ccc([nH]5)c(-c5ccc(S(=O)(=O)[O-])cc5)c5nc(c(-c6ccc(S(=O)(=O)[O-])cc6)c6ccc3[nH]6)C=C5)C=C4)cc1)[C@@H](C(F)(F)F)O2
REMARK SMILES IDX 20 1 19 2 18 3 16 4 17 5 15 7 7 8 8 9 12 10 9 11 11 12 13 13
REMARK SMILES IDX 10 14 90 15 14 16 85 17 5 18 6 19 4 20 2 21 1 22 3 23 86 24
REMARK SMILES IDX 87 25 88 26 89 27 21 28 22 29 23 30 24 32 25 33 26 34 84 35
REMARK SMILES IDX 27 36 83 37 28 38 29 39 30 40 77 41 31 42 82 43 76 44 78 45
REMARK SMILES IDX 32 46 81 47 75 48 74 49 33 51 63 52 44 53 62 54 45 55 48 56
REMARK SMILES IDX 61 57 79 58 46 59 47 60 60 62 80 63 49 64 34 65 35 66 43 67
REMARK SMILES IDX 36 68 42 69 37 70 38 71 39 72 40 73 41 74 64 75 65 76 73 77
REMARK SMILES IDX 66 78 72 79 67 80 68 81 69 82 70 83 71 84 50 85 51 86 59 87
REMARK SMILES IDX 52 88 58 89 53 90 54 91 55 92 56 93 57 94
REMARK H PARENT 18 6 22 31 78 50 48 61
REMARK Flexibility Score: inf
ROOT
ATOM      1  C   UNL A   1      32.183  28.317  26.210  1.00  0.00     0.042 C 
ENDROOT
BRANCH   1   2
ATOM      2  C   UNL A   1      31.856  29.035  24.910  1.00  0.00     0.118 C 
BRANCH   2   3
ATOM      3  N   UNL A   1      30.608  28.553  24.340  1.00  0.00    -0.352 N 
ATOM      4  C   UNL A   1      30.131  27.393  23.843  1.00  0.00     0.251 C 
ATOM      5  O   UNL A   1      28.968  27.438  23.428  1.00  0.00    -0.270 OA
ATOM      6  H   UNL A   1      29.930  29.266  24.307  1.00  0.00     0.163 HD
BRANCH   4   7
ATOM      7  C   UNL A   1      30.884  26.115  23.786  1.00  0.00     0.067 C 
ATOM      8  C   UNL A   1      32.886  21.608  24.785  1.00  0.00     0.059 A 
ATOM      9  C   UNL A   1      32.555  22.290  23.601  1.00  0.00     0.074 A 
ATOM     10  C   UNL A   1      32.568  22.237  26.013  1.00  0.00     0.065 A 
ATOM     11  C   UNL A   1      31.925  23.530  23.653  1.00  0.00     0.130 A 
ATOM     12  C   UNL A   1      31.829  23.424  26.053  1.00  0.00     0.034 A 
ATOM     13  Cl  UNL A   1      33.119  21.623  27.536  1.00  0.00    -0.082 Cl
ATOM     14  C   UNL A   1      31.500  24.068  24.868  1.00  0.00     0.019 A 
ATOM     15  O   UNL A   1      31.762  24.218  22.477  1.00  0.00    -0.475 OA
ATOM     16  C   UNL A   1      30.751  25.316  24.862  1.00  0.00     0.025 C 
ATOM     17  C   UNL A   1      31.773  25.671  22.657  1.00  0.00     0.314 C 
BRANCH   8  18
ATOM     18  N   UNL A   1      33.504  20.347  24.730  1.00  0.00    -0.373 N 
ATOM     19  C   UNL A   1      34.956  20.361  24.903  1.00  0.00     0.143 C 
BRANCH  18  20
ATOM     20  C   UNL A   1      32.982  19.411  23.710  1.00  0.00     0.119 C 
BRANCH  20  21
ATOM     21  C   UNL A   1      32.592  18.039  24.299  1.00  0.00     0.002 C 
ATOM     22  C   UNL A   1      33.460  16.905  23.745  1.00  0.00     0.009 C 
ATOM     23  C   UNL A   1      32.694  18.041  25.826  1.00  0.00     0.009 C 
ENDBRANCH  20  21
ENDBRANCH  18  20
ENDBRANCH   8  18
BRANCH  17  24
ATOM     24  C   UNL A   1      33.222  26.193  22.815  1.00  0.00     0.429 C 
ATOM     25  F   UNL A   1      34.098  25.378  22.180  1.00  0.00    -0.167 F 
ATOM     26  F   UNL A   1      33.384  27.428  22.277  1.00  0.00    -0.167 F 
ATOM     27  F   UNL A   1      33.623  26.289  24.104  1.00  0.00    -0.167 F 
ENDBRANCH  17  24
ENDBRANCH   4   7
ENDBRANCH   2   3
ENDBRANCH   1   2
BRANCH   1  28
ATOM     28  C   UNL A   1      33.512  28.773  26.796  1.00  0.00     0.118 C 
BRANCH  28  29
ATOM     29  N   UNL A   1      33.488  30.186  27.166  1.00  0.00    -0.352 N 
ATOM     30  C   UNL A   1      34.377  30.915  27.925  1.00  0.00     0.251 C 
ATOM     31  H   UNL A   1      32.719  30.694  26.821  1.00  0.00     0.163 HD
ATOM     32  O   UNL A   1      34.063  32.020  28.341  1.00  0.00    -0.269 OA
BRANCH  30  33
ATOM     33  C   UNL A   1      35.700  30.339  28.246  1.00  0.00     0.039 A 
ATOM     34  C   UNL A   1      35.890  29.652  29.445  1.00  0.00     0.014 A 
ATOM     35  C   UNL A   1      36.760  30.494  27.349  1.00  0.00     0.014 A 
ATOM     36  C   UNL A   1      37.172  29.300  29.837  1.00  0.00     0.010 A 
ATOM     37  C   UNL A   1      38.032  30.033  27.698  1.00  0.00     0.010 A 
ATOM     38  C   UNL A   1      38.257  29.473  28.965  1.00  0.00    -0.014 A 
BRANCH  38  39
ATOM     39  C   UNL A   1      39.608  29.037  29.398  1.00  0.00     0.031 A 
ATOM     40  C   UNL A   1      40.396  29.839  30.394  1.00  0.00     0.074 A 
ATOM     41  C   UNL A   1      40.088  27.862  28.940  1.00  0.00     0.049 A 
ATOM     42  N   UNL A   1      41.582  29.594  30.889  1.00  0.00    -0.248 NA
ATOM     43  C   UNL A   1      39.779  31.075  30.905  1.00  0.00     0.031 C 
ATOM     44  C   UNL A   1      39.384  26.978  28.007  1.00  0.00     0.029 A 
ATOM     45  N   UNL A   1      41.246  27.188  29.227  1.00  0.00    -0.354 N 
ATOM     46  C   UNL A   1      41.858  30.645  31.756  1.00  0.00     0.074 A 
ATOM     47  C   UNL A   1      40.731  31.549  31.697  1.00  0.00     0.031 C 
ATOM     48  C   UNL A   1      40.080  25.842  27.869  1.00  0.00     0.029 A 
ATOM     49  C   UNL A   1      41.325  25.955  28.621  1.00  0.00     0.049 A 
ATOM     50  H   UNL A   1      41.952  27.549  29.809  1.00  0.00     0.167 HD
ATOM     51  C   UNL A   1      42.949  30.828  32.537  1.00  0.00     0.031 A 
ATOM     52  C   UNL A   1      42.295  25.020  28.648  1.00  0.00     0.031 A 
ATOM     53  C   UNL A   1      44.064  29.917  32.584  1.00  0.00     0.049 A 
ATOM     54  C   UNL A   1      43.535  25.288  29.443  1.00  0.00     0.074 A 
ATOM     55  C   UNL A   1      45.223  30.021  33.333  1.00  0.00     0.029 A 
ATOM     56  N   UNL A   1      44.159  28.739  31.859  1.00  0.00    -0.354 N 
ATOM     57  N   UNL A   1      43.797  26.308  30.226  1.00  0.00    -0.248 NA
ATOM     58  C   UNL A   1      44.619  24.304  29.344  1.00  0.00     0.031 C 
ATOM     59  C   UNL A   1      46.044  28.936  33.014  1.00  0.00     0.029 A 
ATOM     60  C   UNL A   1      45.371  28.121  32.116  1.00  0.00     0.049 A 
ATOM     61  H   UNL A   1      43.467  28.392  31.250  1.00  0.00     0.167 HD
ATOM     62  C   UNL A   1      45.082  26.095  30.706  1.00  0.00     0.074 A 
ATOM     63  C   UNL A   1      45.535  24.837  30.147  1.00  0.00     0.031 C 
ATOM     64  C   UNL A   1      45.818  26.880  31.531  1.00  0.00     0.031 A 
BRANCH  51  65
ATOM     65  C   UNL A   1      43.006  32.067  33.393  1.00  0.00    -0.014 A 
ATOM     66  C   UNL A   1      43.582  33.245  32.882  1.00  0.00     0.010 A 
ATOM     67  C   UNL A   1      42.557  32.051  34.725  1.00  0.00     0.010 A 
ATOM     68  C   UNL A   1      43.715  34.381  33.687  1.00  0.00     0.020 A 
ATOM     69  C   UNL A   1      42.664  33.192  35.527  1.00  0.00     0.020 A 
ATOM     70  C   UNL A   1      43.257  34.346  35.007  1.00  0.00     0.054 A 
BRANCH  70  71
ATOM     71  S   UNL A   1      43.409  35.835  36.033  1.00  0.00     0.124 S 
ATOM     72  O   UNL A   1      44.533  36.526  35.410  1.00  0.00    -0.237 OA
ATOM     73  O   UNL A   1      42.104  36.473  35.871  1.00  0.00    -0.237 OA
ATOM     74  O   UNL A   1      43.665  35.300  37.369  1.00  0.00    -0.744 OA
ENDBRANCH  70  71
ENDBRANCH  51  65
BRANCH  52  75
ATOM     75  C   UNL A   1      42.086  23.758  27.888  1.00  0.00    -0.014 A 
ATOM     76  C   UNL A   1      41.576  22.616  28.537  1.00  0.00     0.010 A 
ATOM     77  C   UNL A   1      42.553  23.644  26.569  1.00  0.00     0.010 A 
ATOM     78  C   UNL A   1      41.624  21.367  27.914  1.00  0.00     0.020 A 
ATOM     79  C   UNL A   1      42.574  22.399  25.930  1.00  0.00     0.020 A 
ATOM     80  C   UNL A   1      42.149  21.263  26.624  1.00  0.00     0.054 A 
BRANCH  80  81
ATOM     81  S   UNL A   1      42.316  19.616  25.882  1.00  0.00     0.124 S 
ATOM     82  O   UNL A   1      40.973  19.388  25.357  1.00  0.00    -0.237 OA
ATOM     83  O   UNL A   1      43.358  19.820  24.880  1.00  0.00    -0.237 OA
ATOM     84  O   UNL A   1      42.698  18.770  27.012  1.00  0.00    -0.744 OA
ENDBRANCH  80  81
ENDBRANCH  52  75
BRANCH  64  85
ATOM     85  C   UNL A   1      47.215  26.434  31.867  1.00  0.00    -0.014 A 
ATOM     86  C   UNL A   1      48.291  26.832  31.053  1.00  0.00     0.010 A 
ATOM     87  C   UNL A   1      47.434  25.500  32.893  1.00  0.00     0.010 A 
ATOM     88  C   UNL A   1      49.556  26.264  31.228  1.00  0.00     0.020 A 
ATOM     89  C   UNL A   1      48.703  24.948  33.086  1.00  0.00     0.020 A 
ATOM     90  C   UNL A   1      49.748  25.312  32.233  1.00  0.00     0.054 A 
BRANCH  90  91
ATOM     91  S   UNL A   1      51.379  24.536  32.398  1.00  0.00     0.124 S 
ATOM     92  O   UNL A   1      51.081  23.134  32.120  1.00  0.00    -0.237 OA
ATOM     93  O   UNL A   1      52.167  25.227  31.381  1.00  0.00    -0.237 OA
ATOM     94  O   UNL A   1      51.760  24.832  33.778  1.00  0.00    -0.744 OA
ENDBRANCH  90  91
ENDBRANCH  64  85
ENDBRANCH  38  39
ENDBRANCH  30  33
ENDBRANCH  28  29
ENDBRANCH   1  28
TORSDOF 17
ENDMDL
MODEL 2
REMARK VINA RESULT:     -11.4      3.613      9.115
REMARK SMILES CC(C)CN(C)c1cc2c(cc1Cl)C=C(C(=O)NCCCNC(=O)c1ccc(-c3c4nc(c(-c5ccc(S(=O)(=O)[O-])cc5)c5ccc([nH]5)c(-c5ccc(S(=O)(=O)[O-])cc5)c5nc(c(-c6ccc(S(=O)(=O)[O-])cc6)c6ccc3[nH]6)C=C5)C=C4)cc1)[C@@H](C(F)(F)F)O2
REMARK SMILES IDX 20 1 19 2 18 3 16 4 17 5 15 7 7 8 8 9 12 10 9 11 11 12 13 13
REMARK SMILES IDX 10 14 90 15 14 16 85 17 5 18 6 19 4 20 2 21 1 22 3 23 86 24
REMARK SMILES IDX 87 25 88 26 89 27 21 28 22 29 23 30 24 32 25 33 26 34 84 35
REMARK SMILES IDX 27 36 83 37 28 38 29 39 30 40 77 41 31 42 82 43 76 44 78 45
REMARK SMILES IDX 32 46 81 47 75 48 74 49 33 51 63 52 44 53 62 54 45 55 48 56
REMARK SMILES IDX 61 57 79 58 46 59 47 60 60 62 80 63 49 64 34 65 35 66 43 67
REMARK SMILES IDX 36 68 42 69 37 70 38 71 39 72 40 73 41 74 64 75 65 76 73 77
REMARK SMILES IDX 66 78 72 79 67 80 68 81 69 82 70 83 71 84 50 85 51 86 59 87
REMARK SMILES IDX 52 88 58 89 53 90 54 91 55 92 56 93 57 94
REMARK H PARENT 18 6 22 31 78 50 48 61
REMARK Flexibility Score: inf
ROOT
ATOM      1  C   UNL A   1      31.418  31.976  26.470  1.00  0.00     0.042 C 
ENDROOT
BRANCH   1   2
ATOM      2  C   UNL A   1      31.588  30.613  25.821  1.00  0.00     0.118 C 
BRANCH   2   3
ATOM      3  N   UNL A   1      30.673  30.441  24.704  1.00  0.00    -0.352 N 
ATOM      4  C   UNL A   1      30.419  29.501  23.769  1.00  0.00     0.251 C 
ATOM      5  O   UNL A   1      29.527  29.789  22.964  1.00  0.00    -0.270 OA
ATOM      6  H   UNL A   1      30.079  31.219  24.603  1.00  0.00     0.163 HD
BRANCH   4   7
ATOM      7  C   UNL A   1      31.107  28.190  23.669  1.00  0.00     0.067 C 
ATOM      8  C   UNL A   1      32.755  23.497  24.433  1.00  0.00     0.059 A 
ATOM      9  C   UNL A   1      32.590  24.302  23.292  1.00  0.00     0.074 A 
ATOM     10  C   UNL A   1      32.338  24.032  25.676  1.00  0.00     0.065 A 
ATOM     11  C   UNL A   1      32.022  25.568  23.397  1.00  0.00     0.130 A 
ATOM     12  C   UNL A   1      31.661  25.253  25.753  1.00  0.00     0.034 A 
ATOM     13  Cl  UNL A   1      32.689  23.251  27.182  1.00  0.00    -0.082 Cl
ATOM     14  C   UNL A   1      31.496  26.020  24.608  1.00  0.00     0.019 A 
ATOM     15  O   UNL A   1      32.023  26.368  22.281  1.00  0.00    -0.475 OA
ATOM     16  C   UNL A   1      30.817  27.307  24.643  1.00  0.00     0.025 C 
ATOM     17  C   UNL A   1      32.089  27.795  22.600  1.00  0.00     0.314 C 
BRANCH   8  18
ATOM     18  N   UNL A   1      33.309  22.211  24.322  1.00  0.00    -0.373 N 
ATOM     19  C   UNL A   1      32.401  21.114  24.657  1.00  0.00     0.143 C 
BRANCH  18  20
ATOM     20  C   UNL A   1      34.705  22.061  24.789  1.00  0.00     0.119 C 
BRANCH  20  21
ATOM     21  C   UNL A   1      35.615  23.224  24.338  1.00  0.00     0.002 C 
ATOM     22  C   UNL A   1      36.433  23.800  25.499  1.00  0.00     0.009 C 
ATOM     23  C   UNL A   1      36.571  22.782  23.228  1.00  0.00     0.009 C 
ENDBRANCH  20  21
ENDBRANCH  18  20
ENDBRANCH   8  18
BRANCH  17  24
ATOM     24  C   UNL A   1      33.537  28.212  22.957  1.00  0.00     0.429 C 
ATOM     25  F   UNL A   1      34.277  28.385  21.834  1.00  0.00    -0.167 F 
ATOM     26  F   UNL A   1      33.582  29.387  23.632  1.00  0.00    -0.167 F 
ATOM     27  F   UNL A   1      34.183  27.309  23.729  1.00  0.00    -0.167 F 
ENDBRANCH  17  24
ENDBRANCH   4   7
ENDBRANCH   2   3
ENDBRANCH   1   2
BRANCH   1  28
ATOM     28  C   UNL A   1      32.681  32.430  27.188  1.00  0.00     0.118 C 
BRANCH  28  29
ATOM     29  N   UNL A   1      32.588  33.818  27.631  1.00  0.00    -0.352 N 
ATOM     30  C   UNL A   1      33.242  34.463  28.658  1.00  0.00     0.251 C 
ATOM     31  H   UNL A   1      31.962  34.378  27.117  1.00  0.00     0.163 HD
ATOM     32  O   UNL A   1      32.850  35.555  29.041  1.00  0.00    -0.269 OA
BRANCH  30  33
ATOM     33  C   UNL A   1      34.403  33.813  29.300  1.00  0.00     0.039 A 
ATOM     34  C   UNL A   1      34.206  32.803  30.241  1.00  0.00     0.014 A 
ATOM     35  C   UNL A   1      35.697  34.223  28.969  1.00  0.00     0.014 A 
ATOM     36  C   UNL A   1      35.278  32.346  30.991  1.00  0.00     0.010 A 
ATOM     37  C   UNL A   1      36.789  33.675  29.648  1.00  0.00     0.010 A 
ATOM     38  C   UNL A   1      36.584  32.765  30.697  1.00  0.00    -0.014 A 
BRANCH  38  39
ATOM     39  C   UNL A   1      37.714  32.215  31.487  1.00  0.00     0.031 A 
ATOM     40  C   UNL A   1      38.641  31.189  30.898  1.00  0.00     0.074 A 
ATOM     41  C   UNL A   1      37.943  32.710  32.720  1.00  0.00     0.049 A 
ATOM     42  N   UNL A   1      39.682  30.617  31.445  1.00  0.00    -0.248 NA
ATOM     43  C   UNL A   1      38.370  30.747  29.520  1.00  0.00     0.031 C 
ATOM     44  C   UNL A   1      37.134  33.745  33.370  1.00  0.00     0.029 A 
ATOM     45  N   UNL A   1      38.940  32.451  33.625  1.00  0.00    -0.354 N 
ATOM     46  C   UNL A   1      40.182  29.741  30.489  1.00  0.00     0.074 A 
ATOM     47  C   UNL A   1      39.313  29.833  29.336  1.00  0.00     0.031 C 
ATOM     48  C   UNL A   1      37.716  34.095  34.525  1.00  0.00     0.029 A 
ATOM     49  C   UNL A   1      38.880  33.244  34.747  1.00  0.00     0.049 A 
ATOM     50  H   UNL A   1      39.631  31.764  33.486  1.00  0.00     0.167 HD
ATOM     51  C   UNL A   1      41.275  28.945  30.564  1.00  0.00     0.031 A 
ATOM     52  C   UNL A   1      39.659  33.278  35.845  1.00  0.00     0.031 A 
ATOM     53  C   UNL A   1      42.130  28.866  31.720  1.00  0.00     0.049 A 
ATOM     54  C   UNL A   1      40.805  32.321  35.948  1.00  0.00     0.074 A 
ATOM     55  C   UNL A   1      43.255  28.079  31.900  1.00  0.00     0.029 A 
ATOM     56  N   UNL A   1      41.962  29.598  32.886  1.00  0.00    -0.354 N 
ATOM     57  N   UNL A   1      41.240  31.470  35.049  1.00  0.00    -0.248 NA
ATOM     58  C   UNL A   1      41.551  32.302  37.213  1.00  0.00     0.031 C 
ATOM     59  C   UNL A   1      43.729  28.291  33.198  1.00  0.00     0.029 A 
ATOM     60  C   UNL A   1      42.941  29.258  33.804  1.00  0.00     0.049 A 
ATOM     61  H   UNL A   1      41.250  30.261  33.039  1.00  0.00     0.167 HD
ATOM     62  C   UNL A   1      42.305  30.805  35.641  1.00  0.00     0.074 A 
ATOM     63  C   UNL A   1      42.466  31.370  36.967  1.00  0.00     0.031 C 
ATOM     64  C   UNL A   1      43.072  29.811  35.130  1.00  0.00     0.031 A 
BRANCH  51  65
ATOM     65  C   UNL A   1      41.602  28.078  29.375  1.00  0.00    -0.014 A 
ATOM     66  C   UNL A   1      40.994  26.817  29.239  1.00  0.00     0.010 A 
ATOM     67  C   UNL A   1      42.563  28.477  28.429  1.00  0.00     0.010 A 
ATOM     68  C   UNL A   1      41.344  25.966  28.186  1.00  0.00     0.020 A 
ATOM     69  C   UNL A   1      42.898  27.641  27.359  1.00  0.00     0.020 A 
ATOM     70  C   UNL A   1      42.298  26.383  27.253  1.00  0.00     0.054 A 
BRANCH  70  71
ATOM     71  S   UNL A   1      42.722  25.282  25.874  1.00  0.00     0.124 S 
ATOM     72  O   UNL A   1      41.764  24.195  26.041  1.00  0.00    -0.237 OA
ATOM     73  O   UNL A   1      42.517  26.136  24.706  1.00  0.00    -0.237 OA
ATOM     74  O   UNL A   1      44.117  24.934  26.138  1.00  0.00    -0.744 OA
ENDBRANCH  70  71
ENDBRANCH  51  65
BRANCH  52  75
ATOM     75  C   UNL A   1      39.347  34.273  36.908  1.00  0.00    -0.014 A 
ATOM     76  C   UNL A   1      39.888  35.572  36.844  1.00  0.00     0.010 A 
ATOM     77  C   UNL A   1      38.654  33.876  38.063  1.00  0.00     0.010 A 
ATOM     78  C   UNL A   1      39.824  36.421  37.951  1.00  0.00     0.020 A 
ATOM     79  C   UNL A   1      38.562  34.736  39.163  1.00  0.00     0.020 A 
ATOM     80  C   UNL A   1      39.185  35.986  39.113  1.00  0.00     0.054 A 
BRANCH  80  81
ATOM     81  S   UNL A   1      39.222  37.055  40.579  1.00  0.00     0.124 S 
ATOM     82  O   UNL A   1      38.559  36.217  41.574  1.00  0.00    -0.237 OA
ATOM     83  O   UNL A   1      40.652  37.267  40.785  1.00  0.00    -0.237 OA
ATOM     84  O   UNL A   1      38.473  38.238  40.158  1.00  0.00    -0.744 OA
ENDBRANCH  80  81
ENDBRANCH  52  75
BRANCH  64  85
ATOM     85  C   UNL A   1      44.146  29.228  36.007  1.00  0.00    -0.014 A 
ATOM     86  C   UNL A   1      43.891  28.056  36.742  1.00  0.00     0.010 A 
ATOM     87  C   UNL A   1      45.347  29.927  36.218  1.00  0.00     0.010 A 
ATOM     88  C   UNL A   1      44.796  27.619  37.712  1.00  0.00     0.020 A 
ATOM     89  C   UNL A   1      46.266  29.479  37.171  1.00  0.00     0.020 A 
ATOM     90  C   UNL A   1      45.970  28.345  37.931  1.00  0.00     0.054 A 
BRANCH  90  91
ATOM     91  S   UNL A   1      47.099  27.801  39.242  1.00  0.00     0.124 S 
ATOM     92  O   UNL A   1      48.349  27.611  38.512  1.00  0.00    -0.237 OA
ATOM     93  O   UNL A   1      47.078  28.929  40.171  1.00  0.00    -0.237 OA
ATOM     94  O   UNL A   1      46.477  26.578  39.745  1.00  0.00    -0.744 OA
ENDBRANCH  90  91
ENDBRANCH  64  85
ENDBRANCH  38  39
ENDBRANCH  30  33
ENDBRANCH  28  29
ENDBRANCH   1  28
TORSDOF 17
ENDMDL
MODEL 3
REMARK VINA RESULT:     -11.3      3.890      9.660
REMARK SMILES CC(C)CN(C)c1cc2c(cc1Cl)C=C(C(=O)NCCCNC(=O)c1ccc(-c3c4nc(c(-c5ccc(S(=O)(=O)[O-])cc5)c5ccc([nH]5)c(-c5ccc(S(=O)(=O)[O-])cc5)c5nc(c(-c6ccc(S(=O)(=O)[O-])cc6)c6ccc3[nH]6)C=C5)C=C4)cc1)[C@@H](C(F)(F)F)O2
REMARK SMILES IDX 20 1 19 2 18 3 16 4 17 5 15 7 7 8 8 9 12 10 9 11 11 12 13 13
REMARK SMILES IDX 10 14 90 15 14 16 85 17 5 18 6 19 4 20 2 21 1 22 3 23 86 24
REMARK SMILES IDX 87 25 88 26 89 27 21 28 22 29 23 30 24 32 25 33 26 34 84 35
REMARK SMILES IDX 27 36 83 37 28 38 29 39 30 40 77 41 31 42 82 43 76 44 78 45
REMARK SMILES IDX 32 46 81 47 75 48 74 49 33 51 63 52 44 53 62 54 45 55 48 56
REMARK SMILES IDX 61 57 79 58 46 59 47 60 60 62 80 63 49 64 34 65 35 66 43 67
REMARK SMILES IDX 36 68 42 69 37 70 38 71 39 72 40 73 41 74 64 75 65 76 73 77
REMARK SMILES IDX 66 78 72 79 67 80 68 81 69 82 70 83 71 84 50 85 51 86 59 87
REMARK SMILES IDX 52 88 58 89 53 90 54 91 55 92 56 93 57 94
REMARK H PARENT 18 6 22 31 78 50 48 61
REMARK Flexibility Score: inf
ROOT
ATOM      1  C   UNL A   1      38.072  20.239  24.935  1.00  0.00     0.042 C 
ENDROOT
BRANCH   1   2
ATOM      2  C   UNL A   1      36.737  20.843  25.341  1.00  0.00     0.118 C 
BRANCH   2   3
ATOM      3  N   UNL A   1      35.629  19.992  24.940  1.00  0.00    -0.352 N 
ATOM      4  C   UNL A   1      34.307  20.133  24.709  1.00  0.00     0.251 C 
ATOM      5  O   UNL A   1      33.714  19.096  24.394  1.00  0.00    -0.270 OA
ATOM      6  H   UNL A   1      35.921  19.062  24.801  1.00  0.00     0.163 HD
BRANCH   4   7
ATOM      7  C   UNL A   1      33.559  21.413  24.789  1.00  0.00     0.067 C 
ATOM      8  C   UNL A   1      31.646  25.984  23.914  1.00  0.00     0.059 A 
ATOM      9  C   UNL A   1      31.193  24.853  24.614  1.00  0.00     0.074 A 
ATOM     10  C   UNL A   1      32.881  25.879  23.229  1.00  0.00     0.065 A 
ATOM     11  C   UNL A   1      31.936  23.676  24.611  1.00  0.00     0.130 A 
ATOM     12  C   UNL A   1      33.559  24.659  23.133  1.00  0.00     0.034 A 
ATOM     13  Cl  UNL A   1      33.666  27.251  22.521  1.00  0.00    -0.082 Cl
ATOM     14  C   UNL A   1      33.080  23.552  23.821  1.00  0.00     0.019 A 
ATOM     15  O   UNL A   1      31.527  22.655  25.431  1.00  0.00    -0.475 OA
ATOM     16  C   UNL A   1      33.763  22.268  23.768  1.00  0.00     0.025 C 
ATOM     17  C   UNL A   1      32.633  21.819  25.902  1.00  0.00     0.314 C 
BRANCH   8  18
ATOM     18  N   UNL A   1      30.884  27.165  23.901  1.00  0.00    -0.373 N 
ATOM     19  C   UNL A   1      30.463  27.615  22.574  1.00  0.00     0.143 C 
BRANCH  18  20
ATOM     20  C   UNL A   1      31.312  28.226  24.839  1.00  0.00     0.119 C 
BRANCH  20  21
ATOM     21  C   UNL A   1      32.153  27.683  26.013  1.00  0.00     0.002 C 
ATOM     22  C   UNL A   1      33.573  28.259  26.022  1.00  0.00     0.009 C 
ATOM     23  C   UNL A   1      31.487  27.982  27.358  1.00  0.00     0.009 C 
ENDBRANCH  20  21
ENDBRANCH  18  20
ENDBRANCH   8  18
BRANCH  17  24
ATOM     24  C   UNL A   1      33.387  22.512  27.064  1.00  0.00     0.429 C 
ATOM     25  F   UNL A   1      32.558  23.335  27.752  1.00  0.00    -0.167 F 
ATOM     26  F   UNL A   1      33.876  21.620  27.962  1.00  0.00    -0.167 F 
ATOM     27  F   UNL A   1      34.443  23.253  26.656  1.00  0.00    -0.167 F 
ENDBRANCH  17  24
ENDBRANCH   4   7
ENDBRANCH   2   3
ENDBRANCH   1   2
BRANCH   1  28
ATOM     28  C   UNL A   1      39.174  20.565  25.933  1.00  0.00     0.118 C 
BRANCH  28  29
ATOM     29  N   UNL A   1      40.153  19.486  26.036  1.00  0.00    -0.352 N 
ATOM     30  C   UNL A   1      41.526  19.545  26.133  1.00  0.00     0.251 C 
ATOM     31  H   UNL A   1      39.773  18.577  26.034  1.00  0.00     0.163 HD
ATOM     32  O   UNL A   1      42.196  18.539  25.953  1.00  0.00    -0.269 OA
BRANCH  30  33
ATOM     33  C   UNL A   1      42.176  20.837  26.436  1.00  0.00     0.039 A 
ATOM     34  C   UNL A   1      42.457  21.185  27.757  1.00  0.00     0.014 A 
ATOM     35  C   UNL A   1      42.499  21.711  25.395  1.00  0.00     0.014 A 
ATOM     36  C   UNL A   1      42.869  22.474  28.054  1.00  0.00     0.010 A 
ATOM     37  C   UNL A   1      43.026  22.971  25.691  1.00  0.00     0.010 A 
ATOM     38  C   UNL A   1      43.172  23.380  27.026  1.00  0.00    -0.014 A 
BRANCH  38  39
ATOM     39  C   UNL A   1      43.661  24.736  27.379  1.00  0.00     0.031 A 
ATOM     40  C   UNL A   1      45.098  25.120  27.160  1.00  0.00     0.074 A 
ATOM     41  C   UNL A   1      42.775  25.647  27.830  1.00  0.00     0.049 A 
ATOM     42  N   UNL A   1      45.685  26.264  27.401  1.00  0.00    -0.248 NA
ATOM     43  C   UNL A   1      45.992  24.095  26.598  1.00  0.00     0.031 C 
ATOM     44  C   UNL A   1      41.346  25.395  28.033  1.00  0.00     0.029 A 
ATOM     45  N   UNL A   1      42.928  26.971  28.152  1.00  0.00    -0.354 N 
ATOM     46  C   UNL A   1      47.015  26.094  27.034  1.00  0.00     0.074 A 
ATOM     47  C   UNL A   1      47.158  24.727  26.583  1.00  0.00     0.031 C 
ATOM     48  C   UNL A   1      40.740  26.545  28.358  1.00  0.00     0.029 A 
ATOM     49  C   UNL A   1      41.747  27.593  28.483  1.00  0.00     0.049 A 
ATOM     50  H   UNL A   1      43.798  27.432  28.148  1.00  0.00     0.167 HD
ATOM     51  C   UNL A   1      48.019  27.001  27.060  1.00  0.00     0.031 A 
ATOM     52  C   UNL A   1      41.494  28.860  28.864  1.00  0.00     0.031 A 
ATOM     53  C   UNL A   1      47.860  28.360  27.512  1.00  0.00     0.049 A 
ATOM     54  C   UNL A   1      42.637  29.822  28.979  1.00  0.00     0.074 A 
ATOM     55  C   UNL A   1      48.819  29.354  27.590  1.00  0.00     0.029 A 
ATOM     56  N   UNL A   1      46.669  28.916  27.957  1.00  0.00    -0.354 N 
ATOM     57  N   UNL A   1      43.896  29.632  28.666  1.00  0.00    -0.248 NA
ATOM     58  C   UNL A   1      42.338  31.154  29.518  1.00  0.00     0.031 C 
ATOM     59  C   UNL A   1      48.221  30.492  28.139  1.00  0.00     0.029 A 
ATOM     60  C   UNL A   1      46.875  30.229  28.343  1.00  0.00     0.049 A 
ATOM     61  H   UNL A   1      45.805  28.446  27.994  1.00  0.00     0.167 HD
ATOM     62  C   UNL A   1      44.547  30.817  28.980  1.00  0.00     0.074 A 
ATOM     63  C   UNL A   1      43.537  31.728  29.484  1.00  0.00     0.031 C 
ATOM     64  C   UNL A   1      45.864  31.115  28.866  1.00  0.00     0.031 A 
BRANCH  51  65
ATOM     65  C   UNL A   1      49.386  26.558  26.607  1.00  0.00    -0.014 A 
ATOM     66  C   UNL A   1      49.813  26.835  25.295  1.00  0.00     0.010 A 
ATOM     67  C   UNL A   1      50.223  25.807  27.451  1.00  0.00     0.010 A 
ATOM     68  C   UNL A   1      51.045  26.363  24.832  1.00  0.00     0.020 A 
ATOM     69  C   UNL A   1      51.468  25.356  27.001  1.00  0.00     0.020 A 
ATOM     70  C   UNL A   1      51.865  25.623  25.688  1.00  0.00     0.054 A 
BRANCH  70  71
ATOM     71  S   UNL A   1      53.474  25.042  25.084  1.00  0.00     0.124 S 
ATOM     72  O   UNL A   1      54.404  25.719  25.981  1.00  0.00    -0.237 OA
ATOM     73  O   UNL A   1      53.376  23.593  25.248  1.00  0.00    -0.237 OA
ATOM     74  O   UNL A   1      53.498  25.498  23.695  1.00  0.00    -0.744 OA
ENDBRANCH  70  71
ENDBRANCH  51  65
BRANCH  52  75
ATOM     75  C   UNL A   1      40.087  29.250  29.150  1.00  0.00    -0.014 A 
ATOM     76  C   UNL A   1      39.247  29.689  28.108  1.00  0.00     0.010 A 
ATOM     77  C   UNL A   1      39.637  29.344  30.477  1.00  0.00     0.010 A 
ATOM     78  C   UNL A   1      38.026  30.303  28.393  1.00  0.00     0.020 A 
ATOM     79  C   UNL A   1      38.399  29.929  30.765  1.00  0.00     0.020 A 
ATOM     80  C   UNL A   1      37.623  30.443  29.722  1.00  0.00     0.054 A 
BRANCH  80  81
ATOM     81  S   UNL A   1      36.093  31.353  30.077  1.00  0.00     0.124 S 
ATOM     82  O   UNL A   1      35.777  30.888  31.425  1.00  0.00    -0.237 OA
ATOM     83  O   UNL A   1      36.518  32.746  29.975  1.00  0.00    -0.237 OA
ATOM     84  O   UNL A   1      35.178  30.903  29.030  1.00  0.00    -0.744 OA
ENDBRANCH  80  81
ENDBRANCH  52  75
BRANCH  64  85
ATOM     85  C   UNL A   1      46.321  32.474  29.323  1.00  0.00    -0.014 A 
ATOM     86  C   UNL A   1      46.386  33.537  28.403  1.00  0.00     0.010 A 
ATOM     87  C   UNL A   1      46.828  32.653  30.621  1.00  0.00     0.010 A 
ATOM     88  C   UNL A   1      46.999  34.741  28.758  1.00  0.00     0.020 A 
ATOM     89  C   UNL A   1      47.420  33.865  30.986  1.00  0.00     0.020 A 
ATOM     90  C   UNL A   1      47.528  34.890  30.043  1.00  0.00     0.054 A 
BRANCH  90  91
ATOM     91  S   UNL A   1      48.380  36.435  30.462  1.00  0.00     0.124 S 
ATOM     92  O   UNL A   1      49.754  36.146  30.060  1.00  0.00    -0.237 OA
ATOM     93  O   UNL A   1      47.677  37.420  29.643  1.00  0.00    -0.237 OA
ATOM     94  O   UNL A   1      48.165  36.565  31.902  1.00  0.00    -0.744 OA
ENDBRANCH  90  91
ENDBRANCH  64  85
ENDBRANCH  38  39
ENDBRANCH  30  33
ENDBRANCH  28  29
ENDBRANCH   1  28
TORSDOF 17
ENDMDL
