MODEL 1
REMARK VINA RESULT:     -10.1      0.000      0.000
REMARK SMILES Cc1c(Cl)cc2c(c1C)O[C@@H](C(F)(F)F)C(C(=O)NCCCNC(=O)c1ccc(-c3c4nc(c(-c5ccc(S(=O)(=O)[O-])cc5)c5ccc([nH]5)c(-c5ccc(S(=O)(=O)[O-])cc5)c5nc(c(-c6ccc(S(=O)(=O)[O-])cc6)c6ccc3[nH]6)C=C5)C=C4)cc1)=C2
REMARK SMILES IDX 22 1 21 2 20 3 19 4 17 5 18 6 16 8 1 9 2 10 3 11 8 12 4 13
REMARK SMILES IDX 5 14 7 15 9 16 6 17 10 18 86 19 11 20 12 21 13 22 14 23
REMARK SMILES IDX 15 24 23 25 24 26 25 28 26 29 27 30 85 31 28 32 84 33 29 34
REMARK SMILES IDX 30 35 31 36 78 37 32 38 83 39 77 40 79 41 33 42 82 43 76 44
REMARK SMILES IDX 75 45 34 47 64 48 45 49 63 50 46 51 49 52 62 53 80 54 47 55
REMARK SMILES IDX 48 56 61 58 81 59 50 60 35 61 36 62 44 63 37 64 43 65 38 66
REMARK SMILES IDX 39 67 40 68 41 69 42 70 65 71 66 72 74 73 67 74 73 75 68 76
REMARK SMILES IDX 69 77 70 78 71 79 72 80 51 81 52 82 60 83 53 84 59 85 54 86
REMARK SMILES IDX 55 87 56 88 57 89 58 90
REMARK H PARENT 19 7 23 27 79 46 49 57
REMARK Flexibility Score: inf
ROOT
ATOM      1  C   UNL A   1      40.353  21.229  27.087  1.00  0.00     0.118 C 
ENDROOT
BRANCH   1   2
ATOM      2  C   UNL A   1      41.699  20.947  26.423  1.00  0.00     0.042 C 
BRANCH   2   3
ATOM      3  C   UNL A   1      42.571  22.194  26.304  1.00  0.00     0.118 C 
BRANCH   3   4
ATOM      4  N   UNL A   1      43.175  22.305  24.986  1.00  0.00    -0.352 N 
ATOM      5  C   UNL A   1      44.050  23.130  24.366  1.00  0.00     0.251 C 
ATOM      6  O   UNL A   1      44.366  22.791  23.220  1.00  0.00    -0.270 OA
ATOM      7  H   UNL A   1      42.866  21.589  24.385  1.00  0.00     0.163 HD
BRANCH   5   8
ATOM      8  C   UNL A   1      44.638  24.367  24.955  1.00  0.00     0.067 C 
ATOM      9  C   UNL A   1      45.699  30.373  27.340  1.00  0.00     0.046 C 
ATOM     10  C   UNL A   1      45.204  29.071  26.764  1.00  0.00    -0.026 A 
ATOM     11  C   UNL A   1      43.834  28.878  26.486  1.00  0.00     0.045 A 
ATOM     12  C   UNL A   1      46.095  27.993  26.540  1.00  0.00    -0.004 A 
ATOM     13  Cl  UNL A   1      42.647  30.097  26.810  1.00  0.00    -0.084 Cl
ATOM     14  C   UNL A   1      43.369  27.682  25.932  1.00  0.00     0.032 A 
ATOM     15  C   UNL A   1      45.607  26.802  25.967  1.00  0.00     0.131 A 
ATOM     16  C   UNL A   1      47.566  28.066  26.874  1.00  0.00     0.049 C 
ATOM     17  C   UNL A   1      44.257  26.646  25.655  1.00  0.00     0.019 A 
ATOM     18  O   UNL A   1      46.523  25.822  25.681  1.00  0.00    -0.475 OA
ATOM     19  C   UNL A   1      43.799  25.417  25.024  1.00  0.00     0.025 C 
ATOM     20  C   UNL A   1      46.016  24.466  25.547  1.00  0.00     0.314 C 
BRANCH  20  21
ATOM     21  C   UNL A   1      46.180  23.706  26.873  1.00  0.00     0.429 C 
ATOM     22  F   UNL A   1      45.201  24.070  27.740  1.00  0.00    -0.167 F 
ATOM     23  F   UNL A   1      46.109  22.366  26.719  1.00  0.00    -0.167 F 
ATOM     24  F   UNL A   1      47.359  23.975  27.481  1.00  0.00    -0.167 F 
ENDBRANCH  20  21
ENDBRANCH   5   8
ENDBRANCH   3   4
ENDBRANCH   2   3
ENDBRANCH   1   2
BRANCH   1  25
ATOM     25  N   UNL A   1      39.348  21.628  26.110  1.00  0.00    -0.352 N 
ATOM     26  C   UNL A   1      38.658  22.805  25.992  1.00  0.00     0.251 C 
ATOM     27  H   UNL A   1      39.133  20.948  25.431  1.00  0.00     0.163 HD
ATOM     28  O   UNL A   1      37.644  22.838  25.285  1.00  0.00    -0.269 OA
BRANCH  26  29
ATOM     29  C   UNL A   1      39.106  24.027  26.694  1.00  0.00     0.039 A 
ATOM     30  C   UNL A   1      39.927  24.937  26.022  1.00  0.00     0.014 A 
ATOM     31  C   UNL A   1      38.773  24.248  28.034  1.00  0.00     0.014 A 
ATOM     32  C   UNL A   1      40.377  26.086  26.679  1.00  0.00     0.010 A 
ATOM     33  C   UNL A   1      39.156  25.430  28.662  1.00  0.00     0.010 A 
ATOM     34  C   UNL A   1      39.979  26.352  27.998  1.00  0.00    -0.014 A 
BRANCH  34  35
ATOM     35  C   UNL A   1      40.441  27.567  28.715  1.00  0.00     0.031 A 
ATOM     36  C   UNL A   1      41.822  27.609  29.312  1.00  0.00     0.074 A 
ATOM     37  C   UNL A   1      39.604  28.612  28.871  1.00  0.00     0.049 A 
ATOM     38  N   UNL A   1      42.388  28.556  30.016  1.00  0.00    -0.248 NA
ATOM     39  C   UNL A   1      42.671  26.423  29.110  1.00  0.00     0.031 C 
ATOM     40  C   UNL A   1      38.231  28.680  28.367  1.00  0.00     0.029 A 
ATOM     41  N   UNL A   1      39.788  29.817  29.502  1.00  0.00    -0.354 N 
ATOM     42  C   UNL A   1      43.647  28.072  30.356  1.00  0.00     0.074 A 
ATOM     43  C   UNL A   1      43.743  26.731  29.826  1.00  0.00     0.031 C 
ATOM     44  C   UNL A   1      37.709  29.877  28.678  1.00  0.00     0.029 A 
ATOM     45  C   UNL A   1      38.692  30.646  29.436  1.00  0.00     0.049 A 
ATOM     46  H   UNL A   1      40.624  30.065  29.957  1.00  0.00     0.167 HD
ATOM     47  C   UNL A   1      44.643  28.696  31.030  1.00  0.00     0.031 A 
ATOM     48  C   UNL A   1      38.500  31.883  29.931  1.00  0.00     0.031 A 
ATOM     49  C   UNL A   1      44.550  30.037  31.541  1.00  0.00     0.049 A 
ATOM     50  C   UNL A   1      39.613  32.555  30.683  1.00  0.00     0.074 A 
ATOM     51  C   UNL A   1      45.521  30.778  32.191  1.00  0.00     0.029 A 
ATOM     52  N   UNL A   1      43.421  30.838  31.459  1.00  0.00    -0.354 N 
ATOM     53  N   UNL A   1      40.814  32.100  30.953  1.00  0.00    -0.248 NA
ATOM     54  C   UNL A   1      39.351  33.907  31.195  1.00  0.00     0.031 C 
ATOM     55  C   UNL A   1      44.963  32.012  32.543  1.00  0.00     0.029 A 
ATOM     56  C   UNL A   1      43.662  32.058  32.066  1.00  0.00     0.049 A 
ATOM     57  H   UNL A   1      42.573  30.577  31.032  1.00  0.00     0.167 HD
ATOM     58  C   UNL A   1      41.456  33.116  31.652  1.00  0.00     0.074 A 
ATOM     59  C   UNL A   1      40.516  34.214  31.750  1.00  0.00     0.031 C 
ATOM     60  C   UNL A   1      42.711  33.136  32.165  1.00  0.00     0.031 A 
BRANCH  47  61
ATOM     61  C   UNL A   1      45.918  27.927  31.251  1.00  0.00    -0.014 A 
ATOM     62  C   UNL A   1      46.106  27.155  32.413  1.00  0.00     0.010 A 
ATOM     63  C   UNL A   1      46.931  27.951  30.275  1.00  0.00     0.010 A 
ATOM     64  C   UNL A   1      47.302  26.462  32.616  1.00  0.00     0.020 A 
ATOM     65  C   UNL A   1      48.118  27.236  30.463  1.00  0.00     0.020 A 
ATOM     66  C   UNL A   1      48.303  26.511  31.641  1.00  0.00     0.054 A 
BRANCH  66  67
ATOM     67  S   UNL A   1      49.841  25.593  31.930  1.00  0.00     0.124 S 
ATOM     68  O   UNL A   1      50.735  26.646  32.406  1.00  0.00    -0.237 OA
ATOM     69  O   UNL A   1      49.441  24.608  32.932  1.00  0.00    -0.237 OA
ATOM     70  O   UNL A   1      50.169  25.044  30.617  1.00  0.00    -0.744 OA
ENDBRANCH  66  67
ENDBRANCH  47  61
BRANCH  48  71
ATOM     71  C   UNL A   1      37.203  32.574  29.692  1.00  0.00    -0.014 A 
ATOM     72  C   UNL A   1      36.138  32.412  30.596  1.00  0.00     0.010 A 
ATOM     73  C   UNL A   1      37.045  33.441  28.596  1.00  0.00     0.010 A 
ATOM     74  C   UNL A   1      34.941  33.108  30.411  1.00  0.00     0.020 A 
ATOM     75  C   UNL A   1      35.856  34.157  28.421  1.00  0.00     0.020 A 
ATOM     76  C   UNL A   1      34.811  33.984  29.330  1.00  0.00     0.054 A 
BRANCH  76  77
ATOM     77  S   UNL A   1      33.280  34.944  29.165  1.00  0.00     0.124 S 
ATOM     78  O   UNL A   1      32.772  34.947  30.533  1.00  0.00    -0.237 OA
ATOM     79  O   UNL A   1      33.767  36.229  28.668  1.00  0.00    -0.237 OA
ATOM     80  O   UNL A   1      32.493  34.172  28.205  1.00  0.00    -0.744 OA
ENDBRANCH  76  77
ENDBRANCH  48  71
BRANCH  60  81
ATOM     81  C   UNL A   1      43.150  34.387  32.877  1.00  0.00    -0.014 A 
ATOM     82  C   UNL A   1      43.011  34.511  34.270  1.00  0.00     0.010 A 
ATOM     83  C   UNL A   1      43.785  35.414  32.155  1.00  0.00     0.010 A 
ATOM     84  C   UNL A   1      43.485  35.649  34.927  1.00  0.00     0.020 A 
ATOM     85  C   UNL A   1      44.281  36.542  32.811  1.00  0.00     0.020 A 
ATOM     86  C   UNL A   1      44.120  36.656  34.194  1.00  0.00     0.054 A 
BRANCH  86  87
ATOM     87  S   UNL A   1      44.780  38.094  35.081  1.00  0.00     0.124 S 
ATOM     88  O   UNL A   1      43.921  39.171  34.597  1.00  0.00    -0.237 OA
ATOM     89  O   UNL A   1      44.592  37.719  36.481  1.00  0.00    -0.237 OA
ATOM     90  O   UNL A   1      46.172  38.163  34.643  1.00  0.00    -0.744 OA
ENDBRANCH  86  87
ENDBRANCH  60  81
ENDBRANCH  34  35
ENDBRANCH  26  29
ENDBRANCH   1  25
TORSDOF 14
ENDMDL
MODEL 2
REMARK VINA RESULT:      -9.9      4.636     10.922
REMARK SMILES Cc1c(Cl)cc2c(c1C)O[C@@H](C(F)(F)F)C(C(=O)NCCCNC(=O)c1ccc(-c3c4nc(c(-c5ccc(S(=O)(=O)[O-])cc5)c5ccc([nH]5)c(-c5ccc(S(=O)(=O)[O-])cc5)c5nc(c(-c6ccc(S(=O)(=O)[O-])cc6)c6ccc3[nH]6)C=C5)C=C4)cc1)=C2
REMARK SMILES IDX 22 1 21 2 20 3 19 4 17 5 18 6 16 8 1 9 2 10 3 11 8 12 4 13
REMARK SMILES IDX 5 14 7 15 9 16 6 17 10 18 86 19 11 20 12 21 13 22 14 23
REMARK SMILES IDX 15 24 23 25 24 26 25 28 26 29 27 30 85 31 28 32 84 33 29 34
REMARK SMILES IDX 30 35 31 36 78 37 32 38 83 39 77 40 79 41 33 42 82 43 76 44
REMARK SMILES IDX 75 45 34 47 64 48 45 49 63 50 46 51 49 52 62 53 80 54 47 55
REMARK SMILES IDX 48 56 61 58 81 59 50 60 35 61 36 62 44 63 37 64 43 65 38 66
REMARK SMILES IDX 39 67 40 68 41 69 42 70 65 71 66 72 74 73 67 74 73 75 68 76
REMARK SMILES IDX 69 77 70 78 71 79 72 80 51 81 52 82 60 83 53 84 59 85 54 86
REMARK SMILES IDX 55 87 56 88 57 89 58 90
REMARK H PARENT 19 7 23 27 79 46 49 57
REMARK Flexibility Score: inf
ROOT
ATOM      1  C   UNL A   1      33.952  28.628  26.291  1.00  0.00     0.118 C 
ENDROOT
BRANCH   1   2
ATOM      2  C   UNL A   1      32.901  27.711  26.912  1.00  0.00     0.042 C 
BRANCH   2   3
ATOM      3  C   UNL A   1      31.567  27.755  26.172  1.00  0.00     0.118 C 
BRANCH   3   4
ATOM      4  N   UNL A   1      31.751  27.824  24.732  1.00  0.00    -0.352 N 
ATOM      5  C   UNL A   1      32.157  26.991  23.746  1.00  0.00     0.251 C 
ATOM      6  O   UNL A   1      32.075  27.454  22.603  1.00  0.00    -0.270 OA
ATOM      7  H   UNL A   1      31.518  28.713  24.380  1.00  0.00     0.163 HD
BRANCH   5   8
ATOM      8  C   UNL A   1      32.671  25.606  23.943  1.00  0.00     0.067 C 
ATOM      9  C   UNL A   1      36.331  20.302  25.114  1.00  0.00     0.046 C 
ATOM     10  C   UNL A   1      35.708  21.659  24.903  1.00  0.00    -0.026 A 
ATOM     11  C   UNL A   1      36.437  22.837  25.168  1.00  0.00     0.045 A 
ATOM     12  C   UNL A   1      34.360  21.779  24.485  1.00  0.00    -0.004 A 
ATOM     13  Cl  UNL A   1      38.060  22.803  25.772  1.00  0.00    -0.084 Cl
ATOM     14  C   UNL A   1      35.875  24.100  24.955  1.00  0.00     0.032 A 
ATOM     15  C   UNL A   1      33.819  23.062  24.262  1.00  0.00     0.131 A 
ATOM     16  C   UNL A   1      33.468  20.584  24.248  1.00  0.00     0.049 C 
ATOM     17  C   UNL A   1      34.569  24.215  24.485  1.00  0.00     0.019 A 
ATOM     18  O   UNL A   1      32.542  23.125  23.768  1.00  0.00    -0.475 OA
ATOM     19  C   UNL A   1      33.989  25.520  24.201  1.00  0.00     0.025 C 
ATOM     20  C   UNL A   1      31.817  24.369  23.975  1.00  0.00     0.314 C 
BRANCH  20  21
ATOM     21  C   UNL A   1      30.925  24.260  25.222  1.00  0.00     0.429 C 
ATOM     22  F   UNL A   1      30.424  23.003  25.325  1.00  0.00    -0.167 F 
ATOM     23  F   UNL A   1      31.593  24.526  26.367  1.00  0.00    -0.167 F 
ATOM     24  F   UNL A   1      29.866  25.100  25.176  1.00  0.00    -0.167 F 
ENDBRANCH  20  21
ENDBRANCH   5   8
ENDBRANCH   3   4
ENDBRANCH   2   3
ENDBRANCH   1   2
BRANCH   1  25
ATOM     25  N   UNL A   1      33.820  29.996  26.775  1.00  0.00    -0.352 N 
ATOM     26  C   UNL A   1      34.579  30.681  27.686  1.00  0.00     0.251 C 
ATOM     27  H   UNL A   1      33.072  30.506  26.388  1.00  0.00     0.163 HD
ATOM     28  O   UNL A   1      34.130  31.723  28.179  1.00  0.00    -0.269 OA
BRANCH  26  29
ATOM     29  C   UNL A   1      35.917  30.195  28.086  1.00  0.00     0.039 A 
ATOM     30  C   UNL A   1      36.095  29.666  29.368  1.00  0.00     0.014 A 
ATOM     31  C   UNL A   1      37.012  30.320  27.227  1.00  0.00     0.014 A 
ATOM     32  C   UNL A   1      37.359  29.224  29.769  1.00  0.00     0.010 A 
ATOM     33  C   UNL A   1      38.253  29.806  27.598  1.00  0.00     0.010 A 
ATOM     34  C   UNL A   1      38.443  29.271  28.880  1.00  0.00    -0.014 A 
BRANCH  34  35
ATOM     35  C   UNL A   1      39.794  28.803  29.282  1.00  0.00     0.031 A 
ATOM     36  C   UNL A   1      40.699  29.708  30.075  1.00  0.00     0.074 A 
ATOM     37  C   UNL A   1      40.225  27.586  28.895  1.00  0.00     0.049 A 
ATOM     38  N   UNL A   1      41.928  29.502  30.475  1.00  0.00    -0.248 NA
ATOM     39  C   UNL A   1      40.161  31.027  30.447  1.00  0.00     0.031 C 
ATOM     40  C   UNL A   1      39.454  26.630  28.098  1.00  0.00     0.029 A 
ATOM     41  N   UNL A   1      41.418  26.948  29.119  1.00  0.00    -0.354 N 
ATOM     42  C   UNL A   1      42.314  30.668  31.126  1.00  0.00     0.074 A 
ATOM     43  C   UNL A   1      41.209  31.596  31.024  1.00  0.00     0.031 C 
ATOM     44  C   UNL A   1      40.181  25.514  27.929  1.00  0.00     0.029 A 
ATOM     45  C   UNL A   1      41.482  25.689  28.570  1.00  0.00     0.049 A 
ATOM     46  H   UNL A   1      42.160  27.352  29.625  1.00  0.00     0.167 HD
ATOM     47  C   UNL A   1      43.474  30.936  31.772  1.00  0.00     0.031 A 
ATOM     48  C   UNL A   1      42.474  24.778  28.579  1.00  0.00     0.031 A 
ATOM     49  C   UNL A   1      44.564  30.004  31.886  1.00  0.00     0.049 A 
ATOM     50  C   UNL A   1      43.757  25.098  29.292  1.00  0.00     0.074 A 
ATOM     51  C   UNL A   1      45.760  30.159  32.563  1.00  0.00     0.029 A 
ATOM     52  N   UNL A   1      44.589  28.743  31.310  1.00  0.00    -0.354 N 
ATOM     53  N   UNL A   1      44.085  26.188  29.945  1.00  0.00    -0.248 NA
ATOM     54  C   UNL A   1      44.803  24.065  29.277  1.00  0.00     0.031 C 
ATOM     55  C   UNL A   1      46.529  29.009  32.359  1.00  0.00     0.029 A 
ATOM     56  C   UNL A   1      45.790  28.117  31.596  1.00  0.00     0.049 A 
ATOM     57  H   UNL A   1      43.861  28.351  30.775  1.00  0.00     0.167 HD
ATOM     58  C   UNL A   1      45.369  25.966  30.431  1.00  0.00     0.074 A 
ATOM     59  C   UNL A   1      45.751  24.634  30.010  1.00  0.00     0.031 C 
ATOM     60  C   UNL A   1      46.158  26.794  31.160  1.00  0.00     0.031 A 
BRANCH  47  61
ATOM     61  C   UNL A   1      43.619  32.295  32.402  1.00  0.00    -0.014 A 
ATOM     62  C   UNL A   1      44.162  33.374  31.679  1.00  0.00     0.010 A 
ATOM     63  C   UNL A   1      43.182  32.507  33.722  1.00  0.00     0.010 A 
ATOM     64  C   UNL A   1      44.310  34.626  32.281  1.00  0.00     0.020 A 
ATOM     65  C   UNL A   1      43.304  33.766  34.319  1.00  0.00     0.020 A 
ATOM     66  C   UNL A   1      43.885  34.812  33.600  1.00  0.00     0.054 A 
BRANCH  66  67
ATOM     67  S   UNL A   1      44.082  36.452  34.351  1.00  0.00     0.124 S 
ATOM     68  O   UNL A   1      42.750  37.027  34.173  1.00  0.00    -0.237 OA
ATOM     69  O   UNL A   1      44.448  36.131  35.728  1.00  0.00    -0.237 OA
ATOM     70  O   UNL A   1      45.138  37.073  33.557  1.00  0.00    -0.744 OA
ENDBRANCH  66  67
ENDBRANCH  47  61
BRANCH  48  71
ATOM     71  C   UNL A   1      42.267  23.463  27.915  1.00  0.00    -0.014 A 
ATOM     72  C   UNL A   1      42.736  23.249  26.607  1.00  0.00     0.010 A 
ATOM     73  C   UNL A   1      41.655  22.401  28.605  1.00  0.00     0.010 A 
ATOM     74  C   UNL A   1      42.601  21.996  26.002  1.00  0.00     0.020 A 
ATOM     75  C   UNL A   1      41.539  21.139  28.012  1.00  0.00     0.020 A 
ATOM     76  C   UNL A   1      42.012  20.947  26.712  1.00  0.00     0.054 A 
BRANCH  76  77
ATOM     77  S   UNL A   1      41.932  19.307  25.938  1.00  0.00     0.124 S 
ATOM     78  O   UNL A   1      42.794  19.477  24.773  1.00  0.00    -0.237 OA
ATOM     79  O   UNL A   1      42.455  18.438  26.990  1.00  0.00    -0.237 OA
ATOM     80  O   UNL A   1      40.510  19.134  25.647  1.00  0.00    -0.744 OA
ENDBRANCH  76  77
ENDBRANCH  48  71
BRANCH  60  81
ATOM     81  C   UNL A   1      47.517  26.284  31.559  1.00  0.00    -0.014 A 
ATOM     82  C   UNL A   1      47.724  25.691  32.815  1.00  0.00     0.010 A 
ATOM     83  C   UNL A   1      48.576  26.326  30.634  1.00  0.00     0.010 A 
ATOM     84  C   UNL A   1      48.973  25.160  33.147  1.00  0.00     0.020 A 
ATOM     85  C   UNL A   1      49.819  25.776  30.953  1.00  0.00     0.020 A 
ATOM     86  C   UNL A   1      50.012  25.203  32.212  1.00  0.00     0.054 A 
BRANCH  86  87
ATOM     87  S   UNL A   1      51.606  24.452  32.647  1.00  0.00     0.124 S 
ATOM     88  O   UNL A   1      52.547  25.280  31.898  1.00  0.00    -0.237 OA
ATOM     89  O   UNL A   1      51.646  24.609  34.099  1.00  0.00    -0.237 OA
ATOM     90  O   UNL A   1      51.479  23.074  32.178  1.00  0.00    -0.744 OA
ENDBRANCH  86  87
ENDBRANCH  60  81
ENDBRANCH  34  35
ENDBRANCH  26  29
ENDBRANCH   1  25
TORSDOF 14
ENDMDL
MODEL 3
REMARK VINA RESULT:      -9.9      4.062      6.550
REMARK SMILES Cc1c(Cl)cc2c(c1C)O[C@@H](C(F)(F)F)C(C(=O)NCCCNC(=O)c1ccc(-c3c4nc(c(-c5ccc(S(=O)(=O)[O-])cc5)c5ccc([nH]5)c(-c5ccc(S(=O)(=O)[O-])cc5)c5nc(c(-c6ccc(S(=O)(=O)[O-])cc6)c6ccc3[nH]6)C=C5)C=C4)cc1)=C2
REMARK SMILES IDX 22 1 21 2 20 3 19 4 17 5 18 6 16 8 1 9 2 10 3 11 8 12 4 13
REMARK SMILES IDX 5 14 7 15 9 16 6 17 10 18 86 19 11 20 12 21 13 22 14 23
REMARK SMILES IDX 15 24 23 25 24 26 25 28 26 29 27 30 85 31 28 32 84 33 29 34
REMARK SMILES IDX 30 35 31 36 78 37 32 38 83 39 77 40 79 41 33 42 82 43 76 44
REMARK SMILES IDX 75 45 34 47 64 48 45 49 63 50 46 51 49 52 62 53 80 54 47 55
REMARK SMILES IDX 48 56 61 58 81 59 50 60 35 61 36 62 44 63 37 64 43 65 38 66
REMARK SMILES IDX 39 67 40 68 41 69 42 70 65 71 66 72 74 73 67 74 73 75 68 76
REMARK SMILES IDX 69 77 70 78 71 79 72 80 51 81 52 82 60 83 53 84 59 85 54 86
REMARK SMILES IDX 55 87 56 88 57 89 58 90
REMARK H PARENT 19 7 23 27 79 46 49 57
REMARK Flexibility Score: inf
ROOT
ATOM      1  C   UNL A   1      36.426  23.463  25.849  1.00  0.00     0.118 C 
ENDROOT
BRANCH   1   2
ATOM      2  C   UNL A   1      36.272  23.958  24.413  1.00  0.00     0.042 C 
BRANCH   2   3
ATOM      3  C   UNL A   1      35.314  23.099  23.592  1.00  0.00     0.118 C 
BRANCH   3   4
ATOM      4  N   UNL A   1      34.221  22.587  24.401  1.00  0.00    -0.352 N 
ATOM      5  C   UNL A   1      33.076  23.070  24.936  1.00  0.00     0.251 C 
ATOM      6  O   UNL A   1      32.368  22.230  25.504  1.00  0.00    -0.270 OA
ATOM      7  H   UNL A   1      34.346  21.635  24.618  1.00  0.00     0.163 HD
BRANCH   5   8
ATOM      8  C   UNL A   1      32.629  24.491  24.881  1.00  0.00     0.067 C 
ATOM      9  C   UNL A   1      31.742  30.905  25.860  1.00  0.00     0.046 C 
ATOM     10  C   UNL A   1      32.130  29.449  25.824  1.00  0.00    -0.026 A 
ATOM     11  C   UNL A   1      33.190  28.964  26.619  1.00  0.00     0.045 A 
ATOM     12  C   UNL A   1      31.473  28.546  24.953  1.00  0.00    -0.004 A 
ATOM     13  Cl  UNL A   1      34.120  30.000  27.648  1.00  0.00    -0.084 Cl
ATOM     14  C   UNL A   1      33.543  27.611  26.608  1.00  0.00     0.032 A 
ATOM     15  C   UNL A   1      31.835  27.184  24.970  1.00  0.00     0.131 A 
ATOM     16  C   UNL A   1      30.378  28.975  24.005  1.00  0.00     0.049 C 
ATOM     17  C   UNL A   1      32.855  26.714  25.796  1.00  0.00     0.019 A 
ATOM     18  O   UNL A   1      31.108  26.333  24.178  1.00  0.00    -0.475 OA
ATOM     19  C   UNL A   1      33.170  25.293  25.817  1.00  0.00     0.025 C 
ATOM     20  C   UNL A   1      31.734  25.070  23.821  1.00  0.00     0.314 C 
BRANCH  20  21
ATOM     21  C   UNL A   1      32.398  25.181  22.439  1.00  0.00     0.429 C 
ATOM     22  F   UNL A   1      32.590  23.944  21.916  1.00  0.00    -0.167 F 
ATOM     23  F   UNL A   1      31.652  25.883  21.557  1.00  0.00    -0.167 F 
ATOM     24  F   UNL A   1      33.612  25.775  22.494  1.00  0.00    -0.167 F 
ENDBRANCH  20  21
ENDBRANCH   5   8
ENDBRANCH   3   4
ENDBRANCH   2   3
ENDBRANCH   1   2
BRANCH   1  25
ATOM     25  N   UNL A   1      37.546  22.539  25.978  1.00  0.00    -0.352 N 
ATOM     26  C   UNL A   1      38.858  22.789  26.284  1.00  0.00     0.251 C 
ATOM     27  H   UNL A   1      37.327  21.592  25.822  1.00  0.00     0.163 HD
ATOM     28  O   UNL A   1      39.704  21.916  26.052  1.00  0.00    -0.269 OA
BRANCH  26  29
ATOM     29  C   UNL A   1      39.272  24.076  26.880  1.00  0.00     0.039 A 
ATOM     30  C   UNL A   1      39.988  24.990  26.101  1.00  0.00     0.014 A 
ATOM     31  C   UNL A   1      39.018  24.358  28.226  1.00  0.00     0.014 A 
ATOM     32  C   UNL A   1      40.406  26.202  26.658  1.00  0.00     0.010 A 
ATOM     33  C   UNL A   1      39.366  25.598  28.756  1.00  0.00     0.010 A 
ATOM     34  C   UNL A   1      40.081  26.525  27.984  1.00  0.00    -0.014 A 
BRANCH  34  35
ATOM     35  C   UNL A   1      40.512  27.807  28.595  1.00  0.00     0.031 A 
ATOM     36  C   UNL A   1      41.917  27.959  29.113  1.00  0.00     0.074 A 
ATOM     37  C   UNL A   1      39.629  28.816  28.730  1.00  0.00     0.049 A 
ATOM     38  N   UNL A   1      42.466  28.979  29.724  1.00  0.00    -0.248 NA
ATOM     39  C   UNL A   1      42.818  26.807  28.943  1.00  0.00     0.031 C 
ATOM     40  C   UNL A   1      38.230  28.780  28.297  1.00  0.00     0.029 A 
ATOM     41  N   UNL A   1      39.778  30.068  29.271  1.00  0.00    -0.354 N 
ATOM     42  C   UNL A   1      43.764  28.584  30.026  1.00  0.00     0.074 A 
ATOM     43  C   UNL A   1      43.907  27.217  29.578  1.00  0.00     0.031 C 
ATOM     44  C   UNL A   1      37.659  29.966  28.559  1.00  0.00     0.029 A 
ATOM     45  C   UNL A   1      38.637  30.834  29.212  1.00  0.00     0.049 A 
ATOM     46  H   UNL A   1      40.621  30.389  29.664  1.00  0.00     0.167 HD
ATOM     47  C   UNL A   1      44.757  29.301  30.603  1.00  0.00     0.031 A 
ATOM     48  C   UNL A   1      38.402  32.090  29.635  1.00  0.00     0.031 A 
ATOM     49  C   UNL A   1      44.618  30.667  31.032  1.00  0.00     0.049 A 
ATOM     50  C   UNL A   1      39.514  32.866  30.282  1.00  0.00     0.074 A 
ATOM     51  C   UNL A   1      45.578  31.499  31.580  1.00  0.00     0.029 A 
ATOM     52  N   UNL A   1      43.444  31.402  30.959  1.00  0.00    -0.354 N 
ATOM     53  N   UNL A   1      40.750  32.492  30.515  1.00  0.00    -0.248 NA
ATOM     54  C   UNL A   1      39.204  34.235  30.719  1.00  0.00     0.031 C 
ATOM     55  C   UNL A   1      44.973  32.723  31.881  1.00  0.00     0.029 A 
ATOM     56  C   UNL A   1      43.649  32.670  31.473  1.00  0.00     0.049 A 
ATOM     57  H   UNL A   1      42.591  31.070  30.597  1.00  0.00     0.167 HD
ATOM     58  C   UNL A   1      41.370  33.585  31.112  1.00  0.00     0.074 A 
ATOM     59  C   UNL A   1      40.377  34.637  31.190  1.00  0.00     0.031 C 
ATOM     60  C   UNL A   1      42.646  33.703  31.554  1.00  0.00     0.031 A 
BRANCH  47  61
ATOM     61  C   UNL A   1      46.082  28.615  30.804  1.00  0.00    -0.014 A 
ATOM     62  C   UNL A   1      47.113  28.740  29.854  1.00  0.00     0.010 A 
ATOM     63  C   UNL A   1      46.312  27.859  31.967  1.00  0.00     0.010 A 
ATOM     64  C   UNL A   1      48.332  28.082  30.041  1.00  0.00     0.020 A 
ATOM     65  C   UNL A   1      47.540  27.221  32.171  1.00  0.00     0.020 A 
ATOM     66  C   UNL A   1      48.535  27.322  31.197  1.00  0.00     0.054 A 
BRANCH  66  67
ATOM     67  S   UNL A   1      50.131  26.488  31.416  1.00  0.00     0.124 S 
ATOM     68  O   UNL A   1      51.005  27.279  30.554  1.00  0.00    -0.237 OA
ATOM     69  O   UNL A   1      50.371  26.628  32.851  1.00  0.00    -0.237 OA
ATOM     70  O   UNL A   1      49.875  25.124  30.961  1.00  0.00    -0.744 OA
ENDBRANCH  66  67
ENDBRANCH  47  61
BRANCH  48  71
ATOM     71  C   UNL A   1      37.060  32.695  29.423  1.00  0.00    -0.014 A 
ATOM     72  C   UNL A   1      36.090  32.642  30.440  1.00  0.00     0.010 A 
ATOM     73  C   UNL A   1      36.763  33.380  28.230  1.00  0.00     0.010 A 
ATOM     74  C   UNL A   1      34.850  33.264  30.270  1.00  0.00     0.020 A 
ATOM     75  C   UNL A   1      35.532  34.024  28.066  1.00  0.00     0.020 A 
ATOM     76  C   UNL A   1      34.583  33.960  29.088  1.00  0.00     0.054 A 
BRANCH  76  77
ATOM     77  S   UNL A   1      33.001  34.836  28.931  1.00  0.00     0.124 S 
ATOM     78  O   UNL A   1      33.424  36.141  28.433  1.00  0.00    -0.237 OA
ATOM     79  O   UNL A   1      32.274  34.001  27.978  1.00  0.00    -0.237 OA
ATOM     80  O   UNL A   1      32.467  34.825  30.291  1.00  0.00    -0.744 OA
ENDBRANCH  76  77
ENDBRANCH  48  71
BRANCH  60  81
ATOM     81  C   UNL A   1      43.052  35.019  32.160  1.00  0.00    -0.014 A 
ATOM     82  C   UNL A   1      43.704  35.997  31.389  1.00  0.00     0.010 A 
ATOM     83  C   UNL A   1      42.703  35.312  33.491  1.00  0.00     0.010 A 
ATOM     84  C   UNL A   1      44.014  37.241  31.945  1.00  0.00     0.020 A 
ATOM     85  C   UNL A   1      42.990  36.562  34.042  1.00  0.00     0.020 A 
ATOM     86  C   UNL A   1      43.652  37.517  33.267  1.00  0.00     0.054 A 
BRANCH  86  87
ATOM     87  S   UNL A   1      44.013  39.161  33.943  1.00  0.00     0.124 S 
ATOM     88  O   UNL A   1      44.275  38.862  35.348  1.00  0.00    -0.237 OA
ATOM     89  O   UNL A   1      45.174  39.580  33.161  1.00  0.00    -0.237 OA
ATOM     90  O   UNL A   1      42.790  39.918  33.685  1.00  0.00    -0.744 OA
ENDBRANCH  86  87
ENDBRANCH  60  81
ENDBRANCH  34  35
ENDBRANCH  26  29
ENDBRANCH   1  25
TORSDOF 14
ENDMDL
