MODEL 1
REMARK VINA RESULT:     -10.5      0.000      0.000
REMARK SMILES O=C(CN1C(=O)N[C@](c2cccs2)(C2CC2)C1=O)NCCCNC(=O)c1ccc(-c2c3nc(c(-c4ccc(S(=O)(=O)[O-])cc4)c4ccc([nH]4)c(-c4ccc(S(=O)(=O)[O-])cc4)c4nc(c(-c5ccc(S(=O)(=O)[O-])cc5)c5ccc2[nH]5)C=C4)C=C3)cc1
REMARK SMILES IDX 21 1 20 2 19 3 1 4 2 5 3 7 4 8 5 9 17 10 6 11 7 12 8 13
REMARK SMILES IDX 18 14 14 16 15 17 16 18 9 19 10 20 13 21 11 22 12 23 22 24
REMARK SMILES IDX 23 25 24 26 25 28 26 29 27 30 85 31 28 32 84 33 29 34 30 35
REMARK SMILES IDX 31 36 78 37 32 38 83 39 77 40 79 41 33 42 82 43 76 44 75 45
REMARK SMILES IDX 34 47 64 48 45 49 63 50 46 51 49 52 62 53 80 54 47 55 48 56
REMARK SMILES IDX 61 58 81 59 50 60 35 61 36 62 44 63 37 64 43 65 38 66 39 67
REMARK SMILES IDX 40 68 41 69 42 70 65 71 66 72 74 73 67 74 73 75 68 76 69 77
REMARK SMILES IDX 70 78 71 79 72 80 51 81 52 82 60 83 53 84 59 85 54 86 55 87
REMARK SMILES IDX 56 88 57 89 58 90
REMARK H PARENT 19 6 7 15 23 27 79 46 49 57
REMARK Flexibility Score: inf
ROOT
ATOM      1  C   UNL A   1      34.064  28.472  25.455  1.00  0.00     0.042 C 
ENDROOT
BRANCH   1   2
ATOM      2  C   UNL A   1      32.814  28.902  24.693  1.00  0.00     0.117 C 
BRANCH   2   3
ATOM      3  N   UNL A   1      32.172  27.788  24.029  1.00  0.00    -0.354 N 
ATOM      4  O   UNL A   1      33.354  27.865  22.059  1.00  0.00    -0.273 OA
ATOM      5  C   UNL A   1      32.491  27.349  22.761  1.00  0.00     0.240 C 
ATOM      6  H   UNL A   1      31.460  27.312  24.515  1.00  0.00     0.163 HD
BRANCH   5   7
ATOM      7  C   UNL A   1      31.623  26.184  22.274  1.00  0.00     0.230 C 
BRANCH   7   8
ATOM      8  N   UNL A   1      32.277  24.911  22.502  1.00  0.00    -0.252 N 
ATOM      9  C   UNL A   1      32.996  24.235  21.570  1.00  0.00     0.325 C 
ATOM     10  C   UNL A   1      32.356  24.274  23.713  1.00  0.00     0.262 C 
ATOM     11  O   UNL A   1      33.184  24.579  20.412  1.00  0.00    -0.248 OA
ATOM     12  N   UNL A   1      33.482  23.083  22.118  1.00  0.00    -0.318 N 
ATOM     13  C   UNL A   1      33.214  22.974  23.538  1.00  0.00     0.158 C 
ATOM     14  O   UNL A   1      31.856  24.665  24.761  1.00  0.00    -0.271 OA
ATOM     15  H   UNL A   1      33.965  22.396  21.603  1.00  0.00     0.166 HD
BRANCH  13  16
ATOM     16  C   UNL A   1      32.304  21.776  23.738  1.00  0.00     0.030 C 
ATOM     17  C   UNL A   1      32.758  20.393  24.143  1.00  0.00     0.007 C 
ATOM     18  C   UNL A   1      31.902  21.210  25.080  1.00  0.00     0.007 C 
ENDBRANCH  13  16
BRANCH  13  19
ATOM     19  C   UNL A   1      34.568  23.204  24.219  1.00  0.00     0.040 A 
ATOM     20  C   UNL A   1      35.820  23.216  23.606  1.00  0.00     0.018 A 
ATOM     21  S   UNL A   1      34.770  23.354  25.918  1.00  0.00    -0.146 S 
ATOM     22  C   UNL A   1      36.904  23.363  24.516  1.00  0.00     0.012 A 
ATOM     23  C   UNL A   1      36.465  23.462  25.813  1.00  0.00     0.065 A 
ENDBRANCH  13  19
ENDBRANCH   7   8
ENDBRANCH   5   7
ENDBRANCH   2   3
ENDBRANCH   1   2
BRANCH   1  24
ATOM     24  C   UNL A   1      33.919  28.447  26.976  1.00  0.00     0.118 C 
BRANCH  24  25
ATOM     25  N   UNL A   1      33.749  29.768  27.561  1.00  0.00    -0.352 N 
ATOM     26  C   UNL A   1      34.616  30.540  28.296  1.00  0.00     0.251 C 
ATOM     27  H   UNL A   1      32.866  30.175  27.405  1.00  0.00     0.163 HD
ATOM     28  O   UNL A   1      34.196  31.573  28.813  1.00  0.00    -0.269 OA
BRANCH  26  29
ATOM     29  C   UNL A   1      36.033  30.147  28.489  1.00  0.00     0.039 A 
ATOM     30  C   UNL A   1      36.429  29.676  29.745  1.00  0.00     0.014 A 
ATOM     31  C   UNL A   1      36.989  30.293  27.480  1.00  0.00     0.014 A 
ATOM     32  C   UNL A   1      37.762  29.321  29.975  1.00  0.00     0.010 A 
ATOM     33  C   UNL A   1      38.301  29.857  27.684  1.00  0.00     0.010 A 
ATOM     34  C   UNL A   1      38.710  29.387  28.941  1.00  0.00    -0.014 A 
BRANCH  34  35
ATOM     35  C   UNL A   1      40.129  29.004  29.180  1.00  0.00     0.031 A 
ATOM     36  C   UNL A   1      41.086  29.980  29.816  1.00  0.00     0.074 A 
ATOM     37  C   UNL A   1      40.568  27.783  28.811  1.00  0.00     0.049 A 
ATOM     38  N   UNL A   1      42.351  29.819  30.118  1.00  0.00    -0.248 NA
ATOM     39  C   UNL A   1      40.564  31.318  30.137  1.00  0.00     0.031 C 
ATOM     40  C   UNL A   1      39.758  26.756  28.150  1.00  0.00     0.029 A 
ATOM     41  N   UNL A   1      41.802  27.194  28.945  1.00  0.00    -0.354 N 
ATOM     42  C   UNL A   1      42.774  31.032  30.651  1.00  0.00     0.074 A 
ATOM     43  C   UNL A   1      41.651  31.939  30.575  1.00  0.00     0.031 C 
ATOM     44  C   UNL A   1      40.504  25.653  27.974  1.00  0.00     0.029 A 
ATOM     45  C   UNL A   1      41.854  25.904  28.470  1.00  0.00     0.049 A 
ATOM     46  H   UNL A   1      42.576  27.653  29.344  1.00  0.00     0.167 HD
ATOM     47  C   UNL A   1      43.979  31.359  31.179  1.00  0.00     0.031 A 
ATOM     48  C   UNL A   1      42.870  25.019  28.438  1.00  0.00     0.031 A 
ATOM     49  C   UNL A   1      45.097  30.455  31.260  1.00  0.00     0.049 A 
ATOM     50  C   UNL A   1      44.202  25.407  29.022  1.00  0.00     0.074 A 
ATOM     51  C   UNL A   1      46.344  30.678  31.819  1.00  0.00     0.029 A 
ATOM     52  N   UNL A   1      45.107  29.159  30.767  1.00  0.00    -0.354 N 
ATOM     53  N   UNL A   1      44.561  26.540  29.579  1.00  0.00    -0.248 NA
ATOM     54  C   UNL A   1      45.260  24.388  28.994  1.00  0.00     0.031 C 
ATOM     55  C   UNL A   1      47.127  29.538  31.611  1.00  0.00     0.029 A 
ATOM     56  C   UNL A   1      46.344  28.577  30.990  1.00  0.00     0.049 A 
ATOM     57  H   UNL A   1      44.346  28.718  30.324  1.00  0.00     0.167 HD
ATOM     58  C   UNL A   1      45.874  26.354  30.003  1.00  0.00     0.074 A 
ATOM     59  C   UNL A   1      46.237  24.998  29.649  1.00  0.00     0.031 C 
ATOM     60  C   UNL A   1      46.699  27.226  30.635  1.00  0.00     0.031 A 
BRANCH  47  61
ATOM     61  C   UNL A   1      44.154  32.763  31.706  1.00  0.00    -0.014 A 
ATOM     62  C   UNL A   1      43.876  33.078  33.049  1.00  0.00     0.010 A 
ATOM     63  C   UNL A   1      44.640  33.773  30.856  1.00  0.00     0.010 A 
ATOM     64  C   UNL A   1      44.038  34.384  33.519  1.00  0.00     0.020 A 
ATOM     65  C   UNL A   1      44.835  35.074  31.332  1.00  0.00     0.020 A 
ATOM     66  C   UNL A   1      44.515  35.375  32.657  1.00  0.00     0.054 A 
BRANCH  66  67
ATOM     67  S   UNL A   1      44.733  37.056  33.301  1.00  0.00     0.124 S 
ATOM     68  O   UNL A   1      46.156  37.287  33.063  1.00  0.00    -0.237 OA
ATOM     69  O   UNL A   1      43.823  37.838  32.468  1.00  0.00    -0.237 OA
ATOM     70  O   UNL A   1      44.349  36.944  34.705  1.00  0.00    -0.744 OA
ENDBRANCH  66  67
ENDBRANCH  47  61
BRANCH  48  71
ATOM     71  C   UNL A   1      42.660  23.665  27.853  1.00  0.00    -0.014 A 
ATOM     72  C   UNL A   1      43.036  23.387  26.526  1.00  0.00     0.010 A 
ATOM     73  C   UNL A   1      42.081  22.640  28.625  1.00  0.00     0.010 A 
ATOM     74  C   UNL A   1      42.814  22.122  25.975  1.00  0.00     0.020 A 
ATOM     75  C   UNL A   1      41.888  21.364  28.087  1.00  0.00     0.020 A 
ATOM     76  C   UNL A   1      42.243  21.117  26.760  1.00  0.00     0.054 A 
BRANCH  76  77
ATOM     77  S   UNL A   1      42.005  19.470  26.037  1.00  0.00     0.124 S 
ATOM     78  O   UNL A   1      40.559  19.428  25.845  1.00  0.00    -0.237 OA
ATOM     79  O   UNL A   1      42.805  19.544  24.817  1.00  0.00    -0.237 OA
ATOM     80  O   UNL A   1      42.527  18.567  27.061  1.00  0.00    -0.744 OA
ENDBRANCH  76  77
ENDBRANCH  48  71
BRANCH  60  81
ATOM     81  C   UNL A   1      48.060  26.723  31.043  1.00  0.00    -0.014 A 
ATOM     82  C   UNL A   1      49.170  26.808  30.182  1.00  0.00     0.010 A 
ATOM     83  C   UNL A   1      48.235  26.180  32.329  1.00  0.00     0.010 A 
ATOM     84  C   UNL A   1      50.414  26.309  30.582  1.00  0.00     0.020 A 
ATOM     85  C   UNL A   1      49.484  25.714  32.746  1.00  0.00     0.020 A 
ATOM     86  C   UNL A   1      50.562  25.762  31.861  1.00  0.00     0.054 A 
BRANCH  86  87
ATOM     87  S   UNL A   1      52.188  25.134  32.361  1.00  0.00     0.124 S 
ATOM     88  O   UNL A   1      53.042  25.601  31.272  1.00  0.00    -0.237 OA
ATOM     89  O   UNL A   1      52.400  25.787  33.651  1.00  0.00    -0.237 OA
ATOM     90  O   UNL A   1      51.997  23.687  32.426  1.00  0.00    -0.744 OA
ENDBRANCH  86  87
ENDBRANCH  60  81
ENDBRANCH  34  35
ENDBRANCH  26  29
ENDBRANCH  24  25
ENDBRANCH   1  24
TORSDOF 16
ENDMDL
MODEL 2
REMARK VINA RESULT:     -10.4      4.657     10.390
REMARK SMILES O=C(CN1C(=O)N[C@](c2cccs2)(C2CC2)C1=O)NCCCNC(=O)c1ccc(-c2c3nc(c(-c4ccc(S(=O)(=O)[O-])cc4)c4ccc([nH]4)c(-c4ccc(S(=O)(=O)[O-])cc4)c4nc(c(-c5ccc(S(=O)(=O)[O-])cc5)c5ccc2[nH]5)C=C4)C=C3)cc1
REMARK SMILES IDX 21 1 20 2 19 3 1 4 2 5 3 7 4 8 5 9 17 10 6 11 7 12 8 13
REMARK SMILES IDX 18 14 14 16 15 17 16 18 9 19 10 20 13 21 11 22 12 23 22 24
REMARK SMILES IDX 23 25 24 26 25 28 26 29 27 30 85 31 28 32 84 33 29 34 30 35
REMARK SMILES IDX 31 36 78 37 32 38 83 39 77 40 79 41 33 42 82 43 76 44 75 45
REMARK SMILES IDX 34 47 64 48 45 49 63 50 46 51 49 52 62 53 80 54 47 55 48 56
REMARK SMILES IDX 61 58 81 59 50 60 35 61 36 62 44 63 37 64 43 65 38 66 39 67
REMARK SMILES IDX 40 68 41 69 42 70 65 71 66 72 74 73 67 74 73 75 68 76 69 77
REMARK SMILES IDX 70 78 71 79 72 80 51 81 52 82 60 83 53 84 59 85 54 86 55 87
REMARK SMILES IDX 56 88 57 89 58 90
REMARK H PARENT 19 6 7 15 23 27 79 46 49 57
REMARK Flexibility Score: inf
ROOT
ATOM      1  C   UNL A   1      37.154  23.769  25.603  1.00  0.00     0.042 C 
ENDROOT
BRANCH   1   2
ATOM      2  C   UNL A   1      36.574  22.362  25.701  1.00  0.00     0.117 C 
BRANCH   2   3
ATOM      3  N   UNL A   1      35.168  22.328  25.361  1.00  0.00    -0.354 N 
ATOM      4  O   UNL A   1      34.320  22.672  27.470  1.00  0.00    -0.273 OA
ATOM      5  C   UNL A   1      34.143  22.489  26.270  1.00  0.00     0.240 C 
ATOM      6  H   UNL A   1      34.926  22.181  24.418  1.00  0.00     0.163 HD
BRANCH   5   7
ATOM      7  C   UNL A   1      32.746  22.357  25.656  1.00  0.00     0.230 C 
BRANCH   7   8
ATOM      8  N   UNL A   1      32.068  23.638  25.615  1.00  0.00    -0.252 N 
ATOM      9  C   UNL A   1      31.117  24.036  26.497  1.00  0.00     0.325 C 
ATOM     10  C   UNL A   1      32.373  24.661  24.755  1.00  0.00     0.262 C 
ATOM     11  O   UNL A   1      30.680  23.384  27.435  1.00  0.00    -0.248 OA
ATOM     12  N   UNL A   1      30.699  25.296  26.177  1.00  0.00    -0.318 N 
ATOM     13  C   UNL A   1      31.461  25.888  25.097  1.00  0.00     0.158 C 
ATOM     14  O   UNL A   1      33.227  24.626  23.877  1.00  0.00    -0.271 OA
ATOM     15  H   UNL A   1      29.956  25.756  26.633  1.00  0.00     0.166 HD
BRANCH  13  16
ATOM     16  C   UNL A   1      30.508  26.109  23.936  1.00  0.00     0.030 C 
ATOM     17  C   UNL A   1      29.686  27.355  23.706  1.00  0.00     0.007 C 
ATOM     18  C   UNL A   1      30.789  26.990  22.742  1.00  0.00     0.007 C 
ENDBRANCH  13  16
BRANCH  13  19
ATOM     19  C   UNL A   1      32.335  26.957  25.763  1.00  0.00     0.040 A 
ATOM     20  C   UNL A   1      32.169  27.495  27.039  1.00  0.00     0.018 A 
ATOM     21  S   UNL A   1      33.614  27.779  24.965  1.00  0.00    -0.146 S 
ATOM     22  C   UNL A   1      33.086  28.539  27.344  1.00  0.00     0.012 A 
ATOM     23  C   UNL A   1      33.940  28.785  26.299  1.00  0.00     0.065 A 
ENDBRANCH  13  19
ENDBRANCH   7   8
ENDBRANCH   5   7
ENDBRANCH   2   3
ENDBRANCH   1   2
BRANCH   1  24
ATOM     24  C   UNL A   1      38.294  24.070  26.574  1.00  0.00     0.118 C 
BRANCH  24  25
ATOM     25  N   UNL A   1      39.570  24.299  25.915  1.00  0.00    -0.352 N 
ATOM     26  C   UNL A   1      40.532  25.254  26.133  1.00  0.00     0.251 C 
ATOM     27  H   UNL A   1      39.778  23.663  25.192  1.00  0.00     0.163 HD
ATOM     28  O   UNL A   1      41.472  25.339  25.346  1.00  0.00    -0.269 OA
BRANCH  26  29
ATOM     29  C   UNL A   1      40.451  26.190  27.281  1.00  0.00     0.039 A 
ATOM     30  C   UNL A   1      39.630  25.851  28.361  1.00  0.00     0.014 A 
ATOM     31  C   UNL A   1      41.116  27.420  27.286  1.00  0.00     0.014 A 
ATOM     32  C   UNL A   1      39.506  26.719  29.451  1.00  0.00     0.010 A 
ATOM     33  C   UNL A   1      41.060  28.246  28.412  1.00  0.00     0.010 A 
ATOM     34  C   UNL A   1      40.237  27.917  29.499  1.00  0.00    -0.014 A 
BRANCH  34  35
ATOM     35  C   UNL A   1      40.113  28.842  30.660  1.00  0.00     0.031 A 
ATOM     36  C   UNL A   1      40.994  28.668  31.872  1.00  0.00     0.074 A 
ATOM     37  C   UNL A   1      39.197  29.832  30.637  1.00  0.00     0.049 A 
ATOM     38  N   UNL A   1      41.041  29.385  32.968  1.00  0.00    -0.248 NA
ATOM     39  C   UNL A   1      41.928  27.531  31.863  1.00  0.00     0.031 C 
ATOM     40  C   UNL A   1      38.255  30.088  29.544  1.00  0.00     0.029 A 
ATOM     41  N   UNL A   1      38.911  30.812  31.556  1.00  0.00    -0.354 N 
ATOM     42  C   UNL A   1      41.997  28.780  33.778  1.00  0.00     0.074 A 
ATOM     43  C   UNL A   1      42.461  27.604  33.075  1.00  0.00     0.031 C 
ATOM     44  C   UNL A   1      37.526  31.177  29.839  1.00  0.00     0.029 A 
ATOM     45  C   UNL A   1      37.917  31.673  31.155  1.00  0.00     0.049 A 
ATOM     46  H   UNL A   1      39.375  30.890  32.421  1.00  0.00     0.167 HD
ATOM     47  C   UNL A   1      42.467  29.177  34.986  1.00  0.00     0.031 A 
ATOM     48  C   UNL A   1      37.380  32.744  31.773  1.00  0.00     0.031 A 
ATOM     49  C   UNL A   1      42.010  30.350  35.684  1.00  0.00     0.049 A 
ATOM     50  C   UNL A   1      37.911  33.161  33.117  1.00  0.00     0.074 A 
ATOM     51  C   UNL A   1      42.457  30.861  36.890  1.00  0.00     0.029 A 
ATOM     52  N   UNL A   1      41.002  31.193  35.242  1.00  0.00    -0.354 N 
ATOM     53  N   UNL A   1      38.861  32.611  33.837  1.00  0.00    -0.248 NA
ATOM     54  C   UNL A   1      37.313  34.359  33.724  1.00  0.00     0.031 C 
ATOM     55  C   UNL A   1      41.678  31.980  37.207  1.00  0.00     0.029 A 
ATOM     56  C   UNL A   1      40.798  32.210  36.162  1.00  0.00     0.049 A 
ATOM     57  H   UNL A   1      40.504  31.086  34.400  1.00  0.00     0.167 HD
ATOM     58  C   UNL A   1      39.000  33.420  34.961  1.00  0.00     0.074 A 
ATOM     59  C   UNL A   1      38.047  34.501  34.818  1.00  0.00     0.031 C 
ATOM     60  C   UNL A   1      39.847  33.283  36.012  1.00  0.00     0.031 A 
BRANCH  47  61
ATOM     61  C   UNL A   1      43.531  28.326  35.636  1.00  0.00    -0.014 A 
ATOM     62  C   UNL A   1      43.191  27.257  36.486  1.00  0.00     0.010 A 
ATOM     63  C   UNL A   1      44.889  28.574  35.364  1.00  0.00     0.010 A 
ATOM     64  C   UNL A   1      44.188  26.482  37.085  1.00  0.00     0.020 A 
ATOM     65  C   UNL A   1      45.888  27.779  35.934  1.00  0.00     0.020 A 
ATOM     66  C   UNL A   1      45.531  26.750  36.807  1.00  0.00     0.054 A 
BRANCH  66  67
ATOM     67  S   UNL A   1      46.802  25.715  37.583  1.00  0.00     0.124 S 
ATOM     68  O   UNL A   1      46.974  24.655  36.592  1.00  0.00    -0.237 OA
ATOM     69  O   UNL A   1      47.927  26.637  37.718  1.00  0.00    -0.237 OA
ATOM     70  O   UNL A   1      46.190  25.295  38.841  1.00  0.00    -0.744 OA
ENDBRANCH  66  67
ENDBRANCH  47  61
BRANCH  48  71
ATOM     71  C   UNL A   1      36.290  33.517  31.111  1.00  0.00    -0.014 A 
ATOM     72  C   UNL A   1      35.129  33.876  31.820  1.00  0.00     0.010 A 
ATOM     73  C   UNL A   1      36.408  33.898  29.762  1.00  0.00     0.010 A 
ATOM     74  C   UNL A   1      34.099  34.578  31.188  1.00  0.00     0.020 A 
ATOM     75  C   UNL A   1      35.394  34.630  29.135  1.00  0.00     0.020 A 
ATOM     76  C   UNL A   1      34.239  34.954  29.849  1.00  0.00     0.054 A 
BRANCH  76  77
ATOM     77  S   UNL A   1      32.909  35.904  29.062  1.00  0.00     0.124 S 
ATOM     78  O   UNL A   1      32.104  36.308  30.210  1.00  0.00    -0.237 OA
ATOM     79  O   UNL A   1      33.642  36.975  28.393  1.00  0.00    -0.237 OA
ATOM     80  O   UNL A   1      32.280  34.935  28.167  1.00  0.00    -0.744 OA
ENDBRANCH  76  77
ENDBRANCH  48  71
BRANCH  60  81
ATOM     81  C   UNL A   1      39.827  34.361  37.065  1.00  0.00    -0.014 A 
ATOM     82  C   UNL A   1      39.116  34.208  38.270  1.00  0.00     0.010 A 
ATOM     83  C   UNL A   1      40.564  35.542  36.854  1.00  0.00     0.010 A 
ATOM     84  C   UNL A   1      39.099  35.238  39.216  1.00  0.00     0.020 A 
ATOM     85  C   UNL A   1      40.578  36.558  37.812  1.00  0.00     0.020 A 
ATOM     86  C   UNL A   1      39.827  36.409  38.979  1.00  0.00     0.054 A 
BRANCH  86  87
ATOM     87  S   UNL A   1      39.799  37.725  40.226  1.00  0.00     0.124 S 
ATOM     88  O   UNL A   1      39.198  37.045  41.370  1.00  0.00    -0.237 OA
ATOM     89  O   UNL A   1      41.214  38.061  40.367  1.00  0.00    -0.237 OA
ATOM     90  O   UNL A   1      38.975  38.765  39.616  1.00  0.00    -0.744 OA
ENDBRANCH  86  87
ENDBRANCH  60  81
ENDBRANCH  34  35
ENDBRANCH  26  29
ENDBRANCH  24  25
ENDBRANCH   1  24
TORSDOF 16
ENDMDL
MODEL 3
REMARK VINA RESULT:     -10.4      2.911      3.584
REMARK SMILES O=C(CN1C(=O)N[C@](c2cccs2)(C2CC2)C1=O)NCCCNC(=O)c1ccc(-c2c3nc(c(-c4ccc(S(=O)(=O)[O-])cc4)c4ccc([nH]4)c(-c4ccc(S(=O)(=O)[O-])cc4)c4nc(c(-c5ccc(S(=O)(=O)[O-])cc5)c5ccc2[nH]5)C=C4)C=C3)cc1
REMARK SMILES IDX 21 1 20 2 19 3 1 4 2 5 3 7 4 8 5 9 17 10 6 11 7 12 8 13
REMARK SMILES IDX 18 14 14 16 15 17 16 18 9 19 10 20 13 21 11 22 12 23 22 24
REMARK SMILES IDX 23 25 24 26 25 28 26 29 27 30 85 31 28 32 84 33 29 34 30 35
REMARK SMILES IDX 31 36 78 37 32 38 83 39 77 40 79 41 33 42 82 43 76 44 75 45
REMARK SMILES IDX 34 47 64 48 45 49 63 50 46 51 49 52 62 53 80 54 47 55 48 56
REMARK SMILES IDX 61 58 81 59 50 60 35 61 36 62 44 63 37 64 43 65 38 66 39 67
REMARK SMILES IDX 40 68 41 69 42 70 65 71 66 72 74 73 67 74 73 75 68 76 69 77
REMARK SMILES IDX 70 78 71 79 72 80 51 81 52 82 60 83 53 84 59 85 54 86 55 87
REMARK SMILES IDX 56 88 57 89 58 90
REMARK H PARENT 19 6 7 15 23 27 79 46 49 57
REMARK Flexibility Score: inf
ROOT
ATOM      1  C   UNL A   1      33.585  27.931  26.697  1.00  0.00     0.042 C 
ENDROOT
BRANCH   1   2
ATOM      2  C   UNL A   1      32.095  27.996  27.019  1.00  0.00     0.117 C 
BRANCH   2   3
ATOM      3  N   UNL A   1      31.456  26.704  26.901  1.00  0.00    -0.354 N 
ATOM      4  O   UNL A   1      30.473  27.020  24.847  1.00  0.00    -0.273 OA
ATOM      5  C   UNL A   1      30.693  26.308  25.822  1.00  0.00     0.240 C 
ATOM      6  H   UNL A   1      31.572  26.064  27.640  1.00  0.00     0.163 HD
BRANCH   5   7
ATOM      7  C   UNL A   1      30.087  24.910  25.972  1.00  0.00     0.230 C 
BRANCH   7   8
ATOM      8  N   UNL A   1      30.895  23.912  25.299  1.00  0.00    -0.252 N 
ATOM      9  C   UNL A   1      30.920  23.718  23.955  1.00  0.00     0.325 C 
ATOM     10  C   UNL A   1      31.824  23.110  25.909  1.00  0.00     0.262 C 
ATOM     11  O   UNL A   1      30.265  24.330  23.123  1.00  0.00    -0.248 OA
ATOM     12  N   UNL A   1      31.793  22.712  23.658  1.00  0.00    -0.318 N 
ATOM     13  C   UNL A   1      32.526  22.238  24.814  1.00  0.00     0.158 C 
ATOM     14  O   UNL A   1      32.074  23.092  27.108  1.00  0.00    -0.271 OA
ATOM     15  H   UNL A   1      31.913  22.346  22.751  1.00  0.00     0.166 HD
BRANCH  13  16
ATOM     16  C   UNL A   1      32.132  20.789  25.038  1.00  0.00     0.030 C 
ATOM     17  C   UNL A   1      32.470  19.640  24.116  1.00  0.00     0.007 C 
ATOM     18  C   UNL A   1      33.071  19.699  25.500  1.00  0.00     0.007 C 
ENDBRANCH  13  16
BRANCH  13  19
ATOM     19  C   UNL A   1      33.953  22.768  24.628  1.00  0.00     0.040 A 
ATOM     20  C   UNL A   1      34.600  23.016  23.418  1.00  0.00     0.018 A 
ATOM     21  S   UNL A   1      35.055  23.018  25.921  1.00  0.00    -0.146 S 
ATOM     22  C   UNL A   1      35.957  23.418  23.566  1.00  0.00     0.012 A 
ATOM     23  C   UNL A   1      36.328  23.471  24.887  1.00  0.00     0.065 A 
ENDBRANCH  13  19
ENDBRANCH   7   8
ENDBRANCH   5   7
ENDBRANCH   2   3
ENDBRANCH   1   2
BRANCH   1  24
ATOM     24  C   UNL A   1      34.142  29.145  25.957  1.00  0.00     0.118 C 
BRANCH  24  25
ATOM     25  N   UNL A   1      33.723  30.414  26.532  1.00  0.00    -0.352 N 
ATOM     26  C   UNL A   1      34.251  31.146  27.568  1.00  0.00     0.251 C 
ATOM     27  H   UNL A   1      32.929  30.814  26.108  1.00  0.00     0.163 HD
ATOM     28  O   UNL A   1      33.634  32.128  27.974  1.00  0.00    -0.269 OA
BRANCH  26  29
ATOM     29  C   UNL A   1      35.533  30.768  28.211  1.00  0.00     0.039 A 
ATOM     30  C   UNL A   1      35.532  29.714  29.131  1.00  0.00     0.014 A 
ATOM     31  C   UNL A   1      36.718  31.470  27.976  1.00  0.00     0.014 A 
ATOM     32  C   UNL A   1      36.715  29.345  29.779  1.00  0.00     0.010 A 
ATOM     33  C   UNL A   1      37.916  31.046  28.557  1.00  0.00     0.010 A 
ATOM     34  C   UNL A   1      37.926  29.993  29.484  1.00  0.00    -0.014 A 
BRANCH  34  35
ATOM     35  C   UNL A   1      39.189  29.600  30.167  1.00  0.00     0.031 A 
ATOM     36  C   UNL A   1      39.622  30.297  31.433  1.00  0.00     0.074 A 
ATOM     37  C   UNL A   1      39.962  28.625  29.645  1.00  0.00     0.049 A 
ATOM     38  N   UNL A   1      40.680  30.079  32.175  1.00  0.00    -0.248 NA
ATOM     39  C   UNL A   1      38.770  31.395  31.918  1.00  0.00     0.031 C 
ATOM     40  C   UNL A   1      39.681  27.896  28.405  1.00  0.00     0.029 A 
ATOM     41  N   UNL A   1      41.138  28.074  30.093  1.00  0.00    -0.354 N 
ATOM     42  C   UNL A   1      40.624  31.015  33.203  1.00  0.00     0.074 A 
ATOM     43  C   UNL A   1      39.464  31.843  32.954  1.00  0.00     0.031 C 
ATOM     44  C   UNL A   1      40.635  26.969  28.215  1.00  0.00     0.029 A 
ATOM     45  C   UNL A   1      41.615  27.062  29.292  1.00  0.00     0.049 A 
ATOM     46  H   UNL A   1      41.596  28.376  30.910  1.00  0.00     0.167 HD
ATOM     47  C   UNL A   1      41.446  31.162  34.270  1.00  0.00     0.031 A 
ATOM     48  C   UNL A   1      42.715  26.292  29.411  1.00  0.00     0.031 A 
ATOM     49  C   UNL A   1      42.598  30.335  34.521  1.00  0.00     0.049 A 
ATOM     50  C   UNL A   1      43.618  26.478  30.600  1.00  0.00     0.074 A 
ATOM     51  C   UNL A   1      43.467  30.375  35.598  1.00  0.00     0.029 A 
ATOM     52  N   UNL A   1      43.045  29.323  33.685  1.00  0.00    -0.354 N 
ATOM     53  N   UNL A   1      43.511  27.329  31.594  1.00  0.00    -0.248 NA
ATOM     54  C   UNL A   1      44.780  25.583  30.695  1.00  0.00     0.031 C 
ATOM     55  C   UNL A   1      44.473  29.426  35.385  1.00  0.00     0.029 A 
ATOM     56  C   UNL A   1      44.189  28.744  34.213  1.00  0.00     0.049 A 
ATOM     57  H   UNL A   1      42.613  29.054  32.842  1.00  0.00     0.167 HD
ATOM     58  C   UNL A   1      44.570  27.043  32.451  1.00  0.00     0.074 A 
ATOM     59  C   UNL A   1      45.294  25.935  31.865  1.00  0.00     0.031 C 
ATOM     60  C   UNL A   1      44.905  27.641  33.623  1.00  0.00     0.031 A 
BRANCH  47  61
ATOM     61  C   UNL A   1      41.133  32.267  35.248  1.00  0.00    -0.014 A 
ATOM     62  C   UNL A   1      41.688  33.552  35.100  1.00  0.00     0.010 A 
ATOM     63  C   UNL A   1      40.239  32.031  36.309  1.00  0.00     0.010 A 
ATOM     64  C   UNL A   1      41.392  34.563  36.017  1.00  0.00     0.020 A 
ATOM     65  C   UNL A   1      39.914  33.050  37.209  1.00  0.00     0.020 A 
ATOM     66  C   UNL A   1      40.508  34.305  37.068  1.00  0.00     0.054 A 
BRANCH  66  67
ATOM     67  S   UNL A   1      40.127  35.643  38.232  1.00  0.00     0.124 S 
ATOM     68  O   UNL A   1      38.995  35.088  38.970  1.00  0.00    -0.237 OA
ATOM     69  O   UNL A   1      41.368  35.770  38.991  1.00  0.00    -0.237 OA
ATOM     70  O   UNL A   1      39.809  36.777  37.368  1.00  0.00    -0.744 OA
ENDBRANCH  66  67
ENDBRANCH  47  61
BRANCH  48  71
ATOM     71  C   UNL A   1      43.010  25.252  28.385  1.00  0.00    -0.014 A 
ATOM     72  C   UNL A   1      42.521  23.940  28.527  1.00  0.00     0.010 A 
ATOM     73  C   UNL A   1      43.786  25.570  27.255  1.00  0.00     0.010 A 
ATOM     74  C   UNL A   1      42.822  22.963  27.575  1.00  0.00     0.020 A 
ATOM     75  C   UNL A   1      44.061  24.603  26.283  1.00  0.00     0.020 A 
ATOM     76  C   UNL A   1      43.589  23.301  26.456  1.00  0.00     0.054 A 
BRANCH  76  77
ATOM     77  S   UNL A   1      43.930  22.026  25.210  1.00  0.00     0.124 S 
ATOM     78  O   UNL A   1      43.766  22.768  23.964  1.00  0.00    -0.237 OA
ATOM     79  O   UNL A   1      45.296  21.627  25.536  1.00  0.00    -0.237 OA
ATOM     80  O   UNL A   1      42.912  21.011  25.472  1.00  0.00    -0.744 OA
ENDBRANCH  76  77
ENDBRANCH  48  71
BRANCH  60  81
ATOM     81  C   UNL A   1      46.074  27.070  34.384  1.00  0.00    -0.014 A 
ATOM     82  C   UNL A   1      47.384  27.551  34.201  1.00  0.00     0.010 A 
ATOM     83  C   UNL A   1      45.849  26.049  35.326  1.00  0.00     0.010 A 
ATOM     84  C   UNL A   1      48.450  26.983  34.905  1.00  0.00     0.020 A 
ATOM     85  C   UNL A   1      46.906  25.503  36.057  1.00  0.00     0.020 A 
ATOM     86  C   UNL A   1      48.204  25.960  35.827  1.00  0.00     0.054 A 
BRANCH  86  87
ATOM     87  S   UNL A   1      49.602  25.248  36.737  1.00  0.00     0.124 S 
ATOM     88  O   UNL A   1      50.599  25.084  35.683  1.00  0.00    -0.237 OA
ATOM     89  O   UNL A   1      49.897  26.281  37.728  1.00  0.00    -0.237 OA
ATOM     90  O   UNL A   1      49.063  24.005  37.284  1.00  0.00    -0.744 OA
ENDBRANCH  86  87
ENDBRANCH  60  81
ENDBRANCH  34  35
ENDBRANCH  26  29
ENDBRANCH  24  25
ENDBRANCH   1  24
TORSDOF 16
ENDMDL
