MODEL 1
REMARK VINA RESULT:     -11.6      0.000      0.000
REMARK SMILES O=C(Cc1cccn1-c1ccccc1F)NCCCNC(=O)c1ccc(-c2c3nc(c(-c4ccc(S(=O)(=O)[O-])cc4)c4ccc([nH]4)c(-c4ccc(S(=O)(=O)[O-])cc4)c4nc(c(-c5ccc(S(=O)(=O)[O-])cc5)c5ccc2[nH]5)C=C4)C=C3)cc1
REMARK SMILES IDX 18 1 17 2 16 3 1 4 2 5 3 7 4 8 5 9 8 10 6 11 7 12 9 13 10 14
REMARK SMILES IDX 14 15 11 16 13 17 15 18 12 19 19 20 20 21 21 22 22 24 23 25
REMARK SMILES IDX 24 26 82 27 25 28 81 29 26 30 27 31 28 32 75 33 29 34 80 35
REMARK SMILES IDX 74 36 76 37 30 38 79 39 73 40 72 41 31 43 61 44 42 45 60 46
REMARK SMILES IDX 43 47 46 48 59 49 77 50 44 51 45 52 58 54 78 55 47 56 32 57
REMARK SMILES IDX 33 58 41 59 34 60 40 61 35 62 36 63 37 64 38 65 39 66 62 67
REMARK SMILES IDX 63 68 71 69 64 70 70 71 65 72 66 73 67 74 68 75 69 76 48 77
REMARK SMILES IDX 49 78 57 79 50 80 56 81 51 82 52 83 53 84 54 85 55 86
REMARK H PARENT 16 6 20 23 76 42 46 53
REMARK Flexibility Score: inf
ROOT
ATOM      1  C   UNL A   1      33.383  28.362  25.582  1.00  0.00     0.042 C 
ENDROOT
BRANCH   1   2
ATOM      2  C   UNL A   1      32.301  27.380  26.040  1.00  0.00     0.117 C 
BRANCH   2   3
ATOM      3  N   UNL A   1      32.786  26.012  26.120  1.00  0.00    -0.356 N 
ATOM      4  O   UNL A   1      30.838  25.078  26.903  1.00  0.00    -0.275 OA
ATOM      5  C   UNL A   1      31.997  24.950  26.517  1.00  0.00     0.225 C 
ATOM      6  H   UNL A   1      33.724  25.834  25.880  1.00  0.00     0.163 HD
BRANCH   5   7
ATOM      7  C   UNL A   1      32.692  23.592  26.422  1.00  0.00     0.154 C 
BRANCH   7   8
ATOM      8  C   UNL A   1      32.595  23.071  25.017  1.00  0.00     0.032 A 
ATOM      9  C   UNL A   1      31.440  22.842  24.283  1.00  0.00     0.024 A 
ATOM     10  N   UNL A   1      33.674  22.818  24.182  1.00  0.00    -0.318 N 
ATOM     11  C   UNL A   1      31.814  22.549  22.957  1.00  0.00     0.020 A 
ATOM     12  C   UNL A   1      33.184  22.606  22.906  1.00  0.00     0.091 A 
BRANCH  10  13
ATOM     13  C   UNL A   1      35.048  22.708  24.491  1.00  0.00     0.081 A 
ATOM     14  C   UNL A   1      35.603  21.434  24.679  1.00  0.00     0.030 A 
ATOM     15  C   UNL A   1      35.798  23.849  24.783  1.00  0.00     0.147 A 
ATOM     16  C   UNL A   1      36.885  21.311  25.207  1.00  0.00     0.002 A 
ATOM     17  C   UNL A   1      37.071  23.725  25.325  1.00  0.00     0.041 A 
ATOM     18  F   UNL A   1      35.280  25.076  24.652  1.00  0.00    -0.205 F 
ATOM     19  C   UNL A   1      37.592  22.456  25.577  1.00  0.00     0.003 A 
ENDBRANCH  10  13
ENDBRANCH   7   8
ENDBRANCH   5   7
ENDBRANCH   2   3
ENDBRANCH   1   2
BRANCH   1  20
ATOM     20  C   UNL A   1      34.504  28.529  26.604  1.00  0.00     0.118 C 
BRANCH  20  21
ATOM     21  N   UNL A   1      34.784  29.914  26.936  1.00  0.00    -0.352 N 
ATOM     22  C   UNL A   1      35.813  30.496  27.646  1.00  0.00     0.251 C 
ATOM     23  H   UNL A   1      34.119  30.553  26.590  1.00  0.00     0.163 HD
ATOM     24  O   UNL A   1      35.692  31.681  27.932  1.00  0.00    -0.269 OA
BRANCH  22  25
ATOM     25  C   UNL A   1      37.047  29.768  28.074  1.00  0.00     0.039 A 
ATOM     26  C   UNL A   1      38.161  29.806  27.214  1.00  0.00     0.014 A 
ATOM     27  C   UNL A   1      37.141  28.994  29.227  1.00  0.00     0.014 A 
ATOM     28  C   UNL A   1      39.338  29.111  27.524  1.00  0.00     0.010 A 
ATOM     29  C   UNL A   1      38.295  28.278  29.527  1.00  0.00     0.010 A 
ATOM     30  C   UNL A   1      39.406  28.351  28.694  1.00  0.00    -0.014 A 
BRANCH  30  31
ATOM     31  C   UNL A   1      40.675  27.743  29.160  1.00  0.00     0.031 A 
ATOM     32  C   UNL A   1      41.054  26.482  28.360  1.00  0.00     0.074 A 
ATOM     33  C   UNL A   1      41.323  28.356  30.196  1.00  0.00     0.049 A 
ATOM     34  N   UNL A   1      41.803  25.481  28.706  1.00  0.00    -0.248 NA
ATOM     35  C   UNL A   1      40.471  26.265  27.005  1.00  0.00     0.031 C 
ATOM     36  C   UNL A   1      40.878  29.613  30.840  1.00  0.00     0.029 A 
ATOM     37  N   UNL A   1      42.467  28.071  30.915  1.00  0.00    -0.354 N 
ATOM     38  C   UNL A   1      41.867  24.592  27.609  1.00  0.00     0.074 A 
ATOM     39  C   UNL A   1      40.993  25.107  26.604  1.00  0.00     0.031 C 
ATOM     40  C   UNL A   1      41.677  29.928  31.884  1.00  0.00     0.029 A 
ATOM     41  C   UNL A   1      42.716  28.926  32.019  1.00  0.00     0.049 A 
ATOM     42  H   UNL A   1      43.066  27.326  30.679  1.00  0.00     0.167 HD
ATOM     43  C   UNL A   1      42.682  23.502  27.554  1.00  0.00     0.031 A 
ATOM     44  C   UNL A   1      43.651  28.808  33.012  1.00  0.00     0.031 A 
ATOM     45  C   UNL A   1      43.387  23.340  28.777  1.00  0.00     0.049 A 
ATOM     46  C   UNL A   1      44.452  27.615  32.686  1.00  0.00     0.074 A 
ATOM     47  C   UNL A   1      43.016  22.905  30.021  1.00  0.00     0.029 A 
ATOM     48  N   UNL A   1      44.611  23.954  28.865  1.00  0.00    -0.354 N 
ATOM     49  N   UNL A   1      45.347  27.535  31.751  1.00  0.00    -0.248 NA
ATOM     50  C   UNL A   1      44.195  26.380  33.440  1.00  0.00     0.031 C 
ATOM     51  C   UNL A   1      43.820  23.664  30.901  1.00  0.00     0.029 A 
ATOM     52  C   UNL A   1      44.714  24.432  30.149  1.00  0.00     0.049 A 
ATOM     53  H   UNL A   1      45.283  24.035  28.149  1.00  0.00     0.167 HD
ATOM     54  C   UNL A   1      45.489  26.179  31.583  1.00  0.00     0.074 A 
ATOM     55  C   UNL A   1      45.023  25.559  32.803  1.00  0.00     0.031 C 
ATOM     56  C   UNL A   1      45.475  25.644  30.340  1.00  0.00     0.031 A 
BRANCH  43  57
ATOM     57  C   UNL A   1      43.066  22.609  26.409  1.00  0.00    -0.014 A 
ATOM     58  C   UNL A   1      42.563  21.284  26.431  1.00  0.00     0.010 A 
ATOM     59  C   UNL A   1      44.122  22.888  25.528  1.00  0.00     0.010 A 
ATOM     60  C   UNL A   1      43.169  20.254  25.712  1.00  0.00     0.020 A 
ATOM     61  C   UNL A   1      44.714  21.862  24.771  1.00  0.00     0.020 A 
ATOM     62  C   UNL A   1      44.268  20.544  24.913  1.00  0.00     0.054 A 
BRANCH  62  63
ATOM     63  S   UNL A   1      45.151  19.162  24.138  1.00  0.00     0.124 S 
ATOM     64  O   UNL A   1      44.799  18.046  25.012  1.00  0.00    -0.237 OA
ATOM     65  O   UNL A   1      44.562  19.118  22.801  1.00  0.00    -0.237 OA
ATOM     66  O   UNL A   1      46.549  19.581  24.180  1.00  0.00    -0.744 OA
ENDBRANCH  62  63
ENDBRANCH  43  57
BRANCH  44  67
ATOM     67  C   UNL A   1      43.938  29.443  34.357  1.00  0.00    -0.014 A 
ATOM     68  C   UNL A   1      45.031  30.258  34.674  1.00  0.00     0.010 A 
ATOM     69  C   UNL A   1      42.957  29.310  35.382  1.00  0.00     0.010 A 
ATOM     70  C   UNL A   1      45.054  31.019  35.867  1.00  0.00     0.020 A 
ATOM     71  C   UNL A   1      42.940  30.092  36.540  1.00  0.00     0.020 A 
ATOM     72  C   UNL A   1      43.981  30.973  36.764  1.00  0.00     0.054 A 
BRANCH  72  73
ATOM     73  S   UNL A   1      43.853  32.152  38.138  1.00  0.00     0.124 S 
ATOM     74  O   UNL A   1      43.529  31.286  39.266  1.00  0.00    -0.237 OA
ATOM     75  O   UNL A   1      45.180  32.762  38.170  1.00  0.00    -0.237 OA
ATOM     76  O   UNL A   1      42.781  33.051  37.709  1.00  0.00    -0.744 OA
ENDBRANCH  72  73
ENDBRANCH  44  67
BRANCH  56  77
ATOM     77  C   UNL A   1      45.882  26.590  29.227  1.00  0.00    -0.014 A 
ATOM     78  C   UNL A   1      47.247  26.777  28.952  1.00  0.00     0.010 A 
ATOM     79  C   UNL A   1      44.950  27.348  28.491  1.00  0.00     0.010 A 
ATOM     80  C   UNL A   1      47.669  27.685  27.971  1.00  0.00     0.020 A 
ATOM     81  C   UNL A   1      45.364  28.258  27.504  1.00  0.00     0.020 A 
ATOM     82  C   UNL A   1      46.726  28.419  27.249  1.00  0.00     0.054 A 
BRANCH  82  83
ATOM     83  S   UNL A   1      47.310  29.592  25.990  1.00  0.00     0.124 S 
ATOM     84  O   UNL A   1      48.393  30.290  26.678  1.00  0.00    -0.237 OA
ATOM     85  O   UNL A   1      47.726  28.707  24.905  1.00  0.00    -0.237 OA
ATOM     86  O   UNL A   1      46.133  30.412  25.703  1.00  0.00    -0.744 OA
ENDBRANCH  82  83
ENDBRANCH  56  77
ENDBRANCH  30  31
ENDBRANCH  22  25
ENDBRANCH  20  21
ENDBRANCH   1  20
TORSDOF 15
ENDMDL
MODEL 2
REMARK VINA RESULT:     -11.4      1.539      2.167
REMARK SMILES O=C(Cc1cccn1-c1ccccc1F)NCCCNC(=O)c1ccc(-c2c3nc(c(-c4ccc(S(=O)(=O)[O-])cc4)c4ccc([nH]4)c(-c4ccc(S(=O)(=O)[O-])cc4)c4nc(c(-c5ccc(S(=O)(=O)[O-])cc5)c5ccc2[nH]5)C=C4)C=C3)cc1
REMARK SMILES IDX 18 1 17 2 16 3 1 4 2 5 3 7 4 8 5 9 8 10 6 11 7 12 9 13 10 14
REMARK SMILES IDX 14 15 11 16 13 17 15 18 12 19 19 20 20 21 21 22 22 24 23 25
REMARK SMILES IDX 24 26 82 27 25 28 81 29 26 30 27 31 28 32 75 33 29 34 80 35
REMARK SMILES IDX 74 36 76 37 30 38 79 39 73 40 72 41 31 43 61 44 42 45 60 46
REMARK SMILES IDX 43 47 46 48 59 49 77 50 44 51 45 52 58 54 78 55 47 56 32 57
REMARK SMILES IDX 33 58 41 59 34 60 40 61 35 62 36 63 37 64 38 65 39 66 62 67
REMARK SMILES IDX 63 68 71 69 64 70 70 71 65 72 66 73 67 74 68 75 69 76 48 77
REMARK SMILES IDX 49 78 57 79 50 80 56 81 51 82 52 83 53 84 54 85 55 86
REMARK H PARENT 16 6 20 23 76 42 46 53
REMARK Flexibility Score: inf
ROOT
ATOM      1  C   UNL A   1      33.618  28.619  25.913  1.00  0.00     0.042 C 
ENDROOT
BRANCH   1   2
ATOM      2  C   UNL A   1      32.135  28.546  26.292  1.00  0.00     0.117 C 
BRANCH   2   3
ATOM      3  N   UNL A   1      31.419  27.522  25.550  1.00  0.00    -0.356 N 
ATOM      4  O   UNL A   1      30.741  28.867  23.815  1.00  0.00    -0.275 OA
ATOM      5  C   UNL A   1      30.800  27.758  24.338  1.00  0.00     0.225 C 
ATOM      6  H   UNL A   1      31.373  26.615  25.930  1.00  0.00     0.163 HD
BRANCH   5   7
ATOM      7  C   UNL A   1      30.202  26.508  23.694  1.00  0.00     0.154 C 
BRANCH   7   8
ATOM      8  C   UNL A   1      31.235  25.835  22.836  1.00  0.00     0.032 A 
ATOM      9  C   UNL A   1      31.550  26.124  21.517  1.00  0.00     0.024 A 
ATOM     10  N   UNL A   1      32.122  24.860  23.270  1.00  0.00    -0.318 N 
ATOM     11  C   UNL A   1      32.704  25.396  21.170  1.00  0.00     0.020 A 
ATOM     12  C   UNL A   1      33.073  24.680  22.282  1.00  0.00     0.091 A 
BRANCH  10  13
ATOM     13  C   UNL A   1      32.105  24.085  24.451  1.00  0.00     0.081 A 
ATOM     14  C   UNL A   1      31.100  23.121  24.618  1.00  0.00     0.030 A 
ATOM     15  C   UNL A   1      32.959  24.396  25.510  1.00  0.00     0.147 A 
ATOM     16  C   UNL A   1      30.925  22.514  25.858  1.00  0.00     0.002 A 
ATOM     17  C   UNL A   1      32.773  23.802  26.753  1.00  0.00     0.041 A 
ATOM     18  F   UNL A   1      33.900  25.341  25.392  1.00  0.00    -0.205 F 
ATOM     19  C   UNL A   1      31.728  22.896  26.933  1.00  0.00     0.003 A 
ENDBRANCH  10  13
ENDBRANCH   7   8
ENDBRANCH   5   7
ENDBRANCH   2   3
ENDBRANCH   1   2
BRANCH   1  20
ATOM     20  C   UNL A   1      34.530  28.816  27.120  1.00  0.00     0.118 C 
BRANCH  20  21
ATOM     21  N   UNL A   1      34.933  30.196  27.323  1.00  0.00    -0.352 N 
ATOM     22  C   UNL A   1      36.048  30.747  27.918  1.00  0.00     0.251 C 
ATOM     23  H   UNL A   1      34.294  30.858  26.970  1.00  0.00     0.163 HD
ATOM     24  O   UNL A   1      36.034  31.956  28.116  1.00  0.00    -0.269 OA
BRANCH  22  25
ATOM     25  C   UNL A   1      37.252  29.959  28.323  1.00  0.00     0.039 A 
ATOM     26  C   UNL A   1      38.365  29.971  27.461  1.00  0.00     0.014 A 
ATOM     27  C   UNL A   1      37.317  29.153  29.458  1.00  0.00     0.014 A 
ATOM     28  C   UNL A   1      39.512  29.221  27.750  1.00  0.00     0.010 A 
ATOM     29  C   UNL A   1      38.441  28.384  29.735  1.00  0.00     0.010 A 
ATOM     30  C   UNL A   1      39.552  28.430  28.900  1.00  0.00    -0.014 A 
BRANCH  30  31
ATOM     31  C   UNL A   1      40.796  27.760  29.347  1.00  0.00     0.031 A 
ATOM     32  C   UNL A   1      41.124  26.509  28.511  1.00  0.00     0.074 A 
ATOM     33  C   UNL A   1      41.468  28.316  30.399  1.00  0.00     0.049 A 
ATOM     34  N   UNL A   1      41.833  25.469  28.826  1.00  0.00    -0.248 NA
ATOM     35  C   UNL A   1      40.532  26.354  27.151  1.00  0.00     0.031 C 
ATOM     36  C   UNL A   1      41.074  29.571  31.080  1.00  0.00     0.029 A 
ATOM     37  N   UNL A   1      42.600  27.966  31.108  1.00  0.00    -0.354 N 
ATOM     38  C   UNL A   1      41.861  24.610  27.704  1.00  0.00     0.074 A 
ATOM     39  C   UNL A   1      41.008  25.188  26.716  1.00  0.00     0.031 C 
ATOM     40  C   UNL A   1      41.885  29.825  32.131  1.00  0.00     0.029 A 
ATOM     41  C   UNL A   1      42.884  28.779  32.236  1.00  0.00     0.049 A 
ATOM     42  H   UNL A   1      43.169  27.205  30.850  1.00  0.00     0.167 HD
ATOM     43  C   UNL A   1      42.633  23.491  27.618  1.00  0.00     0.031 A 
ATOM     44  C   UNL A   1      43.813  28.595  33.223  1.00  0.00     0.031 A 
ATOM     45  C   UNL A   1      43.331  23.265  28.835  1.00  0.00     0.049 A 
ATOM     46  C   UNL A   1      44.566  27.381  32.862  1.00  0.00     0.074 A 
ATOM     47  C   UNL A   1      42.944  22.810  30.066  1.00  0.00     0.029 A 
ATOM     48  N   UNL A   1      44.579  23.827  28.938  1.00  0.00    -0.354 N 
ATOM     49  N   UNL A   1      45.457  27.293  31.924  1.00  0.00    -0.248 NA
ATOM     50  C   UNL A   1      44.261  26.136  33.581  1.00  0.00     0.031 C 
ATOM     51  C   UNL A   1      43.777  23.511  30.965  1.00  0.00     0.029 A 
ATOM     52  C   UNL A   1      44.701  24.264  30.234  1.00  0.00     0.049 A 
ATOM     53  H   UNL A   1      45.253  23.902  28.223  1.00  0.00     0.167 HD
ATOM     54  C   UNL A   1      45.545  25.938  31.718  1.00  0.00     0.074 A 
ATOM     55  C   UNL A   1      45.055  25.301  32.920  1.00  0.00     0.031 C 
ATOM     56  C   UNL A   1      45.509  25.439  30.459  1.00  0.00     0.031 A 
BRANCH  43  57
ATOM     57  C   UNL A   1      42.980  22.616  26.447  1.00  0.00    -0.014 A 
ATOM     58  C   UNL A   1      42.579  21.258  26.517  1.00  0.00     0.010 A 
ATOM     59  C   UNL A   1      43.933  22.961  25.476  1.00  0.00     0.010 A 
ATOM     60  C   UNL A   1      43.194  20.268  25.752  1.00  0.00     0.020 A 
ATOM     61  C   UNL A   1      44.531  21.973  24.675  1.00  0.00     0.020 A 
ATOM     62  C   UNL A   1      44.196  20.628  24.860  1.00  0.00     0.054 A 
BRANCH  62  63
ATOM     63  S   UNL A   1      45.107  19.306  24.016  1.00  0.00     0.124 S 
ATOM     64  O   UNL A   1      44.687  18.122  24.761  1.00  0.00    -0.237 OA
ATOM     65  O   UNL A   1      44.600  19.394  22.648  1.00  0.00    -0.237 OA
ATOM     66  O   UNL A   1      46.505  19.693  24.180  1.00  0.00    -0.744 OA
ENDBRANCH  62  63
ENDBRANCH  43  57
BRANCH  44  67
ATOM     67  C   UNL A   1      44.126  29.179  34.586  1.00  0.00    -0.014 A 
ATOM     68  C   UNL A   1      43.320  29.100  35.727  1.00  0.00     0.010 A 
ATOM     69  C   UNL A   1      45.408  29.770  34.781  1.00  0.00     0.010 A 
ATOM     70  C   UNL A   1      43.829  29.434  37.006  1.00  0.00     0.020 A 
ATOM     71  C   UNL A   1      45.942  30.055  36.041  1.00  0.00     0.020 A 
ATOM     72  C   UNL A   1      45.155  29.854  37.159  1.00  0.00     0.054 A 
BRANCH  72  73
ATOM     73  S   UNL A   1      45.911  29.999  38.803  1.00  0.00     0.124 S 
ATOM     74  O   UNL A   1      46.760  31.176  38.655  1.00  0.00    -0.237 OA
ATOM     75  O   UNL A   1      44.755  30.159  39.682  1.00  0.00    -0.237 OA
ATOM     76  O   UNL A   1      46.621  28.730  38.958  1.00  0.00    -0.744 OA
ENDBRANCH  72  73
ENDBRANCH  44  67
BRANCH  56  77
ATOM     77  C   UNL A   1      45.954  26.399  29.373  1.00  0.00    -0.014 A 
ATOM     78  C   UNL A   1      44.984  27.036  28.581  1.00  0.00     0.010 A 
ATOM     79  C   UNL A   1      47.310  26.636  29.073  1.00  0.00     0.010 A 
ATOM     80  C   UNL A   1      45.353  27.886  27.531  1.00  0.00     0.020 A 
ATOM     81  C   UNL A   1      47.690  27.489  28.024  1.00  0.00     0.020 A 
ATOM     82  C   UNL A   1      46.703  28.112  27.258  1.00  0.00     0.054 A 
BRANCH  82  83
ATOM     83  S   UNL A   1      47.145  29.215  25.883  1.00  0.00     0.124 S 
ATOM     84  O   UNL A   1      48.485  29.665  26.249  1.00  0.00    -0.237 OA
ATOM     85  O   UNL A   1      47.078  28.322  24.730  1.00  0.00    -0.237 OA
ATOM     86  O   UNL A   1      46.115  30.253  25.922  1.00  0.00    -0.744 OA
ENDBRANCH  82  83
ENDBRANCH  56  77
ENDBRANCH  30  31
ENDBRANCH  22  25
ENDBRANCH  20  21
ENDBRANCH   1  20
TORSDOF 15
ENDMDL
MODEL 3
REMARK VINA RESULT:     -11.4      4.076     10.197
REMARK SMILES O=C(Cc1cccn1-c1ccccc1F)NCCCNC(=O)c1ccc(-c2c3nc(c(-c4ccc(S(=O)(=O)[O-])cc4)c4ccc([nH]4)c(-c4ccc(S(=O)(=O)[O-])cc4)c4nc(c(-c5ccc(S(=O)(=O)[O-])cc5)c5ccc2[nH]5)C=C4)C=C3)cc1
REMARK SMILES IDX 18 1 17 2 16 3 1 4 2 5 3 7 4 8 5 9 8 10 6 11 7 12 9 13 10 14
REMARK SMILES IDX 14 15 11 16 13 17 15 18 12 19 19 20 20 21 21 22 22 24 23 25
REMARK SMILES IDX 24 26 82 27 25 28 81 29 26 30 27 31 28 32 75 33 29 34 80 35
REMARK SMILES IDX 74 36 76 37 30 38 79 39 73 40 72 41 31 43 61 44 42 45 60 46
REMARK SMILES IDX 43 47 46 48 59 49 77 50 44 51 45 52 58 54 78 55 47 56 32 57
REMARK SMILES IDX 33 58 41 59 34 60 40 61 35 62 36 63 37 64 38 65 39 66 62 67
REMARK SMILES IDX 63 68 71 69 64 70 70 71 65 72 66 73 67 74 68 75 69 76 48 77
REMARK SMILES IDX 49 78 57 79 50 80 56 81 51 82 52 83 53 84 54 85 55 86
REMARK H PARENT 16 6 20 23 76 42 46 53
REMARK Flexibility Score: inf
ROOT
ATOM      1  C   UNL A   1      35.946  23.052  25.558  1.00  0.00     0.042 C 
ENDROOT
BRANCH   1   2
ATOM      2  C   UNL A   1      35.330  23.430  24.208  1.00  0.00     0.117 C 
BRANCH   2   3
ATOM      3  N   UNL A   1      34.741  24.759  24.216  1.00  0.00    -0.356 N 
ATOM      4  O   UNL A   1      33.704  24.608  22.171  1.00  0.00    -0.275 OA
ATOM      5  C   UNL A   1      33.936  25.236  23.200  1.00  0.00     0.225 C 
ATOM      6  H   UNL A   1      34.923  25.347  24.984  1.00  0.00     0.163 HD
BRANCH   5   7
ATOM      7  C   UNL A   1      33.344  26.618  23.476  1.00  0.00     0.154 C 
BRANCH   7   8
ATOM      8  C   UNL A   1      32.157  26.489  24.387  1.00  0.00     0.032 A 
ATOM      9  C   UNL A   1      31.112  25.583  24.283  1.00  0.00     0.024 A 
ATOM     10  N   UNL A   1      31.965  27.211  25.556  1.00  0.00    -0.318 N 
ATOM     11  C   UNL A   1      30.329  25.679  25.450  1.00  0.00     0.020 A 
ATOM     12  C   UNL A   1      30.911  26.637  26.243  1.00  0.00     0.091 A 
BRANCH  10  13
ATOM     13  C   UNL A   1      32.622  28.374  26.017  1.00  0.00     0.081 A 
ATOM     14  C   UNL A   1      33.775  28.236  26.805  1.00  0.00     0.030 A 
ATOM     15  C   UNL A   1      32.036  29.629  25.847  1.00  0.00     0.147 A 
ATOM     16  C   UNL A   1      34.301  29.347  27.457  1.00  0.00     0.002 A 
ATOM     17  C   UNL A   1      32.553  30.735  26.512  1.00  0.00     0.041 A 
ATOM     18  F   UNL A   1      30.914  29.784  25.134  1.00  0.00    -0.205 F 
ATOM     19  C   UNL A   1      33.656  30.579  27.350  1.00  0.00     0.003 A 
ENDBRANCH  10  13
ENDBRANCH   7   8
ENDBRANCH   5   7
ENDBRANCH   2   3
ENDBRANCH   1   2
BRANCH   1  20
ATOM     20  C   UNL A   1      37.085  23.981  25.972  1.00  0.00     0.118 C 
BRANCH  20  21
ATOM     21  N   UNL A   1      38.259  23.278  26.455  1.00  0.00    -0.352 N 
ATOM     22  C   UNL A   1      39.434  23.735  27.016  1.00  0.00     0.251 C 
ATOM     23  H   UNL A   1      38.208  22.299  26.367  1.00  0.00     0.163 HD
ATOM     24  O   UNL A   1      40.337  22.919  27.159  1.00  0.00    -0.269 OA
BRANCH  22  25
ATOM     25  C   UNL A   1      39.654  25.146  27.457  1.00  0.00     0.039 A 
ATOM     26  C   UNL A   1      39.339  25.476  28.788  1.00  0.00     0.014 A 
ATOM     27  C   UNL A   1      40.078  26.172  26.615  1.00  0.00     0.014 A 
ATOM     28  C   UNL A   1      39.475  26.787  29.261  1.00  0.00     0.010 A 
ATOM     29  C   UNL A   1      40.188  27.482  27.070  1.00  0.00     0.010 A 
ATOM     30  C   UNL A   1      39.913  27.794  28.397  1.00  0.00    -0.014 A 
BRANCH  30  31
ATOM     31  C   UNL A   1      40.244  29.154  28.883  1.00  0.00     0.031 A 
ATOM     32  C   UNL A   1      38.989  29.983  29.216  1.00  0.00     0.074 A 
ATOM     33  C   UNL A   1      41.567  29.485  28.973  1.00  0.00     0.049 A 
ATOM     34  N   UNL A   1      38.838  31.271  29.253  1.00  0.00    -0.248 NA
ATOM     35  C   UNL A   1      37.697  29.290  29.487  1.00  0.00     0.031 C 
ATOM     36  C   UNL A   1      42.687  28.561  28.679  1.00  0.00     0.029 A 
ATOM     37  N   UNL A   1      42.247  30.634  29.325  1.00  0.00    -0.354 N 
ATOM     38  C   UNL A   1      37.506  31.538  29.642  1.00  0.00     0.074 A 
ATOM     39  C   UNL A   1      36.838  30.279  29.732  1.00  0.00     0.031 C 
ATOM     40  C   UNL A   1      43.875  29.197  28.781  1.00  0.00     0.029 A 
ATOM     41  C   UNL A   1      43.655  30.580  29.157  1.00  0.00     0.049 A 
ATOM     42  H   UNL A   1      41.787  31.434  29.668  1.00  0.00     0.167 HD
ATOM     43  C   UNL A   1      37.028  32.780  29.930  1.00  0.00     0.031 A 
ATOM     44  C   UNL A   1      44.576  31.588  29.249  1.00  0.00     0.031 A 
ATOM     45  C   UNL A   1      38.024  33.768  29.702  1.00  0.00     0.049 A 
ATOM     46  C   UNL A   1      43.832  32.795  29.648  1.00  0.00     0.074 A 
ATOM     47  C   UNL A   1      38.554  34.319  28.567  1.00  0.00     0.029 A 
ATOM     48  N   UNL A   1      38.823  34.089  30.771  1.00  0.00    -0.354 N 
ATOM     49  N   UNL A   1      43.361  33.037  30.832  1.00  0.00    -0.248 NA
ATOM     50  C   UNL A   1      43.543  33.803  28.619  1.00  0.00     0.031 C 
ATOM     51  C   UNL A   1      39.899  34.580  28.912  1.00  0.00     0.029 A 
ATOM     52  C   UNL A   1      40.085  34.284  30.266  1.00  0.00     0.049 A 
ATOM     53  H   UNL A   1      38.545  34.165  31.713  1.00  0.00     0.167 HD
ATOM     54  C   UNL A   1      42.439  34.027  30.592  1.00  0.00     0.074 A 
ATOM     55  C   UNL A   1      42.810  34.646  29.339  1.00  0.00     0.031 C 
ATOM     56  C   UNL A   1      41.196  33.941  31.122  1.00  0.00     0.031 A 
BRANCH  43  57
ATOM     57  C   UNL A   1      35.750  33.223  30.585  1.00  0.00    -0.014 A 
ATOM     58  C   UNL A   1      34.780  33.835  29.753  1.00  0.00     0.010 A 
ATOM     59  C   UNL A   1      35.599  33.366  31.973  1.00  0.00     0.010 A 
ATOM     60  C   UNL A   1      33.785  34.665  30.270  1.00  0.00     0.020 A 
ATOM     61  C   UNL A   1      34.576  34.172  32.503  1.00  0.00     0.020 A 
ATOM     62  C   UNL A   1      33.713  34.858  31.644  1.00  0.00     0.054 A 
BRANCH  62  63
ATOM     63  S   UNL A   1      32.534  36.084  32.274  1.00  0.00     0.124 S 
ATOM     64  O   UNL A   1      32.243  36.871  31.079  1.00  0.00    -0.237 OA
ATOM     65  O   UNL A   1      31.435  35.249  32.756  1.00  0.00    -0.237 OA
ATOM     66  O   UNL A   1      33.284  36.775  33.319  1.00  0.00    -0.744 OA
ENDBRANCH  62  63
ENDBRANCH  43  57
BRANCH  44  67
ATOM     67  C   UNL A   1      46.035  31.803  28.898  1.00  0.00    -0.014 A 
ATOM     68  C   UNL A   1      47.101  31.892  29.800  1.00  0.00     0.010 A 
ATOM     69  C   UNL A   1      46.398  31.801  27.520  1.00  0.00     0.010 A 
ATOM     70  C   UNL A   1      48.443  31.812  29.355  1.00  0.00     0.020 A 
ATOM     71  C   UNL A   1      47.714  31.671  27.069  1.00  0.00     0.020 A 
ATOM     72  C   UNL A   1      48.737  31.646  27.998  1.00  0.00     0.054 A 
BRANCH  72  73
ATOM     73  S   UNL A   1      50.418  31.246  27.442  1.00  0.00     0.124 S 
ATOM     74  O   UNL A   1      50.189  30.143  26.517  1.00  0.00    -0.237 OA
ATOM     75  O   UNL A   1      50.868  32.498  26.836  1.00  0.00    -0.237 OA
ATOM     76  O   UNL A   1      51.106  30.891  28.684  1.00  0.00    -0.744 OA
ENDBRANCH  72  73
ENDBRANCH  44  67
BRANCH  56  77
ATOM     77  C   UNL A   1      41.088  33.096  32.376  1.00  0.00    -0.014 A 
ATOM     78  C   UNL A   1      40.701  31.750  32.265  1.00  0.00     0.010 A 
ATOM     79  C   UNL A   1      41.296  33.619  33.668  1.00  0.00     0.010 A 
ATOM     80  C   UNL A   1      40.533  30.950  33.403  1.00  0.00     0.020 A 
ATOM     81  C   UNL A   1      41.134  32.823  34.814  1.00  0.00     0.020 A 
ATOM     82  C   UNL A   1      40.753  31.488  34.672  1.00  0.00     0.054 A 
BRANCH  82  83
ATOM     83  S   UNL A   1      40.520  30.423  36.126  1.00  0.00     0.124 S 
ATOM     84  O   UNL A   1      41.655  30.780  36.973  1.00  0.00    -0.237 OA
ATOM     85  O   UNL A   1      39.213  30.847  36.620  1.00  0.00    -0.237 OA
ATOM     86  O   UNL A   1      40.566  29.067  35.577  1.00  0.00    -0.744 OA
ENDBRANCH  82  83
ENDBRANCH  56  77
ENDBRANCH  30  31
ENDBRANCH  22  25
ENDBRANCH  20  21
ENDBRANCH   1  20
TORSDOF 15
ENDMDL
