MODEL 1
REMARK VINA RESULT:     -12.8      0.000      0.000
REMARK SMILES O=C(C[C@@H](C(=O)NCCCNC(=O)c1ccc(-c2c3nc(c(-c4ccc(S(=O)(=O)[O-])cc4)c4ccc([nH]4)c(-c4ccc(S(=O)(=O)[O-])cc4)c4nc(c(-c5ccc(S(=O)(=O)[O-])cc5)c5ccc2[nH]5)C=C4)C=C3)cc1)[NH+]1CCN(c2cccc(Cl)c2)CC1)c1ccc(F)cc1
REMARK SMILES IDX 9 1 8 2 7 3 5 4 6 5 4 7 3 8 2 9 1 10 87 11 88 12 93 13 89 14
REMARK SMILES IDX 92 15 90 16 91 17 74 18 75 19 86 20 76 22 85 23 77 24 78 25
REMARK SMILES IDX 79 26 84 27 80 28 82 29 81 30 83 31 10 32 11 33 12 34 13 36
REMARK SMILES IDX 14 37 15 38 73 39 16 40 72 41 17 42 18 43 19 44 66 45 20 46
REMARK SMILES IDX 71 47 65 48 67 49 21 50 70 51 64 52 63 53 22 55 52 56 33 57
REMARK SMILES IDX 51 58 34 59 37 60 50 61 68 62 35 63 36 64 49 66 69 67 38 68
REMARK SMILES IDX 23 69 24 70 32 71 25 72 31 73 26 74 27 75 28 76 29 77 30 78
REMARK SMILES IDX 53 79 54 80 62 81 55 82 61 83 56 84 57 85 58 86 59 87 60 88
REMARK SMILES IDX 39 89 40 90 48 91 41 92 47 93 42 94 43 95 44 96 45 97 46 98
REMARK H PARENT 7 6 74 21 11 35 67 54 37 65
REMARK Flexibility Score: inf
ROOT
ATOM      1  C   UNL A   1      38.695  22.498  26.164  1.00  0.00     0.042 C 
ENDROOT
BRANCH   1   2
ATOM      2  C   UNL A   1      37.259  22.517  25.619  1.00  0.00     0.118 C 
BRANCH   2   3
ATOM      3  N   UNL A   1      36.202  22.832  26.571  1.00  0.00    -0.351 N 
ATOM      4  C   UNL A   1      34.847  22.662  26.544  1.00  0.00     0.278 C 
ATOM      5  O   UNL A   1      34.279  22.745  27.642  1.00  0.00    -0.268 OA
ATOM      6  H   UNL A   1      36.530  23.251  27.399  1.00  0.00     0.163 HD
BRANCH   4   7
ATOM      7  C   UNL A   1      34.043  22.481  25.220  1.00  0.00     0.282 C 
BRANCH   7   8
ATOM      8  C   UNL A   1      34.369  21.141  24.541  1.00  0.00     0.156 C 
BRANCH   8   9
ATOM      9  C   UNL A   1      33.229  20.189  24.310  1.00  0.00     0.169 C 
ATOM     10  O   UNL A   1      32.201  20.580  23.761  1.00  0.00    -0.294 OA
BRANCH   9  11
ATOM     11  C   UNL A   1      33.368  18.750  24.697  1.00  0.00     0.018 A 
ATOM     12  C   UNL A   1      32.662  18.177  25.765  1.00  0.00     0.015 A 
ATOM     13  C   UNL A   1      34.196  17.936  23.917  1.00  0.00     0.015 A 
ATOM     14  C   UNL A   1      32.683  16.797  25.972  1.00  0.00     0.040 A 
ATOM     15  C   UNL A   1      34.267  16.565  24.170  1.00  0.00     0.040 A 
ATOM     16  C   UNL A   1      33.478  16.001  25.165  1.00  0.00     0.123 A 
ATOM     17  F   UNL A   1      33.476  14.675  25.339  1.00  0.00    -0.207 F 
ENDBRANCH   9  11
ENDBRANCH   8   9
ENDBRANCH   7   8
BRANCH   7  18
ATOM     18  N   UNL A   1      34.337  23.673  24.359  1.00  0.00    -0.321 N 
ATOM     19  C   UNL A   1      33.689  23.742  23.027  1.00  0.00     0.284 C 
ATOM     20  C   UNL A   1      34.212  24.981  25.024  1.00  0.00     0.284 C 
ATOM     21  H   UNL A   1      35.324  23.482  24.185  1.00  0.00     0.348 HD
ATOM     22  C   UNL A   1      32.240  24.312  22.996  1.00  0.00     0.178 C 
ATOM     23  C   UNL A   1      32.775  25.544  25.104  1.00  0.00     0.178 C 
ATOM     24  N   UNL A   1      32.154  25.554  23.773  1.00  0.00    -0.360 N 
BRANCH  24  25
ATOM     25  C   UNL A   1      31.013  26.331  23.615  1.00  0.00     0.038 A 
ATOM     26  C   UNL A   1      29.750  25.932  24.067  1.00  0.00     0.026 A 
ATOM     27  C   UNL A   1      31.124  27.557  22.949  1.00  0.00     0.046 A 
ATOM     28  C   UNL A   1      28.619  26.721  23.832  1.00  0.00     0.004 A 
ATOM     29  C   UNL A   1      29.995  28.338  22.702  1.00  0.00     0.043 A 
ATOM     30  C   UNL A   1      28.740  27.924  23.138  1.00  0.00     0.020 A 
ATOM     31  Cl  UNL A   1      30.154  29.815  21.832  1.00  0.00    -0.084 Cl
ENDBRANCH  24  25
ENDBRANCH   7  18
ENDBRANCH   4   7
ENDBRANCH   2   3
ENDBRANCH   1   2
BRANCH   1  32
ATOM     32  C   UNL A   1      39.278  23.799  26.729  1.00  0.00     0.118 C 
BRANCH  32  33
ATOM     33  N   UNL A   1      40.239  24.436  25.844  1.00  0.00    -0.352 N 
ATOM     34  C   UNL A   1      40.914  25.626  26.003  1.00  0.00     0.251 C 
ATOM     35  H   UNL A   1      40.436  23.947  25.013  1.00  0.00     0.163 HD
ATOM     36  O   UNL A   1      41.612  26.050  25.081  1.00  0.00    -0.269 OA
BRANCH  34  37
ATOM     37  C   UNL A   1      40.802  26.426  27.250  1.00  0.00     0.039 A 
ATOM     38  C   UNL A   1      41.703  27.476  27.460  1.00  0.00     0.014 A 
ATOM     39  C   UNL A   1      39.888  26.098  28.254  1.00  0.00     0.014 A 
ATOM     40  C   UNL A   1      41.639  28.239  28.636  1.00  0.00     0.010 A 
ATOM     41  C   UNL A   1      39.818  26.876  29.424  1.00  0.00     0.010 A 
ATOM     42  C   UNL A   1      40.673  27.972  29.622  1.00  0.00    -0.014 A 
BRANCH  42  43
ATOM     43  C   UNL A   1      40.517  28.871  30.808  1.00  0.00     0.031 A 
ATOM     44  C   UNL A   1      39.477  29.965  30.848  1.00  0.00     0.074 A 
ATOM     45  C   UNL A   1      41.347  28.732  31.864  1.00  0.00     0.049 A 
ATOM     46  N   UNL A   1      39.230  30.830  31.804  1.00  0.00    -0.248 NA
ATOM     47  C   UNL A   1      38.613  30.114  29.669  1.00  0.00     0.031 C 
ATOM     48  C   UNL A   1      42.421  27.742  31.969  1.00  0.00     0.029 A 
ATOM     49  N   UNL A   1      41.421  29.425  33.051  1.00  0.00    -0.354 N 
ATOM     50  C   UNL A   1      38.186  31.626  31.344  1.00  0.00     0.074 A 
ATOM     51  C   UNL A   1      37.871  31.162  30.007  1.00  0.00     0.031 C 
ATOM     52  C   UNL A   1      43.027  27.875  33.160  1.00  0.00     0.029 A 
ATOM     53  C   UNL A   1      42.417  28.983  33.891  1.00  0.00     0.049 A 
ATOM     54  H   UNL A   1      40.815  30.167  33.278  1.00  0.00     0.167 HD
ATOM     55  C   UNL A   1      37.537  32.638  31.972  1.00  0.00     0.031 A 
ATOM     56  C   UNL A   1      42.814  29.417  35.104  1.00  0.00     0.031 A 
ATOM     57  C   UNL A   1      37.833  33.111  33.302  1.00  0.00     0.049 A 
ATOM     58  C   UNL A   1      42.114  30.575  35.759  1.00  0.00     0.074 A 
ATOM     59  C   UNL A   1      37.174  34.088  34.032  1.00  0.00     0.029 A 
ATOM     60  N   UNL A   1      38.874  32.661  34.097  1.00  0.00    -0.354 N 
ATOM     61  N   UNL A   1      41.083  31.262  35.331  1.00  0.00    -0.248 NA
ATOM     62  C   UNL A   1      42.632  31.018  37.063  1.00  0.00     0.031 C 
ATOM     63  C   UNL A   1      37.849  34.267  35.244  1.00  0.00     0.029 A 
ATOM     64  C   UNL A   1      38.900  33.367  35.290  1.00  0.00     0.049 A 
ATOM     65  H   UNL A   1      39.503  31.945  33.850  1.00  0.00     0.167 HD
ATOM     66  C   UNL A   1      40.825  32.210  36.316  1.00  0.00     0.074 A 
ATOM     67  C   UNL A   1      41.792  31.997  37.372  1.00  0.00     0.031 C 
ATOM     68  C   UNL A   1      39.871  33.172  36.337  1.00  0.00     0.031 A 
BRANCH  55  69
ATOM     69  C   UNL A   1      36.422  33.324  31.227  1.00  0.00    -0.014 A 
ATOM     70  C   UNL A   1      35.173  33.542  31.835  1.00  0.00     0.010 A 
ATOM     71  C   UNL A   1      36.651  33.830  29.933  1.00  0.00     0.010 A 
ATOM     72  C   UNL A   1      34.161  34.221  31.151  1.00  0.00     0.020 A 
ATOM     73  C   UNL A   1      35.649  34.530  29.254  1.00  0.00     0.020 A 
ATOM     74  C   UNL A   1      34.404  34.707  29.862  1.00  0.00     0.054 A 
BRANCH  74  75
ATOM     75  S   UNL A   1      33.082  35.609  29.007  1.00  0.00     0.124 S 
ATOM     76  O   UNL A   1      33.836  36.624  28.276  1.00  0.00    -0.237 OA
ATOM     77  O   UNL A   1      32.466  34.572  28.183  1.00  0.00    -0.237 OA
ATOM     78  O   UNL A   1      32.247  36.115  30.093  1.00  0.00    -0.744 OA
ENDBRANCH  74  75
ENDBRANCH  55  69
BRANCH  56  79
ATOM     79  C   UNL A   1      43.961  28.757  35.786  1.00  0.00    -0.014 A 
ATOM     80  C   UNL A   1      43.748  27.678  36.662  1.00  0.00     0.010 A 
ATOM     81  C   UNL A   1      45.273  29.210  35.562  1.00  0.00     0.010 A 
ATOM     82  C   UNL A   1      44.827  27.072  37.311  1.00  0.00     0.020 A 
ATOM     83  C   UNL A   1      46.357  28.591  36.189  1.00  0.00     0.020 A 
ATOM     84  C   UNL A   1      46.125  27.532  37.070  1.00  0.00     0.054 A 
BRANCH  84  85
ATOM     85  S   UNL A   1      47.517  26.697  37.882  1.00  0.00     0.124 S 
ATOM     86  O   UNL A   1      47.009  25.342  38.040  1.00  0.00    -0.237 OA
ATOM     87  O   UNL A   1      48.597  26.863  36.909  1.00  0.00    -0.237 OA
ATOM     88  O   UNL A   1      47.689  27.455  39.122  1.00  0.00    -0.744 OA
ENDBRANCH  84  85
ENDBRANCH  56  79
BRANCH  68  89
ATOM     89  C   UNL A   1      39.816  34.077  37.539  1.00  0.00    -0.014 A 
ATOM     90  C   UNL A   1      40.427  35.344  37.516  1.00  0.00     0.010 A 
ATOM     91  C   UNL A   1      39.099  33.685  38.684  1.00  0.00     0.010 A 
ATOM     92  C   UNL A   1      40.338  36.193  38.622  1.00  0.00     0.020 A 
ATOM     93  C   UNL A   1      38.990  34.541  39.785  1.00  0.00     0.020 A 
ATOM     94  C   UNL A   1      39.618  35.787  39.751  1.00  0.00     0.054 A 
BRANCH  94  95
ATOM     95  S   UNL A   1      39.471  36.930  41.153  1.00  0.00     0.124 S 
ATOM     96  O   UNL A   1      38.640  36.169  42.082  1.00  0.00    -0.237 OA
ATOM     97  O   UNL A   1      40.861  37.118  41.563  1.00  0.00    -0.237 OA
ATOM     98  O   UNL A   1      38.835  38.110  40.572  1.00  0.00    -0.744 OA
ENDBRANCH  94  95
ENDBRANCH  68  89
ENDBRANCH  42  43
ENDBRANCH  34  37
ENDBRANCH  32  33
ENDBRANCH   1  32
TORSDOF 18
ENDMDL
MODEL 2
REMARK VINA RESULT:     -12.7      0.843      7.893
REMARK SMILES O=C(C[C@@H](C(=O)NCCCNC(=O)c1ccc(-c2c3nc(c(-c4ccc(S(=O)(=O)[O-])cc4)c4ccc([nH]4)c(-c4ccc(S(=O)(=O)[O-])cc4)c4nc(c(-c5ccc(S(=O)(=O)[O-])cc5)c5ccc2[nH]5)C=C4)C=C3)cc1)[NH+]1CCN(c2cccc(Cl)c2)CC1)c1ccc(F)cc1
REMARK SMILES IDX 9 1 8 2 7 3 5 4 6 5 4 7 3 8 2 9 1 10 87 11 88 12 93 13 89 14
REMARK SMILES IDX 92 15 90 16 91 17 74 18 75 19 86 20 76 22 85 23 77 24 78 25
REMARK SMILES IDX 79 26 84 27 80 28 82 29 81 30 83 31 10 32 11 33 12 34 13 36
REMARK SMILES IDX 14 37 15 38 73 39 16 40 72 41 17 42 18 43 19 44 66 45 20 46
REMARK SMILES IDX 71 47 65 48 67 49 21 50 70 51 64 52 63 53 22 55 52 56 33 57
REMARK SMILES IDX 51 58 34 59 37 60 50 61 68 62 35 63 36 64 49 66 69 67 38 68
REMARK SMILES IDX 23 69 24 70 32 71 25 72 31 73 26 74 27 75 28 76 29 77 30 78
REMARK SMILES IDX 53 79 54 80 62 81 55 82 61 83 56 84 57 85 58 86 59 87 60 88
REMARK SMILES IDX 39 89 40 90 48 91 41 92 47 93 42 94 43 95 44 96 45 97 46 98
REMARK H PARENT 7 6 74 21 11 35 67 54 37 65
REMARK Flexibility Score: inf
ROOT
ATOM      1  C   UNL A   1      38.350  22.386  25.899  1.00  0.00     0.042 C 
ENDROOT
BRANCH   1   2
ATOM      2  C   UNL A   1      36.914  22.815  25.563  1.00  0.00     0.118 C 
BRANCH   2   3
ATOM      3  N   UNL A   1      35.979  22.900  26.677  1.00  0.00    -0.351 N 
ATOM      4  C   UNL A   1      34.624  22.755  26.765  1.00  0.00     0.278 C 
ATOM      5  O   UNL A   1      34.182  22.575  27.909  1.00  0.00    -0.268 OA
ATOM      6  H   UNL A   1      36.411  23.102  27.538  1.00  0.00     0.163 HD
BRANCH   4   7
ATOM      7  C   UNL A   1      33.674  22.909  25.537  1.00  0.00     0.282 C 
BRANCH   7   8
ATOM      8  C   UNL A   1      33.762  21.692  24.602  1.00  0.00     0.156 C 
BRANCH   8   9
ATOM      9  C   UNL A   1      32.875  20.519  24.913  1.00  0.00     0.169 C 
ATOM     10  O   UNL A   1      31.697  20.699  25.212  1.00  0.00    -0.294 OA
BRANCH   9  11
ATOM     11  C   UNL A   1      33.413  19.127  24.801  1.00  0.00     0.018 A 
ATOM     12  C   UNL A   1      34.775  18.850  24.613  1.00  0.00     0.015 A 
ATOM     13  C   UNL A   1      32.518  18.061  24.950  1.00  0.00     0.015 A 
ATOM     14  C   UNL A   1      35.252  17.541  24.700  1.00  0.00     0.040 A 
ATOM     15  C   UNL A   1      32.991  16.749  24.967  1.00  0.00     0.040 A 
ATOM     16  C   UNL A   1      34.356  16.502  24.887  1.00  0.00     0.123 A 
ATOM     17  F   UNL A   1      34.814  15.250  25.002  1.00  0.00    -0.207 F 
ENDBRANCH   9  11
ENDBRANCH   8   9
ENDBRANCH   7   8
BRANCH   7  18
ATOM     18  N   UNL A   1      34.027  24.204  24.868  1.00  0.00    -0.321 N 
ATOM     19  C   UNL A   1      33.630  24.380  23.449  1.00  0.00     0.284 C 
ATOM     20  C   UNL A   1      33.680  25.421  25.620  1.00  0.00     0.284 C 
ATOM     21  H   UNL A   1      35.041  24.091  24.867  1.00  0.00     0.348 HD
ATOM     22  C   UNL A   1      32.171  24.863  23.199  1.00  0.00     0.178 C 
ATOM     23  C   UNL A   1      32.214  25.887  25.479  1.00  0.00     0.178 C 
ATOM     24  N   UNL A   1      31.847  26.005  24.061  1.00  0.00    -0.360 N 
BRANCH  24  25
ATOM     25  C   UNL A   1      30.698  26.727  23.765  1.00  0.00     0.038 A 
ATOM     26  C   UNL A   1      29.416  26.304  24.136  1.00  0.00     0.026 A 
ATOM     27  C   UNL A   1      30.821  27.917  23.038  1.00  0.00     0.046 A 
ATOM     28  C   UNL A   1      28.281  27.033  23.763  1.00  0.00     0.004 A 
ATOM     29  C   UNL A   1      29.690  28.637  22.654  1.00  0.00     0.043 A 
ATOM     30  C   UNL A   1      28.418  28.199  23.011  1.00  0.00     0.020 A 
ATOM     31  Cl  UNL A   1      29.870  30.068  21.714  1.00  0.00    -0.084 Cl
ENDBRANCH  24  25
ENDBRANCH   7  18
ENDBRANCH   4   7
ENDBRANCH   2   3
ENDBRANCH   1   2
BRANCH   1  32
ATOM     32  C   UNL A   1      39.258  23.386  26.625  1.00  0.00     0.118 C 
BRANCH  32  33
ATOM     33  N   UNL A   1      40.595  23.472  26.062  1.00  0.00    -0.352 N 
ATOM     34  C   UNL A   1      41.587  24.396  26.308  1.00  0.00     0.251 C 
ATOM     35  H   UNL A   1      40.824  22.771  25.410  1.00  0.00     0.163 HD
ATOM     36  O   UNL A   1      42.622  24.359  25.642  1.00  0.00    -0.269 OA
BRANCH  34  37
ATOM     37  C   UNL A   1      41.430  25.453  27.339  1.00  0.00     0.039 A 
ATOM     38  C   UNL A   1      40.395  25.335  28.273  1.00  0.00     0.014 A 
ATOM     39  C   UNL A   1      42.225  26.602  27.341  1.00  0.00     0.014 A 
ATOM     40  C   UNL A   1      40.205  26.325  29.248  1.00  0.00     0.010 A 
ATOM     41  C   UNL A   1      42.040  27.584  28.331  1.00  0.00     0.010 A 
ATOM     42  C   UNL A   1      41.047  27.449  29.314  1.00  0.00    -0.014 A 
BRANCH  42  43
ATOM     43  C   UNL A   1      40.930  28.432  30.437  1.00  0.00     0.031 A 
ATOM     44  C   UNL A   1      41.828  28.369  31.648  1.00  0.00     0.074 A 
ATOM     45  C   UNL A   1      39.975  29.386  30.391  1.00  0.00     0.049 A 
ATOM     46  N   UNL A   1      41.839  29.146  32.706  1.00  0.00    -0.248 NA
ATOM     47  C   UNL A   1      42.832  27.297  31.684  1.00  0.00     0.031 C 
ATOM     48  C   UNL A   1      39.011  29.565  29.304  1.00  0.00     0.029 A 
ATOM     49  N   UNL A   1      39.655  30.386  31.282  1.00  0.00    -0.354 N 
ATOM     50  C   UNL A   1      42.846  28.659  33.533  1.00  0.00     0.074 A 
ATOM     51  C   UNL A   1      43.400  27.496  32.868  1.00  0.00     0.031 C 
ATOM     52  C   UNL A   1      38.227  30.621  29.579  1.00  0.00     0.029 A 
ATOM     53  C   UNL A   1      38.601  31.173  30.879  1.00  0.00     0.049 A 
ATOM     54  H   UNL A   1      40.137  30.524  32.129  1.00  0.00     0.167 HD
ATOM     55  C   UNL A   1      43.283  29.137  34.725  1.00  0.00     0.031 A 
ATOM     56  C   UNL A   1      37.988  32.212  31.479  1.00  0.00     0.031 A 
ATOM     57  C   UNL A   1      42.747  30.293  35.400  1.00  0.00     0.049 A 
ATOM     58  C   UNL A   1      38.456  32.691  32.826  1.00  0.00     0.074 A 
ATOM     59  C   UNL A   1      43.184  30.877  36.579  1.00  0.00     0.029 A 
ATOM     60  N   UNL A   1      41.656  31.033  34.973  1.00  0.00    -0.354 N 
ATOM     61  N   UNL A   1      39.456  32.256  33.551  1.00  0.00    -0.248 NA
ATOM     62  C   UNL A   1      37.708  33.802  33.436  1.00  0.00     0.031 C 
ATOM     63  C   UNL A   1      42.323  31.935  36.894  1.00  0.00     0.029 A 
ATOM     64  C   UNL A   1      41.381  32.041  35.886  1.00  0.00     0.049 A 
ATOM     65  H   UNL A   1      41.152  30.867  34.145  1.00  0.00     0.167 HD
ATOM     66  C   UNL A   1      39.464  33.046  34.696  1.00  0.00     0.074 A 
ATOM     67  C   UNL A   1      38.384  33.999  34.561  1.00  0.00     0.031 C 
ATOM     68  C   UNL A   1      40.296  32.980  35.765  1.00  0.00     0.031 A 
BRANCH  55  69
ATOM     69  C   UNL A   1      44.413  28.404  35.400  1.00  0.00    -0.014 A 
ATOM     70  C   UNL A   1      44.163  27.298  36.232  1.00  0.00     0.010 A 
ATOM     71  C   UNL A   1      45.746  28.775  35.136  1.00  0.00     0.010 A 
ATOM     72  C   UNL A   1      45.221  26.598  36.816  1.00  0.00     0.020 A 
ATOM     73  C   UNL A   1      46.808  28.062  35.701  1.00  0.00     0.020 A 
ATOM     74  C   UNL A   1      46.538  26.987  36.550  1.00  0.00     0.054 A 
BRANCH  74  75
ATOM     75  S   UNL A   1      47.894  26.043  37.300  1.00  0.00     0.124 S 
ATOM     76  O   UNL A   1      47.707  26.327  38.720  1.00  0.00    -0.237 OA
ATOM     77  O   UNL A   1      47.598  24.673  36.890  1.00  0.00    -0.237 OA
ATOM     78  O   UNL A   1      49.094  26.624  36.702  1.00  0.00    -0.744 OA
ENDBRANCH  74  75
ENDBRANCH  55  69
BRANCH  56  79
ATOM     79  C   UNL A   1      36.832  32.873  30.814  1.00  0.00    -0.014 A 
ATOM     80  C   UNL A   1      35.514  32.537  31.170  1.00  0.00     0.010 A 
ATOM     81  C   UNL A   1      37.047  33.841  29.816  1.00  0.00     0.010 A 
ATOM     82  C   UNL A   1      34.432  33.149  30.532  1.00  0.00     0.020 A 
ATOM     83  C   UNL A   1      35.968  34.473  29.194  1.00  0.00     0.020 A 
ATOM     84  C   UNL A   1      34.666  34.114  29.549  1.00  0.00     0.054 A 
BRANCH  84  85
ATOM     85  S   UNL A   1      33.248  34.936  28.769  1.00  0.00     0.124 S 
ATOM     86  O   UNL A   1      32.762  33.907  27.861  1.00  0.00    -0.237 OA
ATOM     87  O   UNL A   1      32.386  35.235  29.912  1.00  0.00    -0.237 OA
ATOM     88  O   UNL A   1      33.846  36.110  28.130  1.00  0.00    -0.744 OA
ENDBRANCH  84  85
ENDBRANCH  56  79
BRANCH  68  89
ATOM     89  C   UNL A   1      40.077  33.966  36.883  1.00  0.00    -0.014 A 
ATOM     90  C   UNL A   1      40.643  35.252  36.831  1.00  0.00     0.010 A 
ATOM     91  C   UNL A   1      39.249  33.626  37.969  1.00  0.00     0.010 A 
ATOM     92  C   UNL A   1      40.403  36.173  37.855  1.00  0.00     0.020 A 
ATOM     93  C   UNL A   1      38.990  34.552  38.984  1.00  0.00     0.020 A 
ATOM     94  C   UNL A   1      39.576  35.818  38.925  1.00  0.00     0.054 A 
BRANCH  94  95
ATOM     95  S   UNL A   1      39.235  37.050  40.214  1.00  0.00     0.124 S 
ATOM     96  O   UNL A   1      40.576  37.369  40.694  1.00  0.00    -0.237 OA
ATOM     97  O   UNL A   1      38.563  38.115  39.471  1.00  0.00    -0.237 OA
ATOM     98  O   UNL A   1      38.387  36.332  41.164  1.00  0.00    -0.744 OA
ENDBRANCH  94  95
ENDBRANCH  68  89
ENDBRANCH  42  43
ENDBRANCH  34  37
ENDBRANCH  32  33
ENDBRANCH   1  32
TORSDOF 18
ENDMDL
MODEL 3
REMARK VINA RESULT:     -12.5      1.877      8.222
REMARK SMILES O=C(C[C@@H](C(=O)NCCCNC(=O)c1ccc(-c2c3nc(c(-c4ccc(S(=O)(=O)[O-])cc4)c4ccc([nH]4)c(-c4ccc(S(=O)(=O)[O-])cc4)c4nc(c(-c5ccc(S(=O)(=O)[O-])cc5)c5ccc2[nH]5)C=C4)C=C3)cc1)[NH+]1CCN(c2cccc(Cl)c2)CC1)c1ccc(F)cc1
REMARK SMILES IDX 9 1 8 2 7 3 5 4 6 5 4 7 3 8 2 9 1 10 87 11 88 12 93 13 89 14
REMARK SMILES IDX 92 15 90 16 91 17 74 18 75 19 86 20 76 22 85 23 77 24 78 25
REMARK SMILES IDX 79 26 84 27 80 28 82 29 81 30 83 31 10 32 11 33 12 34 13 36
REMARK SMILES IDX 14 37 15 38 73 39 16 40 72 41 17 42 18 43 19 44 66 45 20 46
REMARK SMILES IDX 71 47 65 48 67 49 21 50 70 51 64 52 63 53 22 55 52 56 33 57
REMARK SMILES IDX 51 58 34 59 37 60 50 61 68 62 35 63 36 64 49 66 69 67 38 68
REMARK SMILES IDX 23 69 24 70 32 71 25 72 31 73 26 74 27 75 28 76 29 77 30 78
REMARK SMILES IDX 53 79 54 80 62 81 55 82 61 83 56 84 57 85 58 86 59 87 60 88
REMARK SMILES IDX 39 89 40 90 48 91 41 92 47 93 42 94 43 95 44 96 45 97 46 98
REMARK H PARENT 7 6 74 21 11 35 67 54 37 65
REMARK Flexibility Score: inf
ROOT
ATOM      1  C   UNL A   1      40.517  21.834  26.620  1.00  0.00     0.042 C 
ENDROOT
BRANCH   1   2
ATOM      2  C   UNL A   1      39.077  22.007  26.114  1.00  0.00     0.118 C 
BRANCH   2   3
ATOM      3  N   UNL A   1      38.368  20.793  25.732  1.00  0.00    -0.351 N 
ATOM      4  C   UNL A   1      37.133  20.570  25.192  1.00  0.00     0.278 C 
ATOM      5  O   UNL A   1      36.965  19.447  24.696  1.00  0.00    -0.268 OA
ATOM      6  H   UNL A   1      38.881  19.969  25.895  1.00  0.00     0.163 HD
BRANCH   4   7
ATOM      7  C   UNL A   1      35.971  21.606  25.280  1.00  0.00     0.282 C 
BRANCH   7   8
ATOM      8  C   UNL A   1      34.666  21.039  24.698  1.00  0.00     0.156 C 
BRANCH   8   9
ATOM      9  C   UNL A   1      33.500  20.891  25.637  1.00  0.00     0.169 C 
ATOM     10  O   UNL A   1      33.371  19.865  26.301  1.00  0.00    -0.294 OA
BRANCH   9  11
ATOM     11  C   UNL A   1      32.529  22.017  25.805  1.00  0.00     0.018 A 
ATOM     12  C   UNL A   1      32.470  22.804  26.964  1.00  0.00     0.015 A 
ATOM     13  C   UNL A   1      31.688  22.327  24.730  1.00  0.00     0.015 A 
ATOM     14  C   UNL A   1      31.680  23.954  27.002  1.00  0.00     0.040 A 
ATOM     15  C   UNL A   1      30.849  23.439  24.798  1.00  0.00     0.040 A 
ATOM     16  C   UNL A   1      30.883  24.267  25.914  1.00  0.00     0.123 A 
ATOM     17  F   UNL A   1      30.148  25.385  25.934  1.00  0.00    -0.207 F 
ENDBRANCH   9  11
ENDBRANCH   8   9
ENDBRANCH   7   8
BRANCH   7  18
ATOM     18  N   UNL A   1      36.440  22.853  24.590  1.00  0.00    -0.321 N 
ATOM     19  C   UNL A   1      36.057  23.043  23.169  1.00  0.00     0.284 C 
ATOM     20  C   UNL A   1      36.208  24.108  25.323  1.00  0.00     0.284 C 
ATOM     21  H   UNL A   1      37.439  22.647  24.589  1.00  0.00     0.348 HD
ATOM     22  C   UNL A   1      34.648  23.655  22.913  1.00  0.00     0.178 C 
ATOM     23  C   UNL A   1      34.791  24.705  25.177  1.00  0.00     0.178 C 
ATOM     24  N   UNL A   1      34.433  24.835  23.758  1.00  0.00    -0.360 N 
BRANCH  24  25
ATOM     25  C   UNL A   1      33.354  25.655  23.453  1.00  0.00     0.038 A 
ATOM     26  C   UNL A   1      32.617  25.537  22.268  1.00  0.00     0.026 A 
ATOM     27  C   UNL A   1      33.004  26.667  24.355  1.00  0.00     0.046 A 
ATOM     28  C   UNL A   1      31.577  26.425  21.976  1.00  0.00     0.004 A 
ATOM     29  C   UNL A   1      31.976  27.561  24.058  1.00  0.00     0.043 A 
ATOM     30  C   UNL A   1      31.261  27.448  22.869  1.00  0.00     0.020 A 
ATOM     31  Cl  UNL A   1      31.604  28.828  25.163  1.00  0.00    -0.084 Cl
ENDBRANCH  24  25
ENDBRANCH   7  18
ENDBRANCH   4   7
ENDBRANCH   2   3
ENDBRANCH   1   2
BRANCH   1  32
ATOM     32  C   UNL A   1      41.302  23.086  27.028  1.00  0.00     0.118 C 
BRANCH  32  33
ATOM     33  N   UNL A   1      41.600  23.973  25.915  1.00  0.00    -0.352 N 
ATOM     34  C   UNL A   1      41.644  25.349  25.885  1.00  0.00     0.251 C 
ATOM     35  H   UNL A   1      41.797  23.525  25.061  1.00  0.00     0.163 HD
ATOM     36  O   UNL A   1      41.811  25.922  24.808  1.00  0.00    -0.269 OA
BRANCH  34  37
ATOM     37  C   UNL A   1      41.470  26.162  27.116  1.00  0.00     0.039 A 
ATOM     38  C   UNL A   1      42.473  27.071  27.470  1.00  0.00     0.014 A 
ATOM     39  C   UNL A   1      40.384  25.975  27.973  1.00  0.00     0.014 A 
ATOM     40  C   UNL A   1      42.352  27.840  28.637  1.00  0.00     0.010 A 
ATOM     41  C   UNL A   1      40.259  26.760  29.134  1.00  0.00     0.010 A 
ATOM     42  C   UNL A   1      41.226  27.721  29.470  1.00  0.00    -0.014 A 
BRANCH  42  43
ATOM     43  C   UNL A   1      41.033  28.639  30.636  1.00  0.00     0.031 A 
ATOM     44  C   UNL A   1      41.879  28.535  31.882  1.00  0.00     0.074 A 
ATOM     45  C   UNL A   1      40.053  29.568  30.599  1.00  0.00     0.049 A 
ATOM     46  N   UNL A   1      41.822  29.254  32.978  1.00  0.00    -0.248 NA
ATOM     47  C   UNL A   1      42.913  27.490  31.905  1.00  0.00     0.031 C 
ATOM     48  C   UNL A   1      39.132  29.779  29.481  1.00  0.00     0.029 A 
ATOM     49  N   UNL A   1      39.666  30.509  31.526  1.00  0.00    -0.354 N 
ATOM     50  C   UNL A   1      42.807  28.750  33.822  1.00  0.00     0.074 A 
ATOM     51  C   UNL A   1      43.423  27.640  33.122  1.00  0.00     0.031 C 
ATOM     52  C   UNL A   1      38.306  30.797  29.776  1.00  0.00     0.029 A 
ATOM     53  C   UNL A   1      38.608  31.288  31.119  1.00  0.00     0.049 A 
ATOM     54  H   UNL A   1      40.107  30.614  32.400  1.00  0.00     0.167 HD
ATOM     55  C   UNL A   1      43.179  29.175  35.055  1.00  0.00     0.031 A 
ATOM     56  C   UNL A   1      37.939  32.277  31.745  1.00  0.00     0.031 A 
ATOM     57  C   UNL A   1      42.581  30.279  35.766  1.00  0.00     0.049 A 
ATOM     58  C   UNL A   1      38.335  32.695  33.134  1.00  0.00     0.074 A 
ATOM     59  C   UNL A   1      42.950  30.810  36.992  1.00  0.00     0.029 A 
ATOM     60  N   UNL A   1      41.488  31.010  35.331  1.00  0.00    -0.354 N 
ATOM     61  N   UNL A   1      39.316  32.248  33.880  1.00  0.00    -0.248 NA
ATOM     62  C   UNL A   1      37.530  33.750  33.769  1.00  0.00     0.031 C 
ATOM     63  C   UNL A   1      42.046  31.826  37.324  1.00  0.00     0.029 A 
ATOM     64  C   UNL A   1      41.145  31.960  36.282  1.00  0.00     0.049 A 
ATOM     65  H   UNL A   1      41.025  30.876  34.474  1.00  0.00     0.167 HD
ATOM     66  C   UNL A   1      39.252  32.976  35.064  1.00  0.00     0.074 A 
ATOM     67  C   UNL A   1      38.151  33.905  34.931  1.00  0.00     0.031 C 
ATOM     68  C   UNL A   1      40.039  32.875  36.163  1.00  0.00     0.031 A 
BRANCH  55  69
ATOM     69  C   UNL A   1      44.300  28.438  35.741  1.00  0.00    -0.014 A 
ATOM     70  C   UNL A   1      44.038  27.335  36.573  1.00  0.00     0.010 A 
ATOM     71  C   UNL A   1      45.636  28.801  35.485  1.00  0.00     0.010 A 
ATOM     72  C   UNL A   1      45.088  26.630  37.166  1.00  0.00     0.020 A 
ATOM     73  C   UNL A   1      46.691  28.084  36.059  1.00  0.00     0.020 A 
ATOM     74  C   UNL A   1      46.410  27.012  36.909  1.00  0.00     0.054 A 
BRANCH  74  75
ATOM     75  S   UNL A   1      47.755  26.063  37.671  1.00  0.00     0.124 S 
ATOM     76  O   UNL A   1      47.149  24.741  37.807  1.00  0.00    -0.237 OA
ATOM     77  O   UNL A   1      48.822  26.164  36.678  1.00  0.00    -0.237 OA
ATOM     78  O   UNL A   1      48.008  26.765  38.926  1.00  0.00    -0.744 OA
ENDBRANCH  74  75
ENDBRANCH  55  69
BRANCH  56  79
ATOM     79  C   UNL A   1      36.794  32.941  31.065  1.00  0.00    -0.014 A 
ATOM     80  C   UNL A   1      35.506  32.901  31.629  1.00  0.00     0.010 A 
ATOM     81  C   UNL A   1      36.988  33.615  29.846  1.00  0.00     0.010 A 
ATOM     82  C   UNL A   1      34.431  33.513  30.979  1.00  0.00     0.020 A 
ATOM     83  C   UNL A   1      35.920  34.250  29.207  1.00  0.00     0.020 A 
ATOM     84  C   UNL A   1      34.646  34.184  29.772  1.00  0.00     0.054 A 
BRANCH  84  85
ATOM     85  S   UNL A   1      33.247  35.018  28.971  1.00  0.00     0.124 S 
ATOM     86  O   UNL A   1      32.818  34.024  27.997  1.00  0.00    -0.237 OA
ATOM     87  O   UNL A   1      32.333  35.251  30.088  1.00  0.00    -0.237 OA
ATOM     88  O   UNL A   1      33.850  36.229  28.411  1.00  0.00    -0.744 OA
ENDBRANCH  84  85
ENDBRANCH  56  79
BRANCH  68  89
ATOM     89  C   UNL A   1      39.743  33.792  37.321  1.00  0.00    -0.014 A 
ATOM     90  C   UNL A   1      38.992  33.344  38.422  1.00  0.00     0.010 A 
ATOM     91  C   UNL A   1      40.269  35.097  37.337  1.00  0.00     0.010 A 
ATOM     92  C   UNL A   1      38.755  34.190  39.509  1.00  0.00     0.020 A 
ATOM     93  C   UNL A   1      40.053  35.939  38.433  1.00  0.00     0.020 A 
ATOM     94  C   UNL A   1      39.289  35.483  39.509  1.00  0.00     0.054 A 
BRANCH  94  95
ATOM     95  S   UNL A   1      39.014  36.543  40.957  1.00  0.00     0.124 S 
ATOM     96  O   UNL A   1      38.610  37.803  40.341  1.00  0.00    -0.237 OA
ATOM     97  O   UNL A   1      37.963  35.832  41.681  1.00  0.00    -0.237 OA
ATOM     98  O   UNL A   1      40.315  36.563  41.622  1.00  0.00    -0.744 OA
ENDBRANCH  94  95
ENDBRANCH  68  89
ENDBRANCH  42  43
ENDBRANCH  34  37
ENDBRANCH  32  33
ENDBRANCH   1  32
TORSDOF 18
ENDMDL
