MODEL 1
REMARK VINA RESULT:     -13.2      0.000      0.000
REMARK SMILES Cc1ccc(OCC(=O)NNC(=O)[C@H]2CCCC[C@@H]2C(=O)NCCCNC(=O)c2ccc(-c3c4nc(c(-c5ccc(S(=O)(=O)[O-])cc5)c5ccc([nH]5)c(-c5ccc(S(=O)(=O)[O-])cc5)c5nc(c(-c6ccc(S(=O)(=O)[O-])cc6)c6ccc3[nH]6)C=C5)C=C4)cc2)cc1
REMARK SMILES IDX 23 1 22 2 20 3 21 4 19 6 14 7 15 8 16 9 18 10 17 11 12 12
REMARK SMILES IDX 11 13 13 15 10 16 8 17 9 18 7 20 6 21 5 22 1 23 2 24 3 25
REMARK SMILES IDX 90 26 4 27 89 28 24 29 25 30 26 31 27 32 28 34 29 35 30 36
REMARK SMILES IDX 88 37 31 38 87 39 32 40 33 41 34 42 81 43 35 44 86 45 80 46
REMARK SMILES IDX 82 47 36 48 85 49 79 50 78 51 37 53 67 54 48 55 66 56 49 57
REMARK SMILES IDX 52 58 65 59 83 60 50 61 51 62 64 64 84 65 53 66 38 67 39 68
REMARK SMILES IDX 47 69 40 70 46 71 41 72 42 73 43 74 44 75 45 76 68 77 69 78
REMARK SMILES IDX 77 79 70 80 76 81 71 82 72 83 73 84 74 85 75 86 54 87 55 88
REMARK SMILES IDX 63 89 56 90 62 91 57 92 58 93 59 94 60 95 61 96
REMARK H PARENT 22 5 11 14 10 19 26 33 82 52 52 63
REMARK Flexibility Score: inf
ROOT
ATOM      1  C   UNL A   1      36.186  22.188  24.996  1.00  0.00     0.117 C 
ENDROOT
BRANCH   1   2
ATOM      2  N   UNL A   1      35.625  22.799  23.799  1.00  0.00    -0.356 N 
ATOM      3  C   UNL A   1      34.381  23.063  23.352  1.00  0.00     0.223 C 
ATOM      4  O   UNL A   1      34.313  23.569  22.220  1.00  0.00    -0.275 OA
ATOM      5  H   UNL A   1      36.320  23.087  23.163  1.00  0.00     0.163 HD
BRANCH   3   6
ATOM      6  C   UNL A   1      33.060  22.771  24.076  1.00  0.00     0.091 C 
ATOM      7  C   UNL A   1      32.704  24.014  24.935  1.00  0.00     0.092 C 
ATOM      8  C   UNL A   1      33.421  23.939  26.294  1.00  0.00     0.014 C 
ATOM      9  C   UNL A   1      33.088  22.676  27.080  1.00  0.00     0.001 C 
ATOM     10  C   UNL A   1      32.794  21.474  24.838  1.00  0.00     0.014 C 
ATOM     11  C   UNL A   1      33.311  21.409  26.274  1.00  0.00     0.001 C 
BRANCH   7  12
ATOM     12  C   UNL A   1      31.195  24.210  25.099  1.00  0.00     0.242 C 
ATOM     13  N   UNL A   1      30.409  24.453  24.007  1.00  0.00    -0.267 N 
ATOM     14  H   UNL A   1      29.436  24.474  24.156  1.00  0.00     0.191 HD
ATOM     15  O   UNL A   1      30.631  24.193  26.195  1.00  0.00    -0.273 OA
BRANCH  13  16
ATOM     16  N   UNL A   1      30.850  24.674  22.710  1.00  0.00    -0.265 N 
ATOM     17  C   UNL A   1      30.951  25.933  22.163  1.00  0.00     0.276 C 
ATOM     18  O   UNL A   1      31.462  26.094  21.053  1.00  0.00    -0.269 OA
ATOM     19  H   UNL A   1      31.102  23.898  22.159  1.00  0.00     0.191 HD
BRANCH  17  20
ATOM     20  C   UNL A   1      30.471  27.132  22.993  1.00  0.00     0.331 C 
BRANCH  20  21
ATOM     21  O   UNL A   1      31.299  28.285  22.961  1.00  0.00    -0.484 OA
BRANCH  21  22
ATOM     22  C   UNL A   1      32.005  28.591  24.092  1.00  0.00     0.120 A 
ATOM     23  C   UNL A   1      34.477  29.194  27.582  1.00  0.00     0.044 C 
ATOM     24  C   UNL A   1      33.620  28.989  26.369  1.00  0.00    -0.051 A 
ATOM     25  C   UNL A   1      33.919  27.971  25.458  1.00  0.00     0.007 A 
ATOM     26  C   UNL A   1      32.516  29.809  26.125  1.00  0.00     0.007 A 
ATOM     27  C   UNL A   1      33.114  27.774  24.330  1.00  0.00     0.047 A 
ATOM     28  C   UNL A   1      31.714  29.612  24.994  1.00  0.00     0.047 A 
ENDBRANCH  21  22
ENDBRANCH  20  21
ENDBRANCH  17  20
ENDBRANCH  13  16
ENDBRANCH   7  12
ENDBRANCH   3   6
ENDBRANCH   1   2
BRANCH   1  29
ATOM     29  C   UNL A   1      37.690  22.407  25.099  1.00  0.00     0.042 C 
BRANCH  29  30
ATOM     30  C   UNL A   1      38.035  23.402  26.191  1.00  0.00     0.118 C 
BRANCH  30  31
ATOM     31  N   UNL A   1      39.209  23.060  26.984  1.00  0.00    -0.352 N 
ATOM     32  C   UNL A   1      40.089  23.947  27.599  1.00  0.00     0.251 C 
ATOM     33  H   UNL A   1      39.402  22.101  27.096  1.00  0.00     0.163 HD
ATOM     34  O   UNL A   1      41.169  23.613  28.035  1.00  0.00    -0.269 OA
BRANCH  32  35
ATOM     35  C   UNL A   1      39.572  25.318  27.806  1.00  0.00     0.039 A 
ATOM     36  C   UNL A   1      40.097  26.313  26.972  1.00  0.00     0.014 A 
ATOM     37  C   UNL A   1      38.959  25.631  29.013  1.00  0.00     0.014 A 
ATOM     38  C   UNL A   1      40.199  27.615  27.451  1.00  0.00     0.010 A 
ATOM     39  C   UNL A   1      39.177  26.889  29.531  1.00  0.00     0.010 A 
ATOM     40  C   UNL A   1      39.836  27.870  28.770  1.00  0.00    -0.014 A 
BRANCH  40  41
ATOM     41  C   UNL A   1      40.122  29.115  29.472  1.00  0.00     0.031 A 
ATOM     42  C   UNL A   1      39.112  30.200  29.426  1.00  0.00     0.074 A 
ATOM     43  C   UNL A   1      41.237  29.270  30.223  1.00  0.00     0.049 A 
ATOM     44  N   UNL A   1      39.333  31.421  29.774  1.00  0.00    -0.248 NA
ATOM     45  C   UNL A   1      37.750  29.988  28.936  1.00  0.00     0.031 C 
ATOM     46  C   UNL A   1      41.484  30.304  31.230  1.00  0.00     0.029 A 
ATOM     47  N   UNL A   1      42.453  28.616  30.171  1.00  0.00    -0.354 N 
ATOM     48  C   UNL A   1      38.119  32.059  29.845  1.00  0.00     0.074 A 
ATOM     49  C   UNL A   1      37.167  31.140  29.270  1.00  0.00     0.031 C 
ATOM     50  C   UNL A   1      42.805  30.385  31.457  1.00  0.00     0.029 A 
ATOM     51  C   UNL A   1      43.463  29.530  30.488  1.00  0.00     0.049 A 
ATOM     52  H   UNL A   1      42.586  27.666  29.949  1.00  0.00     0.167 HD
ATOM     53  C   UNL A   1      38.027  33.255  30.489  1.00  0.00     0.031 A 
ATOM     54  C   UNL A   1      44.373  29.974  29.565  1.00  0.00     0.031 A 
ATOM     55  C   UNL A   1      39.335  33.768  30.888  1.00  0.00     0.049 A 
ATOM     56  C   UNL A   1      44.249  31.459  29.229  1.00  0.00     0.074 A 
ATOM     57  C   UNL A   1      40.041  33.854  32.076  1.00  0.00     0.029 A 
ATOM     58  N   UNL A   1      40.255  34.021  29.883  1.00  0.00    -0.354 N 
ATOM     59  N   UNL A   1      43.401  32.283  29.787  1.00  0.00    -0.248 NA
ATOM     60  C   UNL A   1      45.022  32.114  28.168  1.00  0.00     0.031 C 
ATOM     61  C   UNL A   1      41.406  34.144  31.762  1.00  0.00     0.029 A 
ATOM     62  C   UNL A   1      41.519  34.256  30.389  1.00  0.00     0.049 A 
ATOM     63  H   UNL A   1      40.036  34.035  28.924  1.00  0.00     0.167 HD
ATOM     64  C   UNL A   1      43.446  33.498  29.156  1.00  0.00     0.074 A 
ATOM     65  C   UNL A   1      44.493  33.351  28.161  1.00  0.00     0.031 C 
ATOM     66  C   UNL A   1      42.593  34.526  29.446  1.00  0.00     0.031 A 
BRANCH  53  67
ATOM     67  C   UNL A   1      36.702  33.818  30.932  1.00  0.00    -0.014 A 
ATOM     68  C   UNL A   1      35.636  33.898  30.017  1.00  0.00     0.010 A 
ATOM     69  C   UNL A   1      36.466  34.343  32.219  1.00  0.00     0.010 A 
ATOM     70  C   UNL A   1      34.439  34.557  30.333  1.00  0.00     0.020 A 
ATOM     71  C   UNL A   1      35.297  35.049  32.533  1.00  0.00     0.020 A 
ATOM     72  C   UNL A   1      34.289  35.158  31.582  1.00  0.00     0.054 A 
BRANCH  72  73
ATOM     73  S   UNL A   1      32.777  36.089  31.941  1.00  0.00     0.124 S 
ATOM     74  O   UNL A   1      33.210  37.008  32.991  1.00  0.00    -0.237 OA
ATOM     75  O   UNL A   1      32.476  36.701  30.651  1.00  0.00    -0.237 OA
ATOM     76  O   UNL A   1      31.833  35.061  32.377  1.00  0.00    -0.744 OA
ENDBRANCH  72  73
ENDBRANCH  53  67
BRANCH  54  77
ATOM     77  C   UNL A   1      44.823  28.900  28.630  1.00  0.00    -0.014 A 
ATOM     78  C   UNL A   1      44.138  28.805  27.398  1.00  0.00     0.010 A 
ATOM     79  C   UNL A   1      46.115  28.357  28.733  1.00  0.00     0.010 A 
ATOM     80  C   UNL A   1      44.810  28.399  26.244  1.00  0.00     0.020 A 
ATOM     81  C   UNL A   1      46.784  27.930  27.576  1.00  0.00     0.020 A 
ATOM     82  C   UNL A   1      46.155  28.041  26.333  1.00  0.00     0.054 A 
BRANCH  82  83
ATOM     83  S   UNL A   1      47.114  27.954  24.790  1.00  0.00     0.124 S 
ATOM     84  O   UNL A   1      48.482  28.155  25.257  1.00  0.00    -0.237 OA
ATOM     85  O   UNL A   1      46.802  26.602  24.320  1.00  0.00    -0.237 OA
ATOM     86  O   UNL A   1      46.558  29.037  23.987  1.00  0.00    -0.744 OA
ENDBRANCH  82  83
ENDBRANCH  54  77
BRANCH  66  87
ATOM     87  C   UNL A   1      42.665  35.885  28.796  1.00  0.00    -0.014 A 
ATOM     88  C   UNL A   1      43.267  36.989  29.422  1.00  0.00     0.010 A 
ATOM     89  C   UNL A   1      42.005  36.122  27.567  1.00  0.00     0.010 A 
ATOM     90  C   UNL A   1      43.278  38.251  28.811  1.00  0.00     0.020 A 
ATOM     91  C   UNL A   1      41.993  37.379  26.959  1.00  0.00     0.020 A 
ATOM     92  C   UNL A   1      42.653  38.434  27.575  1.00  0.00     0.054 A 
BRANCH  92  93
ATOM     93  S   UNL A   1      42.665  40.073  26.806  1.00  0.00     0.124 S 
ATOM     94  O   UNL A   1      41.338  40.153  26.201  1.00  0.00    -0.237 OA
ATOM     95  O   UNL A   1      42.884  40.944  27.958  1.00  0.00    -0.237 OA
ATOM     96  O   UNL A   1      43.773  40.004  25.856  1.00  0.00    -0.744 OA
ENDBRANCH  92  93
ENDBRANCH  66  87
ENDBRANCH  40  41
ENDBRANCH  32  35
ENDBRANCH  30  31
ENDBRANCH  29  30
ENDBRANCH   1  29
TORSDOF 18
ENDMDL
MODEL 2
REMARK VINA RESULT:     -13.1      4.649     11.141
REMARK SMILES Cc1ccc(OCC(=O)NNC(=O)[C@H]2CCCC[C@@H]2C(=O)NCCCNC(=O)c2ccc(-c3c4nc(c(-c5ccc(S(=O)(=O)[O-])cc5)c5ccc([nH]5)c(-c5ccc(S(=O)(=O)[O-])cc5)c5nc(c(-c6ccc(S(=O)(=O)[O-])cc6)c6ccc3[nH]6)C=C5)C=C4)cc2)cc1
REMARK SMILES IDX 23 1 22 2 20 3 21 4 19 6 14 7 15 8 16 9 18 10 17 11 12 12
REMARK SMILES IDX 11 13 13 15 10 16 8 17 9 18 7 20 6 21 5 22 1 23 2 24 3 25
REMARK SMILES IDX 90 26 4 27 89 28 24 29 25 30 26 31 27 32 28 34 29 35 30 36
REMARK SMILES IDX 88 37 31 38 87 39 32 40 33 41 34 42 81 43 35 44 86 45 80 46
REMARK SMILES IDX 82 47 36 48 85 49 79 50 78 51 37 53 67 54 48 55 66 56 49 57
REMARK SMILES IDX 52 58 65 59 83 60 50 61 51 62 64 64 84 65 53 66 38 67 39 68
REMARK SMILES IDX 47 69 40 70 46 71 41 72 42 73 43 74 44 75 45 76 68 77 69 78
REMARK SMILES IDX 77 79 70 80 76 81 71 82 72 83 73 84 74 85 75 86 54 87 55 88
REMARK SMILES IDX 63 89 56 90 62 91 57 92 58 93 59 94 60 95 61 96
REMARK H PARENT 22 5 11 14 10 19 26 33 82 52 52 63
REMARK Flexibility Score: inf
ROOT
ATOM      1  C   UNL A   1      32.323  29.734  25.894  1.00  0.00     0.117 C 
ENDROOT
BRANCH   1   2
ATOM      2  N   UNL A   1      31.780  28.481  26.399  1.00  0.00    -0.356 N 
ATOM      3  C   UNL A   1      31.222  27.387  25.843  1.00  0.00     0.223 C 
ATOM      4  O   UNL A   1      30.829  26.521  26.642  1.00  0.00    -0.275 OA
ATOM      5  H   UNL A   1      31.831  28.418  27.381  1.00  0.00     0.163 HD
BRANCH   3   6
ATOM      6  C   UNL A   1      30.995  27.125  24.349  1.00  0.00     0.091 C 
ATOM      7  C   UNL A   1      32.129  26.188  23.853  1.00  0.00     0.092 C 
ATOM      8  C   UNL A   1      33.372  27.013  23.480  1.00  0.00     0.014 C 
ATOM      9  C   UNL A   1      33.095  28.069  22.416  1.00  0.00     0.001 C 
ATOM     10  C   UNL A   1      30.712  28.236  23.340  1.00  0.00     0.014 C 
ATOM     11  C   UNL A   1      31.927  28.970  22.776  1.00  0.00     0.001 C 
BRANCH   7  12
ATOM     12  C   UNL A   1      31.687  25.277  22.705  1.00  0.00     0.242 C 
ATOM     13  N   UNL A   1      30.869  24.209  22.949  1.00  0.00    -0.267 N 
ATOM     14  H   UNL A   1      30.536  23.716  22.163  1.00  0.00     0.191 HD
ATOM     15  O   UNL A   1      32.061  25.435  21.541  1.00  0.00    -0.273 OA
BRANCH  13  16
ATOM     16  N   UNL A   1      30.462  23.753  24.194  1.00  0.00    -0.265 N 
ATOM     17  C   UNL A   1      31.113  22.742  24.865  1.00  0.00     0.276 C 
ATOM     18  O   UNL A   1      30.795  22.452  26.019  1.00  0.00    -0.269 OA
ATOM     19  H   UNL A   1      29.676  24.170  24.616  1.00  0.00     0.191 HD
BRANCH  17  20
ATOM     20  C   UNL A   1      32.281  22.033  24.164  1.00  0.00     0.331 C 
BRANCH  20  21
ATOM     21  O   UNL A   1      33.305  22.875  23.655  1.00  0.00    -0.484 OA
BRANCH  21  22
ATOM     22  C   UNL A   1      34.591  22.619  24.049  1.00  0.00     0.120 A 
ATOM     23  C   UNL A   1      38.475  21.650  25.669  1.00  0.00     0.044 C 
ATOM     24  C   UNL A   1      37.127  21.984  25.103  1.00  0.00    -0.051 A 
ATOM     25  C   UNL A   1      35.964  21.606  25.780  1.00  0.00     0.007 A 
ATOM     26  C   UNL A   1      37.009  22.672  23.893  1.00  0.00     0.007 A 
ATOM     27  C   UNL A   1      34.706  21.925  25.257  1.00  0.00     0.047 A 
ATOM     28  C   UNL A   1      35.750  22.987  23.369  1.00  0.00     0.047 A 
ENDBRANCH  21  22
ENDBRANCH  20  21
ENDBRANCH  17  20
ENDBRANCH  13  16
ENDBRANCH   7  12
ENDBRANCH   3   6
ENDBRANCH   1   2
BRANCH   1  29
ATOM     29  C   UNL A   1      33.846  29.725  25.859  1.00  0.00     0.042 C 
BRANCH  29  30
ATOM     30  C   UNL A   1      34.437  29.779  27.255  1.00  0.00     0.118 C 
BRANCH  30  31
ATOM     31  N   UNL A   1      35.207  30.980  27.550  1.00  0.00    -0.352 N 
ATOM     32  C   UNL A   1      36.476  31.040  28.119  1.00  0.00     0.251 C 
ATOM     33  H   UNL A   1      34.785  31.840  27.324  1.00  0.00     0.163 HD
ATOM     34  O   UNL A   1      36.958  32.062  28.558  1.00  0.00    -0.269 OA
BRANCH  32  35
ATOM     35  C   UNL A   1      37.268  29.792  28.047  1.00  0.00     0.039 A 
ATOM     36  C   UNL A   1      37.366  29.047  29.229  1.00  0.00     0.014 A 
ATOM     37  C   UNL A   1      38.181  29.634  27.011  1.00  0.00     0.014 A 
ATOM     38  C   UNL A   1      38.511  28.292  29.461  1.00  0.00     0.010 A 
ATOM     39  C   UNL A   1      39.366  28.990  27.298  1.00  0.00     0.010 A 
ATOM     40  C   UNL A   1      39.551  28.357  28.538  1.00  0.00    -0.014 A 
BRANCH  40  41
ATOM     41  C   UNL A   1      40.888  27.826  28.773  1.00  0.00     0.031 A 
ATOM     42  C   UNL A   1      41.152  26.405  28.439  1.00  0.00     0.074 A 
ATOM     43  C   UNL A   1      41.902  28.612  29.204  1.00  0.00     0.049 A 
ATOM     44  N   UNL A   1      42.188  25.743  28.825  1.00  0.00    -0.248 NA
ATOM     45  C   UNL A   1      40.221  25.594  27.655  1.00  0.00     0.031 C 
ATOM     46  C   UNL A   1      43.333  28.307  29.157  1.00  0.00     0.029 A 
ATOM     47  N   UNL A   1      41.880  29.808  29.896  1.00  0.00    -0.354 N 
ATOM     48  C   UNL A   1      42.216  24.566  28.118  1.00  0.00     0.074 A 
ATOM     49  C   UNL A   1      40.947  24.497  27.436  1.00  0.00     0.031 C 
ATOM     50  C   UNL A   1      43.978  29.109  30.020  1.00  0.00     0.029 A 
ATOM     51  C   UNL A   1      42.972  29.836  30.769  1.00  0.00     0.049 A 
ATOM     52  H   UNL A   1      41.209  30.520  29.791  1.00  0.00     0.167 HD
ATOM     53  C   UNL A   1      43.359  23.827  28.091  1.00  0.00     0.031 A 
ATOM     54  C   UNL A   1      42.829  29.769  32.130  1.00  0.00     0.031 A 
ATOM     55  C   UNL A   1      44.378  24.355  28.996  1.00  0.00     0.049 A 
ATOM     56  C   UNL A   1      43.394  28.493  32.755  1.00  0.00     0.074 A 
ATOM     57  C   UNL A   1      45.547  25.081  28.848  1.00  0.00     0.029 A 
ATOM     58  N   UNL A   1      44.068  24.409  30.345  1.00  0.00    -0.354 N 
ATOM     59  N   UNL A   1      44.013  27.549  32.096  1.00  0.00    -0.248 NA
ATOM     60  C   UNL A   1      43.226  28.145  34.170  1.00  0.00     0.031 C 
ATOM     61  C   UNL A   1      45.921  25.589  30.132  1.00  0.00     0.029 A 
ATOM     62  C   UNL A   1      44.992  25.150  31.056  1.00  0.00     0.049 A 
ATOM     63  H   UNL A   1      43.285  23.972  30.750  1.00  0.00     0.167 HD
ATOM     64  C   UNL A   1      44.254  26.484  32.923  1.00  0.00     0.074 A 
ATOM     65  C   UNL A   1      43.763  26.913  34.220  1.00  0.00     0.031 C 
ATOM     66  C   UNL A   1      44.788  25.303  32.488  1.00  0.00     0.031 A 
BRANCH  53  67
ATOM     67  C   UNL A   1      43.587  22.754  27.059  1.00  0.00    -0.014 A 
ATOM     68  C   UNL A   1      42.803  21.585  27.083  1.00  0.00     0.010 A 
ATOM     69  C   UNL A   1      44.600  22.811  26.082  1.00  0.00     0.010 A 
ATOM     70  C   UNL A   1      43.082  20.493  26.248  1.00  0.00     0.020 A 
ATOM     71  C   UNL A   1      44.923  21.710  25.277  1.00  0.00     0.020 A 
ATOM     72  C   UNL A   1      44.163  20.551  25.370  1.00  0.00     0.054 A 
BRANCH  72  73
ATOM     73  S   UNL A   1      44.569  19.097  24.369  1.00  0.00     0.124 S 
ATOM     74  O   UNL A   1      45.962  18.840  24.729  1.00  0.00    -0.237 OA
ATOM     75  O   UNL A   1      43.602  18.113  24.843  1.00  0.00    -0.237 OA
ATOM     76  O   UNL A   1      44.367  19.556  22.994  1.00  0.00    -0.744 OA
ENDBRANCH  72  73
ENDBRANCH  53  67
BRANCH  54  77
ATOM     77  C   UNL A   1      41.655  30.543  32.630  1.00  0.00    -0.014 A 
ATOM     78  C   UNL A   1      40.542  29.791  33.069  1.00  0.00     0.010 A 
ATOM     79  C   UNL A   1      41.812  31.859  33.095  1.00  0.00     0.010 A 
ATOM     80  C   UNL A   1      39.746  30.253  34.119  1.00  0.00     0.020 A 
ATOM     81  C   UNL A   1      40.999  32.331  34.137  1.00  0.00     0.020 A 
ATOM     82  C   UNL A   1      40.035  31.488  34.697  1.00  0.00     0.054 A 
BRANCH  82  83
ATOM     83  S   UNL A   1      39.296  31.861  36.317  1.00  0.00     0.124 S 
ATOM     84  O   UNL A   1      40.393  31.576  37.236  1.00  0.00    -0.237 OA
ATOM     85  O   UNL A   1      38.951  33.276  36.169  1.00  0.00    -0.237 OA
ATOM     86  O   UNL A   1      38.162  30.946  36.388  1.00  0.00    -0.744 OA
ENDBRANCH  82  83
ENDBRANCH  54  77
BRANCH  66  87
ATOM     87  C   UNL A   1      45.108  24.142  33.397  1.00  0.00    -0.014 A 
ATOM     88  C   UNL A   1      46.381  23.952  33.957  1.00  0.00     0.010 A 
ATOM     89  C   UNL A   1      44.150  23.124  33.612  1.00  0.00     0.010 A 
ATOM     90  C   UNL A   1      46.659  22.837  34.762  1.00  0.00     0.020 A 
ATOM     91  C   UNL A   1      44.422  22.000  34.395  1.00  0.00     0.020 A 
ATOM     92  C   UNL A   1      45.673  21.875  34.987  1.00  0.00     0.054 A 
BRANCH  92  93
ATOM     93  S   UNL A   1      46.052  20.435  36.018  1.00  0.00     0.124 S 
ATOM     94  O   UNL A   1      47.485  20.256  35.804  1.00  0.00    -0.237 OA
ATOM     95  O   UNL A   1      45.669  20.908  37.346  1.00  0.00    -0.237 OA
ATOM     96  O   UNL A   1      45.208  19.379  35.465  1.00  0.00    -0.744 OA
ENDBRANCH  92  93
ENDBRANCH  66  87
ENDBRANCH  40  41
ENDBRANCH  32  35
ENDBRANCH  30  31
ENDBRANCH  29  30
ENDBRANCH   1  29
TORSDOF 18
ENDMDL
MODEL 3
REMARK VINA RESULT:     -12.9      4.593     11.043
REMARK SMILES Cc1ccc(OCC(=O)NNC(=O)[C@H]2CCCC[C@@H]2C(=O)NCCCNC(=O)c2ccc(-c3c4nc(c(-c5ccc(S(=O)(=O)[O-])cc5)c5ccc([nH]5)c(-c5ccc(S(=O)(=O)[O-])cc5)c5nc(c(-c6ccc(S(=O)(=O)[O-])cc6)c6ccc3[nH]6)C=C5)C=C4)cc2)cc1
REMARK SMILES IDX 23 1 22 2 20 3 21 4 19 6 14 7 15 8 16 9 18 10 17 11 12 12
REMARK SMILES IDX 11 13 13 15 10 16 8 17 9 18 7 20 6 21 5 22 1 23 2 24 3 25
REMARK SMILES IDX 90 26 4 27 89 28 24 29 25 30 26 31 27 32 28 34 29 35 30 36
REMARK SMILES IDX 88 37 31 38 87 39 32 40 33 41 34 42 81 43 35 44 86 45 80 46
REMARK SMILES IDX 82 47 36 48 85 49 79 50 78 51 37 53 67 54 48 55 66 56 49 57
REMARK SMILES IDX 52 58 65 59 83 60 50 61 51 62 64 64 84 65 53 66 38 67 39 68
REMARK SMILES IDX 47 69 40 70 46 71 41 72 42 73 43 74 44 75 45 76 68 77 69 78
REMARK SMILES IDX 77 79 70 80 76 81 71 82 72 83 73 84 74 85 75 86 54 87 55 88
REMARK SMILES IDX 63 89 56 90 62 91 57 92 58 93 59 94 60 95 61 96
REMARK H PARENT 22 5 11 14 10 19 26 33 82 52 52 63
REMARK Flexibility Score: inf
ROOT
ATOM      1  C   UNL A   1      33.488  30.066  25.703  1.00  0.00     0.117 C 
ENDROOT
BRANCH   1   2
ATOM      2  N   UNL A   1      33.882  28.812  25.074  1.00  0.00    -0.356 N 
ATOM      3  C   UNL A   1      33.235  27.706  24.657  1.00  0.00     0.223 C 
ATOM      4  O   UNL A   1      33.956  26.803  24.199  1.00  0.00    -0.275 OA
ATOM      5  H   UNL A   1      34.853  28.761  24.916  1.00  0.00     0.163 HD
BRANCH   3   6
ATOM      6  C   UNL A   1      31.726  27.439  24.726  1.00  0.00     0.091 C 
ATOM      7  C   UNL A   1      31.374  26.416  23.613  1.00  0.00     0.092 C 
ATOM      8  C   UNL A   1      31.145  27.144  22.278  1.00  0.00     0.014 C 
ATOM      9  C   UNL A   1      30.049  28.201  22.350  1.00  0.00     0.001 C 
ATOM     10  C   UNL A   1      30.684  28.553  24.806  1.00  0.00     0.014 C 
ATOM     11  C   UNL A   1      30.263  29.189  23.482  1.00  0.00     0.001 C 
BRANCH   7  12
ATOM     12  C   UNL A   1      30.187  25.522  23.983  1.00  0.00     0.242 C 
ATOM     13  N   UNL A   1      30.155  24.216  23.579  1.00  0.00    -0.267 N 
ATOM     14  H   UNL A   1      29.419  23.662  23.926  1.00  0.00     0.191 HD
ATOM     15  O   UNL A   1      29.211  25.930  24.617  1.00  0.00    -0.273 OA
BRANCH  13  16
ATOM     16  N   UNL A   1      31.059  23.598  22.728  1.00  0.00    -0.265 N 
ATOM     17  C   UNL A   1      31.882  22.572  23.135  1.00  0.00     0.276 C 
ATOM     18  O   UNL A   1      32.581  21.969  22.319  1.00  0.00    -0.269 OA
ATOM     19  H   UNL A   1      31.113  23.903  21.793  1.00  0.00     0.191 HD
BRANCH  17  20
ATOM     20  C   UNL A   1      31.860  22.160  24.614  1.00  0.00     0.331 C 
BRANCH  20  21
ATOM     21  O   UNL A   1      32.979  21.414  25.071  1.00  0.00    -0.484 OA
BRANCH  21  22
ATOM     22  C   UNL A   1      34.141  22.096  25.310  1.00  0.00     0.120 A 
ATOM     23  C   UNL A   1      38.015  23.859  26.045  1.00  0.00     0.044 C 
ATOM     24  C   UNL A   1      36.669  23.249  25.786  1.00  0.00    -0.051 A 
ATOM     25  C   UNL A   1      36.557  21.890  25.477  1.00  0.00     0.007 A 
ATOM     26  C   UNL A   1      35.509  24.025  25.844  1.00  0.00     0.007 A 
ATOM     27  C   UNL A   1      35.301  21.320  25.244  1.00  0.00     0.047 A 
ATOM     28  C   UNL A   1      34.253  23.453  25.607  1.00  0.00     0.047 A 
ENDBRANCH  21  22
ENDBRANCH  20  21
ENDBRANCH  17  20
ENDBRANCH  13  16
ENDBRANCH   7  12
ENDBRANCH   3   6
ENDBRANCH   1   2
BRANCH   1  29
ATOM     29  C   UNL A   1      33.343  29.927  27.213  1.00  0.00     0.042 C 
BRANCH  29  30
ATOM     30  C   UNL A   1      34.691  29.764  27.890  1.00  0.00     0.118 C 
BRANCH  30  31
ATOM     31  N   UNL A   1      35.487  30.982  27.976  1.00  0.00    -0.352 N 
ATOM     32  C   UNL A   1      36.811  31.087  28.392  1.00  0.00     0.251 C 
ATOM     33  H   UNL A   1      35.041  31.819  27.712  1.00  0.00     0.163 HD
ATOM     34  O   UNL A   1      37.336  32.143  28.669  1.00  0.00    -0.269 OA
BRANCH  32  35
ATOM     35  C   UNL A   1      37.592  29.830  28.358  1.00  0.00     0.039 A 
ATOM     36  C   UNL A   1      37.686  29.123  29.563  1.00  0.00     0.014 A 
ATOM     37  C   UNL A   1      38.503  29.632  27.327  1.00  0.00     0.014 A 
ATOM     38  C   UNL A   1      38.824  28.366  29.819  1.00  0.00     0.010 A 
ATOM     39  C   UNL A   1      39.683  28.988  27.634  1.00  0.00     0.010 A 
ATOM     40  C   UNL A   1      39.864  28.393  28.893  1.00  0.00    -0.014 A 
BRANCH  40  41
ATOM     41  C   UNL A   1      41.197  27.859  29.144  1.00  0.00     0.031 A 
ATOM     42  C   UNL A   1      41.487  26.464  28.731  1.00  0.00     0.074 A 
ATOM     43  C   UNL A   1      42.186  28.623  29.661  1.00  0.00     0.049 A 
ATOM     44  N   UNL A   1      42.516  25.787  29.112  1.00  0.00    -0.248 NA
ATOM     45  C   UNL A   1      40.595  25.697  27.862  1.00  0.00     0.031 C 
ATOM     46  C   UNL A   1      43.621  28.333  29.649  1.00  0.00     0.029 A 
ATOM     47  N   UNL A   1      42.126  29.773  30.426  1.00  0.00    -0.354 N 
ATOM     48  C   UNL A   1      42.582  24.658  28.334  1.00  0.00     0.074 A 
ATOM     49  C   UNL A   1      41.339  24.622  27.602  1.00  0.00     0.031 C 
ATOM     50  C   UNL A   1      44.225  29.083  30.584  1.00  0.00     0.029 A 
ATOM     51  C   UNL A   1      43.185  29.753  31.340  1.00  0.00     0.049 A 
ATOM     52  H   UNL A   1      41.452  30.485  30.342  1.00  0.00     0.167 HD
ATOM     53  C   UNL A   1      43.732  23.930  28.303  1.00  0.00     0.031 A 
ATOM     54  C   UNL A   1      42.993  29.599  32.688  1.00  0.00     0.031 A 
ATOM     55  C   UNL A   1      44.711  24.408  29.277  1.00  0.00     0.049 A 
ATOM     56  C   UNL A   1      43.547  28.290  33.251  1.00  0.00     0.074 A 
ATOM     57  C   UNL A   1      45.878  25.152  29.219  1.00  0.00     0.029 A 
ATOM     58  N   UNL A   1      44.352  24.374  30.614  1.00  0.00    -0.354 N 
ATOM     59  N   UNL A   1      44.199  27.395  32.557  1.00  0.00    -0.248 NA
ATOM     60  C   UNL A   1      43.330  27.852  34.634  1.00  0.00     0.031 C 
ATOM     61  C   UNL A   1      46.199  25.579  30.546  1.00  0.00     0.029 A 
ATOM     62  C   UNL A   1      45.242  25.075  31.405  1.00  0.00     0.049 A 
ATOM     63  H   UNL A   1      43.559  23.905  30.961  1.00  0.00     0.167 HD
ATOM     64  C   UNL A   1      44.421  26.281  33.324  1.00  0.00     0.074 A 
ATOM     65  C   UNL A   1      43.878  26.623  34.626  1.00  0.00     0.031 C 
ATOM     66  C   UNL A   1      44.983  25.135  32.835  1.00  0.00     0.031 A 
BRANCH  53  67
ATOM     67  C   UNL A   1      44.009  22.927  27.214  1.00  0.00    -0.014 A 
ATOM     68  C   UNL A   1      43.033  21.969  26.884  1.00  0.00     0.010 A 
ATOM     69  C   UNL A   1      45.236  22.838  26.527  1.00  0.00     0.010 A 
ATOM     70  C   UNL A   1      43.302  20.919  25.994  1.00  0.00     0.020 A 
ATOM     71  C   UNL A   1      45.536  21.767  25.675  1.00  0.00     0.020 A 
ATOM     72  C   UNL A   1      44.566  20.806  25.418  1.00  0.00     0.054 A 
BRANCH  72  73
ATOM     73  S   UNL A   1      44.928  19.390  24.347  1.00  0.00     0.124 S 
ATOM     74  O   UNL A   1      46.382  19.281  24.444  1.00  0.00    -0.237 OA
ATOM     75  O   UNL A   1      44.170  18.318  24.983  1.00  0.00    -0.237 OA
ATOM     76  O   UNL A   1      44.431  19.811  23.037  1.00  0.00    -0.744 OA
ENDBRANCH  72  73
ENDBRANCH  53  67
BRANCH  54  77
ATOM     77  C   UNL A   1      41.793  30.330  33.192  1.00  0.00    -0.014 A 
ATOM     78  C   UNL A   1      41.946  31.717  33.416  1.00  0.00     0.010 A 
ATOM     79  C   UNL A   1      40.503  29.812  32.991  1.00  0.00     0.010 A 
ATOM     80  C   UNL A   1      40.875  32.589  33.208  1.00  0.00     0.020 A 
ATOM     81  C   UNL A   1      39.423  30.687  32.802  1.00  0.00     0.020 A 
ATOM     82  C   UNL A   1      39.641  32.068  32.823  1.00  0.00     0.054 A 
BRANCH  82  83
ATOM     83  S   UNL A   1      38.413  33.217  32.132  1.00  0.00     0.124 S 
ATOM     84  O   UNL A   1      38.291  34.220  33.186  1.00  0.00    -0.237 OA
ATOM     85  O   UNL A   1      39.081  33.669  30.910  1.00  0.00    -0.237 OA
ATOM     86  O   UNL A   1      37.240  32.374  31.927  1.00  0.00    -0.744 OA
ENDBRANCH  82  83
ENDBRANCH  54  77
BRANCH  66  87
ATOM     87  C   UNL A   1      45.281  23.920  33.679  1.00  0.00    -0.014 A 
ATOM     88  C   UNL A   1      46.513  23.736  34.327  1.00  0.00     0.010 A 
ATOM     89  C   UNL A   1      44.354  22.853  33.742  1.00  0.00     0.010 A 
ATOM     90  C   UNL A   1      46.776  22.575  35.068  1.00  0.00     0.020 A 
ATOM     91  C   UNL A   1      44.613  21.684  34.460  1.00  0.00     0.020 A 
ATOM     92  C   UNL A   1      45.817  21.562  35.141  1.00  0.00     0.054 A 
BRANCH  92  93
ATOM     93  S   UNL A   1      46.177  20.063  36.091  1.00  0.00     0.124 S 
ATOM     94  O   UNL A   1      45.317  19.067  35.457  1.00  0.00    -0.237 OA
ATOM     95  O   UNL A   1      47.609  19.897  35.858  1.00  0.00    -0.237 OA
ATOM     96  O   UNL A   1      45.805  20.419  37.458  1.00  0.00    -0.744 OA
ENDBRANCH  92  93
ENDBRANCH  66  87
ENDBRANCH  40  41
ENDBRANCH  32  35
ENDBRANCH  30  31
ENDBRANCH  29  30
ENDBRANCH   1  29
TORSDOF 18
ENDMDL
