MODEL 1
REMARK VINA RESULT:      -6.7      0.000      0.000
REMARK SMILES CC(C)C[C@H](NC(=O)CNC(=O)[C@@H](NC(=O)OCc1ccccc1)C(C)C)C(=O)N[C@@H](C)C(=O)NCCCNC(=O)c1ccc(-c2c3nc(c(-c4ccc(S(=O)(=O)[O-])cc4)c4ccc([nH]4)c(-c4ccc(S(=O)(=O)[O-])cc4)c4nc(c(-c5ccc(S(=O)(=O)[O-])cc5)c5ccc2[nH]5)C=C4)C=C3)cc1
REMARK SMILES IDX 31 1 32 2 30 3 28 4 29 5 5 7 4 8 2 9 1 10 3 11 6 12 7 13
REMARK SMILES IDX 8 15 9 16 10 17 11 18 12 20 13 21 14 22 15 23 16 25 17 26
REMARK SMILES IDX 18 27 19 28 20 29 24 30 21 31 23 32 22 33 25 34 26 35 27 36
REMARK SMILES IDX 33 37 34 38 35 39 36 41 37 42 38 43 39 44 40 45 41 47 42 48
REMARK SMILES IDX 43 49 101 50 44 51 100 52 45 53 46 54 47 55 94 56 48 57
REMARK SMILES IDX 99 58 93 59 95 60 49 61 98 62 92 63 91 64 50 66 80 67 61 68
REMARK SMILES IDX 79 69 62 70 65 71 78 72 96 73 63 74 64 75 77 77 97 78 66 79
REMARK SMILES IDX 51 80 52 81 60 82 53 83 59 84 54 85 55 86 56 87 57 88 58 89
REMARK SMILES IDX 81 90 82 91 90 92 83 93 89 94 84 95 85 96 86 97 87 98 88 99
REMARK SMILES IDX 67 100 68 101 76 102 69 103 75 104 70 105 71 106 72 107
REMARK SMILES IDX 73 108 74 109
REMARK H PARENT 30 6 6 14 10 19 14 24 35 40 39 46 95 65 65 76
REMARK Flexibility Score: inf
ROOT
ATOM      1  C   UNL A   1      45.804  24.453  38.209  1.00  0.00     0.168 C 
ATOM      2  C   UNL A   1      44.749  25.165  39.039  1.00  0.00     0.041 C 
ENDROOT
BRANCH   1   3
ATOM      3  N   UNL A   1      45.195  23.442  37.347  1.00  0.00    -0.343 N 
ATOM      4  C   UNL A   1      44.771  23.543  36.057  1.00  0.00     0.243 C 
ATOM      5  O   UNL A   1      44.538  22.495  35.452  1.00  0.00    -0.273 OA
ATOM      6  H   UNL A   1      45.072  22.557  37.760  1.00  0.00     0.164 HD
BRANCH   4   7
ATOM      7  C   UNL A   1      44.699  24.910  35.356  1.00  0.00     0.171 C 
BRANCH   7   8
ATOM      8  C   UNL A   1      43.245  25.343  35.156  1.00  0.00     0.038 C 
BRANCH   8   9
ATOM      9  C   UNL A   1      42.417  25.742  36.394  1.00  0.00    -0.015 C 
ATOM     10  C   UNL A   1      42.221  27.254  36.522  1.00  0.00     0.007 C 
ATOM     11  C   UNL A   1      41.043  25.068  36.294  1.00  0.00     0.007 C 
ENDBRANCH   8   9
ENDBRANCH   7   8
BRANCH   7  12
ATOM     12  N   UNL A   1      45.492  24.849  34.112  1.00  0.00    -0.343 N 
ATOM     13  C   UNL A   1      45.345  25.243  32.827  1.00  0.00     0.240 C 
ATOM     14  H   UNL A   1      46.357  24.402  34.256  1.00  0.00     0.164 HD
ATOM     15  O   UNL A   1      46.348  25.094  32.115  1.00  0.00    -0.273 OA
BRANCH  13  16
ATOM     16  C   UNL A   1      44.124  25.962  32.234  1.00  0.00     0.216 C 
BRANCH  16  17
ATOM     17  N   UNL A   1      44.302  26.841  31.100  1.00  0.00    -0.345 N 
ATOM     18  C   UNL A   1      44.081  26.708  29.768  1.00  0.00     0.243 C 
ATOM     19  H   UNL A   1      44.661  27.724  31.347  1.00  0.00     0.164 HD
ATOM     20  O   UNL A   1      44.160  27.758  29.118  1.00  0.00    -0.273 OA
BRANCH  18  21
ATOM     21  C   UNL A   1      43.733  25.372  29.038  1.00  0.00     0.177 C 
BRANCH  21  22
ATOM     22  N   UNL A   1      42.381  25.332  28.485  1.00  0.00    -0.309 N 
ATOM     23  C   UNL A   1      41.584  24.322  28.048  1.00  0.00     0.408 C 
ATOM     24  H   UNL A   1      41.961  26.220  28.414  1.00  0.00     0.167 HD
ATOM     25  O   UNL A   1      40.656  24.543  27.290  1.00  0.00    -0.225 OA
BRANCH  23  26
ATOM     26  O   UNL A   1      41.886  23.118  28.578  1.00  0.00    -0.445 OA
BRANCH  26  27
ATOM     27  C   UNL A   1      41.149  22.018  28.027  1.00  0.00     0.270 C 
BRANCH  27  28
ATOM     28  C   UNL A   1      41.905  21.127  27.054  1.00  0.00    -0.011 A 
ATOM     29  C   UNL A   1      41.608  19.756  27.043  1.00  0.00     0.007 A 
ATOM     30  C   UNL A   1      42.954  21.576  26.234  1.00  0.00     0.007 A 
ATOM     31  C   UNL A   1      42.350  18.866  26.262  1.00  0.00     0.000 A 
ATOM     32  C   UNL A   1      43.709  20.685  25.470  1.00  0.00     0.000 A 
ATOM     33  C   UNL A   1      43.410  19.329  25.487  1.00  0.00     0.000 A 
ENDBRANCH  27  28
ENDBRANCH  26  27
ENDBRANCH  23  26
ENDBRANCH  21  22
BRANCH  21  34
ATOM     34  C   UNL A   1      44.867  24.834  28.142  1.00  0.00     0.015 C 
ATOM     35  C   UNL A   1      44.873  25.506  26.762  1.00  0.00     0.010 C 
ATOM     36  C   UNL A   1      46.245  25.089  28.776  1.00  0.00     0.010 C 
ENDBRANCH  21  34
ENDBRANCH  18  21
ENDBRANCH  16  17
ENDBRANCH  13  16
ENDBRANCH   7  12
ENDBRANCH   4   7
ENDBRANCH   1   3
BRANCH   1  37
ATOM     37  C   UNL A   1      46.949  23.906  39.078  1.00  0.00     0.242 C 
ATOM     38  O   UNL A   1      47.126  22.689  39.191  1.00  0.00    -0.273 OA
ATOM     39  N   UNL A   1      47.862  24.724  39.660  1.00  0.00    -0.354 N 
ATOM     40  H   UNL A   1      48.543  24.261  40.201  1.00  0.00     0.163 HD
BRANCH  39  41
ATOM     41  C   UNL A   1      48.000  26.164  39.617  1.00  0.00     0.117 C 
BRANCH  41  42
ATOM     42  C   UNL A   1      47.518  26.814  40.903  1.00  0.00     0.042 C 
BRANCH  42  43
ATOM     43  C   UNL A   1      47.970  28.262  41.037  1.00  0.00     0.118 C 
BRANCH  43  44
ATOM     44  N   UNL A   1      46.839  29.183  41.105  1.00  0.00    -0.352 N 
ATOM     45  C   UNL A   1      46.211  29.867  40.094  1.00  0.00     0.251 C 
ATOM     46  H   UNL A   1      46.473  29.336  42.007  1.00  0.00     0.163 HD
ATOM     47  O   UNL A   1      45.467  30.807  40.353  1.00  0.00    -0.269 OA
BRANCH  45  48
ATOM     48  C   UNL A   1      46.446  29.452  38.700  1.00  0.00     0.039 A 
ATOM     49  C   UNL A   1      45.597  28.524  38.096  1.00  0.00     0.014 A 
ATOM     50  C   UNL A   1      47.513  30.009  37.991  1.00  0.00     0.014 A 
ATOM     51  C   UNL A   1      45.778  28.206  36.749  1.00  0.00     0.010 A 
ATOM     52  C   UNL A   1      47.629  29.769  36.632  1.00  0.00     0.010 A 
ATOM     53  C   UNL A   1      46.774  28.853  36.000  1.00  0.00    -0.014 A 
BRANCH  53  54
ATOM     54  C   UNL A   1      46.992  28.579  34.561  1.00  0.00     0.031 A 
ATOM     55  C   UNL A   1      47.960  27.499  34.163  1.00  0.00     0.074 A 
ATOM     56  C   UNL A   1      46.422  29.365  33.627  1.00  0.00     0.049 A 
ATOM     57  N   UNL A   1      48.447  27.218  32.983  1.00  0.00    -0.248 NA
ATOM     58  C   UNL A   1      48.482  26.648  35.248  1.00  0.00     0.031 C 
ATOM     59  C   UNL A   1      45.489  30.463  33.894  1.00  0.00     0.029 A 
ATOM     60  N   UNL A   1      46.568  29.377  32.263  1.00  0.00    -0.354 N 
ATOM     61  C   UNL A   1      49.350  26.182  33.189  1.00  0.00     0.074 A 
ATOM     62  C   UNL A   1      49.390  25.927  34.611  1.00  0.00     0.031 C 
ATOM     63  C   UNL A   1      45.142  31.034  32.730  1.00  0.00     0.029 A 
ATOM     64  C   UNL A   1      45.865  30.382  31.642  1.00  0.00     0.049 A 
ATOM     65  H   UNL A   1      47.123  28.726  31.775  1.00  0.00     0.167 HD
ATOM     66  C   UNL A   1      50.067  25.490  32.272  1.00  0.00     0.031 A 
ATOM     67  C   UNL A   1      45.829  30.755  30.348  1.00  0.00     0.031 A 
ATOM     68  C   UNL A   1      50.012  25.749  30.859  1.00  0.00     0.049 A 
ATOM     69  C   UNL A   1      46.647  29.989  29.345  1.00  0.00     0.074 A 
ATOM     70  C   UNL A   1      50.666  25.083  29.838  1.00  0.00     0.029 A 
ATOM     71  N   UNL A   1      49.257  26.752  30.269  1.00  0.00    -0.354 N 
ATOM     72  N   UNL A   1      47.466  28.983  29.548  1.00  0.00    -0.248 NA
ATOM     73  C   UNL A   1      46.532  30.395  27.938  1.00  0.00     0.031 C 
ATOM     74  C   UNL A   1      50.348  25.719  28.635  1.00  0.00     0.029 A 
ATOM     75  C   UNL A   1      49.439  26.734  28.899  1.00  0.00     0.049 A 
ATOM     76  H   UNL A   1      48.679  27.383  30.755  1.00  0.00     0.167 HD
ATOM     77  C   UNL A   1      47.930  28.610  28.291  1.00  0.00     0.074 A 
ATOM     78  C   UNL A   1      47.304  29.500  27.335  1.00  0.00     0.031 C 
ATOM     79  C   UNL A   1      48.790  27.616  27.961  1.00  0.00     0.031 A 
BRANCH  66  80
ATOM     80  C   UNL A   1      50.971  24.399  32.781  1.00  0.00    -0.014 A 
ATOM     81  C   UNL A   1      50.475  23.110  33.056  1.00  0.00     0.010 A 
ATOM     82  C   UNL A   1      52.339  24.659  32.981  1.00  0.00     0.010 A 
ATOM     83  C   UNL A   1      51.315  22.124  33.580  1.00  0.00     0.020 A 
ATOM     84  C   UNL A   1      53.191  23.664  33.470  1.00  0.00     0.020 A 
ATOM     85  C   UNL A   1      52.666  22.409  33.789  1.00  0.00     0.054 A 
BRANCH  85  86
ATOM     86  S   UNL A   1      53.731  21.110  34.472  1.00  0.00     0.124 S 
ATOM     87  O   UNL A   1      52.974  20.691  35.649  1.00  0.00    -0.237 OA
ATOM     88  O   UNL A   1      53.787  20.137  33.383  1.00  0.00    -0.237 OA
ATOM     89  O   UNL A   1      54.986  21.802  34.754  1.00  0.00    -0.744 OA
ENDBRANCH  85  86
ENDBRANCH  66  80
BRANCH  67  90
ATOM     90  C   UNL A   1      44.980  31.906  29.936  1.00  0.00    -0.014 A 
ATOM     91  C   UNL A   1      43.584  31.769  29.843  1.00  0.00     0.010 A 
ATOM     92  C   UNL A   1      45.561  33.162  29.671  1.00  0.00     0.010 A 
ATOM     93  C   UNL A   1      42.786  32.859  29.482  1.00  0.00     0.020 A 
ATOM     94  C   UNL A   1      44.764  34.260  29.339  1.00  0.00     0.020 A 
ATOM     95  C   UNL A   1      43.382  34.100  29.238  1.00  0.00     0.054 A 
BRANCH  95  96
ATOM     96  S   UNL A   1      42.318  35.513  28.832  1.00  0.00     0.124 S 
ATOM     97  O   UNL A   1      41.014  35.058  29.303  1.00  0.00    -0.237 OA
ATOM     98  O   UNL A   1      42.927  36.595  29.601  1.00  0.00    -0.237 OA
ATOM     99  O   UNL A   1      42.452  35.638  27.382  1.00  0.00    -0.744 OA
ENDBRANCH  95  96
ENDBRANCH  67  90
BRANCH  79 100
ATOM    100  C   UNL A   1      49.065  27.376  26.500  1.00  0.00    -0.014 A 
ATOM    101  C   UNL A   1      48.187  26.629  25.698  1.00  0.00     0.010 A 
ATOM    102  C   UNL A   1      50.168  28.016  25.902  1.00  0.00     0.010 A 
ATOM    103  C   UNL A   1      48.407  26.527  24.321  1.00  0.00     0.020 A 
ATOM    104  C   UNL A   1      50.375  27.940  24.524  1.00  0.00     0.020 A 
ATOM    105  C   UNL A   1      49.494  27.192  23.742  1.00  0.00     0.054 A 
BRANCH 105 106
ATOM    106  S   UNL A   1      49.699  27.124  21.941  1.00  0.00     0.124 S 
ATOM    107  O   UNL A   1      51.121  26.818  21.807  1.00  0.00    -0.237 OA
ATOM    108  O   UNL A   1      48.786  26.050  21.557  1.00  0.00    -0.237 OA
ATOM    109  O   UNL A   1      49.304  28.458  21.495  1.00  0.00    -0.744 OA
ENDBRANCH 105 106
ENDBRANCH  79 100
ENDBRANCH  53  54
ENDBRANCH  45  48
ENDBRANCH  43  44
ENDBRANCH  42  43
ENDBRANCH  41  42
ENDBRANCH  39  41
ENDBRANCH   1  37
TORSDOF 26
ENDMDL
MODEL 2
REMARK VINA RESULT:      -6.5      6.310     13.462
REMARK SMILES CC(C)C[C@H](NC(=O)CNC(=O)[C@@H](NC(=O)OCc1ccccc1)C(C)C)C(=O)N[C@@H](C)C(=O)NCCCNC(=O)c1ccc(-c2c3nc(c(-c4ccc(S(=O)(=O)[O-])cc4)c4ccc([nH]4)c(-c4ccc(S(=O)(=O)[O-])cc4)c4nc(c(-c5ccc(S(=O)(=O)[O-])cc5)c5ccc2[nH]5)C=C4)C=C3)cc1
REMARK SMILES IDX 31 1 32 2 30 3 28 4 29 5 5 7 4 8 2 9 1 10 3 11 6 12 7 13
REMARK SMILES IDX 8 15 9 16 10 17 11 18 12 20 13 21 14 22 15 23 16 25 17 26
REMARK SMILES IDX 18 27 19 28 20 29 24 30 21 31 23 32 22 33 25 34 26 35 27 36
REMARK SMILES IDX 33 37 34 38 35 39 36 41 37 42 38 43 39 44 40 45 41 47 42 48
REMARK SMILES IDX 43 49 101 50 44 51 100 52 45 53 46 54 47 55 94 56 48 57
REMARK SMILES IDX 99 58 93 59 95 60 49 61 98 62 92 63 91 64 50 66 80 67 61 68
REMARK SMILES IDX 79 69 62 70 65 71 78 72 96 73 63 74 64 75 77 77 97 78 66 79
REMARK SMILES IDX 51 80 52 81 60 82 53 83 59 84 54 85 55 86 56 87 57 88 58 89
REMARK SMILES IDX 81 90 82 91 90 92 83 93 89 94 84 95 85 96 86 97 87 98 88 99
REMARK SMILES IDX 67 100 68 101 76 102 69 103 75 104 70 105 71 106 72 107
REMARK SMILES IDX 73 108 74 109
REMARK H PARENT 30 6 6 14 10 19 14 24 35 40 39 46 95 65 65 76
REMARK Flexibility Score: inf
ROOT
ATOM      1  C   UNL A   1      47.302  29.782  27.425  1.00  0.00     0.168 C 
ATOM      2  C   UNL A   1      47.051  30.058  28.898  1.00  0.00     0.041 C 
ENDROOT
BRANCH   1   3
ATOM      3  N   UNL A   1      48.728  29.876  27.113  1.00  0.00    -0.343 N 
ATOM      4  C   UNL A   1      49.523  29.015  26.421  1.00  0.00     0.243 C 
ATOM      5  O   UNL A   1      50.624  29.428  26.054  1.00  0.00    -0.273 OA
ATOM      6  H   UNL A   1      49.180  30.682  27.454  1.00  0.00     0.164 HD
BRANCH   4   7
ATOM      7  C   UNL A   1      49.012  27.622  26.016  1.00  0.00     0.171 C 
BRANCH   7   8
ATOM      8  C   UNL A   1      50.152  26.601  26.023  1.00  0.00     0.038 C 
BRANCH   8   9
ATOM      9  C   UNL A   1      50.177  25.531  27.133  1.00  0.00    -0.015 C 
ATOM     10  C   UNL A   1      50.635  26.081  28.485  1.00  0.00     0.007 C 
ATOM     11  C   UNL A   1      48.763  24.956  27.282  1.00  0.00     0.007 C 
ENDBRANCH   8   9
ENDBRANCH   7   8
BRANCH   7  12
ATOM     12  N   UNL A   1      48.301  27.732  24.727  1.00  0.00    -0.343 N 
ATOM     13  C   UNL A   1      47.040  27.548  24.276  1.00  0.00     0.240 C 
ATOM     14  H   UNL A   1      48.906  28.013  24.003  1.00  0.00     0.164 HD
ATOM     15  O   UNL A   1      46.850  27.883  23.098  1.00  0.00    -0.273 OA
BRANCH  13  16
ATOM     16  C   UNL A   1      45.833  27.103  25.116  1.00  0.00     0.216 C 
BRANCH  16  17
ATOM     17  N   UNL A   1      44.501  27.468  24.690  1.00  0.00    -0.345 N 
ATOM     18  C   UNL A   1      43.274  27.363  25.258  1.00  0.00     0.243 C 
ATOM     19  H   UNL A   1      44.480  27.881  23.796  1.00  0.00     0.164 HD
ATOM     20  O   UNL A   1      42.373  27.978  24.674  1.00  0.00    -0.273 OA
BRANCH  18  21
ATOM     21  C   UNL A   1      42.945  26.559  26.556  1.00  0.00     0.177 C 
BRANCH  21  22
ATOM     22  N   UNL A   1      44.015  25.663  26.988  1.00  0.00    -0.309 N 
ATOM     23  C   UNL A   1      44.308  24.364  26.715  1.00  0.00     0.408 C 
ATOM     24  H   UNL A   1      44.656  26.088  27.603  1.00  0.00     0.167 HD
ATOM     25  O   UNL A   1      45.019  23.716  27.462  1.00  0.00    -0.225 OA
BRANCH  23  26
ATOM     26  O   UNL A   1      43.800  23.922  25.546  1.00  0.00    -0.445 OA
BRANCH  26  27
ATOM     27  C   UNL A   1      44.418  22.734  25.034  1.00  0.00     0.270 C 
BRANCH  27  28
ATOM     28  C   UNL A   1      43.776  21.417  25.440  1.00  0.00    -0.011 A 
ATOM     29  C   UNL A   1      44.446  20.227  25.120  1.00  0.00     0.007 A 
ATOM     30  C   UNL A   1      42.503  21.315  26.026  1.00  0.00     0.007 A 
ATOM     31  C   UNL A   1      43.854  18.983  25.356  1.00  0.00     0.000 A 
ATOM     32  C   UNL A   1      41.902  20.074  26.242  1.00  0.00     0.000 A 
ATOM     33  C   UNL A   1      42.575  18.908  25.903  1.00  0.00     0.000 A 
ENDBRANCH  27  28
ENDBRANCH  26  27
ENDBRANCH  23  26
ENDBRANCH  21  22
BRANCH  21  34
ATOM     34  C   UNL A   1      42.254  27.395  27.653  1.00  0.00     0.015 C 
ATOM     35  C   UNL A   1      41.093  26.633  28.306  1.00  0.00     0.010 C 
ATOM     36  C   UNL A   1      43.240  27.765  28.774  1.00  0.00     0.010 C 
ENDBRANCH  21  34
ENDBRANCH  18  21
ENDBRANCH  16  17
ENDBRANCH  13  16
ENDBRANCH   7  12
ENDBRANCH   4   7
ENDBRANCH   1   3
BRANCH   1  37
ATOM     37  C   UNL A   1      46.419  30.653  26.516  1.00  0.00     0.242 C 
ATOM     38  O   UNL A   1      45.428  30.173  25.956  1.00  0.00    -0.273 OA
ATOM     39  N   UNL A   1      46.625  31.987  26.379  1.00  0.00    -0.354 N 
ATOM     40  H   UNL A   1      46.003  32.438  25.763  1.00  0.00     0.163 HD
BRANCH  39  41
ATOM     41  C   UNL A   1      47.609  32.856  26.989  1.00  0.00     0.117 C 
BRANCH  41  42
ATOM     42  C   UNL A   1      48.018  33.984  26.057  1.00  0.00     0.042 C 
BRANCH  42  43
ATOM     43  C   UNL A   1      46.836  34.836  25.610  1.00  0.00     0.118 C 
BRANCH  43  44
ATOM     44  N   UNL A   1      47.197  36.245  25.482  1.00  0.00    -0.352 N 
ATOM     45  C   UNL A   1      46.773  37.323  26.218  1.00  0.00     0.251 C 
ATOM     46  H   UNL A   1      47.838  36.453  24.763  1.00  0.00     0.163 HD
ATOM     47  O   UNL A   1      46.952  38.464  25.804  1.00  0.00    -0.269 OA
BRANCH  45  48
ATOM     48  C   UNL A   1      46.102  37.086  27.508  1.00  0.00     0.039 A 
ATOM     49  C   UNL A   1      46.780  36.429  28.536  1.00  0.00     0.014 A 
ATOM     50  C   UNL A   1      44.793  37.538  27.693  1.00  0.00     0.014 A 
ATOM     51  C   UNL A   1      46.164  36.288  29.781  1.00  0.00     0.010 A 
ATOM     52  C   UNL A   1      44.225  37.486  28.955  1.00  0.00     0.010 A 
ATOM     53  C   UNL A   1      44.896  36.847  30.007  1.00  0.00    -0.014 A 
BRANCH  53  54
ATOM     54  C   UNL A   1      44.208  36.755  31.316  1.00  0.00     0.031 A 
ATOM     55  C   UNL A   1      44.656  37.649  32.440  1.00  0.00     0.074 A 
ATOM     56  C   UNL A   1      43.278  35.804  31.528  1.00  0.00     0.049 A 
ATOM     57  N   UNL A   1      44.336  37.610  33.706  1.00  0.00    -0.248 NA
ATOM     58  C   UNL A   1      45.629  38.702  32.097  1.00  0.00     0.031 C 
ATOM     59  C   UNL A   1      42.785  34.859  30.523  1.00  0.00     0.029 A 
ATOM     60  N   UNL A   1      42.604  35.457  32.670  1.00  0.00    -0.354 N 
ATOM     61  C   UNL A   1      45.087  38.610  34.313  1.00  0.00     0.074 A 
ATOM     62  C   UNL A   1      45.924  39.195  33.289  1.00  0.00     0.031 C 
ATOM     63  C   UNL A   1      41.880  34.048  31.093  1.00  0.00     0.029 A 
ATOM     64  C   UNL A   1      41.769  34.376  32.511  1.00  0.00     0.049 A 
ATOM     65  H   UNL A   1      42.706  35.938  33.524  1.00  0.00     0.167 HD
ATOM     66  C   UNL A   1      45.067  39.018  35.603  1.00  0.00     0.031 A 
ATOM     67  C   UNL A   1      41.022  33.707  33.411  1.00  0.00     0.031 A 
ATOM     68  C   UNL A   1      44.225  38.432  36.609  1.00  0.00     0.049 A 
ATOM     69  C   UNL A   1      41.026  34.161  34.845  1.00  0.00     0.074 A 
ATOM     70  C   UNL A   1      44.094  38.794  37.938  1.00  0.00     0.029 A 
ATOM     71  N   UNL A   1      43.366  37.363  36.396  1.00  0.00    -0.354 N 
ATOM     72  N   UNL A   1      41.711  35.135  35.396  1.00  0.00    -0.248 NA
ATOM     73  C   UNL A   1      40.152  33.436  35.778  1.00  0.00     0.031 C 
ATOM     74  C   UNL A   1      43.197  37.909  38.541  1.00  0.00     0.029 A 
ATOM     75  C   UNL A   1      42.714  37.042  37.572  1.00  0.00     0.049 A 
ATOM     76  H   UNL A   1      43.242  36.902  35.536  1.00  0.00     0.167 HD
ATOM     77  C   UNL A   1      41.319  35.168  36.731  1.00  0.00     0.074 A 
ATOM     78  C   UNL A   1      40.340  34.113  36.903  1.00  0.00     0.031 C 
ATOM     79  C   UNL A   1      41.726  36.001  37.718  1.00  0.00     0.031 A 
BRANCH  66  80
ATOM     80  C   UNL A   1      45.991  40.144  35.987  1.00  0.00    -0.014 A 
ATOM     81  C   UNL A   1      47.309  39.891  36.412  1.00  0.00     0.010 A 
ATOM     82  C   UNL A   1      45.541  41.474  35.917  1.00  0.00     0.010 A 
ATOM     83  C   UNL A   1      48.137  40.942  36.818  1.00  0.00     0.020 A 
ATOM     84  C   UNL A   1      46.377  42.531  36.287  1.00  0.00     0.020 A 
ATOM     85  C   UNL A   1      47.663  42.254  36.758  1.00  0.00     0.054 A 
BRANCH  85  86
ATOM     86  S   UNL A   1      48.759  43.596  37.293  1.00  0.00     0.124 S 
ATOM     87  O   UNL A   1      48.877  44.391  36.073  1.00  0.00    -0.237 OA
ATOM     88  O   UNL A   1      47.998  44.218  38.375  1.00  0.00    -0.237 OA
ATOM     89  O   UNL A   1      49.978  42.906  37.707  1.00  0.00    -0.744 OA
ENDBRANCH  85  86
ENDBRANCH  66  80
BRANCH  67  90
ATOM     90  C   UNL A   1      40.205  32.543  32.970  1.00  0.00    -0.014 A 
ATOM     91  C   UNL A   1      40.722  31.238  33.042  1.00  0.00     0.010 A 
ATOM     92  C   UNL A   1      38.887  32.729  32.512  1.00  0.00     0.010 A 
ATOM     93  C   UNL A   1      39.944  30.143  32.654  1.00  0.00     0.020 A 
ATOM     94  C   UNL A   1      38.095  31.636  32.151  1.00  0.00     0.020 A 
ATOM     95  C   UNL A   1      38.632  30.349  32.216  1.00  0.00     0.054 A 
BRANCH  95  96
ATOM     96  S   UNL A   1      37.622  28.907  31.777  1.00  0.00     0.124 S 
ATOM     97  O   UNL A   1      38.450  28.250  30.771  1.00  0.00    -0.237 OA
ATOM     98  O   UNL A   1      37.502  28.208  33.054  1.00  0.00    -0.237 OA
ATOM     99  O   UNL A   1      36.381  29.497  31.279  1.00  0.00    -0.744 OA
ENDBRANCH  95  96
ENDBRANCH  67  90
BRANCH  79 100
ATOM    100  C   UNL A   1      41.075  35.868  39.069  1.00  0.00    -0.014 A 
ATOM    101  C   UNL A   1      39.874  36.528  39.377  1.00  0.00     0.010 A 
ATOM    102  C   UNL A   1      41.623  34.966  40.002  1.00  0.00     0.010 A 
ATOM    103  C   UNL A   1      39.232  36.288  40.596  1.00  0.00     0.020 A 
ATOM    104  C   UNL A   1      40.970  34.702  41.207  1.00  0.00     0.020 A 
ATOM    105  C   UNL A   1      39.779  35.368  41.498  1.00  0.00     0.054 A 
BRANCH 105 106
ATOM    106  S   UNL A   1      38.874  35.002  43.027  1.00  0.00     0.124 S 
ATOM    107  O   UNL A   1      37.495  35.282  42.639  1.00  0.00    -0.237 OA
ATOM    108  O   UNL A   1      39.191  33.594  43.254  1.00  0.00    -0.237 OA
ATOM    109  O   UNL A   1      39.448  35.929  44.000  1.00  0.00    -0.744 OA
ENDBRANCH 105 106
ENDBRANCH  79 100
ENDBRANCH  53  54
ENDBRANCH  45  48
ENDBRANCH  43  44
ENDBRANCH  42  43
ENDBRANCH  41  42
ENDBRANCH  39  41
ENDBRANCH   1  37
TORSDOF 26
ENDMDL
MODEL 3
REMARK VINA RESULT:      -6.3      8.473     15.112
REMARK SMILES CC(C)C[C@H](NC(=O)CNC(=O)[C@@H](NC(=O)OCc1ccccc1)C(C)C)C(=O)N[C@@H](C)C(=O)NCCCNC(=O)c1ccc(-c2c3nc(c(-c4ccc(S(=O)(=O)[O-])cc4)c4ccc([nH]4)c(-c4ccc(S(=O)(=O)[O-])cc4)c4nc(c(-c5ccc(S(=O)(=O)[O-])cc5)c5ccc2[nH]5)C=C4)C=C3)cc1
REMARK SMILES IDX 31 1 32 2 30 3 28 4 29 5 5 7 4 8 2 9 1 10 3 11 6 12 7 13
REMARK SMILES IDX 8 15 9 16 10 17 11 18 12 20 13 21 14 22 15 23 16 25 17 26
REMARK SMILES IDX 18 27 19 28 20 29 24 30 21 31 23 32 22 33 25 34 26 35 27 36
REMARK SMILES IDX 33 37 34 38 35 39 36 41 37 42 38 43 39 44 40 45 41 47 42 48
REMARK SMILES IDX 43 49 101 50 44 51 100 52 45 53 46 54 47 55 94 56 48 57
REMARK SMILES IDX 99 58 93 59 95 60 49 61 98 62 92 63 91 64 50 66 80 67 61 68
REMARK SMILES IDX 79 69 62 70 65 71 78 72 96 73 63 74 64 75 77 77 97 78 66 79
REMARK SMILES IDX 51 80 52 81 60 82 53 83 59 84 54 85 55 86 56 87 57 88 58 89
REMARK SMILES IDX 81 90 82 91 90 92 83 93 89 94 84 95 85 96 86 97 87 98 88 99
REMARK SMILES IDX 67 100 68 101 76 102 69 103 75 104 70 105 71 106 72 107
REMARK SMILES IDX 73 108 74 109
REMARK H PARENT 30 6 6 14 10 19 14 24 35 40 39 46 95 65 65 76
REMARK Flexibility Score: inf
ROOT
ATOM      1  C   UNL A   1      44.784  41.705  27.269  1.00  0.00     0.168 C 
ATOM      2  C   UNL A   1      44.464  42.523  28.509  1.00  0.00     0.041 C 
ENDROOT
BRANCH   1   3
ATOM      3  N   UNL A   1      43.649  41.691  26.347  1.00  0.00    -0.343 N 
ATOM      4  C   UNL A   1      42.476  41.005  26.426  1.00  0.00     0.243 C 
ATOM      5  O   UNL A   1      41.563  41.353  25.675  1.00  0.00    -0.273 OA
ATOM      6  H   UNL A   1      43.749  42.262  25.551  1.00  0.00     0.164 HD
BRANCH   4   7
ATOM      7  C   UNL A   1      42.270  39.917  27.492  1.00  0.00     0.171 C 
BRANCH   7   8
ATOM      8  C   UNL A   1      42.088  38.544  26.841  1.00  0.00     0.038 C 
BRANCH   8   9
ATOM      9  C   UNL A   1      42.927  37.362  27.365  1.00  0.00    -0.015 C 
ATOM     10  C   UNL A   1      42.688  37.067  28.847  1.00  0.00     0.007 C 
ATOM     11  C   UNL A   1      42.570  36.115  26.545  1.00  0.00     0.007 C 
ENDBRANCH   8   9
ENDBRANCH   7   8
BRANCH   7  12
ATOM     12  N   UNL A   1      41.159  40.322  28.377  1.00  0.00    -0.343 N 
ATOM     13  C   UNL A   1      41.022  40.793  29.636  1.00  0.00     0.240 C 
ATOM     14  H   UNL A   1      40.287  40.221  27.932  1.00  0.00     0.164 HD
ATOM     15  O   UNL A   1      39.870  41.129  29.949  1.00  0.00    -0.273 OA
BRANCH  13  16
ATOM     16  C   UNL A   1      42.161  41.068  30.631  1.00  0.00     0.216 C 
BRANCH  16  17
ATOM     17  N   UNL A   1      41.842  41.536  31.961  1.00  0.00    -0.345 N 
ATOM     18  C   UNL A   1      42.469  41.447  33.160  1.00  0.00     0.243 C 
ATOM     19  H   UNL A   1      40.987  42.023  32.005  1.00  0.00     0.164 HD
ATOM     20  O   UNL A   1      41.989  42.154  34.055  1.00  0.00    -0.273 OA
BRANCH  18  21
ATOM     21  C   UNL A   1      43.714  40.555  33.465  1.00  0.00     0.177 C 
BRANCH  21  22
ATOM     22  N   UNL A   1      43.632  39.207  32.906  1.00  0.00    -0.309 N 
ATOM     23  C   UNL A   1      43.288  38.002  33.430  1.00  0.00     0.408 C 
ATOM     24  H   UNL A   1      43.877  39.164  31.953  1.00  0.00     0.167 HD
ATOM     25  O   UNL A   1      43.644  36.966  32.898  1.00  0.00    -0.225 OA
BRANCH  23  26
ATOM     26  O   UNL A   1      42.491  38.085  34.516  1.00  0.00    -0.445 OA
BRANCH  26  27
ATOM     27  C   UNL A   1      42.541  36.945  35.385  1.00  0.00     0.270 C 
BRANCH  27  28
ATOM     28  C   UNL A   1      41.220  36.233  35.632  1.00  0.00    -0.011 A 
ATOM     29  C   UNL A   1      40.760  36.129  36.953  1.00  0.00     0.007 A 
ATOM     30  C   UNL A   1      40.480  35.585  34.628  1.00  0.00     0.007 A 
ATOM     31  C   UNL A   1      39.619  35.384  37.260  1.00  0.00     0.000 A 
ATOM     32  C   UNL A   1      39.353  34.822  34.936  1.00  0.00     0.000 A 
ATOM     33  C   UNL A   1      38.924  34.718  36.253  1.00  0.00     0.000 A 
ENDBRANCH  27  28
ENDBRANCH  26  27
ENDBRANCH  23  26
ENDBRANCH  21  22
BRANCH  21  34
ATOM     34  C   UNL A   1      45.062  41.288  33.315  1.00  0.00     0.015 C 
ATOM     35  C   UNL A   1      46.097  40.798  34.338  1.00  0.00     0.010 C 
ATOM     36  C   UNL A   1      45.665  41.064  31.918  1.00  0.00     0.010 C 
ENDBRANCH  21  34
ENDBRANCH  18  21
ENDBRANCH  16  17
ENDBRANCH  13  16
ENDBRANCH   7  12
ENDBRANCH   4   7
ENDBRANCH   1   3
BRANCH   1  37
ATOM     37  C   UNL A   1      45.301  40.299  27.623  1.00  0.00     0.242 C 
ATOM     38  O   UNL A   1      45.066  39.804  28.729  1.00  0.00    -0.273 OA
ATOM     39  N   UNL A   1      45.932  39.517  26.712  1.00  0.00    -0.354 N 
ATOM     40  H   UNL A   1      46.227  38.642  27.055  1.00  0.00     0.163 HD
BRANCH  39  41
ATOM     41  C   UNL A   1      46.244  39.757  25.318  1.00  0.00     0.117 C 
BRANCH  41  42
ATOM     42  C   UNL A   1      47.477  38.985  24.878  1.00  0.00     0.042 C 
BRANCH  42  43
ATOM     43  C   UNL A   1      47.853  37.872  25.848  1.00  0.00     0.118 C 
BRANCH  43  44
ATOM     44  N   UNL A   1      47.995  36.585  25.173  1.00  0.00    -0.352 N 
ATOM     45  C   UNL A   1      47.951  35.317  25.698  1.00  0.00     0.251 C 
ATOM     46  H   UNL A   1      48.144  36.633  24.201  1.00  0.00     0.163 HD
ATOM     47  O   UNL A   1      48.366  34.364  25.048  1.00  0.00    -0.269 OA
BRANCH  45  48
ATOM     48  C   UNL A   1      47.399  35.125  27.051  1.00  0.00     0.039 A 
ATOM     49  C   UNL A   1      47.948  34.160  27.896  1.00  0.00     0.014 A 
ATOM     50  C   UNL A   1      46.339  35.926  27.477  1.00  0.00     0.014 A 
ATOM     51  C   UNL A   1      47.474  34.047  29.205  1.00  0.00     0.010 A 
ATOM     52  C   UNL A   1      45.939  35.881  28.803  1.00  0.00     0.010 A 
ATOM     53  C   UNL A   1      46.491  34.932  29.676  1.00  0.00    -0.014 A 
BRANCH  53  54
ATOM     54  C   UNL A   1      45.972  34.879  31.063  1.00  0.00     0.031 A 
ATOM     55  C   UNL A   1      46.779  35.506  32.167  1.00  0.00     0.074 A 
ATOM     56  C   UNL A   1      44.857  34.178  31.343  1.00  0.00     0.049 A 
ATOM     57  N   UNL A   1      46.620  35.415  33.461  1.00  0.00    -0.248 NA
ATOM     58  C   UNL A   1      47.946  36.308  31.758  1.00  0.00     0.031 C 
ATOM     59  C   UNL A   1      44.008  33.501  30.360  1.00  0.00     0.029 A 
ATOM     60  N   UNL A   1      44.263  33.895  32.546  1.00  0.00    -0.354 N 
ATOM     61  C   UNL A   1      47.680  36.122  34.017  1.00  0.00     0.074 A 
ATOM     62  C   UNL A   1      48.508  36.581  32.924  1.00  0.00     0.031 C 
ATOM     63  C   UNL A   1      42.999  32.890  31.000  1.00  0.00     0.029 A 
ATOM     64  C   UNL A   1      43.158  33.083  32.438  1.00  0.00     0.049 A 
ATOM     65  H   UNL A   1      44.595  34.240  33.407  1.00  0.00     0.167 HD
ATOM     66  C   UNL A   1      47.931  36.383  35.322  1.00  0.00     0.031 A 
ATOM     67  C   UNL A   1      42.378  32.535  33.390  1.00  0.00     0.031 A 
ATOM     68  C   UNL A   1      47.096  35.927  36.399  1.00  0.00     0.049 A 
ATOM     69  C   UNL A   1      42.682  32.818  34.835  1.00  0.00     0.074 A 
ATOM     70  C   UNL A   1      47.234  36.166  37.754  1.00  0.00     0.029 A 
ATOM     71  N   UNL A   1      45.965  35.139  36.241  1.00  0.00    -0.354 N 
ATOM     72  N   UNL A   1      43.664  33.523  35.346  1.00  0.00    -0.248 NA
ATOM     73  C   UNL A   1      41.770  32.244  35.835  1.00  0.00     0.031 C 
ATOM     74  C   UNL A   1      46.216  35.479  38.421  1.00  0.00     0.029 A 
ATOM     75  C   UNL A   1      45.402  34.871  37.476  1.00  0.00     0.049 A 
ATOM     76  H   UNL A   1      45.615  34.819  35.379  1.00  0.00     0.167 HD
ATOM     77  C   UNL A   1      43.465  33.512  36.722  1.00  0.00     0.074 A 
ATOM     78  C   UNL A   1      42.271  32.728  36.964  1.00  0.00     0.031 C 
ATOM     79  C   UNL A   1      44.200  34.105  37.694  1.00  0.00     0.031 A 
BRANCH  66  80
ATOM     80  C   UNL A   1      49.161  37.190  35.642  1.00  0.00    -0.014 A 
ATOM     81  C   UNL A   1      49.115  38.596  35.698  1.00  0.00     0.010 A 
ATOM     82  C   UNL A   1      50.380  36.538  35.899  1.00  0.00     0.010 A 
ATOM     83  C   UNL A   1      50.277  39.334  35.942  1.00  0.00     0.020 A 
ATOM     84  C   UNL A   1      51.537  37.270  36.180  1.00  0.00     0.020 A 
ATOM     85  C   UNL A   1      51.481  38.666  36.176  1.00  0.00     0.054 A 
BRANCH  85  86
ATOM     86  S   UNL A   1      52.972  39.650  36.487  1.00  0.00     0.124 S 
ATOM     87  O   UNL A   1      53.165  39.456  37.923  1.00  0.00    -0.237 OA
ATOM     88  O   UNL A   1      53.964  39.007  35.629  1.00  0.00    -0.237 OA
ATOM     89  O   UNL A   1      52.587  41.001  36.089  1.00  0.00    -0.744 OA
ENDBRANCH  85  86
ENDBRANCH  66  80
BRANCH  67  90
ATOM     90  C   UNL A   1      41.233  31.669  32.995  1.00  0.00    -0.014 A 
ATOM     91  C   UNL A   1      41.328  30.270  33.089  1.00  0.00     0.010 A 
ATOM     92  C   UNL A   1      40.022  32.242  32.560  1.00  0.00     0.010 A 
ATOM     93  C   UNL A   1      40.241  29.460  32.745  1.00  0.00     0.020 A 
ATOM     94  C   UNL A   1      38.925  31.438  32.243  1.00  0.00     0.020 A 
ATOM     95  C   UNL A   1      39.044  30.050  32.329  1.00  0.00     0.054 A 
BRANCH  95  96
ATOM     96  S   UNL A   1      37.630  28.979  31.947  1.00  0.00     0.124 S 
ATOM     97  O   UNL A   1      37.916  28.575  30.574  1.00  0.00    -0.237 OA
ATOM     98  O   UNL A   1      37.751  27.929  32.955  1.00  0.00    -0.237 OA
ATOM     99  O   UNL A   1      36.477  29.862  32.113  1.00  0.00    -0.744 OA
ENDBRANCH  95  96
ENDBRANCH  67  90
BRANCH  79 100
ATOM    100  C   UNL A   1      43.711  33.999  39.115  1.00  0.00    -0.014 A 
ATOM    101  C   UNL A   1      44.153  32.977  39.971  1.00  0.00     0.010 A 
ATOM    102  C   UNL A   1      42.884  35.017  39.627  1.00  0.00     0.010 A 
ATOM    103  C   UNL A   1      43.775  32.976  41.317  1.00  0.00     0.020 A 
ATOM    104  C   UNL A   1      42.528  35.035  40.976  1.00  0.00     0.020 A 
ATOM    105  C   UNL A   1      42.974  34.011  41.813  1.00  0.00     0.054 A 
BRANCH 105 106
ATOM    106  S   UNL A   1      42.582  34.039  43.584  1.00  0.00     0.124 S 
ATOM    107  O   UNL A   1      41.393  33.193  43.646  1.00  0.00    -0.237 OA
ATOM    108  O   UNL A   1      43.788  33.475  44.186  1.00  0.00    -0.237 OA
ATOM    109  O   UNL A   1      42.355  35.454  43.867  1.00  0.00    -0.744 OA
ENDBRANCH 105 106
ENDBRANCH  79 100
ENDBRANCH  53  54
ENDBRANCH  45  48
ENDBRANCH  43  44
ENDBRANCH  42  43
ENDBRANCH  41  42
ENDBRANCH  39  41
ENDBRANCH   1  37
TORSDOF 26
ENDMDL
