MODEL 1
REMARK VINA RESULT:     -13.1      0.000      0.000
REMARK SMILES Cc1ccc(-c2cc(C(=O)NCCCNC(=O)c3ccc(-c4c5nc(c(-c6ccc(S(=O)(=O)[O-])cc6)c6ccc([nH]6)c(-c6ccc(S(=O)(=O)[O-])cc6)c6nc(c(-c7ccc(S(=O)(=O)[O-])cc7)c7ccc4[nH]7)C=C6)C=C5)cc3)c3c(-c4cccc([N+](=O)[O-])c4)[nH]nc3n2)cc1
REMARK SMILES IDX 13 1 12 2 11 3 9 4 10 5 8 7 6 8 7 9 92 10 91 11 78 12 90 13
REMARK SMILES IDX 79 14 89 15 5 17 1 18 2 19 3 20 94 21 4 22 93 23 80 24 81 25
REMARK SMILES IDX 88 26 82 27 84 28 83 29 85 30 86 31 87 32 14 33 15 34 16 35
REMARK SMILES IDX 17 37 18 38 19 39 77 40 20 41 76 42 21 43 22 44 23 45 70 46
REMARK SMILES IDX 24 47 75 48 69 49 71 50 25 51 74 52 68 53 67 54 26 56 56 57
REMARK SMILES IDX 37 58 55 59 38 60 41 61 54 62 72 63 39 64 40 65 53 67 73 68
REMARK SMILES IDX 42 69 27 70 28 71 36 72 29 73 35 74 30 75 31 76 32 77 33 78
REMARK SMILES IDX 34 79 57 80 58 81 66 82 59 83 65 84 60 85 61 86 62 87 63 88
REMARK SMILES IDX 64 89 43 90 44 91 52 92 45 93 51 94 46 95 47 96 48 97 49 98
REMARK SMILES IDX 50 99
REMARK H PARENT 11 6 89 16 15 36 71 55 41 66
REMARK Flexibility Score: inf
ROOT
ATOM      1  C   UNL A   1      32.041  29.041  25.597  1.00  0.00     0.042 C 
ENDROOT
BRANCH   1   2
ATOM      2  C   UNL A   1      32.386  27.913  26.695  1.00  0.00     0.118 C 
BRANCH   2   3
ATOM      3  N   UNL A   1      31.716  26.585  26.631  1.00  0.00    -0.352 N 
ATOM      4  C   UNL A   1      31.933  25.301  26.148  1.00  0.00     0.252 C 
ATOM      5  O   UNL A   1      31.292  24.363  26.613  1.00  0.00    -0.269 OA
ATOM      6  H   UNL A   1      30.837  26.633  27.072  1.00  0.00     0.163 HD
BRANCH   4   7
ATOM      7  C   UNL A   1      32.901  25.029  25.083  1.00  0.00     0.055 A 
ATOM      8  C   UNL A   1      35.087  24.066  24.554  1.00  0.00     0.074 A 
ATOM      9  C   UNL A   1      34.191  24.678  25.447  1.00  0.00     0.043 A 
ATOM     10  N   UNL A   1      34.932  23.943  23.208  1.00  0.00    -0.226 NA
ATOM     11  C   UNL A   1      33.774  24.511  22.774  1.00  0.00     0.182 A 
ATOM     12  C   UNL A   1      32.777  25.043  23.678  1.00  0.00     0.059 A 
ATOM     13  N   UNL A   1      33.398  24.612  21.499  1.00  0.00    -0.154 NA
ATOM     14  C   UNL A   1      31.791  25.550  22.843  1.00  0.00     0.076 A 
ATOM     15  N   UNL A   1      32.225  25.259  21.569  1.00  0.00    -0.275 N 
ATOM     16  H   UNL A   1      31.711  25.508  20.768  1.00  0.00     0.190 HD
BRANCH   8  17
ATOM     17  C   UNL A   1      36.191  23.340  25.187  1.00  0.00     0.000 A 
ATOM     18  C   UNL A   1      39.933  21.553  26.356  1.00  0.00     0.044 C 
ATOM     19  C   UNL A   1      38.613  22.166  26.002  1.00  0.00    -0.051 A 
ATOM     20  C   UNL A   1      37.630  21.407  25.348  1.00  0.00     0.004 A 
ATOM     21  C   UNL A   1      38.359  23.506  26.295  1.00  0.00     0.004 A 
ATOM     22  C   UNL A   1      36.427  21.989  24.941  1.00  0.00     0.010 A 
ATOM     23  C   UNL A   1      37.153  24.079  25.906  1.00  0.00     0.010 A 
ENDBRANCH   8  17
BRANCH  14  24
ATOM     24  C   UNL A   1      30.579  26.334  23.044  1.00  0.00     0.007 A 
ATOM     25  C   UNL A   1      29.488  25.783  23.733  1.00  0.00     0.011 A 
ATOM     26  C   UNL A   1      30.505  27.655  22.581  1.00  0.00     0.096 A 
ATOM     27  C   UNL A   1      28.369  26.564  24.031  1.00  0.00     0.008 A 
ATOM     28  C   UNL A   1      29.393  28.441  22.908  1.00  0.00     0.270 A 
ATOM     29  C   UNL A   1      28.324  27.902  23.638  1.00  0.00     0.085 A 
BRANCH  28  30
ATOM     30  N   UNL A   1      29.345  29.845  22.483  1.00  0.00     0.062 N 
ATOM     31  O   UNL A   1      29.415  30.078  21.267  1.00  0.00    -0.258 OA
ATOM     32  O   UNL A   1      29.324  30.715  23.366  1.00  0.00    -0.258 OA
ENDBRANCH  28  30
ENDBRANCH  14  24
ENDBRANCH   4   7
ENDBRANCH   2   3
ENDBRANCH   1   2
BRANCH   1  33
ATOM     33  C   UNL A   1      31.969  30.549  26.124  1.00  0.00     0.118 C 
BRANCH  33  34
ATOM     34  N   UNL A   1      32.818  31.120  27.304  1.00  0.00    -0.352 N 
ATOM     35  C   UNL A   1      34.244  31.308  27.517  1.00  0.00     0.251 C 
ATOM     36  H   UNL A   1      32.271  31.418  28.067  1.00  0.00     0.163 HD
ATOM     37  O   UNL A   1      34.621  32.489  27.437  1.00  0.00    -0.269 OA
BRANCH  35  38
ATOM     38  C   UNL A   1      35.378  30.296  27.952  1.00  0.00     0.039 A 
ATOM     39  C   UNL A   1      35.359  29.694  29.253  1.00  0.00     0.014 A 
ATOM     40  C   UNL A   1      36.532  30.000  27.234  1.00  0.00     0.014 A 
ATOM     41  C   UNL A   1      36.588  29.309  29.934  1.00  0.00     0.010 A 
ATOM     42  C   UNL A   1      37.748  29.633  27.904  1.00  0.00     0.010 A 
ATOM     43  C   UNL A   1      37.833  29.501  29.303  1.00  0.00    -0.014 A 
BRANCH  43  44
ATOM     44  C   UNL A   1      39.127  29.883  30.030  1.00  0.00     0.031 A 
ATOM     45  C   UNL A   1      39.316  31.183  30.669  1.00  0.00     0.074 A 
ATOM     46  C   UNL A   1      40.175  29.066  30.357  1.00  0.00     0.049 A 
ATOM     47  N   UNL A   1      40.396  31.897  30.604  1.00  0.00    -0.248 NA
ATOM     48  C   UNL A   1      38.299  31.704  31.558  1.00  0.00     0.031 C 
ATOM     49  C   UNL A   1      41.386  29.211  31.184  1.00  0.00     0.029 A 
ATOM     50  N   UNL A   1      40.342  27.756  29.998  1.00  0.00    -0.354 N 
ATOM     51  C   UNL A   1      40.354  32.718  31.711  1.00  0.00     0.074 A 
ATOM     52  C   UNL A   1      38.958  32.722  32.113  1.00  0.00     0.031 C 
ATOM     53  C   UNL A   1      42.256  28.209  30.909  1.00  0.00     0.029 A 
ATOM     54  C   UNL A   1      41.680  27.398  29.858  1.00  0.00     0.049 A 
ATOM     55  H   UNL A   1      39.594  27.131  29.857  1.00  0.00     0.167 HD
ATOM     56  C   UNL A   1      41.493  33.097  32.374  1.00  0.00     0.031 A 
ATOM     57  C   UNL A   1      42.145  27.082  28.604  1.00  0.00     0.031 A 
ATOM     58  C   UNL A   1      42.709  32.412  31.881  1.00  0.00     0.049 A 
ATOM     59  C   UNL A   1      43.003  28.224  28.096  1.00  0.00     0.074 A 
ATOM     60  C   UNL A   1      43.631  31.541  32.453  1.00  0.00     0.029 A 
ATOM     61  N   UNL A   1      42.961  32.349  30.516  1.00  0.00    -0.354 N 
ATOM     62  N   UNL A   1      43.443  29.164  28.886  1.00  0.00    -0.248 NA
ATOM     63  C   UNL A   1      43.395  28.474  26.709  1.00  0.00     0.031 C 
ATOM     64  C   UNL A   1      44.411  30.947  31.411  1.00  0.00     0.029 A 
ATOM     65  C   UNL A   1      43.997  31.481  30.207  1.00  0.00     0.049 A 
ATOM     66  H   UNL A   1      42.459  32.864  29.842  1.00  0.00     0.167 HD
ATOM     67  C   UNL A   1      44.013  30.174  28.178  1.00  0.00     0.074 A 
ATOM     68  C   UNL A   1      44.015  29.671  26.812  1.00  0.00     0.031 C 
ATOM     69  C   UNL A   1      44.391  31.331  28.801  1.00  0.00     0.031 A 
BRANCH  56  70
ATOM     70  C   UNL A   1      41.447  33.896  33.677  1.00  0.00    -0.014 A 
ATOM     71  C   UNL A   1      42.106  35.135  33.813  1.00  0.00     0.010 A 
ATOM     72  C   UNL A   1      40.711  33.484  34.807  1.00  0.00     0.010 A 
ATOM     73  C   UNL A   1      42.097  35.861  35.022  1.00  0.00     0.020 A 
ATOM     74  C   UNL A   1      40.748  34.153  36.038  1.00  0.00     0.020 A 
ATOM     75  C   UNL A   1      41.434  35.351  36.137  1.00  0.00     0.054 A 
BRANCH  75  76
ATOM     76  S   UNL A   1      41.392  36.294  37.685  1.00  0.00     0.124 S 
ATOM     77  O   UNL A   1      42.507  37.223  37.529  1.00  0.00    -0.237 OA
ATOM     78  O   UNL A   1      40.060  36.892  37.648  1.00  0.00    -0.237 OA
ATOM     79  O   UNL A   1      41.580  35.275  38.718  1.00  0.00    -0.744 OA
ENDBRANCH  75  76
ENDBRANCH  56  70
BRANCH  57  80
ATOM     80  C   UNL A   1      41.192  26.175  27.771  1.00  0.00    -0.014 A 
ATOM     81  C   UNL A   1      41.153  26.505  26.392  1.00  0.00     0.010 A 
ATOM     82  C   UNL A   1      41.363  24.821  28.019  1.00  0.00     0.010 A 
ATOM     83  C   UNL A   1      41.983  25.829  25.472  1.00  0.00     0.020 A 
ATOM     84  C   UNL A   1      42.222  24.175  27.106  1.00  0.00     0.020 A 
ATOM     85  C   UNL A   1      42.693  24.744  25.939  1.00  0.00     0.054 A 
BRANCH  85  86
ATOM     86  S   UNL A   1      44.479  24.308  25.267  1.00  0.00     0.124 S 
ATOM     87  O   UNL A   1      44.920  25.611  24.847  1.00  0.00    -0.237 OA
ATOM     88  O   UNL A   1      45.217  23.805  26.423  1.00  0.00    -0.237 OA
ATOM     89  O   UNL A   1      44.321  23.345  24.197  1.00  0.00    -0.744 OA
ENDBRANCH  85  86
ENDBRANCH  57  80
BRANCH  69  90
ATOM     90  C   UNL A   1      45.130  32.480  28.161  1.00  0.00    -0.014 A 
ATOM     91  C   UNL A   1      44.547  33.395  27.275  1.00  0.00     0.010 A 
ATOM     92  C   UNL A   1      46.529  32.594  28.360  1.00  0.00     0.010 A 
ATOM     93  C   UNL A   1      45.304  34.427  26.700  1.00  0.00     0.020 A 
ATOM     94  C   UNL A   1      47.295  33.606  27.788  1.00  0.00     0.020 A 
ATOM     95  C   UNL A   1      46.668  34.537  26.979  1.00  0.00     0.054 A 
BRANCH  95  96
ATOM     96  S   UNL A   1      47.621  35.884  26.246  1.00  0.00     0.124 S 
ATOM     97  O   UNL A   1      46.578  36.812  25.817  1.00  0.00    -0.237 OA
ATOM     98  O   UNL A   1      48.432  36.329  27.376  1.00  0.00    -0.237 OA
ATOM     99  O   UNL A   1      48.364  35.243  25.163  1.00  0.00    -0.744 OA
ENDBRANCH  95  96
ENDBRANCH  69  90
ENDBRANCH  43  44
ENDBRANCH  35  38
ENDBRANCH  33  34
ENDBRANCH   1  33
TORSDOF 16
ENDMDL
MODEL 2
REMARK VINA RESULT:     -13.0      4.285      9.497
REMARK SMILES Cc1ccc(-c2cc(C(=O)NCCCNC(=O)c3ccc(-c4c5nc(c(-c6ccc(S(=O)(=O)[O-])cc6)c6ccc([nH]6)c(-c6ccc(S(=O)(=O)[O-])cc6)c6nc(c(-c7ccc(S(=O)(=O)[O-])cc7)c7ccc4[nH]7)C=C6)C=C5)cc3)c3c(-c4cccc([N+](=O)[O-])c4)[nH]nc3n2)cc1
REMARK SMILES IDX 13 1 12 2 11 3 9 4 10 5 8 7 6 8 7 9 92 10 91 11 78 12 90 13
REMARK SMILES IDX 79 14 89 15 5 17 1 18 2 19 3 20 94 21 4 22 93 23 80 24 81 25
REMARK SMILES IDX 88 26 82 27 84 28 83 29 85 30 86 31 87 32 14 33 15 34 16 35
REMARK SMILES IDX 17 37 18 38 19 39 77 40 20 41 76 42 21 43 22 44 23 45 70 46
REMARK SMILES IDX 24 47 75 48 69 49 71 50 25 51 74 52 68 53 67 54 26 56 56 57
REMARK SMILES IDX 37 58 55 59 38 60 41 61 54 62 72 63 39 64 40 65 53 67 73 68
REMARK SMILES IDX 42 69 27 70 28 71 36 72 29 73 35 74 30 75 31 76 32 77 33 78
REMARK SMILES IDX 34 79 57 80 58 81 66 82 59 83 65 84 60 85 61 86 62 87 63 88
REMARK SMILES IDX 64 89 43 90 44 91 52 92 45 93 51 94 46 95 47 96 48 97 49 98
REMARK SMILES IDX 50 99
REMARK H PARENT 11 6 89 16 15 36 71 55 41 66
REMARK Flexibility Score: inf
ROOT
ATOM      1  C   UNL A   1      35.948  21.876  25.208  1.00  0.00     0.042 C 
ENDROOT
BRANCH   1   2
ATOM      2  C   UNL A   1      36.045  23.415  24.742  1.00  0.00     0.118 C 
BRANCH   2   3
ATOM      3  N   UNL A   1      35.114  23.937  23.705  1.00  0.00    -0.352 N 
ATOM      4  C   UNL A   1      34.060  24.830  23.568  1.00  0.00     0.252 C 
ATOM      5  O   UNL A   1      33.776  25.266  22.455  1.00  0.00    -0.269 OA
ATOM      6  H   UNL A   1      35.307  23.512  22.838  1.00  0.00     0.163 HD
BRANCH   4   7
ATOM      7  C   UNL A   1      33.260  25.265  24.715  1.00  0.00     0.055 A 
ATOM      8  C   UNL A   1      32.821  27.092  26.282  1.00  0.00     0.074 A 
ATOM      9  C   UNL A   1      33.672  26.390  25.411  1.00  0.00     0.043 A 
ATOM     10  N   UNL A   1      31.612  26.673  26.745  1.00  0.00    -0.226 NA
ATOM     11  C   UNL A   1      31.285  25.439  26.273  1.00  0.00     0.182 A 
ATOM     12  C   UNL A   1      32.080  24.743  25.285  1.00  0.00     0.059 A 
ATOM     13  N   UNL A   1      30.199  24.747  26.620  1.00  0.00    -0.154 NA
ATOM     14  C   UNL A   1      31.429  23.529  25.113  1.00  0.00     0.076 A 
ATOM     15  N   UNL A   1      30.326  23.602  25.933  1.00  0.00    -0.275 N 
ATOM     16  H   UNL A   1      29.676  22.866  26.010  1.00  0.00     0.190 HD
BRANCH   8  17
ATOM     17  C   UNL A   1      33.218  28.475  26.553  1.00  0.00     0.000 A 
ATOM     18  C   UNL A   1      34.276  32.301  28.227  1.00  0.00     0.044 C 
ATOM     19  C   UNL A   1      33.934  30.986  27.597  1.00  0.00    -0.051 A 
ATOM     20  C   UNL A   1      32.664  30.775  27.038  1.00  0.00     0.004 A 
ATOM     21  C   UNL A   1      34.867  29.949  27.585  1.00  0.00     0.004 A 
ATOM     22  C   UNL A   1      32.306  29.527  26.521  1.00  0.00     0.010 A 
ATOM     23  C   UNL A   1      34.516  28.714  27.052  1.00  0.00     0.010 A 
ENDBRANCH   8  17
BRANCH  14  24
ATOM     24  C   UNL A   1      31.725  22.300  24.389  1.00  0.00     0.007 A 
ATOM     25  C   UNL A   1      31.621  22.260  22.991  1.00  0.00     0.011 A 
ATOM     26  C   UNL A   1      32.149  21.156  25.080  1.00  0.00     0.096 A 
ATOM     27  C   UNL A   1      32.014  21.123  22.281  1.00  0.00     0.008 A 
ATOM     28  C   UNL A   1      32.569  20.029  24.361  1.00  0.00     0.270 A 
ATOM     29  C   UNL A   1      32.508  20.010  22.961  1.00  0.00     0.085 A 
BRANCH  28  30
ATOM     30  N   UNL A   1      33.078  18.856  25.081  1.00  0.00     0.062 N 
ATOM     31  O   UNL A   1      34.115  18.327  24.653  1.00  0.00    -0.258 OA
ATOM     32  O   UNL A   1      32.397  18.412  26.017  1.00  0.00    -0.258 OA
ENDBRANCH  28  30
ENDBRANCH  14  24
ENDBRANCH   4   7
ENDBRANCH   2   3
ENDBRANCH   1   2
BRANCH   1  33
ATOM     33  C   UNL A   1      37.268  20.991  25.024  1.00  0.00     0.118 C 
BRANCH  33  34
ATOM     34  N   UNL A   1      38.717  21.479  25.344  1.00  0.00    -0.352 N 
ATOM     35  C   UNL A   1      39.304  22.232  26.439  1.00  0.00     0.251 C 
ATOM     36  H   UNL A   1      39.374  21.220  24.657  1.00  0.00     0.163 HD
ATOM     37  O   UNL A   1      39.984  21.548  27.223  1.00  0.00    -0.269 OA
BRANCH  35  38
ATOM     38  C   UNL A   1      39.336  23.783  26.743  1.00  0.00     0.039 A 
ATOM     39  C   UNL A   1      39.905  24.700  25.799  1.00  0.00     0.014 A 
ATOM     40  C   UNL A   1      38.977  24.391  27.941  1.00  0.00     0.014 A 
ATOM     41  C   UNL A   1      40.530  25.944  26.225  1.00  0.00     0.010 A 
ATOM     42  C   UNL A   1      39.602  25.612  28.369  1.00  0.00     0.010 A 
ATOM     43  C   UNL A   1      40.563  26.285  27.592  1.00  0.00    -0.014 A 
BRANCH  43  44
ATOM     44  C   UNL A   1      41.716  27.029  28.276  1.00  0.00     0.031 A 
ATOM     45  C   UNL A   1      43.023  26.417  28.503  1.00  0.00     0.074 A 
ATOM     46  C   UNL A   1      41.783  28.359  28.590  1.00  0.00     0.049 A 
ATOM     47  N   UNL A   1      43.716  26.520  29.592  1.00  0.00    -0.248 NA
ATOM     48  C   UNL A   1      43.697  25.735  27.418  1.00  0.00     0.031 C 
ATOM     49  C   UNL A   1      42.845  29.259  29.073  1.00  0.00     0.029 A 
ATOM     50  N   UNL A   1      40.785  29.287  28.465  1.00  0.00    -0.354 N 
ATOM     51  C   UNL A   1      45.021  26.278  29.215  1.00  0.00     0.074 A 
ATOM     52  C   UNL A   1      44.912  25.579  27.946  1.00  0.00     0.031 C 
ATOM     53  C   UNL A   1      42.300  30.412  29.532  1.00  0.00     0.029 A 
ATOM     54  C   UNL A   1      40.861  30.297  29.420  1.00  0.00     0.049 A 
ATOM     55  H   UNL A   1      40.088  29.246  27.772  1.00  0.00     0.167 HD
ATOM     56  C   UNL A   1      46.078  26.909  29.818  1.00  0.00     0.031 A 
ATOM     57  C   UNL A   1      39.873  30.376  30.371  1.00  0.00     0.031 A 
ATOM     58  C   UNL A   1      45.660  27.964  30.770  1.00  0.00     0.049 A 
ATOM     59  C   UNL A   1      40.426  29.885  31.695  1.00  0.00     0.074 A 
ATOM     60  C   UNL A   1      45.841  29.342  30.831  1.00  0.00     0.029 A 
ATOM     61  N   UNL A   1      44.676  27.693  31.713  1.00  0.00    -0.354 N 
ATOM     62  N   UNL A   1      41.705  29.736  31.899  1.00  0.00    -0.248 NA
ATOM     63  C   UNL A   1      39.653  29.463  32.863  1.00  0.00     0.031 C 
ATOM     64  C   UNL A   1      44.939  29.883  31.801  1.00  0.00     0.029 A 
ATOM     65  C   UNL A   1      44.234  28.836  32.362  1.00  0.00     0.049 A 
ATOM     66  H   UNL A   1      44.330  26.790  31.899  1.00  0.00     0.167 HD
ATOM     67  C   UNL A   1      41.944  29.100  33.077  1.00  0.00     0.074 A 
ATOM     68  C   UNL A   1      40.624  29.000  33.680  1.00  0.00     0.031 C 
ATOM     69  C   UNL A   1      43.210  28.699  33.404  1.00  0.00     0.031 A 
BRANCH  56  70
ATOM     70  C   UNL A   1      47.514  26.747  29.319  1.00  0.00    -0.014 A 
ATOM     71  C   UNL A   1      48.375  25.761  29.841  1.00  0.00     0.010 A 
ATOM     72  C   UNL A   1      48.060  27.528  28.279  1.00  0.00     0.010 A 
ATOM     73  C   UNL A   1      49.712  25.627  29.411  1.00  0.00     0.020 A 
ATOM     74  C   UNL A   1      49.405  27.460  27.889  1.00  0.00     0.020 A 
ATOM     75  C   UNL A   1      50.225  26.497  28.449  1.00  0.00     0.054 A 
BRANCH  75  76
ATOM     76  S   UNL A   1      51.932  26.312  27.868  1.00  0.00     0.124 S 
ATOM     77  O   UNL A   1      51.870  25.096  27.062  1.00  0.00    -0.237 OA
ATOM     78  O   UNL A   1      52.144  27.552  27.126  1.00  0.00    -0.237 OA
ATOM     79  O   UNL A   1      52.709  26.194  29.102  1.00  0.00    -0.744 OA
ENDBRANCH  75  76
ENDBRANCH  56  70
BRANCH  57  80
ATOM     80  C   UNL A   1      38.430  30.180  29.820  1.00  0.00    -0.014 A 
ATOM     81  C   UNL A   1      37.590  29.425  30.679  1.00  0.00     0.010 A 
ATOM     82  C   UNL A   1      37.852  31.354  29.360  1.00  0.00     0.010 A 
ATOM     83  C   UNL A   1      36.742  30.075  31.602  1.00  0.00     0.020 A 
ATOM     84  C   UNL A   1      37.035  32.002  30.311  1.00  0.00     0.020 A 
ATOM     85  C   UNL A   1      36.646  31.448  31.514  1.00  0.00     0.054 A 
BRANCH  85  86
ATOM     86  S   UNL A   1      36.407  32.571  33.099  1.00  0.00     0.124 S 
ATOM     87  O   UNL A   1      37.030  33.787  32.649  1.00  0.00    -0.237 OA
ATOM     88  O   UNL A   1      34.962  32.702  33.267  1.00  0.00    -0.237 OA
ATOM     89  O   UNL A   1      37.078  31.917  34.204  1.00  0.00    -0.744 OA
ENDBRANCH  85  86
ENDBRANCH  57  80
BRANCH  69  90
ATOM     90  C   UNL A   1      43.632  28.087  34.716  1.00  0.00    -0.014 A 
ATOM     91  C   UNL A   1      43.819  28.815  35.899  1.00  0.00     0.010 A 
ATOM     92  C   UNL A   1      43.984  26.715  34.754  1.00  0.00     0.010 A 
ATOM     93  C   UNL A   1      44.235  28.180  37.079  1.00  0.00     0.020 A 
ATOM     94  C   UNL A   1      44.408  26.074  35.914  1.00  0.00     0.020 A 
ATOM     95  C   UNL A   1      44.507  26.809  37.082  1.00  0.00     0.054 A 
BRANCH  95  96
ATOM     96  S   UNL A   1      45.023  26.007  38.614  1.00  0.00     0.124 S 
ATOM     97  O   UNL A   1      44.247  26.723  39.623  1.00  0.00    -0.237 OA
ATOM     98  O   UNL A   1      44.622  24.622  38.380  1.00  0.00    -0.237 OA
ATOM     99  O   UNL A   1      46.465  26.235  38.665  1.00  0.00    -0.744 OA
ENDBRANCH  95  96
ENDBRANCH  69  90
ENDBRANCH  43  44
ENDBRANCH  35  38
ENDBRANCH  33  34
ENDBRANCH   1  33
TORSDOF 16
ENDMDL
MODEL 3
REMARK VINA RESULT:     -13.0      4.108      9.444
REMARK SMILES Cc1ccc(-c2cc(C(=O)NCCCNC(=O)c3ccc(-c4c5nc(c(-c6ccc(S(=O)(=O)[O-])cc6)c6ccc([nH]6)c(-c6ccc(S(=O)(=O)[O-])cc6)c6nc(c(-c7ccc(S(=O)(=O)[O-])cc7)c7ccc4[nH]7)C=C6)C=C5)cc3)c3c(-c4cccc([N+](=O)[O-])c4)[nH]nc3n2)cc1
REMARK SMILES IDX 13 1 12 2 11 3 9 4 10 5 8 7 6 8 7 9 92 10 91 11 78 12 90 13
REMARK SMILES IDX 79 14 89 15 5 17 1 18 2 19 3 20 94 21 4 22 93 23 80 24 81 25
REMARK SMILES IDX 88 26 82 27 84 28 83 29 85 30 86 31 87 32 14 33 15 34 16 35
REMARK SMILES IDX 17 37 18 38 19 39 77 40 20 41 76 42 21 43 22 44 23 45 70 46
REMARK SMILES IDX 24 47 75 48 69 49 71 50 25 51 74 52 68 53 67 54 26 56 56 57
REMARK SMILES IDX 37 58 55 59 38 60 41 61 54 62 72 63 39 64 40 65 53 67 73 68
REMARK SMILES IDX 42 69 27 70 28 71 36 72 29 73 35 74 30 75 31 76 32 77 33 78
REMARK SMILES IDX 34 79 57 80 58 81 66 82 59 83 65 84 60 85 61 86 62 87 63 88
REMARK SMILES IDX 64 89 43 90 44 91 52 92 45 93 51 94 46 95 47 96 48 97 49 98
REMARK SMILES IDX 50 99
REMARK H PARENT 11 6 89 16 15 36 71 55 41 66
REMARK Flexibility Score: inf
ROOT
ATOM      1  C   UNL A   1      35.670  21.467  25.228  1.00  0.00     0.042 C 
ENDROOT
BRANCH   1   2
ATOM      2  C   UNL A   1      35.899  23.027  24.896  1.00  0.00     0.118 C 
BRANCH   2   3
ATOM      3  N   UNL A   1      35.105  23.682  23.821  1.00  0.00    -0.352 N 
ATOM      4  C   UNL A   1      34.156  24.682  23.652  1.00  0.00     0.252 C 
ATOM      5  O   UNL A   1      34.001  25.189  22.544  1.00  0.00    -0.269 OA
ATOM      6  H   UNL A   1      35.320  23.275  22.951  1.00  0.00     0.163 HD
BRANCH   4   7
ATOM      7  C   UNL A   1      33.318  25.149  24.760  1.00  0.00     0.055 A 
ATOM      8  C   UNL A   1      32.874  26.994  26.303  1.00  0.00     0.074 A 
ATOM      9  C   UNL A   1      33.738  26.259  25.474  1.00  0.00     0.043 A 
ATOM     10  N   UNL A   1      31.629  26.623  26.706  1.00  0.00    -0.226 NA
ATOM     11  C   UNL A   1      31.278  25.401  26.220  1.00  0.00     0.182 A 
ATOM     12  C   UNL A   1      32.093  24.673  25.271  1.00  0.00     0.059 A 
ATOM     13  N   UNL A   1      30.151  24.751  26.514  1.00  0.00    -0.154 NA
ATOM     14  C   UNL A   1      31.406  23.484  25.068  1.00  0.00     0.076 A 
ATOM     15  N   UNL A   1      30.268  23.601  25.834  1.00  0.00    -0.275 N 
ATOM     16  H   UNL A   1      29.588  22.890  25.879  1.00  0.00     0.190 HD
BRANCH   8  17
ATOM     17  C   UNL A   1      33.309  28.362  26.592  1.00  0.00     0.000 A 
ATOM     18  C   UNL A   1      34.604  32.094  28.313  1.00  0.00     0.044 C 
ATOM     19  C   UNL A   1      34.173  30.814  27.665  1.00  0.00    -0.051 A 
ATOM     20  C   UNL A   1      32.836  30.629  27.279  1.00  0.00     0.004 A 
ATOM     21  C   UNL A   1      35.091  29.784  27.463  1.00  0.00     0.004 A 
ATOM     22  C   UNL A   1      32.405  29.410  26.748  1.00  0.00     0.010 A 
ATOM     23  C   UNL A   1      34.665  28.579  26.916  1.00  0.00     0.010 A 
ENDBRANCH   8  17
BRANCH  14  24
ATOM     24  C   UNL A   1      31.690  22.243  24.360  1.00  0.00     0.007 A 
ATOM     25  C   UNL A   1      31.673  22.210  22.958  1.00  0.00     0.011 A 
ATOM     26  C   UNL A   1      32.016  21.081  25.072  1.00  0.00     0.096 A 
ATOM     27  C   UNL A   1      32.057  21.056  22.269  1.00  0.00     0.008 A 
ATOM     28  C   UNL A   1      32.428  19.936  24.377  1.00  0.00     0.270 A 
ATOM     29  C   UNL A   1      32.455  19.921  22.975  1.00  0.00     0.085 A 
BRANCH  28  30
ATOM     30  N   UNL A   1      32.836  18.740  25.122  1.00  0.00     0.062 N 
ATOM     31  O   UNL A   1      33.378  17.825  24.485  1.00  0.00    -0.258 OA
ATOM     32  O   UNL A   1      32.538  18.679  26.324  1.00  0.00    -0.258 OA
ENDBRANCH  28  30
ENDBRANCH  14  24
ENDBRANCH   4   7
ENDBRANCH   2   3
ENDBRANCH   1   2
BRANCH   1  33
ATOM     33  C   UNL A   1      36.857  20.472  24.831  1.00  0.00     0.118 C 
BRANCH  33  34
ATOM     34  N   UNL A   1      38.373  20.851  24.831  1.00  0.00    -0.352 N 
ATOM     35  C   UNL A   1      39.386  20.939  25.869  1.00  0.00     0.251 C 
ATOM     36  H   UNL A   1      38.715  21.078  23.936  1.00  0.00     0.163 HD
ATOM     37  O   UNL A   1      40.213  20.011  25.856  1.00  0.00    -0.269 OA
BRANCH  35  38
ATOM     38  C   UNL A   1      39.697  22.065  26.933  1.00  0.00     0.039 A 
ATOM     39  C   UNL A   1      38.936  23.280  26.954  1.00  0.00     0.014 A 
ATOM     40  C   UNL A   1      40.768  22.080  27.821  1.00  0.00     0.014 A 
ATOM     41  C   UNL A   1      39.517  24.536  27.407  1.00  0.00     0.010 A 
ATOM     42  C   UNL A   1      41.349  23.318  28.260  1.00  0.00     0.010 A 
ATOM     43  C   UNL A   1      40.849  24.573  27.866  1.00  0.00    -0.014 A 
BRANCH  43  44
ATOM     44  C   UNL A   1      41.810  25.748  27.654  1.00  0.00     0.031 A 
ATOM     45  C   UNL A   1      43.148  25.579  27.093  1.00  0.00     0.074 A 
ATOM     46  C   UNL A   1      41.533  27.084  27.759  1.00  0.00     0.049 A 
ATOM     47  N   UNL A   1      44.220  26.161  27.530  1.00  0.00    -0.248 NA
ATOM     48  C   UNL A   1      43.328  24.811  25.878  1.00  0.00     0.031 C 
ATOM     49  C   UNL A   1      42.260  28.324  27.430  1.00  0.00     0.029 A 
ATOM     50  N   UNL A   1      40.366  27.653  28.190  1.00  0.00    -0.354 N 
ATOM     51  C   UNL A   1      45.093  26.161  26.462  1.00  0.00     0.074 A 
ATOM     52  C   UNL A   1      44.589  25.126  25.576  1.00  0.00     0.031 C 
ATOM     53  C   UNL A   1      41.664  29.381  28.033  1.00  0.00     0.029 A 
ATOM     54  C   UNL A   1      40.560  28.878  28.822  1.00  0.00     0.049 A 
ATOM     55  H   UNL A   1      39.481  27.241  28.064  1.00  0.00     0.167 HD
ATOM     56  C   UNL A   1      45.981  27.185  26.253  1.00  0.00     0.031 A 
ATOM     57  C   UNL A   1      40.296  28.971  30.167  1.00  0.00     0.031 A 
ATOM     58  C   UNL A   1      45.784  28.325  27.177  1.00  0.00     0.049 A 
ATOM     59  C   UNL A   1      41.610  29.034  30.922  1.00  0.00     0.074 A 
ATOM     60  C   UNL A   1      45.439  29.662  27.009  1.00  0.00     0.029 A 
ATOM     61  N   UNL A   1      45.648  28.093  28.541  1.00  0.00    -0.354 N 
ATOM     62  N   UNL A   1      42.741  29.279  30.323  1.00  0.00    -0.248 NA
ATOM     63  C   UNL A   1      41.812  28.780  32.348  1.00  0.00     0.031 C 
ATOM     64  C   UNL A   1      45.077  30.209  28.280  1.00  0.00     0.029 A 
ATOM     65  C   UNL A   1      45.237  29.222  29.233  1.00  0.00     0.049 A 
ATOM     66  H   UNL A   1      45.825  27.223  28.968  1.00  0.00     0.167 HD
ATOM     67  C   UNL A   1      43.794  29.088  31.162  1.00  0.00     0.074 A 
ATOM     68  C   UNL A   1      43.158  28.832  32.446  1.00  0.00     0.031 C 
ATOM     69  C   UNL A   1      45.076  29.132  30.689  1.00  0.00     0.031 A 
BRANCH  56  70
ATOM     70  C   UNL A   1      46.857  27.257  25.002  1.00  0.00    -0.014 A 
ATOM     71  C   UNL A   1      48.014  26.465  24.859  1.00  0.00     0.010 A 
ATOM     72  C   UNL A   1      46.552  28.075  23.894  1.00  0.00     0.010 A 
ATOM     73  C   UNL A   1      48.847  26.551  23.723  1.00  0.00     0.020 A 
ATOM     74  C   UNL A   1      47.403  28.229  22.791  1.00  0.00     0.020 A 
ATOM     75  C   UNL A   1      48.545  27.453  22.704  1.00  0.00     0.054 A 
BRANCH  75  76
ATOM     76  S   UNL A   1      49.594  27.548  21.228  1.00  0.00     0.124 S 
ATOM     77  O   UNL A   1      50.772  26.779  21.618  1.00  0.00    -0.237 OA
ATOM     78  O   UNL A   1      48.749  26.935  20.207  1.00  0.00    -0.237 OA
ATOM     79  O   UNL A   1      49.823  28.982  21.055  1.00  0.00    -0.744 OA
ENDBRANCH  75  76
ENDBRANCH  56  70
BRANCH  57  80
ATOM     80  C   UNL A   1      38.982  28.266  30.617  1.00  0.00    -0.014 A 
ATOM     81  C   UNL A   1      38.809  28.229  32.025  1.00  0.00     0.010 A 
ATOM     82  C   UNL A   1      37.860  28.699  29.925  1.00  0.00     0.010 A 
ATOM     83  C   UNL A   1      38.052  29.225  32.678  1.00  0.00     0.020 A 
ATOM     84  C   UNL A   1      37.138  29.717  30.583  1.00  0.00     0.020 A 
ATOM     85  C   UNL A   1      37.364  30.118  31.885  1.00  0.00     0.054 A 
BRANCH  85  86
ATOM     86  S   UNL A   1      37.112  31.987  32.412  1.00  0.00     0.124 S 
ATOM     87  O   UNL A   1      36.737  31.817  33.790  1.00  0.00    -0.237 OA
ATOM     88  O   UNL A   1      38.421  32.614  32.253  1.00  0.00    -0.237 OA
ATOM     89  O   UNL A   1      36.077  32.544  31.565  1.00  0.00    -0.744 OA
ENDBRANCH  85  86
ENDBRANCH  57  80
BRANCH  69  90
ATOM     90  C   UNL A   1      46.330  29.047  31.522  1.00  0.00    -0.014 A 
ATOM     91  C   UNL A   1      47.270  30.079  31.634  1.00  0.00     0.010 A 
ATOM     92  C   UNL A   1      46.660  27.818  32.145  1.00  0.00     0.010 A 
ATOM     93  C   UNL A   1      48.427  29.921  32.412  1.00  0.00     0.020 A 
ATOM     94  C   UNL A   1      47.809  27.642  32.912  1.00  0.00     0.020 A 
ATOM     95  C   UNL A   1      48.677  28.709  33.062  1.00  0.00     0.054 A 
BRANCH  95  96
ATOM     96  S   UNL A   1      50.161  28.531  34.075  1.00  0.00     0.124 S 
ATOM     97  O   UNL A   1      51.109  29.417  33.405  1.00  0.00    -0.237 OA
ATOM     98  O   UNL A   1      49.691  28.985  35.381  1.00  0.00    -0.237 OA
ATOM     99  O   UNL A   1      50.478  27.107  33.990  1.00  0.00    -0.744 OA
ENDBRANCH  95  96
ENDBRANCH  69  90
ENDBRANCH  43  44
ENDBRANCH  35  38
ENDBRANCH  33  34
ENDBRANCH   1  33
TORSDOF 16
ENDMDL
