MODEL 1
REMARK VINA RESULT:     -13.1      0.000      0.000
REMARK SMILES CC1(C)O[C@@H]2C[C@@H]3[C@H]4CCC5=CC(=O)C=C[C@@]5(C)[C@]4(F)[C@H](O)C[C@]3(C)[C@]2(C(=O)NCCCNC(=O)c2ccc(-c3c4nc(c(-c5ccc(S(=O)(=O)[O-])cc5)c5ccc([nH]5)c(-c5ccc(S(=O)(=O)[O-])cc5)c5nc(c(-c6ccc(S(=O)(=O)[O-])cc6)c6ccc3[nH]6)C=C5)C=C4)cc2)O1
REMARK SMILES IDX 32 1 31 2 30 3 29 4 27 5 28 6 26 8 1 9 2 10 4 11 96 12 3 13
REMARK SMILES IDX 5 14 6 15 24 16 7 17 23 18 25 19 8 20 21 21 9 22 19 23 10 24
REMARK SMILES IDX 17 25 20 26 11 27 16 28 18 29 12 30 15 31 13 32 14 33 22 34
REMARK SMILES IDX 33 36 34 37 35 39 36 40 37 41 95 42 38 43 94 44 39 45 40 46
REMARK SMILES IDX 41 47 88 48 42 49 93 50 87 51 89 52 43 53 92 54 86 55 85 56
REMARK SMILES IDX 44 58 74 59 55 60 73 61 56 62 59 63 72 64 90 65 57 66 58 67
REMARK SMILES IDX 71 69 91 70 60 71 45 72 46 73 54 74 47 75 53 76 48 77 49 78
REMARK SMILES IDX 50 79 51 80 52 81 75 82 76 83 84 84 77 85 83 86 78 87 79 88
REMARK SMILES IDX 80 89 81 90 82 91 61 92 62 93 70 94 63 95 69 96 64 97 65 98
REMARK SMILES IDX 66 99 67 100 68 101
REMARK H PARENT 29 7 22 35 33 38 89 57 59 68
REMARK Flexibility Score: inf
ROOT
ATOM      1  C   UNL A   1      33.325  28.523  27.284  1.00  0.00     0.118 C 
ENDROOT
BRANCH   1   2
ATOM      2  C   UNL A   1      31.949  28.044  26.887  1.00  0.00     0.042 C 
BRANCH   2   3
ATOM      3  C   UNL A   1      31.814  27.968  25.382  1.00  0.00     0.117 C 
BRANCH   3   4
ATOM      4  N   UNL A   1      30.911  26.929  24.973  1.00  0.00    -0.353 N 
ATOM      5  C   UNL A   1      31.118  25.689  24.471  1.00  0.00     0.255 C 
ATOM      6  O   UNL A   1      30.159  25.278  23.803  1.00  0.00    -0.272 OA
ATOM      7  H   UNL A   1      29.961  27.163  25.077  1.00  0.00     0.163 HD
BRANCH   5   8
ATOM      8  C   UNL A   1      32.312  24.749  24.802  1.00  0.00     0.181 C 
ATOM      9  C   UNL A   1      33.118  25.222  21.465  1.00  0.00     0.075 C 
ATOM     10  C   UNL A   1      33.627  24.738  22.820  1.00  0.00     0.164 C 
ATOM     11  O   UNL A   1      34.115  25.812  23.630  1.00  0.00    -0.344 OA
ATOM     12  O   UNL A   1      32.545  24.053  23.508  1.00  0.00    -0.331 OA
ATOM     13  C   UNL A   1      34.841  23.831  22.505  1.00  0.00     0.075 C 
ATOM     14  C   UNL A   1      33.648  25.561  24.961  1.00  0.00     0.164 C 
ATOM     15  C   UNL A   1      34.664  24.617  25.765  1.00  0.00     0.040 C 
ATOM     16  C   UNL A   1      32.409  23.754  26.055  1.00  0.00     0.014 C 
ATOM     17  C   UNL A   1      33.882  23.272  25.790  1.00  0.00     0.008 C 
ATOM     18  C   UNL A   1      31.467  22.548  26.293  1.00  0.00     0.046 C 
ATOM     19  C   UNL A   1      32.348  24.596  27.394  1.00  0.00     0.015 C 
ATOM     20  C   UNL A   1      34.161  21.790  25.340  1.00  0.00     0.035 C 
ATOM     21  C   UNL A   1      31.700  21.273  25.536  1.00  0.00     0.154 C 
ATOM     22  C   UNL A   1      35.593  21.306  25.513  1.00  0.00     0.012 C 
ATOM     23  C   UNL A   1      33.130  20.734  25.760  1.00  0.00     0.152 C 
ATOM     24  C   UNL A   1      35.809  20.126  24.554  1.00  0.00     0.032 C 
ATOM     25  C   UNL A   1      33.357  19.347  25.021  1.00  0.00     0.044 C 
ATOM     26  F   UNL A   1      33.300  20.543  27.110  1.00  0.00    -0.239 F 
ATOM     27  C   UNL A   1      34.834  18.997  24.787  1.00  0.00    -0.053 C 
ATOM     28  C   UNL A   1      32.688  18.212  25.801  1.00  0.00    -0.009 C 
ATOM     29  C   UNL A   1      32.692  19.307  23.609  1.00  0.00     0.024 C 
ATOM     30  C   UNL A   1      35.221  17.711  24.670  1.00  0.00     0.052 C 
ATOM     31  C   UNL A   1      33.010  16.926  25.595  1.00  0.00     0.048 C 
ATOM     32  C   UNL A   1      34.241  16.605  24.838  1.00  0.00     0.178 C 
ATOM     33  O   UNL A   1      34.478  15.469  24.447  1.00  0.00    -0.290 OA
BRANCH  21  34
ATOM     34  O   UNL A   1      31.361  21.545  24.182  1.00  0.00    -0.390 OA
ATOM     35  H   UNL A   1      31.002  22.444  24.113  1.00  0.00     0.211 HD
ENDBRANCH  21  34
ENDBRANCH   5   8
ENDBRANCH   3   4
ENDBRANCH   2   3
ENDBRANCH   1   2
BRANCH   1  36
ATOM     36  N   UNL A   1      33.349  29.961  27.556  1.00  0.00    -0.352 N 
ATOM     37  C   UNL A   1      34.344  30.737  28.099  1.00  0.00     0.251 C 
ATOM     38  H   UNL A   1      32.528  30.446  27.314  1.00  0.00     0.163 HD
ATOM     39  O   UNL A   1      34.100  31.899  28.427  1.00  0.00    -0.269 OA
BRANCH  37  40
ATOM     40  C   UNL A   1      35.683  30.158  28.313  1.00  0.00     0.039 A 
ATOM     41  C   UNL A   1      36.618  30.175  27.276  1.00  0.00     0.014 A 
ATOM     42  C   UNL A   1      36.030  29.646  29.563  1.00  0.00     0.014 A 
ATOM     43  C   UNL A   1      37.923  29.752  27.528  1.00  0.00     0.010 A 
ATOM     44  C   UNL A   1      37.356  29.383  29.851  1.00  0.00     0.010 A 
ATOM     45  C   UNL A   1      38.314  29.399  28.830  1.00  0.00    -0.014 A 
BRANCH  45  46
ATOM     46  C   UNL A   1      39.704  29.002  29.154  1.00  0.00     0.031 A 
ATOM     47  C   UNL A   1      40.626  29.994  29.814  1.00  0.00     0.074 A 
ATOM     48  C   UNL A   1      40.155  27.786  28.784  1.00  0.00     0.049 A 
ATOM     49  N   UNL A   1      41.893  29.871  30.111  1.00  0.00    -0.248 NA
ATOM     50  C   UNL A   1      40.064  31.318  30.142  1.00  0.00     0.031 C 
ATOM     51  C   UNL A   1      39.372  26.766  28.080  1.00  0.00     0.029 A 
ATOM     52  N   UNL A   1      41.385  27.204  28.947  1.00  0.00    -0.354 N 
ATOM     53  C   UNL A   1      42.279  31.102  30.629  1.00  0.00     0.074 A 
ATOM     54  C   UNL A   1      41.137  31.981  30.536  1.00  0.00     0.031 C 
ATOM     55  C   UNL A   1      40.127  25.669  27.916  1.00  0.00     0.029 A 
ATOM     56  C   UNL A   1      41.459  25.923  28.454  1.00  0.00     0.049 A 
ATOM     57  H   UNL A   1      42.145  27.660  29.377  1.00  0.00     0.167 HD
ATOM     58  C   UNL A   1      43.467  31.461  31.167  1.00  0.00     0.031 A 
ATOM     59  C   UNL A   1      42.485  25.051  28.436  1.00  0.00     0.031 A 
ATOM     60  C   UNL A   1      44.588  30.568  31.279  1.00  0.00     0.049 A 
ATOM     61  C   UNL A   1      43.794  25.464  29.051  1.00  0.00     0.074 A 
ATOM     62  C   UNL A   1      45.817  30.801  31.870  1.00  0.00     0.029 A 
ATOM     63  N   UNL A   1      44.614  29.271  30.788  1.00  0.00    -0.354 N 
ATOM     64  N   UNL A   1      44.116  26.607  29.610  1.00  0.00    -0.248 NA
ATOM     65  C   UNL A   1      44.872  24.467  29.045  1.00  0.00     0.031 C 
ATOM     66  C   UNL A   1      46.607  29.663  31.682  1.00  0.00     0.029 A 
ATOM     67  C   UNL A   1      45.848  28.698  31.037  1.00  0.00     0.049 A 
ATOM     68  H   UNL A   1      43.866  28.825  30.331  1.00  0.00     0.167 HD
ATOM     69  C   UNL A   1      45.428  26.458  30.046  1.00  0.00     0.074 A 
ATOM     70  C   UNL A   1      45.831  25.109  29.701  1.00  0.00     0.031 C 
ATOM     71  C   UNL A   1      46.227  27.354  30.678  1.00  0.00     0.031 A 
BRANCH  58  72
ATOM     72  C   UNL A   1      43.606  32.876  31.667  1.00  0.00    -0.014 A 
ATOM     73  C   UNL A   1      43.402  33.197  33.023  1.00  0.00     0.010 A 
ATOM     74  C   UNL A   1      43.958  33.901  30.771  1.00  0.00     0.010 A 
ATOM     75  C   UNL A   1      43.491  34.521  33.461  1.00  0.00     0.020 A 
ATOM     76  C   UNL A   1      44.084  35.222  31.212  1.00  0.00     0.020 A 
ATOM     77  C   UNL A   1      43.829  35.526  32.550  1.00  0.00     0.054 A 
BRANCH  77  78
ATOM     78  S   UNL A   1      43.950  37.233  33.149  1.00  0.00     0.124 S 
ATOM     79  O   UNL A   1      45.222  37.210  33.867  1.00  0.00    -0.237 OA
ATOM     80  O   UNL A   1      43.943  38.007  31.910  1.00  0.00    -0.237 OA
ATOM     81  O   UNL A   1      42.764  37.392  33.988  1.00  0.00    -0.744 OA
ENDBRANCH  77  78
ENDBRANCH  58  72
BRANCH  59  82
ATOM     82  C   UNL A   1      42.298  23.700  27.842  1.00  0.00    -0.014 A 
ATOM     83  C   UNL A   1      42.610  23.461  26.492  1.00  0.00     0.010 A 
ATOM     84  C   UNL A   1      41.844  22.630  28.635  1.00  0.00     0.010 A 
ATOM     85  C   UNL A   1      42.462  22.183  25.943  1.00  0.00     0.020 A 
ATOM     86  C   UNL A   1      41.722  21.344  28.100  1.00  0.00     0.020 A 
ATOM     87  C   UNL A   1      42.025  21.131  26.755  1.00  0.00     0.054 A 
BRANCH  87  88
ATOM     88  S   UNL A   1      41.908  19.467  26.038  1.00  0.00     0.124 S 
ATOM     89  O   UNL A   1      40.477  19.349  25.775  1.00  0.00    -0.237 OA
ATOM     90  O   UNL A   1      42.763  19.573  24.859  1.00  0.00    -0.237 OA
ATOM     91  O   UNL A   1      42.425  18.603  27.097  1.00  0.00    -0.744 OA
ENDBRANCH  87  88
ENDBRANCH  59  82
BRANCH  71  92
ATOM     92  C   UNL A   1      47.607  26.897  31.066  1.00  0.00    -0.014 A 
ATOM     93  C   UNL A   1      47.840  26.223  32.277  1.00  0.00     0.010 A 
ATOM     94  C   UNL A   1      48.676  27.093  30.172  1.00  0.00     0.010 A 
ATOM     95  C   UNL A   1      49.125  25.780  32.601  1.00  0.00     0.020 A 
ATOM     96  C   UNL A   1      49.954  26.623  30.477  1.00  0.00     0.020 A 
ATOM     97  C   UNL A   1      50.173  25.982  31.697  1.00  0.00     0.054 A 
BRANCH  97  98
ATOM     98  S   UNL A   1      51.821  25.356  32.122  1.00  0.00     0.124 S 
ATOM     99  O   UNL A   1      52.080  26.023  33.395  1.00  0.00    -0.237 OA
ATOM    100  O   UNL A   1      51.604  23.914  32.199  1.00  0.00    -0.237 OA
ATOM    101  O   UNL A   1      52.657  25.797  31.007  1.00  0.00    -0.744 OA
ENDBRANCH  97  98
ENDBRANCH  71  92
ENDBRANCH  45  46
ENDBRANCH  37  40
ENDBRANCH   1  36
TORSDOF 14
ENDMDL
MODEL 2
REMARK VINA RESULT:     -13.0      1.404      2.584
REMARK SMILES CC1(C)O[C@@H]2C[C@@H]3[C@H]4CCC5=CC(=O)C=C[C@@]5(C)[C@]4(F)[C@H](O)C[C@]3(C)[C@]2(C(=O)NCCCNC(=O)c2ccc(-c3c4nc(c(-c5ccc(S(=O)(=O)[O-])cc5)c5ccc([nH]5)c(-c5ccc(S(=O)(=O)[O-])cc5)c5nc(c(-c6ccc(S(=O)(=O)[O-])cc6)c6ccc3[nH]6)C=C5)C=C4)cc2)O1
REMARK SMILES IDX 32 1 31 2 30 3 29 4 27 5 28 6 26 8 1 9 2 10 4 11 96 12 3 13
REMARK SMILES IDX 5 14 6 15 24 16 7 17 23 18 25 19 8 20 21 21 9 22 19 23 10 24
REMARK SMILES IDX 17 25 20 26 11 27 16 28 18 29 12 30 15 31 13 32 14 33 22 34
REMARK SMILES IDX 33 36 34 37 35 39 36 40 37 41 95 42 38 43 94 44 39 45 40 46
REMARK SMILES IDX 41 47 88 48 42 49 93 50 87 51 89 52 43 53 92 54 86 55 85 56
REMARK SMILES IDX 44 58 74 59 55 60 73 61 56 62 59 63 72 64 90 65 57 66 58 67
REMARK SMILES IDX 71 69 91 70 60 71 45 72 46 73 54 74 47 75 53 76 48 77 49 78
REMARK SMILES IDX 50 79 51 80 52 81 75 82 76 83 84 84 77 85 83 86 78 87 79 88
REMARK SMILES IDX 80 89 81 90 82 91 61 92 62 93 70 94 63 95 69 96 64 97 65 98
REMARK SMILES IDX 66 99 67 100 68 101
REMARK H PARENT 29 7 22 35 33 38 89 57 59 68
REMARK Flexibility Score: inf
ROOT
ATOM      1  C   UNL A   1      33.355  28.559  27.287  1.00  0.00     0.118 C 
ENDROOT
BRANCH   1   2
ATOM      2  C   UNL A   1      34.289  28.180  26.164  1.00  0.00     0.042 C 
BRANCH   2   3
ATOM      3  C   UNL A   1      33.802  28.734  24.843  1.00  0.00     0.117 C 
BRANCH   3   4
ATOM      4  N   UNL A   1      32.371  28.844  24.798  1.00  0.00    -0.353 N 
ATOM      5  C   UNL A   1      31.418  28.082  24.212  1.00  0.00     0.255 C 
ATOM      6  O   UNL A   1      30.379  28.715  23.976  1.00  0.00    -0.272 OA
ATOM      7  H   UNL A   1      32.016  29.622  25.285  1.00  0.00     0.163 HD
BRANCH   5   8
ATOM      8  C   UNL A   1      31.472  26.543  23.999  1.00  0.00     0.181 C 
ATOM      9  C   UNL A   1      30.347  26.431  27.275  1.00  0.00     0.075 C 
ATOM     10  C   UNL A   1      30.532  25.634  25.986  1.00  0.00     0.164 C 
ATOM     11  O   UNL A   1      29.450  25.827  25.070  1.00  0.00    -0.344 OA
ATOM     12  O   UNL A   1      31.782  26.037  25.363  1.00  0.00    -0.331 OA
ATOM     13  C   UNL A   1      30.497  24.146  26.412  1.00  0.00     0.075 C 
ATOM     14  C   UNL A   1      30.034  25.950  23.769  1.00  0.00     0.164 C 
ATOM     15  C   UNL A   1      30.237  24.515  23.084  1.00  0.00     0.040 C 
ATOM     16  C   UNL A   1      32.303  25.777  22.862  1.00  0.00     0.014 C 
ATOM     17  C   UNL A   1      31.778  24.333  23.195  1.00  0.00     0.008 C 
ATOM     18  C   UNL A   1      33.847  25.791  22.744  1.00  0.00     0.046 C 
ATOM     19  C   UNL A   1      31.776  26.229  21.439  1.00  0.00     0.015 C 
ATOM     20  C   UNL A   1      32.751  23.258  23.806  1.00  0.00     0.035 C 
ATOM     21  C   UNL A   1      34.660  24.899  23.637  1.00  0.00     0.154 C 
ATOM     22  C   UNL A   1      32.287  21.813  23.704  1.00  0.00     0.012 C 
ATOM     23  C   UNL A   1      34.245  23.418  23.490  1.00  0.00     0.152 C 
ATOM     24  C   UNL A   1      33.018  21.007  24.786  1.00  0.00     0.032 C 
ATOM     25  C   UNL A   1      35.151  22.463  24.377  1.00  0.00     0.044 C 
ATOM     26  F   UNL A   1      34.400  23.067  22.171  1.00  0.00    -0.239 F 
ATOM     27  C   UNL A   1      34.520  21.092  24.666  1.00  0.00    -0.053 C 
ATOM     28  C   UNL A   1      36.517  22.260  23.716  1.00  0.00    -0.009 C 
ATOM     29  C   UNL A   1      35.472  23.075  25.777  1.00  0.00     0.024 C 
ATOM     30  C   UNL A   1      35.300  20.023  24.925  1.00  0.00     0.052 C 
ATOM     31  C   UNL A   1      37.328  21.250  24.064  1.00  0.00     0.048 C 
ATOM     32  C   UNL A   1      36.782  20.131  24.866  1.00  0.00     0.178 C 
ATOM     33  O   UNL A   1      37.510  19.293  25.380  1.00  0.00    -0.290 OA
BRANCH  21  34
ATOM     34  O   UNL A   1      34.541  25.433  24.950  1.00  0.00    -0.390 OA
ATOM     35  H   UNL A   1      33.952  26.204  24.933  1.00  0.00     0.211 HD
ENDBRANCH  21  34
ENDBRANCH   5   8
ENDBRANCH   3   4
ENDBRANCH   2   3
ENDBRANCH   1   2
BRANCH   1  36
ATOM     36  N   UNL A   1      33.373  29.998  27.556  1.00  0.00    -0.352 N 
ATOM     37  C   UNL A   1      34.368  30.780  28.089  1.00  0.00     0.251 C 
ATOM     38  H   UNL A   1      32.547  30.477  27.321  1.00  0.00     0.163 HD
ATOM     39  O   UNL A   1      34.120  31.942  28.416  1.00  0.00    -0.269 OA
BRANCH  37  40
ATOM     40  C   UNL A   1      35.712  30.210  28.292  1.00  0.00     0.039 A 
ATOM     41  C   UNL A   1      36.664  30.301  27.275  1.00  0.00     0.014 A 
ATOM     42  C   UNL A   1      36.045  29.629  29.516  1.00  0.00     0.014 A 
ATOM     43  C   UNL A   1      37.971  29.883  27.525  1.00  0.00     0.010 A 
ATOM     44  C   UNL A   1      37.371  29.369  29.812  1.00  0.00     0.010 A 
ATOM     45  C   UNL A   1      38.346  29.460  28.812  1.00  0.00    -0.014 A 
BRANCH  45  46
ATOM     46  C   UNL A   1      39.736  29.064  29.136  1.00  0.00     0.031 A 
ATOM     47  C   UNL A   1      40.658  30.060  29.793  1.00  0.00     0.074 A 
ATOM     48  C   UNL A   1      40.188  27.848  28.770  1.00  0.00     0.049 A 
ATOM     49  N   UNL A   1      41.924  29.938  30.090  1.00  0.00    -0.248 NA
ATOM     50  C   UNL A   1      40.094  31.383  30.117  1.00  0.00     0.031 C 
ATOM     51  C   UNL A   1      39.405  26.825  28.070  1.00  0.00     0.029 A 
ATOM     52  N   UNL A   1      41.418  27.267  28.935  1.00  0.00    -0.354 N 
ATOM     53  C   UNL A   1      42.309  31.171  30.604  1.00  0.00     0.074 A 
ATOM     54  C   UNL A   1      41.168  32.048  30.508  1.00  0.00     0.031 C 
ATOM     55  C   UNL A   1      40.161  25.727  27.909  1.00  0.00     0.029 A 
ATOM     56  C   UNL A   1      41.492  25.984  28.446  1.00  0.00     0.049 A 
ATOM     57  H   UNL A   1      42.178  27.725  29.363  1.00  0.00     0.167 HD
ATOM     58  C   UNL A   1      43.498  31.532  31.141  1.00  0.00     0.031 A 
ATOM     59  C   UNL A   1      42.520  25.113  28.430  1.00  0.00     0.031 A 
ATOM     60  C   UNL A   1      44.619  30.641  31.256  1.00  0.00     0.049 A 
ATOM     61  C   UNL A   1      43.829  25.529  29.044  1.00  0.00     0.074 A 
ATOM     62  C   UNL A   1      45.848  30.876  31.845  1.00  0.00     0.029 A 
ATOM     63  N   UNL A   1      44.646  29.342  30.769  1.00  0.00    -0.354 N 
ATOM     64  N   UNL A   1      44.150  26.674  29.599  1.00  0.00    -0.248 NA
ATOM     65  C   UNL A   1      44.907  24.533  29.041  1.00  0.00     0.031 C 
ATOM     66  C   UNL A   1      46.639  29.738  31.661  1.00  0.00     0.029 A 
ATOM     67  C   UNL A   1      45.881  28.771  31.019  1.00  0.00     0.049 A 
ATOM     68  H   UNL A   1      43.898  28.894  30.313  1.00  0.00     0.167 HD
ATOM     69  C   UNL A   1      45.462  26.527  30.036  1.00  0.00     0.074 A 
ATOM     70  C   UNL A   1      45.865  25.177  29.695  1.00  0.00     0.031 C 
ATOM     71  C   UNL A   1      46.260  27.426  30.664  1.00  0.00     0.031 A 
BRANCH  58  72
ATOM     72  C   UNL A   1      43.636  32.949  31.636  1.00  0.00    -0.014 A 
ATOM     73  C   UNL A   1      44.094  33.979  30.792  1.00  0.00     0.010 A 
ATOM     74  C   UNL A   1      43.294  33.260  32.964  1.00  0.00     0.010 A 
ATOM     75  C   UNL A   1      44.258  35.278  31.280  1.00  0.00     0.020 A 
ATOM     76  C   UNL A   1      43.422  34.566  33.448  1.00  0.00     0.020 A 
ATOM     77  C   UNL A   1      43.924  35.562  32.607  1.00  0.00     0.054 A 
BRANCH  77  78
ATOM     78  S   UNL A   1      44.136  37.258  33.210  1.00  0.00     0.124 S 
ATOM     79  O   UNL A   1      44.129  38.023  31.965  1.00  0.00    -0.237 OA
ATOM     80  O   UNL A   1      42.966  37.442  34.065  1.00  0.00    -0.237 OA
ATOM     81  O   UNL A   1      45.418  37.221  33.910  1.00  0.00    -0.744 OA
ENDBRANCH  77  78
ENDBRANCH  58  72
BRANCH  59  82
ATOM     82  C   UNL A   1      42.333  23.760  27.841  1.00  0.00    -0.014 A 
ATOM     83  C   UNL A   1      42.716  23.498  26.513  1.00  0.00     0.010 A 
ATOM     84  C   UNL A   1      41.808  22.711  28.618  1.00  0.00     0.010 A 
ATOM     85  C   UNL A   1      42.568  22.217  25.971  1.00  0.00     0.020 A 
ATOM     86  C   UNL A   1      41.685  21.422  28.090  1.00  0.00     0.020 A 
ATOM     87  C   UNL A   1      42.060  21.185  26.767  1.00  0.00     0.054 A 
BRANCH  87  88
ATOM     88  S   UNL A   1      41.942  19.517  26.062  1.00  0.00     0.124 S 
ATOM     89  O   UNL A   1      40.514  19.404  25.783  1.00  0.00    -0.237 OA
ATOM     90  O   UNL A   1      42.812  19.609  24.893  1.00  0.00    -0.237 OA
ATOM     91  O   UNL A   1      42.442  18.658  27.134  1.00  0.00    -0.744 OA
ENDBRANCH  87  88
ENDBRANCH  59  82
BRANCH  71  92
ATOM     92  C   UNL A   1      47.641  26.971  31.053  1.00  0.00    -0.014 A 
ATOM     93  C   UNL A   1      47.878  26.320  32.276  1.00  0.00     0.010 A 
ATOM     94  C   UNL A   1      48.705  27.144  30.150  1.00  0.00     0.010 A 
ATOM     95  C   UNL A   1      49.163  25.879  32.602  1.00  0.00     0.020 A 
ATOM     96  C   UNL A   1      49.983  26.676  30.457  1.00  0.00     0.020 A 
ATOM     97  C   UNL A   1      50.207  26.058  31.688  1.00  0.00     0.054 A 
BRANCH  97  98
ATOM     98  S   UNL A   1      51.855  25.435  32.116  1.00  0.00     0.124 S 
ATOM     99  O   UNL A   1      52.125  26.129  33.371  1.00  0.00    -0.237 OA
ATOM    100  O   UNL A   1      51.632  23.995  32.228  1.00  0.00    -0.237 OA
ATOM    101  O   UNL A   1      52.685  25.845  30.985  1.00  0.00    -0.744 OA
ENDBRANCH  97  98
ENDBRANCH  71  92
ENDBRANCH  45  46
ENDBRANCH  37  40
ENDBRANCH   1  36
TORSDOF 14
ENDMDL
MODEL 3
REMARK VINA RESULT:     -12.9      3.035      4.131
REMARK SMILES CC1(C)O[C@@H]2C[C@@H]3[C@H]4CCC5=CC(=O)C=C[C@@]5(C)[C@]4(F)[C@H](O)C[C@]3(C)[C@]2(C(=O)NCCCNC(=O)c2ccc(-c3c4nc(c(-c5ccc(S(=O)(=O)[O-])cc5)c5ccc([nH]5)c(-c5ccc(S(=O)(=O)[O-])cc5)c5nc(c(-c6ccc(S(=O)(=O)[O-])cc6)c6ccc3[nH]6)C=C5)C=C4)cc2)O1
REMARK SMILES IDX 32 1 31 2 30 3 29 4 27 5 28 6 26 8 1 9 2 10 4 11 96 12 3 13
REMARK SMILES IDX 5 14 6 15 24 16 7 17 23 18 25 19 8 20 21 21 9 22 19 23 10 24
REMARK SMILES IDX 17 25 20 26 11 27 16 28 18 29 12 30 15 31 13 32 14 33 22 34
REMARK SMILES IDX 33 36 34 37 35 39 36 40 37 41 95 42 38 43 94 44 39 45 40 46
REMARK SMILES IDX 41 47 88 48 42 49 93 50 87 51 89 52 43 53 92 54 86 55 85 56
REMARK SMILES IDX 44 58 74 59 55 60 73 61 56 62 59 63 72 64 90 65 57 66 58 67
REMARK SMILES IDX 71 69 91 70 60 71 45 72 46 73 54 74 47 75 53 76 48 77 49 78
REMARK SMILES IDX 50 79 51 80 52 81 75 82 76 83 84 84 77 85 83 86 78 87 79 88
REMARK SMILES IDX 80 89 81 90 82 91 61 92 62 93 70 94 63 95 69 96 64 97 65 98
REMARK SMILES IDX 66 99 67 100 68 101
REMARK H PARENT 29 7 22 35 33 38 89 57 59 68
REMARK Flexibility Score: inf
ROOT
ATOM      1  C   UNL A   1      35.084  29.395  27.468  1.00  0.00     0.118 C 
ENDROOT
BRANCH   1   2
ATOM      2  C   UNL A   1      33.644  29.292  27.027  1.00  0.00     0.042 C 
BRANCH   2   3
ATOM      3  C   UNL A   1      33.550  28.839  25.586  1.00  0.00     0.117 C 
BRANCH   3   4
ATOM      4  N   UNL A   1      32.231  29.021  25.047  1.00  0.00    -0.353 N 
ATOM      5  C   UNL A   1      31.494  28.289  24.179  1.00  0.00     0.255 C 
ATOM      6  O   UNL A   1      30.640  28.966  23.589  1.00  0.00    -0.272 OA
ATOM      7  H   UNL A   1      31.776  29.831  25.371  1.00  0.00     0.163 HD
BRANCH   5   8
ATOM      8  C   UNL A   1      31.527  26.743  24.018  1.00  0.00     0.181 C 
ATOM      9  C   UNL A   1      30.557  26.756  27.345  1.00  0.00     0.075 C 
ATOM     10  C   UNL A   1      30.675  25.913  26.078  1.00  0.00     0.164 C 
ATOM     11  O   UNL A   1      29.553  26.083  25.208  1.00  0.00    -0.344 OA
ATOM     12  O   UNL A   1      31.898  26.283  25.384  1.00  0.00    -0.331 OA
ATOM     13  C   UNL A   1      30.650  24.441  26.558  1.00  0.00     0.075 C 
ATOM     14  C   UNL A   1      30.076  26.155  23.876  1.00  0.00     0.164 C 
ATOM     15  C   UNL A   1      30.236  24.695  23.235  1.00  0.00     0.040 C 
ATOM     16  C   UNL A   1      32.299  25.930  22.871  1.00  0.00     0.014 C 
ATOM     17  C   UNL A   1      31.780  24.503  23.280  1.00  0.00     0.008 C 
ATOM     18  C   UNL A   1      33.836  25.926  22.681  1.00  0.00     0.046 C 
ATOM     19  C   UNL A   1      31.709  26.337  21.460  1.00  0.00     0.015 C 
ATOM     20  C   UNL A   1      32.773  23.442  23.882  1.00  0.00     0.035 C 
ATOM     21  C   UNL A   1      34.684  25.059  23.566  1.00  0.00     0.154 C 
ATOM     22  C   UNL A   1      32.294  21.998  23.853  1.00  0.00     0.012 C 
ATOM     23  C   UNL A   1      34.251  23.578  23.491  1.00  0.00     0.152 C 
ATOM     24  C   UNL A   1      33.070  21.224  24.929  1.00  0.00     0.032 C 
ATOM     25  C   UNL A   1      35.192  22.647  24.368  1.00  0.00     0.044 C 
ATOM     26  F   UNL A   1      34.342  23.180  22.180  1.00  0.00    -0.239 F 
ATOM     27  C   UNL A   1      34.565  21.293  24.735  1.00  0.00    -0.053 C 
ATOM     28  C   UNL A   1      36.523  22.408  23.652  1.00  0.00    -0.009 C 
ATOM     29  C   UNL A   1      35.582  23.305  25.729  1.00  0.00     0.024 C 
ATOM     30  C   UNL A   1      35.349  20.227  24.995  1.00  0.00     0.052 C 
ATOM     31  C   UNL A   1      37.343  21.405  23.997  1.00  0.00     0.048 C 
ATOM     32  C   UNL A   1      36.827  20.320  24.863  1.00  0.00     0.178 C 
ATOM     33  O   UNL A   1      37.573  19.494  25.372  1.00  0.00    -0.290 OA
BRANCH  21  34
ATOM     34  O   UNL A   1      34.630  25.640  24.863  1.00  0.00    -0.390 OA
ATOM     35  H   UNL A   1      34.106  26.456  24.831  1.00  0.00     0.211 HD
ENDBRANCH  21  34
ENDBRANCH   5   8
ENDBRANCH   3   4
ENDBRANCH   2   3
ENDBRANCH   1   2
BRANCH   1  36
ATOM     36  N   UNL A   1      35.222  30.134  28.725  1.00  0.00    -0.352 N 
ATOM     37  C   UNL A   1      36.293  30.222  29.580  1.00  0.00     0.251 C 
ATOM     38  H   UNL A   1      34.426  30.643  29.000  1.00  0.00     0.163 HD
ATOM     39  O   UNL A   1      36.147  30.740  30.688  1.00  0.00    -0.269 OA
BRANCH  37  40
ATOM     40  C   UNL A   1      37.596  29.667  29.173  1.00  0.00     0.039 A 
ATOM     41  C   UNL A   1      38.028  29.810  27.852  1.00  0.00     0.014 A 
ATOM     42  C   UNL A   1      38.417  29.050  30.117  1.00  0.00     0.014 A 
ATOM     43  C   UNL A   1      39.318  29.404  27.509  1.00  0.00     0.010 A 
ATOM     44  C   UNL A   1      39.743  28.801  29.813  1.00  0.00     0.010 A 
ATOM     45  C   UNL A   1      40.202  28.943  28.499  1.00  0.00    -0.014 A 
BRANCH  45  46
ATOM     46  C   UNL A   1      41.598  28.559  28.188  1.00  0.00     0.031 A 
ATOM     47  C   UNL A   1      42.672  29.616  28.165  1.00  0.00     0.074 A 
ATOM     48  C   UNL A   1      41.883  27.285  27.852  1.00  0.00     0.049 A 
ATOM     49  N   UNL A   1      43.934  29.502  27.846  1.00  0.00    -0.248 NA
ATOM     50  C   UNL A   1      42.265  30.993  28.501  1.00  0.00     0.031 C 
ATOM     51  C   UNL A   1      40.912  26.188  27.775  1.00  0.00     0.029 A 
ATOM     52  N   UNL A   1      43.072  26.697  27.507  1.00  0.00    -0.354 N 
ATOM     53  C   UNL A   1      44.457  30.788  27.915  1.00  0.00     0.074 A 
ATOM     54  C   UNL A   1      43.363  31.676  28.230  1.00  0.00     0.031 C 
ATOM     55  C   UNL A   1      41.555  25.054  27.454  1.00  0.00     0.029 A 
ATOM     56  C   UNL A   1      42.969  25.350  27.252  1.00  0.00     0.049 A 
ATOM     57  H   UNL A   1      43.921  27.193  27.448  1.00  0.00     0.167 HD
ATOM     58  C   UNL A   1      45.739  31.192  27.763  1.00  0.00     0.031 A 
ATOM     59  C   UNL A   1      43.908  24.454  26.894  1.00  0.00     0.031 A 
ATOM     60  C   UNL A   1      46.824  30.294  27.477  1.00  0.00     0.049 A 
ATOM     61  C   UNL A   1      45.331  24.920  26.743  1.00  0.00     0.074 A 
ATOM     62  C   UNL A   1      48.173  30.580  27.372  1.00  0.00     0.029 A 
ATOM     63  N   UNL A   1      46.680  28.934  27.248  1.00  0.00    -0.354 N 
ATOM     64  N   UNL A   1      45.820  26.128  26.891  1.00  0.00    -0.248 NA
ATOM     65  C   UNL A   1      46.327  23.901  26.392  1.00  0.00     0.031 C 
ATOM     66  C   UNL A   1      48.838  29.402  27.020  1.00  0.00     0.029 A 
ATOM     67  C   UNL A   1      47.913  28.369  26.974  1.00  0.00     0.049 A 
ATOM     68  H   UNL A   1      45.828  28.442  27.276  1.00  0.00     0.167 HD
ATOM     69  C   UNL A   1      47.189  26.010  26.676  1.00  0.00     0.074 A 
ATOM     70  C   UNL A   1      47.448  24.610  26.405  1.00  0.00     0.031 C 
ATOM     71  C   UNL A   1      48.145  26.972  26.702  1.00  0.00     0.031 A 
BRANCH  58  72
ATOM     72  C   UNL A   1      46.027  32.665  27.902  1.00  0.00    -0.014 A 
ATOM     73  C   UNL A   1      46.339  33.236  29.151  1.00  0.00     0.010 A 
ATOM     74  C   UNL A   1      45.996  33.492  26.766  1.00  0.00     0.010 A 
ATOM     75  C   UNL A   1      46.558  34.611  29.270  1.00  0.00     0.020 A 
ATOM     76  C   UNL A   1      46.251  34.863  26.873  1.00  0.00     0.020 A 
ATOM     77  C   UNL A   1      46.510  35.416  28.128  1.00  0.00     0.054 A 
BRANCH  77  78
ATOM     78  S   UNL A   1      46.811  37.194  28.310  1.00  0.00     0.124 S 
ATOM     79  O   UNL A   1      48.258  37.235  28.508  1.00  0.00    -0.237 OA
ATOM     80  O   UNL A   1      46.338  37.730  27.036  1.00  0.00    -0.237 OA
ATOM     81  O   UNL A   1      46.012  37.565  29.475  1.00  0.00    -0.744 OA
ENDBRANCH  77  78
ENDBRANCH  58  72
BRANCH  59  82
ATOM     82  C   UNL A   1      43.531  23.030  26.686  1.00  0.00    -0.014 A 
ATOM     83  C   UNL A   1      43.786  22.393  25.457  1.00  0.00     0.010 A 
ATOM     84  C   UNL A   1      42.951  22.287  27.730  1.00  0.00     0.010 A 
ATOM     85  C   UNL A   1      43.458  21.046  25.274  1.00  0.00     0.020 A 
ATOM     86  C   UNL A   1      42.649  20.932  27.562  1.00  0.00     0.020 A 
ATOM     87  C   UNL A   1      42.898  20.322  26.331  1.00  0.00     0.054 A 
BRANCH  87  88
ATOM     88  S   UNL A   1      42.546  18.558  26.091  1.00  0.00     0.124 S 
ATOM     89  O   UNL A   1      43.431  18.219  24.982  1.00  0.00    -0.237 OA
ATOM     90  O   UNL A   1      42.905  17.988  27.387  1.00  0.00    -0.237 OA
ATOM     91  O   UNL A   1      41.117  18.535  25.785  1.00  0.00    -0.744 OA
ENDBRANCH  87  88
ENDBRANCH  59  82
BRANCH  71  92
ATOM     92  C   UNL A   1      49.567  26.540  26.462  1.00  0.00    -0.014 A 
ATOM     93  C   UNL A   1      50.339  25.968  27.486  1.00  0.00     0.010 A 
ATOM     94  C   UNL A   1      50.114  26.655  25.171  1.00  0.00     0.010 A 
ATOM     95  C   UNL A   1      51.647  25.546  27.232  1.00  0.00     0.020 A 
ATOM     96  C   UNL A   1      51.408  26.204  24.904  1.00  0.00     0.020 A 
ATOM     97  C   UNL A   1      52.171  25.665  25.940  1.00  0.00     0.054 A 
BRANCH  97  98
ATOM     98  S   UNL A   1      53.854  25.067  25.625  1.00  0.00     0.124 S 
ATOM     99  O   UNL A   1      54.561  25.505  26.825  1.00  0.00    -0.237 OA
ATOM    100  O   UNL A   1      53.660  23.625  25.499  1.00  0.00    -0.237 OA
ATOM    101  O   UNL A   1      54.238  25.749  24.391  1.00  0.00    -0.744 OA
ENDBRANCH  97  98
ENDBRANCH  71  92
ENDBRANCH  45  46
ENDBRANCH  37  40
ENDBRANCH   1  36
TORSDOF 14
ENDMDL
