MODEL 1
REMARK VINA RESULT:     -11.6      0.000      0.000
REMARK SMILES O=C(NCCCNC(=O)c1cccc2cccc(C(=O)NC3COC3)c12)c1ccc(-c2c3nc(c(-c4ccc(S(=O)(=O)[O-])cc4)c4ccc([nH]4)c(-c4ccc(S(=O)(=O)[O-])cc4)c4nc(c(-c5ccc(S(=O)(=O)[O-])cc5)c5ccc2[nH]5)C=C4)C=C3)cc1
REMARK SMILES IDX 4 1 3 2 1 3 2 4 27 6 28 7 86 8 29 9 85 10 30 11 31 12 32 13
REMARK SMILES IDX 79 14 33 15 84 16 78 17 80 18 34 19 83 20 77 21 76 22 35 24
REMARK SMILES IDX 65 25 46 26 64 27 47 28 50 29 63 30 81 31 48 32 49 33 62 35
REMARK SMILES IDX 82 36 51 37 36 38 37 39 45 40 38 41 44 42 39 43 40 44 41 45
REMARK SMILES IDX 42 46 43 47 66 48 67 49 75 50 68 51 74 52 69 53 70 54 71 55
REMARK SMILES IDX 72 56 73 57 52 58 53 59 61 60 54 61 60 62 55 63 56 64 57 65
REMARK SMILES IDX 58 66 59 67 5 68 6 69 7 70 8 71 9 73 10 74 11 75 26 76 12 77
REMARK SMILES IDX 14 78 18 79 13 80 15 81 17 82 16 83 19 84 20 85 21 86 22 88
REMARK SMILES IDX 23 89 25 90 24 91
REMARK H PARENT 3 5 80 23 50 34 7 72 21 87
REMARK Flexibility Score: inf
ROOT
ATOM      1  C   UNL A   1      33.912  28.024  26.574  1.00  0.00     0.118 C 
ENDROOT
BRANCH   1   2
ATOM      2  N   UNL A   1      33.661  29.416  26.920  1.00  0.00    -0.352 N 
ATOM      3  O   UNL A   1      33.923  31.337  28.061  1.00  0.00    -0.269 OA
ATOM      4  C   UNL A   1      34.416  30.284  27.673  1.00  0.00     0.251 C 
ATOM      5  H   UNL A   1      32.826  29.794  26.560  1.00  0.00     0.163 HD
BRANCH   4   6
ATOM      6  C   UNL A   1      35.807  29.934  28.037  1.00  0.00     0.039 A 
ATOM      7  C   UNL A   1      36.851  30.139  27.136  1.00  0.00     0.014 A 
ATOM      8  C   UNL A   1      36.076  29.433  29.315  1.00  0.00     0.014 A 
ATOM      9  C   UNL A   1      38.136  29.714  27.454  1.00  0.00     0.010 A 
ATOM     10  C   UNL A   1      37.385  29.087  29.666  1.00  0.00     0.010 A 
ATOM     11  C   UNL A   1      38.420  29.199  28.728  1.00  0.00    -0.014 A 
BRANCH  11  12
ATOM     12  C   UNL A   1      39.824  28.855  29.067  1.00  0.00     0.031 A 
ATOM     13  C   UNL A   1      40.677  29.781  29.888  1.00  0.00     0.074 A 
ATOM     14  C   UNL A   1      40.309  27.664  28.666  1.00  0.00     0.049 A 
ATOM     15  N   UNL A   1      41.907  29.611  30.300  1.00  0.00    -0.248 NA
ATOM     16  C   UNL A   1      40.079  31.062  30.295  1.00  0.00     0.031 C 
ATOM     17  C   UNL A   1      39.573  26.681  27.864  1.00  0.00     0.029 A 
ATOM     18  N   UNL A   1      41.515  27.058  28.907  1.00  0.00    -0.354 N 
ATOM     19  C   UNL A   1      42.240  30.768  30.993  1.00  0.00     0.074 A 
ATOM     20  C   UNL A   1      41.086  31.639  30.937  1.00  0.00     0.031 C 
ATOM     21  C   UNL A   1      40.316  25.571  27.740  1.00  0.00     0.029 A 
ATOM     22  C   UNL A   1      41.599  25.783  28.400  1.00  0.00     0.049 A 
ATOM     23  H   UNL A   1      42.250  27.496  29.395  1.00  0.00     0.167 HD
ATOM     24  C   UNL A   1      43.403  31.075  31.620  1.00  0.00     0.031 A 
ATOM     25  C   UNL A   1      42.597  24.882  28.455  1.00  0.00     0.031 A 
ATOM     26  C   UNL A   1      44.545  30.202  31.684  1.00  0.00     0.049 A 
ATOM     27  C   UNL A   1      43.869  25.244  29.158  1.00  0.00     0.074 A 
ATOM     28  C   UNL A   1      45.767  30.424  32.295  1.00  0.00     0.029 A 
ATOM     29  N   UNL A   1      44.604  28.935  31.124  1.00  0.00    -0.354 N 
ATOM     30  N   UNL A   1      44.169  26.352  29.792  1.00  0.00    -0.248 NA
ATOM     31  C   UNL A   1      44.942  24.242  29.143  1.00  0.00     0.031 C 
ATOM     32  C   UNL A   1      46.575  29.301  32.082  1.00  0.00     0.029 A 
ATOM     33  C   UNL A   1      45.844  28.368  31.366  1.00  0.00     0.049 A 
ATOM     34  H   UNL A   1      43.872  28.502  30.628  1.00  0.00     0.167 HD
ATOM     35  C   UNL A   1      45.468  26.185  30.248  1.00  0.00     0.074 A 
ATOM     36  C   UNL A   1      45.888  24.858  29.838  1.00  0.00     0.031 C 
ATOM     37  C   UNL A   1      46.248  27.055  30.935  1.00  0.00     0.031 A 
BRANCH  24  38
ATOM     38  C   UNL A   1      43.503  32.431  32.263  1.00  0.00    -0.014 A 
ATOM     39  C   UNL A   1      43.154  32.622  33.611  1.00  0.00     0.010 A 
ATOM     40  C   UNL A   1      43.983  33.522  31.516  1.00  0.00     0.010 A 
ATOM     41  C   UNL A   1      43.250  33.891  34.193  1.00  0.00     0.020 A 
ATOM     42  C   UNL A   1      44.095  34.788  32.097  1.00  0.00     0.020 A 
ATOM     43  C   UNL A   1      43.710  34.968  33.428  1.00  0.00     0.054 A 
BRANCH  43  44
ATOM     44  S   UNL A   1      43.834  36.604  34.203  1.00  0.00     0.124 S 
ATOM     45  O   UNL A   1      45.147  36.534  34.842  1.00  0.00    -0.237 OA
ATOM     46  O   UNL A   1      43.740  37.513  33.063  1.00  0.00    -0.237 OA
ATOM     47  O   UNL A   1      42.697  36.640  35.118  1.00  0.00    -0.744 OA
ENDBRANCH  43  44
ENDBRANCH  24  38
BRANCH  25  48
ATOM     48  C   UNL A   1      42.414  23.553  27.818  1.00  0.00    -0.014 A 
ATOM     49  C   UNL A   1      42.923  23.306  26.532  1.00  0.00     0.010 A 
ATOM     50  C   UNL A   1      41.787  22.511  28.524  1.00  0.00     0.010 A 
ATOM     51  C   UNL A   1      42.813  22.033  25.964  1.00  0.00     0.020 A 
ATOM     52  C   UNL A   1      41.694  21.233  27.967  1.00  0.00     0.020 A 
ATOM     53  C   UNL A   1      42.203  21.004  26.686  1.00  0.00     0.054 A 
BRANCH  53  54
ATOM     54  S   UNL A   1      42.150  19.334  25.978  1.00  0.00     0.124 S 
ATOM     55  O   UNL A   1      40.725  19.164  25.711  1.00  0.00    -0.237 OA
ATOM     56  O   UNL A   1      43.005  19.455  24.799  1.00  0.00    -0.237 OA
ATOM     57  O   UNL A   1      42.694  18.498  27.047  1.00  0.00    -0.744 OA
ENDBRANCH  53  54
ENDBRANCH  25  48
BRANCH  37  58
ATOM     58  C   UNL A   1      47.635  26.593  31.280  1.00  0.00    -0.014 A 
ATOM     59  C   UNL A   1      47.880  25.901  32.478  1.00  0.00     0.010 A 
ATOM     60  C   UNL A   1      48.693  26.829  30.387  1.00  0.00     0.010 A 
ATOM     61  C   UNL A   1      49.172  25.475  32.793  1.00  0.00     0.020 A 
ATOM     62  C   UNL A   1      49.984  26.391  30.690  1.00  0.00     0.020 A 
ATOM     63  C   UNL A   1      50.218  25.729  31.900  1.00  0.00     0.054 A 
BRANCH  63  64
ATOM     64  S   UNL A   1      51.885  25.143  32.308  1.00  0.00     0.124 S 
ATOM     65  O   UNL A   1      52.114  25.763  33.610  1.00  0.00    -0.237 OA
ATOM     66  O   UNL A   1      51.725  23.689  32.324  1.00  0.00    -0.237 OA
ATOM     67  O   UNL A   1      52.707  25.658  31.216  1.00  0.00    -0.744 OA
ENDBRANCH  63  64
ENDBRANCH  37  58
ENDBRANCH  11  12
ENDBRANCH   4   6
ENDBRANCH   1   2
BRANCH   1  68
ATOM     68  C   UNL A   1      32.981  27.530  25.475  1.00  0.00     0.042 C 
BRANCH  68  69
ATOM     69  C   UNL A   1      33.707  26.832  24.328  1.00  0.00     0.118 C 
BRANCH  69  70
ATOM     70  N   UNL A   1      33.290  25.448  24.124  1.00  0.00    -0.352 N 
ATOM     71  C   UNL A   1      34.131  24.551  23.496  1.00  0.00     0.251 C 
ATOM     72  H   UNL A   1      32.403  25.154  24.435  1.00  0.00     0.163 HD
ATOM     73  O   UNL A   1      34.188  24.517  22.276  1.00  0.00    -0.269 OA
BRANCH  71  74
ATOM     74  C   UNL A   1      34.920  23.625  24.359  1.00  0.00     0.048 A 
ATOM     75  C   UNL A   1      36.064  24.159  24.983  1.00  0.00     0.014 A 
ATOM     76  C   UNL A   1      34.591  22.228  24.485  1.00  0.00     0.007 A 
ATOM     77  C   UNL A   1      36.975  23.342  25.628  1.00  0.00     0.001 A 
ATOM     78  C   UNL A   1      35.608  21.414  25.079  1.00  0.00    -0.017 A 
ATOM     79  C   UNL A   1      33.392  21.527  24.107  1.00  0.00     0.048 A 
ATOM     80  C   UNL A   1      36.765  21.974  25.635  1.00  0.00     0.009 A 
ATOM     81  C   UNL A   1      35.500  20.017  25.133  1.00  0.00     0.009 A 
ATOM     82  C   UNL A   1      33.325  20.115  24.171  1.00  0.00     0.014 A 
ATOM     83  C   UNL A   1      34.379  19.363  24.655  1.00  0.00     0.001 A 
BRANCH  79  84
ATOM     84  C   UNL A   1      32.102  22.099  23.640  1.00  0.00     0.252 C 
ATOM     85  O   UNL A   1      31.778  21.928  22.461  1.00  0.00    -0.269 OA
ATOM     86  N   UNL A   1      31.156  22.659  24.463  1.00  0.00    -0.345 N 
ATOM     87  H   UNL A   1      30.311  22.843  23.992  1.00  0.00     0.164 HD
BRANCH  86  88
ATOM     88  C   UNL A   1      31.100  23.049  25.876  1.00  0.00     0.134 C 
ATOM     89  C   UNL A   1      30.514  24.452  26.110  1.00  0.00     0.187 C 
ATOM     90  C   UNL A   1      29.978  22.608  26.814  1.00  0.00     0.187 C 
ATOM     91  O   UNL A   1      29.782  23.976  27.269  1.00  0.00    -0.377 OA
ENDBRANCH  86  88
ENDBRANCH  79  84
ENDBRANCH  71  74
ENDBRANCH  69  70
ENDBRANCH  68  69
ENDBRANCH   1  68
TORSDOF 15
ENDMDL
MODEL 2
REMARK VINA RESULT:     -11.4      2.729      9.356
REMARK SMILES O=C(NCCCNC(=O)c1cccc2cccc(C(=O)NC3COC3)c12)c1ccc(-c2c3nc(c(-c4ccc(S(=O)(=O)[O-])cc4)c4ccc([nH]4)c(-c4ccc(S(=O)(=O)[O-])cc4)c4nc(c(-c5ccc(S(=O)(=O)[O-])cc5)c5ccc2[nH]5)C=C4)C=C3)cc1
REMARK SMILES IDX 4 1 3 2 1 3 2 4 27 6 28 7 86 8 29 9 85 10 30 11 31 12 32 13
REMARK SMILES IDX 79 14 33 15 84 16 78 17 80 18 34 19 83 20 77 21 76 22 35 24
REMARK SMILES IDX 65 25 46 26 64 27 47 28 50 29 63 30 81 31 48 32 49 33 62 35
REMARK SMILES IDX 82 36 51 37 36 38 37 39 45 40 38 41 44 42 39 43 40 44 41 45
REMARK SMILES IDX 42 46 43 47 66 48 67 49 75 50 68 51 74 52 69 53 70 54 71 55
REMARK SMILES IDX 72 56 73 57 52 58 53 59 61 60 54 61 60 62 55 63 56 64 57 65
REMARK SMILES IDX 58 66 59 67 5 68 6 69 7 70 8 71 9 73 10 74 11 75 26 76 12 77
REMARK SMILES IDX 14 78 18 79 13 80 15 81 17 82 16 83 19 84 20 85 21 86 22 88
REMARK SMILES IDX 23 89 25 90 24 91
REMARK H PARENT 3 5 80 23 50 34 7 72 21 87
REMARK Flexibility Score: inf
ROOT
ATOM      1  C   UNL A   1      36.539  23.930  25.356  1.00  0.00     0.118 C 
ENDROOT
BRANCH   1   2
ATOM      2  N   UNL A   1      37.508  22.869  25.592  1.00  0.00    -0.352 N 
ATOM      3  O   UNL A   1      39.531  21.980  26.011  1.00  0.00    -0.269 OA
ATOM      4  C   UNL A   1      38.775  22.939  26.121  1.00  0.00     0.251 C 
ATOM      5  H   UNL A   1      37.211  21.965  25.335  1.00  0.00     0.163 HD
BRANCH   4   6
ATOM      6  C   UNL A   1      39.231  24.175  26.793  1.00  0.00     0.039 A 
ATOM      7  C   UNL A   1      38.960  24.391  28.144  1.00  0.00     0.014 A 
ATOM      8  C   UNL A   1      39.980  25.111  26.072  1.00  0.00     0.014 A 
ATOM      9  C   UNL A   1      39.308  25.600  28.737  1.00  0.00     0.010 A 
ATOM     10  C   UNL A   1      40.405  26.289  26.694  1.00  0.00     0.010 A 
ATOM     11  C   UNL A   1      40.049  26.555  28.024  1.00  0.00    -0.014 A 
BRANCH  11  12
ATOM     12  C   UNL A   1      40.494  27.787  28.722  1.00  0.00     0.031 A 
ATOM     13  C   UNL A   1      41.915  27.953  29.180  1.00  0.00     0.074 A 
ATOM     14  C   UNL A   1      39.605  28.785  28.895  1.00  0.00     0.049 A 
ATOM     15  N   UNL A   1      42.470  28.981  29.770  1.00  0.00    -0.248 NA
ATOM     16  C   UNL A   1      42.831  26.824  28.954  1.00  0.00     0.031 C 
ATOM     17  C   UNL A   1      38.197  28.739  28.490  1.00  0.00     0.029 A 
ATOM     18  N   UNL A   1      39.759  30.044  29.416  1.00  0.00    -0.354 N 
ATOM     19  C   UNL A   1      43.790  28.617  30.008  1.00  0.00     0.074 A 
ATOM     20  C   UNL A   1      43.951  27.268  29.508  1.00  0.00     0.031 C 
ATOM     21  C   UNL A   1      37.635  29.936  28.714  1.00  0.00     0.029 A 
ATOM     22  C   UNL A   1      38.624  30.814  29.329  1.00  0.00     0.049 A 
ATOM     23  H   UNL A   1      40.600  30.364  29.814  1.00  0.00     0.167 HD
ATOM     24  C   UNL A   1      44.777  29.342  30.589  1.00  0.00     0.031 A 
ATOM     25  C   UNL A   1      38.397  32.086  29.706  1.00  0.00     0.031 A 
ATOM     26  C   UNL A   1      44.617  30.687  31.075  1.00  0.00     0.049 A 
ATOM     27  C   UNL A   1      39.506  32.867  30.341  1.00  0.00     0.074 A 
ATOM     28  C   UNL A   1      45.558  31.503  31.679  1.00  0.00     0.029 A 
ATOM     29  N   UNL A   1      43.441  31.418  31.006  1.00  0.00    -0.354 N 
ATOM     30  N   UNL A   1      40.743  32.497  30.572  1.00  0.00    -0.248 NA
ATOM     31  C   UNL A   1      39.188  34.232  30.779  1.00  0.00     0.031 C 
ATOM     32  C   UNL A   1      44.944  32.720  31.999  1.00  0.00     0.029 A 
ATOM     33  C   UNL A   1      43.629  32.671  31.564  1.00  0.00     0.049 A 
ATOM     34  H   UNL A   1      42.597  31.094  30.615  1.00  0.00     0.167 HD
ATOM     35  C   UNL A   1      41.351  33.581  31.187  1.00  0.00     0.074 A 
ATOM     36  C   UNL A   1      40.353  34.631  31.270  1.00  0.00     0.031 C 
ATOM     37  C   UNL A   1      42.620  33.694  31.652  1.00  0.00     0.031 A 
BRANCH  24  38
ATOM     38  C   UNL A   1      46.116  28.676  30.756  1.00  0.00    -0.014 A 
ATOM     39  C   UNL A   1      46.407  27.907  31.896  1.00  0.00     0.010 A 
ATOM     40  C   UNL A   1      47.084  28.797  29.742  1.00  0.00     0.010 A 
ATOM     41  C   UNL A   1      47.658  27.298  32.036  1.00  0.00     0.020 A 
ATOM     42  C   UNL A   1      48.330  28.176  29.871  1.00  0.00     0.020 A 
ATOM     43  C   UNL A   1      48.615  27.445  31.027  1.00  0.00     0.054 A 
BRANCH  43  44
ATOM     44  S   UNL A   1      50.230  26.641  31.224  1.00  0.00     0.124 S 
ATOM     45  O   UNL A   1      50.816  27.410  32.321  1.00  0.00    -0.237 OA
ATOM     46  O   UNL A   1      49.871  25.262  31.547  1.00  0.00    -0.237 OA
ATOM     47  O   UNL A   1      50.868  26.825  29.923  1.00  0.00    -0.744 OA
ENDBRANCH  43  44
ENDBRANCH  24  38
BRANCH  25  48
ATOM     48  C   UNL A   1      37.056  32.683  29.484  1.00  0.00    -0.014 A 
ATOM     49  C   UNL A   1      36.135  32.774  30.542  1.00  0.00     0.010 A 
ATOM     50  C   UNL A   1      36.720  33.223  28.230  1.00  0.00     0.010 A 
ATOM     51  C   UNL A   1      34.900  33.402  30.349  1.00  0.00     0.020 A 
ATOM     52  C   UNL A   1      35.496  33.868  28.040  1.00  0.00     0.020 A 
ATOM     53  C   UNL A   1      34.590  33.948  29.101  1.00  0.00     0.054 A 
BRANCH  53  54
ATOM     54  S   UNL A   1      33.026  34.844  28.888  1.00  0.00     0.124 S 
ATOM     55  O   UNL A   1      32.482  34.826  30.243  1.00  0.00    -0.237 OA
ATOM     56  O   UNL A   1      33.465  36.149  28.399  1.00  0.00    -0.237 OA
ATOM     57  O   UNL A   1      32.305  34.033  27.909  1.00  0.00    -0.744 OA
ENDBRANCH  53  54
ENDBRANCH  25  48
BRANCH  37  58
ATOM     58  C   UNL A   1      42.990  35.000  32.294  1.00  0.00    -0.014 A 
ATOM     59  C   UNL A   1      42.740  35.221  33.659  1.00  0.00     0.010 A 
ATOM     60  C   UNL A   1      43.617  36.001  31.534  1.00  0.00     0.010 A 
ATOM     61  C   UNL A   1      43.086  36.438  34.249  1.00  0.00     0.020 A 
ATOM     62  C   UNL A   1      43.980  37.214  32.124  1.00  0.00     0.020 A 
ATOM     63  C   UNL A   1      43.698  37.431  33.476  1.00  0.00     0.054 A 
BRANCH  63  64
ATOM     64  S   UNL A   1      44.170  38.994  34.265  1.00  0.00     0.124 S 
ATOM     65  O   UNL A   1      45.471  39.259  33.657  1.00  0.00    -0.237 OA
ATOM     66  O   UNL A   1      43.094  39.899  33.866  1.00  0.00    -0.237 OA
ATOM     67  O   UNL A   1      44.201  38.665  35.688  1.00  0.00    -0.744 OA
ENDBRANCH  63  64
ENDBRANCH  37  58
ENDBRANCH  11  12
ENDBRANCH   4   6
ENDBRANCH   1   2
BRANCH   1  68
ATOM     68  C   UNL A   1      35.115  23.395  25.264  1.00  0.00     0.042 C 
BRANCH  68  69
ATOM     69  C   UNL A   1      34.144  24.080  26.222  1.00  0.00     0.118 C 
BRANCH  69  70
ATOM     70  N   UNL A   1      33.003  24.703  25.557  1.00  0.00    -0.352 N 
ATOM     71  C   UNL A   1      32.238  25.644  26.218  1.00  0.00     0.251 C 
ATOM     72  H   UNL A   1      32.778  24.450  24.633  1.00  0.00     0.163 HD
ATOM     73  O   UNL A   1      31.357  25.286  26.985  1.00  0.00    -0.269 OA
BRANCH  71  74
ATOM     74  C   UNL A   1      32.511  27.081  25.929  1.00  0.00     0.048 A 
ATOM     75  C   UNL A   1      33.617  27.661  26.582  1.00  0.00     0.014 A 
ATOM     76  C   UNL A   1      31.643  27.874  25.096  1.00  0.00     0.007 A 
ATOM     77  C   UNL A   1      33.832  29.027  26.550  1.00  0.00     0.001 A 
ATOM     78  C   UNL A   1      31.852  29.289  25.170  1.00  0.00    -0.017 A 
ATOM     79  C   UNL A   1      30.600  27.458  24.197  1.00  0.00     0.048 A 
ATOM     80  C   UNL A   1      32.928  29.835  25.883  1.00  0.00     0.009 A 
ATOM     81  C   UNL A   1      30.992  30.198  24.538  1.00  0.00     0.009 A 
ATOM     82  C   UNL A   1      29.748  28.407  23.582  1.00  0.00     0.014 A 
ATOM     83  C   UNL A   1      29.926  29.765  23.771  1.00  0.00     0.001 A 
BRANCH  79  84
ATOM     84  C   UNL A   1      30.258  26.078  23.760  1.00  0.00     0.252 C 
ATOM     85  O   UNL A   1      29.190  25.590  24.144  1.00  0.00    -0.269 OA
ATOM     86  N   UNL A   1      30.959  25.363  22.821  1.00  0.00    -0.345 N 
ATOM     87  H   UNL A   1      30.496  24.535  22.558  1.00  0.00     0.164 HD
BRANCH  86  88
ATOM     88  C   UNL A   1      32.233  25.535  22.115  1.00  0.00     0.134 C 
ATOM     89  C   UNL A   1      32.907  24.210  21.718  1.00  0.00     0.187 C 
ATOM     90  C   UNL A   1      32.317  25.830  20.619  1.00  0.00     0.187 C 
ATOM     91  O   UNL A   1      33.291  24.765  20.434  1.00  0.00    -0.377 OA
ENDBRANCH  86  88
ENDBRANCH  79  84
ENDBRANCH  71  74
ENDBRANCH  69  70
ENDBRANCH  68  69
ENDBRANCH   1  68
TORSDOF 15
ENDMDL
MODEL 3
REMARK VINA RESULT:     -11.1      0.856      8.243
REMARK SMILES O=C(NCCCNC(=O)c1cccc2cccc(C(=O)NC3COC3)c12)c1ccc(-c2c3nc(c(-c4ccc(S(=O)(=O)[O-])cc4)c4ccc([nH]4)c(-c4ccc(S(=O)(=O)[O-])cc4)c4nc(c(-c5ccc(S(=O)(=O)[O-])cc5)c5ccc2[nH]5)C=C4)C=C3)cc1
REMARK SMILES IDX 4 1 3 2 1 3 2 4 27 6 28 7 86 8 29 9 85 10 30 11 31 12 32 13
REMARK SMILES IDX 79 14 33 15 84 16 78 17 80 18 34 19 83 20 77 21 76 22 35 24
REMARK SMILES IDX 65 25 46 26 64 27 47 28 50 29 63 30 81 31 48 32 49 33 62 35
REMARK SMILES IDX 82 36 51 37 36 38 37 39 45 40 38 41 44 42 39 43 40 44 41 45
REMARK SMILES IDX 42 46 43 47 66 48 67 49 75 50 68 51 74 52 69 53 70 54 71 55
REMARK SMILES IDX 72 56 73 57 52 58 53 59 61 60 54 61 60 62 55 63 56 64 57 65
REMARK SMILES IDX 58 66 59 67 5 68 6 69 7 70 8 71 9 73 10 74 11 75 26 76 12 77
REMARK SMILES IDX 14 78 18 79 13 80 15 81 17 82 16 83 19 84 20 85 21 86 22 88
REMARK SMILES IDX 23 89 25 90 24 91
REMARK H PARENT 3 5 80 23 50 34 7 72 21 87
REMARK Flexibility Score: inf
ROOT
ATOM      1  C   UNL A   1      33.837  27.866  26.488  1.00  0.00     0.118 C 
ENDROOT
BRANCH   1   2
ATOM      2  N   UNL A   1      33.508  29.241  26.837  1.00  0.00    -0.352 N 
ATOM      3  O   UNL A   1      33.659  31.169  27.986  1.00  0.00    -0.269 OA
ATOM      4  C   UNL A   1      34.211  30.146  27.598  1.00  0.00     0.251 C 
ATOM      5  H   UNL A   1      32.656  29.575  26.473  1.00  0.00     0.163 HD
BRANCH   4   6
ATOM      6  C   UNL A   1      35.616  29.870  27.970  1.00  0.00     0.039 A 
ATOM      7  C   UNL A   1      36.643  30.041  27.042  1.00  0.00     0.014 A 
ATOM      8  C   UNL A   1      35.915  29.477  29.279  1.00  0.00     0.014 A 
ATOM      9  C   UNL A   1      37.945  29.683  27.375  1.00  0.00     0.010 A 
ATOM     10  C   UNL A   1      37.238  29.202  29.638  1.00  0.00     0.010 A 
ATOM     11  C   UNL A   1      38.260  29.276  28.680  1.00  0.00    -0.014 A 
BRANCH  11  12
ATOM     12  C   UNL A   1      39.678  29.005  29.027  1.00  0.00     0.031 A 
ATOM     13  C   UNL A   1      40.332  27.701  28.666  1.00  0.00     0.074 A 
ATOM     14  C   UNL A   1      40.390  29.976  29.630  1.00  0.00     0.049 A 
ATOM     15  N   UNL A   1      41.570  27.324  28.865  1.00  0.00    -0.248 NA
ATOM     16  C   UNL A   1      39.494  26.689  28.004  1.00  0.00     0.031 C 
ATOM     17  C   UNL A   1      39.862  31.285  30.028  1.00  0.00     0.029 A 
ATOM     18  N   UNL A   1      41.714  30.034  29.979  1.00  0.00    -0.354 N 
ATOM     19  C   UNL A   1      41.655  26.026  28.376  1.00  0.00     0.074 A 
ATOM     20  C   UNL A   1      40.341  25.675  27.881  1.00  0.00     0.031 C 
ATOM     21  C   UNL A   1      40.865  32.039  30.501  1.00  0.00     0.029 A 
ATOM     22  C   UNL A   1      42.092  31.251  30.495  1.00  0.00     0.049 A 
ATOM     23  H   UNL A   1      42.334  29.277  29.871  1.00  0.00     0.167 HD
ATOM     24  C   UNL A   1      42.732  25.202  28.344  1.00  0.00     0.031 A 
ATOM     25  C   UNL A   1      43.292  31.688  30.920  1.00  0.00     0.031 A 
ATOM     26  C   UNL A   1      44.039  25.558  28.826  1.00  0.00     0.049 A 
ATOM     27  C   UNL A   1      44.467  30.760  30.868  1.00  0.00     0.074 A 
ATOM     28  C   UNL A   1      45.193  24.792  28.836  1.00  0.00     0.029 A 
ATOM     29  N   UNL A   1      44.372  26.785  29.378  1.00  0.00    -0.354 N 
ATOM     30  N   UNL A   1      44.521  29.530  30.418  1.00  0.00    -0.248 NA
ATOM     31  C   UNL A   1      45.739  31.273  31.393  1.00  0.00     0.031 C 
ATOM     32  C   UNL A   1      46.217  25.548  29.418  1.00  0.00     0.029 A 
ATOM     33  C   UNL A   1      45.709  26.796  29.741  1.00  0.00     0.049 A 
ATOM     34  H   UNL A   1      43.750  27.540  29.494  1.00  0.00     0.167 HD
ATOM     35  C   UNL A   1      45.831  29.117  30.609  1.00  0.00     0.074 A 
ATOM     36  C   UNL A   1      46.543  30.238  31.193  1.00  0.00     0.031 C 
ATOM     37  C   UNL A   1      46.393  27.914  30.336  1.00  0.00     0.031 A 
BRANCH  24  38
ATOM     38  C   UNL A   1      42.526  23.820  27.788  1.00  0.00    -0.014 A 
ATOM     39  C   UNL A   1      42.636  23.567  26.410  1.00  0.00     0.010 A 
ATOM     40  C   UNL A   1      42.251  22.753  28.663  1.00  0.00     0.010 A 
ATOM     41  C   UNL A   1      42.438  22.276  25.910  1.00  0.00     0.020 A 
ATOM     42  C   UNL A   1      42.069  21.458  28.170  1.00  0.00     0.020 A 
ATOM     43  C   UNL A   1      42.146  21.231  26.793  1.00  0.00     0.054 A 
BRANCH  43  44
ATOM     44  S   UNL A   1      41.900  19.561  26.127  1.00  0.00     0.124 S 
ATOM     45  O   UNL A   1      42.761  19.581  24.945  1.00  0.00    -0.237 OA
ATOM     46  O   UNL A   1      42.355  18.703  27.218  1.00  0.00    -0.237 OA
ATOM     47  O   UNL A   1      40.467  19.506  25.852  1.00  0.00    -0.744 OA
ENDBRANCH  43  44
ENDBRANCH  24  38
BRANCH  25  48
ATOM     48  C   UNL A   1      43.422  33.076  31.431  1.00  0.00    -0.014 A 
ATOM     49  C   UNL A   1      43.251  33.349  32.799  1.00  0.00     0.010 A 
ATOM     50  C   UNL A   1      43.782  34.120  30.560  1.00  0.00     0.010 A 
ATOM     51  C   UNL A   1      43.445  34.644  33.289  1.00  0.00     0.020 A 
ATOM     52  C   UNL A   1      43.996  35.410  31.050  1.00  0.00     0.020 A 
ATOM     53  C   UNL A   1      43.820  35.665  32.412  1.00  0.00     0.054 A 
BRANCH  53  54
ATOM     54  S   UNL A   1      44.162  37.321  33.073  1.00  0.00     0.124 S 
ATOM     55  O   UNL A   1      44.113  38.143  31.867  1.00  0.00    -0.237 OA
ATOM     56  O   UNL A   1      43.068  37.523  34.021  1.00  0.00    -0.237 OA
ATOM     57  O   UNL A   1      45.482  37.175  33.682  1.00  0.00    -0.744 OA
ENDBRANCH  53  54
ENDBRANCH  25  48
BRANCH  37  58
ATOM     58  C   UNL A   1      47.848  27.755  30.672  1.00  0.00    -0.014 A 
ATOM     59  C   UNL A   1      48.839  28.092  29.734  1.00  0.00     0.010 A 
ATOM     60  C   UNL A   1      48.226  27.293  31.943  1.00  0.00     0.010 A 
ATOM     61  C   UNL A   1      50.190  27.941  30.053  1.00  0.00     0.020 A 
ATOM     62  C   UNL A   1      49.577  27.155  32.272  1.00  0.00     0.020 A 
ATOM     63  C   UNL A   1      50.551  27.466  31.319  1.00  0.00     0.054 A 
BRANCH  63  64
ATOM     64  S   UNL A   1      52.309  27.305  31.729  1.00  0.00     0.124 S 
ATOM     65  O   UNL A   1      52.286  27.356  33.188  1.00  0.00    -0.237 OA
ATOM     66  O   UNL A   1      52.663  26.010  31.150  1.00  0.00    -0.237 OA
ATOM     67  O   UNL A   1      52.922  28.458  31.073  1.00  0.00    -0.744 OA
ENDBRANCH  63  64
ENDBRANCH  37  58
ENDBRANCH  11  12
ENDBRANCH   4   6
ENDBRANCH   1   2
BRANCH   1  68
ATOM     68  C   UNL A   1      33.038  27.373  25.288  1.00  0.00     0.042 C 
BRANCH  68  69
ATOM     69  C   UNL A   1      33.874  26.587  24.282  1.00  0.00     0.118 C 
BRANCH  69  70
ATOM     70  N   UNL A   1      33.448  25.200  24.119  1.00  0.00    -0.352 N 
ATOM     71  C   UNL A   1      34.247  24.298  23.445  1.00  0.00     0.251 C 
ATOM     72  H   UNL A   1      32.584  24.907  24.492  1.00  0.00     0.163 HD
ATOM     73  O   UNL A   1      34.222  24.252  22.225  1.00  0.00    -0.269 OA
BRANCH  71  74
ATOM     74  C   UNL A   1      35.094  23.383  24.263  1.00  0.00     0.048 A 
ATOM     75  C   UNL A   1      36.280  23.923  24.798  1.00  0.00     0.014 A 
ATOM     76  C   UNL A   1      34.774  21.988  24.431  1.00  0.00     0.007 A 
ATOM     77  C   UNL A   1      37.234  23.113  25.388  1.00  0.00     0.001 A 
ATOM     78  C   UNL A   1      35.830  21.180  24.964  1.00  0.00    -0.017 A 
ATOM     79  C   UNL A   1      33.551  21.285  24.149  1.00  0.00     0.048 A 
ATOM     80  C   UNL A   1      37.024  21.746  25.429  1.00  0.00     0.009 A 
ATOM     81  C   UNL A   1      35.725  19.784  25.044  1.00  0.00     0.009 A 
ATOM     82  C   UNL A   1      33.487  19.873  24.237  1.00  0.00     0.014 A 
ATOM     83  C   UNL A   1      34.572  19.126  24.656  1.00  0.00     0.001 A 
BRANCH  79  84
ATOM     84  C   UNL A   1      32.231  21.852  23.767  1.00  0.00     0.252 C 
ATOM     85  O   UNL A   1      31.908  21.834  22.575  1.00  0.00    -0.269 OA
ATOM     86  N   UNL A   1      31.264  22.243  24.660  1.00  0.00    -0.345 N 
ATOM     87  H   UNL A   1      30.408  22.450  24.219  1.00  0.00     0.164 HD
BRANCH  86  88
ATOM     88  C   UNL A   1      31.198  22.425  26.114  1.00  0.00     0.134 C 
ATOM     89  C   UNL A   1      32.200  23.459  26.656  1.00  0.00     0.187 C 
ATOM     90  C   UNL A   1      30.164  23.323  26.791  1.00  0.00     0.187 C 
ATOM     91  O   UNL A   1      31.202  23.978  27.573  1.00  0.00    -0.377 OA
ENDBRANCH  86  88
ENDBRANCH  79  84
ENDBRANCH  71  74
ENDBRANCH  69  70
ENDBRANCH  68  69
ENDBRANCH   1  68
TORSDOF 15
ENDMDL
