MODEL 1
REMARK VINA RESULT:     -10.4      0.000      0.000
REMARK SMILES C[C@](NC(=O)[C@](C)([NH3+])C(F)(F)F)(C(=O)NCCCNC(=O)c1ccc(-c2c3nc(c(-c4ccc(S(=O)(=O)[O-])cc4)c4ccc([nH]4)c(-c4ccc(S(=O)(=O)[O-])cc4)c4nc(c(-c5ccc(S(=O)(=O)[O-])cc5)c5ccc2[nH]5)C=C4)C=C3)cc1)c1ccccc1
REMARK SMILES IDX 17 1 16 2 15 3 13 4 14 5 2 7 1 8 82 9 83 10 87 11 84 12
REMARK SMILES IDX 86 13 85 14 3 15 4 16 5 18 6 19 7 20 8 21 9 25 10 26 11 27
REMARK SMILES IDX 12 28 18 29 19 30 20 31 21 33 22 34 23 35 81 36 24 37 80 38
REMARK SMILES IDX 25 39 26 40 27 41 74 42 28 43 79 44 73 45 75 46 29 47 78 48
REMARK SMILES IDX 72 49 71 50 30 52 60 53 41 54 59 55 42 56 45 57 58 58 76 59
REMARK SMILES IDX 43 60 44 61 57 63 77 64 46 65 31 66 32 67 40 68 33 69 39 70
REMARK SMILES IDX 34 71 35 72 36 73 37 74 38 75 61 76 62 77 70 78 63 79 69 80
REMARK SMILES IDX 64 81 65 82 66 83 67 84 68 85 47 86 48 87 56 88 49 89 55 90
REMARK SMILES IDX 50 91 51 92 52 93 53 94 54 95
REMARK H PARENT 15 6 3 17 8 22 8 23 8 24 19 32 75 51 45 62
REMARK Flexibility Score: inf
ROOT
ATOM      1  C   UNL A   1      32.674  27.834  26.752  1.00  0.00     0.042 C 
ENDROOT
BRANCH   1   2
ATOM      2  C   UNL A   1      33.007  26.369  26.529  1.00  0.00     0.117 C 
BRANCH   2   3
ATOM      3  N   UNL A   1      31.831  25.514  26.649  1.00  0.00    -0.354 N 
ATOM      4  C   UNL A   1      31.255  24.640  25.761  1.00  0.00     0.250 C 
ATOM      5  O   UNL A   1      30.403  23.879  26.226  1.00  0.00    -0.272 OA
ATOM      6  H   UNL A   1      31.371  25.574  27.516  1.00  0.00     0.163 HD
BRANCH   4   7
ATOM      7  C   UNL A   1      31.795  24.522  24.283  1.00  0.00     0.142 C 
ATOM      8  C   UNL A   1      30.781  23.573  23.603  1.00  0.00     0.051 C 
BRANCH   7   9
ATOM      9  C   UNL A   1      31.873  25.921  23.641  1.00  0.00    -0.013 A 
ATOM     10  C   UNL A   1      33.071  26.443  23.125  1.00  0.00     0.007 A 
ATOM     11  C   UNL A   1      30.730  26.749  23.601  1.00  0.00     0.007 A 
ATOM     12  C   UNL A   1      33.147  27.765  22.679  1.00  0.00     0.000 A 
ATOM     13  C   UNL A   1      30.809  28.071  23.161  1.00  0.00     0.000 A 
ATOM     14  C   UNL A   1      32.023  28.584  22.717  1.00  0.00     0.000 A 
ENDBRANCH   7   9
BRANCH   7  15
ATOM     15  N   UNL A   1      33.175  23.968  24.380  1.00  0.00    -0.332 N 
ATOM     16  C   UNL A   1      33.787  22.842  24.824  1.00  0.00     0.291 C 
ATOM     17  H   UNL A   1      33.832  24.604  24.016  1.00  0.00     0.165 HD
ATOM     18  O   UNL A   1      34.960  22.733  24.442  1.00  0.00    -0.267 OA
BRANCH  16  19
ATOM     19  C   UNL A   1      33.175  21.785  25.759  1.00  0.00     0.267 C 
ATOM     20  C   UNL A   1      33.834  20.413  25.502  1.00  0.00     0.100 C 
BRANCH  19  21
ATOM     21  N   UNL A   1      31.733  21.521  25.463  1.00  0.00    -0.337 N 
ATOM     22  H   UNL A   1      31.456  20.635  25.887  1.00  0.00     0.345 HD
ATOM     23  H   UNL A   1      31.597  21.471  24.453  1.00  0.00     0.345 HD
ATOM     24  H   UNL A   1      31.164  22.274  25.847  1.00  0.00     0.345 HD
ENDBRANCH  19  21
BRANCH  19  25
ATOM     25  C   UNL A   1      33.565  22.228  27.191  1.00  0.00     0.453 C 
ATOM     26  F   UNL A   1      34.360  21.307  27.790  1.00  0.00    -0.164 F 
ATOM     27  F   UNL A   1      34.238  23.400  27.205  1.00  0.00    -0.164 F 
ATOM     28  F   UNL A   1      32.489  22.385  27.997  1.00  0.00    -0.164 F 
ENDBRANCH  19  25
ENDBRANCH  16  19
ENDBRANCH   7  15
ENDBRANCH   4   7
ENDBRANCH   2   3
ENDBRANCH   1   2
BRANCH   1  29
ATOM     29  C   UNL A   1      33.826  28.777  26.439  1.00  0.00     0.118 C 
BRANCH  29  30
ATOM     30  N   UNL A   1      33.685  30.076  27.082  1.00  0.00    -0.352 N 
ATOM     31  C   UNL A   1      34.529  30.715  27.961  1.00  0.00     0.251 C 
ATOM     32  H   UNL A   1      32.865  30.571  26.854  1.00  0.00     0.163 HD
ATOM     33  O   UNL A   1      34.159  31.734  28.526  1.00  0.00    -0.269 OA
BRANCH  31  34
ATOM     34  C   UNL A   1      35.868  30.147  28.235  1.00  0.00     0.039 A 
ATOM     35  C   UNL A   1      36.858  30.255  27.258  1.00  0.00     0.014 A 
ATOM     36  C   UNL A   1      36.149  29.531  29.457  1.00  0.00     0.014 A 
ATOM     37  C   UNL A   1      38.151  29.810  27.539  1.00  0.00     0.010 A 
ATOM     38  C   UNL A   1      37.457  29.181  29.770  1.00  0.00     0.010 A 
ATOM     39  C   UNL A   1      38.472  29.310  28.813  1.00  0.00    -0.014 A 
BRANCH  39  40
ATOM     40  C   UNL A   1      39.867  28.932  29.157  1.00  0.00     0.031 A 
ATOM     41  C   UNL A   1      40.771  29.910  29.859  1.00  0.00     0.074 A 
ATOM     42  C   UNL A   1      40.333  27.721  28.792  1.00  0.00     0.049 A 
ATOM     43  N   UNL A   1      42.013  29.755  30.240  1.00  0.00    -0.248 NA
ATOM     44  C   UNL A   1      40.220  31.245  30.149  1.00  0.00     0.031 C 
ATOM     45  C   UNL A   1      39.574  26.708  28.052  1.00  0.00     0.029 A 
ATOM     46  N   UNL A   1      41.555  27.132  28.998  1.00  0.00    -0.354 N 
ATOM     47  C   UNL A   1      42.393  30.968  30.800  1.00  0.00     0.074 A 
ATOM     48  C   UNL A   1      41.272  31.870  30.655  1.00  0.00     0.031 C 
ATOM     49  C   UNL A   1      40.331  25.609  27.908  1.00  0.00     0.029 A 
ATOM     50  C   UNL A   1      41.639  25.850  28.504  1.00  0.00     0.049 A 
ATOM     51  H   UNL A   1      42.301  27.583  29.454  1.00  0.00     0.167 HD
ATOM     52  C   UNL A   1      43.561  31.297  31.405  1.00  0.00     0.031 A 
ATOM     53  C   UNL A   1      42.655  24.965  28.532  1.00  0.00     0.031 A 
ATOM     54  C   UNL A   1      44.671  30.394  31.552  1.00  0.00     0.049 A 
ATOM     55  C   UNL A   1      43.938  25.351  29.214  1.00  0.00     0.074 A 
ATOM     56  C   UNL A   1      45.875  30.609  32.198  1.00  0.00     0.029 A 
ATOM     57  N   UNL A   1      44.715  29.102  31.047  1.00  0.00    -0.354 N 
ATOM     58  N   UNL A   1      44.251  26.481  29.805  1.00  0.00    -0.248 NA
ATOM     59  C   UNL A   1      45.000  24.337  29.247  1.00  0.00     0.031 C 
ATOM     60  C   UNL A   1      46.670  29.470  32.032  1.00  0.00     0.029 A 
ATOM     61  C   UNL A   1      45.935  28.519  31.344  1.00  0.00     0.049 A 
ATOM     62  H   UNL A   1      43.986  28.666  30.550  1.00  0.00     0.167 HD
ATOM     63  C   UNL A   1      45.536  26.301  30.306  1.00  0.00     0.074 A 
ATOM     64  C   UNL A   1      45.930  24.949  29.967  1.00  0.00     0.031 C 
ATOM     65  C   UNL A   1      46.318  27.175  30.989  1.00  0.00     0.031 A 
BRANCH  52  66
ATOM     66  C   UNL A   1      43.695  32.697  31.949  1.00  0.00    -0.014 A 
ATOM     67  C   UNL A   1      43.287  33.011  33.259  1.00  0.00     0.010 A 
ATOM     68  C   UNL A   1      44.273  33.704  31.155  1.00  0.00     0.010 A 
ATOM     69  C   UNL A   1      43.415  34.314  33.749  1.00  0.00     0.020 A 
ATOM     70  C   UNL A   1      44.433  35.001  31.652  1.00  0.00     0.020 A 
ATOM     71  C   UNL A   1      43.988  35.301  32.942  1.00  0.00     0.054 A 
BRANCH  71  72
ATOM     72  S   UNL A   1      44.167  36.976  33.615  1.00  0.00     0.124 S 
ATOM     73  O   UNL A   1      43.816  37.802  32.463  1.00  0.00    -0.237 OA
ATOM     74  O   UNL A   1      43.203  36.984  34.711  1.00  0.00    -0.237 OA
ATOM     75  O   UNL A   1      45.570  37.039  34.021  1.00  0.00    -0.744 OA
ENDBRANCH  71  72
ENDBRANCH  52  66
BRANCH  53  76
ATOM     76  C   UNL A   1      42.486  23.619  27.918  1.00  0.00    -0.014 A 
ATOM     77  C   UNL A   1      41.894  22.570  28.644  1.00  0.00     0.010 A 
ATOM     78  C   UNL A   1      42.906  23.382  26.597  1.00  0.00     0.010 A 
ATOM     79  C   UNL A   1      41.746  21.304  28.069  1.00  0.00     0.020 A 
ATOM     80  C   UNL A   1      42.730  22.127  26.007  1.00  0.00     0.020 A 
ATOM     81  C   UNL A   1      42.163  21.092  26.752  1.00  0.00     0.054 A 
BRANCH  81  82
ATOM     82  S   UNL A   1      41.917  19.455  26.010  1.00  0.00     0.124 S 
ATOM     83  O   UNL A   1      42.400  18.568  27.063  1.00  0.00    -0.237 OA
ATOM     84  O   UNL A   1      40.475  19.430  25.773  1.00  0.00    -0.237 OA
ATOM     85  O   UNL A   1      42.738  19.500  24.803  1.00  0.00    -0.744 OA
ENDBRANCH  81  82
ENDBRANCH  53  76
BRANCH  65  86
ATOM     86  C   UNL A   1      47.666  26.680  31.443  1.00  0.00    -0.014 A 
ATOM     87  C   UNL A   1      48.825  26.902  30.680  1.00  0.00     0.010 A 
ATOM     88  C   UNL A   1      47.775  26.000  32.671  1.00  0.00     0.010 A 
ATOM     89  C   UNL A   1      50.059  26.404  31.107  1.00  0.00     0.020 A 
ATOM     90  C   UNL A   1      49.012  25.531  33.119  1.00  0.00     0.020 A 
ATOM     91  C   UNL A   1      50.143  25.717  32.323  1.00  0.00     0.054 A 
BRANCH  91  92
ATOM     92  S   UNL A   1      51.757  25.089  32.861  1.00  0.00     0.124 S 
ATOM     93  O   UNL A   1      52.677  25.981  32.163  1.00  0.00    -0.237 OA
ATOM     94  O   UNL A   1      51.698  25.254  34.311  1.00  0.00    -0.237 OA
ATOM     95  O   UNL A   1      51.761  23.703  32.398  1.00  0.00    -0.744 OA
ENDBRANCH  91  92
ENDBRANCH  65  86
ENDBRANCH  39  40
ENDBRANCH  31  34
ENDBRANCH  29  30
ENDBRANCH   1  29
TORSDOF 18
ENDMDL
MODEL 2
REMARK VINA RESULT:     -10.3      2.789      9.083
REMARK SMILES C[C@](NC(=O)[C@](C)([NH3+])C(F)(F)F)(C(=O)NCCCNC(=O)c1ccc(-c2c3nc(c(-c4ccc(S(=O)(=O)[O-])cc4)c4ccc([nH]4)c(-c4ccc(S(=O)(=O)[O-])cc4)c4nc(c(-c5ccc(S(=O)(=O)[O-])cc5)c5ccc2[nH]5)C=C4)C=C3)cc1)c1ccccc1
REMARK SMILES IDX 17 1 16 2 15 3 13 4 14 5 2 7 1 8 82 9 83 10 87 11 84 12
REMARK SMILES IDX 86 13 85 14 3 15 4 16 5 18 6 19 7 20 8 21 9 25 10 26 11 27
REMARK SMILES IDX 12 28 18 29 19 30 20 31 21 33 22 34 23 35 81 36 24 37 80 38
REMARK SMILES IDX 25 39 26 40 27 41 74 42 28 43 79 44 73 45 75 46 29 47 78 48
REMARK SMILES IDX 72 49 71 50 30 52 60 53 41 54 59 55 42 56 45 57 58 58 76 59
REMARK SMILES IDX 43 60 44 61 57 63 77 64 46 65 31 66 32 67 40 68 33 69 39 70
REMARK SMILES IDX 34 71 35 72 36 73 37 74 38 75 61 76 62 77 70 78 63 79 69 80
REMARK SMILES IDX 64 81 65 82 66 83 67 84 68 85 47 86 48 87 56 88 49 89 55 90
REMARK SMILES IDX 50 91 51 92 52 93 53 94 54 95
REMARK H PARENT 15 6 3 17 8 22 8 23 8 24 19 32 75 51 45 62
REMARK Flexibility Score: inf
ROOT
ATOM      1  C   UNL A   1      35.580  23.778  25.847  1.00  0.00     0.042 C 
ENDROOT
BRANCH   1   2
ATOM      2  C   UNL A   1      34.630  24.933  25.585  1.00  0.00     0.117 C 
BRANCH   2   3
ATOM      3  N   UNL A   1      33.564  24.568  24.658  1.00  0.00    -0.354 N 
ATOM      4  C   UNL A   1      32.648  25.339  23.986  1.00  0.00     0.250 C 
ATOM      5  O   UNL A   1      32.020  24.773  23.088  1.00  0.00    -0.272 OA
ATOM      6  H   UNL A   1      33.489  23.603  24.485  1.00  0.00     0.163 HD
BRANCH   4   7
ATOM      7  C   UNL A   1      32.552  26.891  24.253  1.00  0.00     0.142 C 
ATOM      8  C   UNL A   1      33.868  27.443  23.661  1.00  0.00     0.051 C 
BRANCH   7   9
ATOM      9  C   UNL A   1      31.280  27.457  23.591  1.00  0.00    -0.013 A 
ATOM     10  C   UNL A   1      31.331  28.436  22.584  1.00  0.00     0.007 A 
ATOM     11  C   UNL A   1      30.005  27.033  24.023  1.00  0.00     0.007 A 
ATOM     12  C   UNL A   1      30.165  29.034  22.101  1.00  0.00     0.000 A 
ATOM     13  C   UNL A   1      28.840  27.635  23.544  1.00  0.00     0.000 A 
ATOM     14  C   UNL A   1      28.922  28.649  22.595  1.00  0.00     0.000 A 
ENDBRANCH   7   9
BRANCH   7  15
ATOM     15  N   UNL A   1      32.432  27.060  25.729  1.00  0.00    -0.332 N 
ATOM     16  C   UNL A   1      32.461  28.063  26.641  1.00  0.00     0.291 C 
ATOM     17  H   UNL A   1      32.289  26.191  26.169  1.00  0.00     0.165 HD
ATOM     18  O   UNL A   1      32.044  27.729  27.758  1.00  0.00    -0.267 OA
BRANCH  16  19
ATOM     19  C   UNL A   1      33.000  29.485  26.408  1.00  0.00     0.267 C 
ATOM     20  C   UNL A   1      32.163  30.501  27.213  1.00  0.00     0.100 C 
BRANCH  19  21
ATOM     21  N   UNL A   1      32.815  29.946  24.998  1.00  0.00    -0.337 N 
ATOM     22  H   UNL A   1      32.761  30.965  24.978  1.00  0.00     0.345 HD
ATOM     23  H   UNL A   1      31.952  29.553  24.622  1.00  0.00     0.345 HD
ATOM     24  H   UNL A   1      33.605  29.637  24.433  1.00  0.00     0.345 HD
ENDBRANCH  19  21
BRANCH  19  25
ATOM     25  C   UNL A   1      34.430  29.485  27.003  1.00  0.00     0.453 C 
ATOM     26  F   UNL A   1      34.892  30.750  27.168  1.00  0.00    -0.164 F 
ATOM     27  F   UNL A   1      34.489  28.883  28.211  1.00  0.00    -0.164 F 
ATOM     28  F   UNL A   1      35.324  28.854  26.206  1.00  0.00    -0.164 F 
ENDBRANCH  19  25
ENDBRANCH  16  19
ENDBRANCH   7  15
ENDBRANCH   4   7
ENDBRANCH   2   3
ENDBRANCH   1   2
BRANCH   1  29
ATOM     29  C   UNL A   1      36.801  23.774  24.941  1.00  0.00     0.118 C 
BRANCH  29  30
ATOM     30  N   UNL A   1      37.790  22.776  25.327  1.00  0.00    -0.352 N 
ATOM     31  C   UNL A   1      38.943  22.925  26.063  1.00  0.00     0.251 C 
ATOM     32  H   UNL A   1      37.606  21.860  25.017  1.00  0.00     0.163 HD
ATOM     33  O   UNL A   1      39.736  21.998  26.144  1.00  0.00    -0.269 OA
BRANCH  31  34
ATOM     34  C   UNL A   1      39.227  24.217  26.727  1.00  0.00     0.039 A 
ATOM     35  C   UNL A   1      38.740  24.432  28.018  1.00  0.00     0.014 A 
ATOM     36  C   UNL A   1      39.987  25.200  26.089  1.00  0.00     0.014 A 
ATOM     37  C   UNL A   1      39.079  25.605  28.692  1.00  0.00     0.010 A 
ATOM     38  C   UNL A   1      40.406  26.319  26.799  1.00  0.00     0.010 A 
ATOM     39  C   UNL A   1      39.952  26.539  28.106  1.00  0.00    -0.014 A 
BRANCH  39  40
ATOM     40  C   UNL A   1      40.405  27.739  28.856  1.00  0.00     0.031 A 
ATOM     41  C   UNL A   1      41.771  27.773  29.488  1.00  0.00     0.074 A 
ATOM     42  C   UNL A   1      39.562  28.780  29.008  1.00  0.00     0.049 A 
ATOM     43  N   UNL A   1      42.336  28.733  30.175  1.00  0.00    -0.248 NA
ATOM     44  C   UNL A   1      42.603  26.565  29.354  1.00  0.00     0.031 C 
ATOM     45  C   UNL A   1      38.190  28.842  28.495  1.00  0.00     0.029 A 
ATOM     46  N   UNL A   1      39.736  29.991  29.630  1.00  0.00    -0.354 N 
ATOM     47  C   UNL A   1      43.576  28.242  30.563  1.00  0.00     0.074 A 
ATOM     48  C   UNL A   1      43.659  26.879  30.089  1.00  0.00     0.031 C 
ATOM     49  C   UNL A   1      37.665  30.044  28.785  1.00  0.00     0.029 A 
ATOM     50  C   UNL A   1      38.644  30.821  29.537  1.00  0.00     0.049 A 
ATOM     51  H   UNL A   1      40.564  30.241  30.099  1.00  0.00     0.167 HD
ATOM     52  C   UNL A   1      44.569  28.877  31.232  1.00  0.00     0.031 A 
ATOM     53  C   UNL A   1      38.450  32.071  30.001  1.00  0.00     0.031 A 
ATOM     54  C   UNL A   1      44.484  30.236  31.697  1.00  0.00     0.049 A 
ATOM     55  C   UNL A   1      39.570  32.756  30.735  1.00  0.00     0.074 A 
ATOM     56  C   UNL A   1      45.454  30.989  32.334  1.00  0.00     0.029 A 
ATOM     57  N   UNL A   1      43.365  31.046  31.577  1.00  0.00    -0.354 N 
ATOM     58  N   UNL A   1      40.765  32.300  31.027  1.00  0.00    -0.248 NA
ATOM     59  C   UNL A   1      39.319  34.130  31.188  1.00  0.00     0.031 C 
ATOM     60  C   UNL A   1      44.902  32.235  32.651  1.00  0.00     0.029 A 
ATOM     61  C   UNL A   1      43.611  32.282  32.149  1.00  0.00     0.049 A 
ATOM     62  H   UNL A   1      42.520  30.781  31.147  1.00  0.00     0.167 HD
ATOM     63  C   UNL A   1      41.420  33.343  31.673  1.00  0.00     0.074 A 
ATOM     64  C   UNL A   1      40.494  34.458  31.708  1.00  0.00     0.031 C 
ATOM     65  C   UNL A   1      42.675  33.378  32.187  1.00  0.00     0.031 A 
BRANCH  52  66
ATOM     66  C   UNL A   1      45.834  28.101  31.504  1.00  0.00    -0.014 A 
ATOM     67  C   UNL A   1      46.873  28.047  30.556  1.00  0.00     0.010 A 
ATOM     68  C   UNL A   1      46.004  27.449  32.739  1.00  0.00     0.010 A 
ATOM     69  C   UNL A   1      48.038  27.322  30.821  1.00  0.00     0.020 A 
ATOM     70  C   UNL A   1      47.181  26.751  33.022  1.00  0.00     0.020 A 
ATOM     71  C   UNL A   1      48.184  26.679  32.054  1.00  0.00     0.054 A 
BRANCH  71  72
ATOM     72  S   UNL A   1      49.720  25.769  32.380  1.00  0.00     0.124 S 
ATOM     73  O   UNL A   1      50.239  25.561  31.031  1.00  0.00    -0.237 OA
ATOM     74  O   UNL A   1      50.476  26.705  33.206  1.00  0.00    -0.237 OA
ATOM     75  O   UNL A   1      49.268  24.560  33.066  1.00  0.00    -0.744 OA
ENDBRANCH  71  72
ENDBRANCH  52  66
BRANCH  53  76
ATOM     76  C   UNL A   1      37.154  32.763  29.759  1.00  0.00    -0.014 A 
ATOM     77  C   UNL A   1      36.152  32.773  30.746  1.00  0.00     0.010 A 
ATOM     78  C   UNL A   1      36.919  33.426  28.540  1.00  0.00     0.010 A 
ATOM     79  C   UNL A   1      34.932  33.415  30.511  1.00  0.00     0.020 A 
ATOM     80  C   UNL A   1      35.712  34.096  28.315  1.00  0.00     0.020 A 
ATOM     81  C   UNL A   1      34.721  34.074  29.298  1.00  0.00     0.054 A 
BRANCH  81  82
ATOM     82  S   UNL A   1      33.149  34.940  29.034  1.00  0.00     0.124 S 
ATOM     83  O   UNL A   1      32.511  34.110  28.019  1.00  0.00    -0.237 OA
ATOM     84  O   UNL A   1      32.541  34.898  30.362  1.00  0.00    -0.237 OA
ATOM     85  O   UNL A   1      33.561  36.269  28.588  1.00  0.00    -0.744 OA
ENDBRANCH  81  82
ENDBRANCH  53  76
BRANCH  65  86
ATOM     86  C   UNL A   1      43.130  34.676  32.801  1.00  0.00    -0.014 A 
ATOM     87  C   UNL A   1      43.718  35.690  32.025  1.00  0.00     0.010 A 
ATOM     88  C   UNL A   1      42.942  34.891  34.180  1.00  0.00     0.010 A 
ATOM     89  C   UNL A   1      44.161  36.872  32.625  1.00  0.00     0.020 A 
ATOM     90  C   UNL A   1      43.352  36.086  34.777  1.00  0.00     0.020 A 
ATOM     91  C   UNL A   1      43.979  37.060  33.999  1.00  0.00     0.054 A 
BRANCH  91  92
ATOM     92  S   UNL A   1      44.553  38.607  34.752  1.00  0.00     0.124 S 
ATOM     93  O   UNL A   1      44.460  38.303  36.176  1.00  0.00    -0.237 OA
ATOM     94  O   UNL A   1      45.908  38.737  34.223  1.00  0.00    -0.237 OA
ATOM     95  O   UNL A   1      43.602  39.603  34.264  1.00  0.00    -0.744 OA
ENDBRANCH  91  92
ENDBRANCH  65  86
ENDBRANCH  39  40
ENDBRANCH  31  34
ENDBRANCH  29  30
ENDBRANCH   1  29
TORSDOF 18
ENDMDL
MODEL 3
REMARK VINA RESULT:     -10.3      3.762      9.405
REMARK SMILES C[C@](NC(=O)[C@](C)([NH3+])C(F)(F)F)(C(=O)NCCCNC(=O)c1ccc(-c2c3nc(c(-c4ccc(S(=O)(=O)[O-])cc4)c4ccc([nH]4)c(-c4ccc(S(=O)(=O)[O-])cc4)c4nc(c(-c5ccc(S(=O)(=O)[O-])cc5)c5ccc2[nH]5)C=C4)C=C3)cc1)c1ccccc1
REMARK SMILES IDX 17 1 16 2 15 3 13 4 14 5 2 7 1 8 82 9 83 10 87 11 84 12
REMARK SMILES IDX 86 13 85 14 3 15 4 16 5 18 6 19 7 20 8 21 9 25 10 26 11 27
REMARK SMILES IDX 12 28 18 29 19 30 20 31 21 33 22 34 23 35 81 36 24 37 80 38
REMARK SMILES IDX 25 39 26 40 27 41 74 42 28 43 79 44 73 45 75 46 29 47 78 48
REMARK SMILES IDX 72 49 71 50 30 52 60 53 41 54 59 55 42 56 45 57 58 58 76 59
REMARK SMILES IDX 43 60 44 61 57 63 77 64 46 65 31 66 32 67 40 68 33 69 39 70
REMARK SMILES IDX 34 71 35 72 36 73 37 74 38 75 61 76 62 77 70 78 63 79 69 80
REMARK SMILES IDX 64 81 65 82 66 83 67 84 68 85 47 86 48 87 56 88 49 89 55 90
REMARK SMILES IDX 50 91 51 92 52 93 53 94 54 95
REMARK H PARENT 15 6 3 17 8 22 8 23 8 24 19 32 75 51 45 62
REMARK Flexibility Score: inf
ROOT
ATOM      1  C   UNL A   1      37.943  20.263  25.201  1.00  0.00     0.042 C 
ENDROOT
BRANCH   1   2
ATOM      2  C   UNL A   1      36.951  21.403  25.050  1.00  0.00     0.117 C 
BRANCH   2   3
ATOM      3  N   UNL A   1      35.976  21.430  26.135  1.00  0.00    -0.354 N 
ATOM      4  C   UNL A   1      34.606  21.362  26.121  1.00  0.00     0.250 C 
ATOM      5  O   UNL A   1      34.061  21.170  27.211  1.00  0.00    -0.272 OA
ATOM      6  H   UNL A   1      36.370  21.511  27.033  1.00  0.00     0.163 HD
BRANCH   4   7
ATOM      7  C   UNL A   1      33.814  21.359  24.755  1.00  0.00     0.142 C 
ATOM      8  C   UNL A   1      34.705  22.207  23.819  1.00  0.00     0.051 C 
BRANCH   7   9
ATOM      9  C   UNL A   1      33.603  19.909  24.277  1.00  0.00    -0.013 A 
ATOM     10  C   UNL A   1      34.482  18.869  24.626  1.00  0.00     0.007 A 
ATOM     11  C   UNL A   1      32.527  19.593  23.420  1.00  0.00     0.007 A 
ATOM     12  C   UNL A   1      34.349  17.596  24.065  1.00  0.00     0.000 A 
ATOM     13  C   UNL A   1      32.398  18.323  22.856  1.00  0.00     0.000 A 
ATOM     14  C   UNL A   1      33.321  17.329  23.166  1.00  0.00     0.000 A 
ENDBRANCH   7   9
BRANCH   7  15
ATOM     15  N   UNL A   1      32.481  21.964  25.038  1.00  0.00    -0.332 N 
ATOM     16  C   UNL A   1      31.874  23.172  24.938  1.00  0.00     0.291 C 
ATOM     17  H   UNL A   1      31.863  21.290  25.404  1.00  0.00     0.165 HD
ATOM     18  O   UNL A   1      30.642  23.118  25.058  1.00  0.00    -0.267 OA
BRANCH  16  19
ATOM     19  C   UNL A   1      32.576  24.528  24.753  1.00  0.00     0.267 C 
ATOM     20  C   UNL A   1      31.525  25.639  24.545  1.00  0.00     0.100 C 
BRANCH  19  21
ATOM     21  N   UNL A   1      33.380  24.593  23.494  1.00  0.00    -0.337 N 
ATOM     22  H   UNL A   1      34.365  24.439  23.711  1.00  0.00     0.345 HD
ATOM     23  H   UNL A   1      33.267  25.511  23.065  1.00  0.00     0.345 HD
ATOM     24  H   UNL A   1      33.058  23.872  22.848  1.00  0.00     0.345 HD
ENDBRANCH  19  21
BRANCH  19  25
ATOM     25  C   UNL A   1      33.290  24.808  26.099  1.00  0.00     0.453 C 
ATOM     26  F   UNL A   1      34.621  24.565  26.007  1.00  0.00    -0.164 F 
ATOM     27  F   UNL A   1      33.150  26.090  26.502  1.00  0.00    -0.164 F 
ATOM     28  F   UNL A   1      32.828  24.029  27.103  1.00  0.00    -0.164 F 
ENDBRANCH  19  25
ENDBRANCH  16  19
ENDBRANCH   7  15
ENDBRANCH   4   7
ENDBRANCH   2   3
ENDBRANCH   1   2
BRANCH   1  29
ATOM     29  C   UNL A   1      39.298  20.700  25.735  1.00  0.00     0.118 C 
BRANCH  29  30
ATOM     30  N   UNL A   1      40.209  19.584  25.950  1.00  0.00    -0.352 N 
ATOM     31  C   UNL A   1      41.561  19.592  26.206  1.00  0.00     0.251 C 
ATOM     32  H   UNL A   1      39.796  18.690  25.907  1.00  0.00     0.163 HD
ATOM     33  O   UNL A   1      42.188  18.543  26.193  1.00  0.00    -0.269 OA
BRANCH  31  34
ATOM     34  C   UNL A   1      42.248  20.876  26.468  1.00  0.00     0.039 A 
ATOM     35  C   UNL A   1      42.700  21.632  25.385  1.00  0.00     0.014 A 
ATOM     36  C   UNL A   1      42.427  21.341  27.773  1.00  0.00     0.014 A 
ATOM     37  C   UNL A   1      43.265  22.888  25.613  1.00  0.00     0.010 A 
ATOM     38  C   UNL A   1      42.895  22.632  27.990  1.00  0.00     0.010 A 
ATOM     39  C   UNL A   1      43.326  23.418  26.913  1.00  0.00    -0.014 A 
BRANCH  39  40
ATOM     40  C   UNL A   1      43.827  24.796  27.155  1.00  0.00     0.031 A 
ATOM     41  C   UNL A   1      45.280  25.127  26.946  1.00  0.00     0.074 A 
ATOM     42  C   UNL A   1      42.976  25.737  27.611  1.00  0.00     0.049 A 
ATOM     43  N   UNL A   1      45.893  26.272  27.103  1.00  0.00    -0.248 NA
ATOM     44  C   UNL A   1      46.167  24.026  26.531  1.00  0.00     0.031 C 
ATOM     45  C   UNL A   1      41.557  25.523  27.912  1.00  0.00     0.029 A 
ATOM     46  N   UNL A   1      43.177  27.064  27.895  1.00  0.00    -0.354 N 
ATOM     47  C   UNL A   1      47.232  26.028  26.820  1.00  0.00     0.074 A 
ATOM     48  C   UNL A   1      47.353  24.615  26.540  1.00  0.00     0.031 C 
ATOM     49  C   UNL A   1      41.008  26.688  28.293  1.00  0.00     0.029 A 
ATOM     50  C   UNL A   1      42.038  27.719  28.305  1.00  0.00     0.049 A 
ATOM     51  H   UNL A   1      44.052  27.506  27.813  1.00  0.00     0.167 HD
ATOM     52  C   UNL A   1      48.264  26.905  26.771  1.00  0.00     0.031 A 
ATOM     53  C   UNL A   1      41.844  29.007  28.649  1.00  0.00     0.031 A 
ATOM     54  C   UNL A   1      48.136  28.311  27.044  1.00  0.00     0.049 A 
ATOM     55  C   UNL A   1      43.003  29.962  28.581  1.00  0.00     0.074 A 
ATOM     56  C   UNL A   1      49.107  29.294  26.967  1.00  0.00     0.029 A 
ATOM     57  N   UNL A   1      46.966  28.938  27.449  1.00  0.00    -0.354 N 
ATOM     58  N   UNL A   1      44.248  29.725  28.236  1.00  0.00    -0.248 NA
ATOM     59  C   UNL A   1      42.728  31.361  28.931  1.00  0.00     0.031 C 
ATOM     60  C   UNL A   1      48.538  30.504  27.381  1.00  0.00     0.029 A 
ATOM     61  C   UNL A   1      47.196  30.288  27.649  1.00  0.00     0.049 A 
ATOM     62  H   UNL A   1      46.100  28.488  27.575  1.00  0.00     0.167 HD
ATOM     63  C   UNL A   1      44.897  30.953  28.301  1.00  0.00     0.074 A 
ATOM     64  C   UNL A   1      43.903  31.930  28.696  1.00  0.00     0.031 C 
ATOM     65  C   UNL A   1      46.199  31.246  28.053  1.00  0.00     0.031 A 
BRANCH  52  66
ATOM     66  C   UNL A   1      49.624  26.362  26.412  1.00  0.00    -0.014 A 
ATOM     67  C   UNL A   1      50.125  26.462  25.100  1.00  0.00     0.010 A 
ATOM     68  C   UNL A   1      50.431  25.778  27.406  1.00  0.00     0.010 A 
ATOM     69  C   UNL A   1      51.386  25.953  24.781  1.00  0.00     0.020 A 
ATOM     70  C   UNL A   1      51.706  25.297  27.099  1.00  0.00     0.020 A 
ATOM     71  C   UNL A   1      52.169  25.373  25.783  1.00  0.00     0.054 A 
BRANCH  71  72
ATOM     72  S   UNL A   1      53.814  24.746  25.345  1.00  0.00     0.124 S 
ATOM     73  O   UNL A   1      53.528  23.350  25.024  1.00  0.00    -0.237 OA
ATOM     74  O   UNL A   1      54.185  25.588  24.211  1.00  0.00    -0.237 OA
ATOM     75  O   UNL A   1      54.601  24.956  26.558  1.00  0.00    -0.744 OA
ENDBRANCH  71  72
ENDBRANCH  52  66
BRANCH  53  76
ATOM     76  C   UNL A   1      40.490  29.471  29.060  1.00  0.00    -0.014 A 
ATOM     77  C   UNL A   1      39.491  29.707  28.099  1.00  0.00     0.010 A 
ATOM     78  C   UNL A   1      40.188  29.668  30.421  1.00  0.00     0.010 A 
ATOM     79  C   UNL A   1      38.223  30.152  28.488  1.00  0.00     0.020 A 
ATOM     80  C   UNL A   1      38.913  30.082  30.815  1.00  0.00     0.020 A 
ATOM     81  C   UNL A   1      37.942  30.334  29.844  1.00  0.00     0.054 A 
BRANCH  81  82
ATOM     82  S   UNL A   1      36.277  30.866  30.329  1.00  0.00     0.124 S 
ATOM     83  O   UNL A   1      36.513  32.234  30.777  1.00  0.00    -0.237 OA
ATOM     84  O   UNL A   1      35.528  30.728  29.082  1.00  0.00    -0.237 OA
ATOM     85  O   UNL A   1      35.906  29.918  31.377  1.00  0.00    -0.744 OA
ENDBRANCH  81  82
ENDBRANCH  53  76
BRANCH  65  86
ATOM     86  C   UNL A   1      46.611  32.691  28.169  1.00  0.00    -0.014 A 
ATOM     87  C   UNL A   1      46.526  33.569  27.075  1.00  0.00     0.010 A 
ATOM     88  C   UNL A   1      47.070  33.182  29.407  1.00  0.00     0.010 A 
ATOM     89  C   UNL A   1      46.946  34.896  27.199  1.00  0.00     0.020 A 
ATOM     90  C   UNL A   1      47.456  34.517  29.544  1.00  0.00     0.020 A 
ATOM     91  C   UNL A   1      47.413  35.360  28.434  1.00  0.00     0.054 A 
BRANCH  91  92
ATOM     92  S   UNL A   1      47.942  37.089  28.573  1.00  0.00     0.124 S 
ATOM     93  O   UNL A   1      48.343  37.171  29.974  1.00  0.00    -0.237 OA
ATOM     94  O   UNL A   1      49.029  37.171  27.601  1.00  0.00    -0.237 OA
ATOM     95  O   UNL A   1      46.743  37.847  28.223  1.00  0.00    -0.744 OA
ENDBRANCH  91  92
ENDBRANCH  65  86
ENDBRANCH  39  40
ENDBRANCH  31  34
ENDBRANCH  29  30
ENDBRANCH   1  29
TORSDOF 18
ENDMDL
