MODEL 1
REMARK VINA RESULT:     -14.7      0.000      0.000
REMARK SMILES Cc1c(NC(=O)[C@@H]2CC=CC[C@@H]2C(=O)NCCCNC(=O)c2ccc(-c3c4nc(c(-c5ccc(S(=O)(=O)[O-])cc5)c5ccc([nH]5)c(-c5ccc(S(=O)(=O)[O-])cc5)c5nc(c(-c6ccc(S(=O)(=O)[O-])cc6)c6ccc3[nH]6)C=C5)C=C4)cc2)cccc1C(=O)N1CCOCC1
REMARK SMILES IDX 17 1 16 2 15 3 13 4 14 5 12 7 7 8 8 9 9 10 11 11 10 12 5 13
REMARK SMILES IDX 4 14 6 16 3 17 1 18 2 19 85 20 82 21 84 22 83 23 86 24 87 25
REMARK SMILES IDX 88 26 89 27 93 28 90 29 92 30 91 31 18 32 19 33 20 34 21 36
REMARK SMILES IDX 22 37 23 38 81 39 24 40 80 41 25 42 26 43 27 44 74 45 28 46
REMARK SMILES IDX 79 47 73 48 75 49 29 50 78 51 72 52 71 53 30 55 60 56 41 57
REMARK SMILES IDX 59 58 42 59 45 60 58 61 76 62 43 63 44 64 57 66 77 67 46 68
REMARK SMILES IDX 31 69 32 70 40 71 33 72 39 73 34 74 35 75 36 76 37 77 38 78
REMARK SMILES IDX 61 79 62 80 70 81 63 82 69 83 64 84 65 85 66 86 67 87 68 88
REMARK SMILES IDX 47 89 48 90 56 91 49 92 55 93 50 94 51 95 52 96 53 97 54 98
REMARK H PARENT 15 6 4 15 19 35 75 54 45 65
REMARK Flexibility Score: inf
ROOT
ATOM      1  C   UNL A   1      33.735  28.628  27.651  1.00  0.00     0.042 C 
ENDROOT
BRANCH   1   2
ATOM      2  C   UNL A   1      32.247  28.396  27.393  1.00  0.00     0.117 C 
BRANCH   2   3
ATOM      3  N   UNL A   1      31.750  29.098  26.221  1.00  0.00    -0.356 N 
ATOM      4  C   UNL A   1      31.218  28.776  25.019  1.00  0.00     0.224 C 
ATOM      5  O   UNL A   1      30.812  29.768  24.390  1.00  0.00    -0.275 OA
ATOM      6  H   UNL A   1      31.820  30.073  26.331  1.00  0.00     0.163 HD
BRANCH   4   7
ATOM      7  C   UNL A   1      30.968  27.360  24.425  1.00  0.00     0.095 C 
ATOM      8  C   UNL A   1      31.936  26.179  24.726  1.00  0.00     0.095 C 
ATOM      9  C   UNL A   1      33.362  26.616  24.386  1.00  0.00     0.041 C 
ATOM     10  C   UNL A   1      33.442  27.169  22.985  1.00  0.00    -0.030 C 
ATOM     11  C   UNL A   1      30.962  27.498  22.869  1.00  0.00     0.041 C 
ATOM     12  C   UNL A   1      32.355  27.536  22.288  1.00  0.00    -0.030 C 
BRANCH   8  13
ATOM     13  C   UNL A   1      31.586  25.528  26.055  1.00  0.00     0.228 C 
ATOM     14  N   UNL A   1      32.260  24.502  26.622  1.00  0.00    -0.326 N 
ATOM     15  H   UNL A   1      32.198  24.512  27.604  1.00  0.00     0.169 HD
ATOM     16  O   UNL A   1      30.603  25.923  26.698  1.00  0.00    -0.274 OA
BRANCH  14  17
ATOM     17  C   UNL A   1      33.025  23.425  26.148  1.00  0.00     0.044 A 
ATOM     18  C   UNL A   1      30.895  22.553  25.097  1.00  0.00     0.047 C 
ATOM     19  C   UNL A   1      32.396  22.511  25.261  1.00  0.00    -0.015 A 
ATOM     20  C   UNL A   1      33.186  21.548  24.597  1.00  0.00     0.045 A 
ATOM     21  C   UNL A   1      34.389  23.310  26.420  1.00  0.00     0.026 A 
ATOM     22  C   UNL A   1      34.547  21.427  24.919  1.00  0.00     0.014 A 
ATOM     23  C   UNL A   1      35.141  22.292  25.835  1.00  0.00     0.003 A 
BRANCH  20  24
ATOM     24  C   UNL A   1      32.641  20.516  23.668  1.00  0.00     0.254 C 
ATOM     25  O   UNL A   1      32.188  20.917  22.596  1.00  0.00    -0.269 OA
ATOM     26  N   UNL A   1      32.662  19.166  24.000  1.00  0.00    -0.334 N 
ATOM     27  C   UNL A   1      32.674  18.588  25.351  1.00  0.00     0.148 C 
ATOM     28  C   UNL A   1      32.415  18.189  22.936  1.00  0.00     0.148 C 
ATOM     29  C   UNL A   1      33.534  17.313  25.414  1.00  0.00     0.181 C 
ATOM     30  C   UNL A   1      33.346  16.985  23.088  1.00  0.00     0.181 C 
ATOM     31  O   UNL A   1      33.172  16.382  24.382  1.00  0.00    -0.378 OA
ENDBRANCH  20  24
ENDBRANCH  14  17
ENDBRANCH   8  13
ENDBRANCH   4   7
ENDBRANCH   2   3
ENDBRANCH   1   2
BRANCH   1  32
ATOM     32  C   UNL A   1      34.386  29.578  26.653  1.00  0.00     0.118 C 
BRANCH  32  33
ATOM     33  N   UNL A   1      34.875  30.800  27.287  1.00  0.00    -0.352 N 
ATOM     34  C   UNL A   1      36.092  30.992  27.939  1.00  0.00     0.251 C 
ATOM     35  H   UNL A   1      34.276  31.580  27.248  1.00  0.00     0.163 HD
ATOM     36  O   UNL A   1      36.390  32.022  28.475  1.00  0.00    -0.269 OA
BRANCH  34  37
ATOM     37  C   UNL A   1      37.031  29.851  27.868  1.00  0.00     0.039 A 
ATOM     38  C   UNL A   1      37.178  29.066  29.016  1.00  0.00     0.014 A 
ATOM     39  C   UNL A   1      37.965  29.819  26.837  1.00  0.00     0.014 A 
ATOM     40  C   UNL A   1      38.367  28.370  29.212  1.00  0.00     0.010 A 
ATOM     41  C   UNL A   1      39.183  29.215  27.089  1.00  0.00     0.010 A 
ATOM     42  C   UNL A   1      39.405  28.526  28.293  1.00  0.00    -0.014 A 
BRANCH  42  43
ATOM     43  C   UNL A   1      40.773  28.060  28.524  1.00  0.00     0.031 A 
ATOM     44  C   UNL A   1      41.146  26.673  28.144  1.00  0.00     0.074 A 
ATOM     45  C   UNL A   1      41.728  28.868  29.041  1.00  0.00     0.049 A 
ATOM     46  N   UNL A   1      42.177  26.040  28.603  1.00  0.00    -0.248 NA
ATOM     47  C   UNL A   1      40.332  25.857  27.249  1.00  0.00     0.031 C 
ATOM     48  C   UNL A   1      43.170  28.626  29.019  1.00  0.00     0.029 A 
ATOM     49  N   UNL A   1      41.590  29.962  29.895  1.00  0.00    -0.354 N 
ATOM     50  C   UNL A   1      42.315  24.881  27.878  1.00  0.00     0.074 A 
ATOM     51  C   UNL A   1      41.111  24.784  27.088  1.00  0.00     0.031 C 
ATOM     52  C   UNL A   1      43.733  29.295  30.033  1.00  0.00     0.029 A 
ATOM     53  C   UNL A   1      42.659  29.888  30.809  1.00  0.00     0.049 A 
ATOM     54  H   UNL A   1      40.886  30.649  29.867  1.00  0.00     0.167 HD
ATOM     55  C   UNL A   1      43.476  24.170  27.940  1.00  0.00     0.031 A 
ATOM     56  C   UNL A   1      42.516  29.807  32.165  1.00  0.00     0.031 A 
ATOM     57  C   UNL A   1      44.411  24.705  28.926  1.00  0.00     0.049 A 
ATOM     58  C   UNL A   1      43.172  28.584  32.781  1.00  0.00     0.074 A 
ATOM     59  C   UNL A   1      45.591  25.429  28.872  1.00  0.00     0.029 A 
ATOM     60  N   UNL A   1      44.027  24.704  30.256  1.00  0.00    -0.354 N 
ATOM     61  N   UNL A   1      43.857  27.698  32.114  1.00  0.00    -0.248 NA
ATOM     62  C   UNL A   1      43.001  28.206  34.188  1.00  0.00     0.031 C 
ATOM     63  C   UNL A   1      45.915  25.849  30.196  1.00  0.00     0.029 A 
ATOM     64  C   UNL A   1      44.936  25.375  31.047  1.00  0.00     0.049 A 
ATOM     65  H   UNL A   1      43.208  24.276  30.595  1.00  0.00     0.167 HD
ATOM     66  C   UNL A   1      44.119  26.625  32.925  1.00  0.00     0.074 A 
ATOM     67  C   UNL A   1      43.595  27.001  34.224  1.00  0.00     0.031 C 
ATOM     68  C   UNL A   1      44.674  25.469  32.469  1.00  0.00     0.031 A 
BRANCH  55  69
ATOM     69  C   UNL A   1      43.837  23.080  26.958  1.00  0.00    -0.014 A 
ATOM     70  C   UNL A   1      42.888  22.089  26.636  1.00  0.00     0.010 A 
ATOM     71  C   UNL A   1      45.099  22.951  26.350  1.00  0.00     0.010 A 
ATOM     72  C   UNL A   1      43.213  20.978  25.843  1.00  0.00     0.020 A 
ATOM     73  C   UNL A   1      45.454  21.825  25.593  1.00  0.00     0.020 A 
ATOM     74  C   UNL A   1      44.509  20.836  25.353  1.00  0.00     0.054 A 
BRANCH  74  75
ATOM     75  S   UNL A   1      44.946  19.350  24.416  1.00  0.00     0.124 S 
ATOM     76  O   UNL A   1      44.265  18.294  25.160  1.00  0.00    -0.237 OA
ATOM     77  O   UNL A   1      44.401  19.642  23.093  1.00  0.00    -0.237 OA
ATOM     78  O   UNL A   1      46.405  19.309  24.491  1.00  0.00    -0.744 OA
ENDBRANCH  74  75
ENDBRANCH  55  69
BRANCH  56  79
ATOM     79  C   UNL A   1      41.285  30.465  32.678  1.00  0.00    -0.014 A 
ATOM     80  C   UNL A   1      40.190  29.627  32.979  1.00  0.00     0.010 A 
ATOM     81  C   UNL A   1      41.354  31.741  33.264  1.00  0.00     0.010 A 
ATOM     82  C   UNL A   1      39.300  29.969  33.998  1.00  0.00     0.020 A 
ATOM     83  C   UNL A   1      40.453  32.090  34.278  1.00  0.00     0.020 A 
ATOM     84  C   UNL A   1      39.487  31.167  34.689  1.00  0.00     0.054 A 
BRANCH  84  85
ATOM     85  S   UNL A   1      38.602  31.386  36.262  1.00  0.00     0.124 S 
ATOM     86  O   UNL A   1      38.226  30.019  36.609  1.00  0.00    -0.237 OA
ATOM     87  O   UNL A   1      39.636  31.987  37.104  1.00  0.00    -0.237 OA
ATOM     88  O   UNL A   1      37.499  32.272  35.905  1.00  0.00    -0.744 OA
ENDBRANCH  84  85
ENDBRANCH  56  79
BRANCH  68  89
ATOM     89  C   UNL A   1      44.958  24.292  33.354  1.00  0.00    -0.014 A 
ATOM     90  C   UNL A   1      46.187  24.145  34.018  1.00  0.00     0.010 A 
ATOM     91  C   UNL A   1      44.034  23.228  33.439  1.00  0.00     0.010 A 
ATOM     92  C   UNL A   1      46.465  22.998  34.771  1.00  0.00     0.020 A 
ATOM     93  C   UNL A   1      44.309  22.073  34.175  1.00  0.00     0.020 A 
ATOM     94  C   UNL A   1      45.520  21.971  34.851  1.00  0.00     0.054 A 
BRANCH  94  95
ATOM     95  S   UNL A   1      45.911  20.473  35.794  1.00  0.00     0.124 S 
ATOM     96  O   UNL A   1      47.318  20.245  35.469  1.00  0.00    -0.237 OA
ATOM     97  O   UNL A   1      45.647  20.905  37.164  1.00  0.00    -0.237 OA
ATOM     98  O   UNL A   1      44.985  19.476  35.262  1.00  0.00    -0.744 OA
ENDBRANCH  94  95
ENDBRANCH  68  89
ENDBRANCH  42  43
ENDBRANCH  34  37
ENDBRANCH  32  33
ENDBRANCH   1  32
TORSDOF 16
ENDMDL
MODEL 2
REMARK VINA RESULT:     -14.3      4.657     11.327
REMARK SMILES Cc1c(NC(=O)[C@@H]2CC=CC[C@@H]2C(=O)NCCCNC(=O)c2ccc(-c3c4nc(c(-c5ccc(S(=O)(=O)[O-])cc5)c5ccc([nH]5)c(-c5ccc(S(=O)(=O)[O-])cc5)c5nc(c(-c6ccc(S(=O)(=O)[O-])cc6)c6ccc3[nH]6)C=C5)C=C4)cc2)cccc1C(=O)N1CCOCC1
REMARK SMILES IDX 17 1 16 2 15 3 13 4 14 5 12 7 7 8 8 9 9 10 11 11 10 12 5 13
REMARK SMILES IDX 4 14 6 16 3 17 1 18 2 19 85 20 82 21 84 22 83 23 86 24 87 25
REMARK SMILES IDX 88 26 89 27 93 28 90 29 92 30 91 31 18 32 19 33 20 34 21 36
REMARK SMILES IDX 22 37 23 38 81 39 24 40 80 41 25 42 26 43 27 44 74 45 28 46
REMARK SMILES IDX 79 47 73 48 75 49 29 50 78 51 72 52 71 53 30 55 60 56 41 57
REMARK SMILES IDX 59 58 42 59 45 60 58 61 76 62 43 63 44 64 57 66 77 67 46 68
REMARK SMILES IDX 31 69 32 70 40 71 33 72 39 73 34 74 35 75 36 76 37 77 38 78
REMARK SMILES IDX 61 79 62 80 70 81 63 82 69 83 64 84 65 85 66 86 67 87 68 88
REMARK SMILES IDX 47 89 48 90 56 91 49 92 55 93 50 94 51 95 52 96 53 97 54 98
REMARK H PARENT 15 6 4 15 19 35 75 54 45 65
REMARK Flexibility Score: inf
ROOT
ATOM      1  C   UNL A   1      37.421  23.610  24.788  1.00  0.00     0.042 C 
ENDROOT
BRANCH   1   2
ATOM      2  C   UNL A   1      36.998  22.387  23.975  1.00  0.00     0.117 C 
BRANCH   2   3
ATOM      3  N   UNL A   1      36.172  21.454  24.726  1.00  0.00    -0.356 N 
ATOM      4  C   UNL A   1      34.875  21.071  24.752  1.00  0.00     0.224 C 
ATOM      5  O   UNL A   1      34.672  20.108  25.510  1.00  0.00    -0.275 OA
ATOM      6  H   UNL A   1      36.702  20.970  25.399  1.00  0.00     0.163 HD
BRANCH   4   7
ATOM      7  C   UNL A   1      33.695  21.608  23.891  1.00  0.00     0.095 C 
ATOM      8  C   UNL A   1      33.129  23.041  24.104  1.00  0.00     0.095 C 
ATOM      9  C   UNL A   1      32.783  23.215  25.584  1.00  0.00     0.041 C 
ATOM     10  C   UNL A   1      31.895  22.097  26.070  1.00  0.00    -0.030 C 
ATOM     11  C   UNL A   1      32.480  20.651  24.110  1.00  0.00     0.041 C 
ATOM     12  C   UNL A   1      31.733  20.952  25.387  1.00  0.00    -0.030 C 
BRANCH   8  13
ATOM     13  C   UNL A   1      33.962  24.062  23.345  1.00  0.00     0.228 C 
ATOM     14  N   UNL A   1      34.007  25.387  23.613  1.00  0.00    -0.326 N 
ATOM     15  H   UNL A   1      34.869  25.790  23.362  1.00  0.00     0.169 HD
ATOM     16  O   UNL A   1      34.658  23.702  22.384  1.00  0.00    -0.274 OA
BRANCH  14  17
ATOM     17  C   UNL A   1      33.120  26.326  24.163  1.00  0.00     0.044 A 
ATOM     18  C   UNL A   1      31.530  25.715  22.293  1.00  0.00     0.047 C 
ATOM     19  C   UNL A   1      31.816  26.405  23.605  1.00  0.00    -0.015 A 
ATOM     20  C   UNL A   1      30.834  27.176  24.265  1.00  0.00     0.045 A 
ATOM     21  C   UNL A   1      33.442  27.072  25.298  1.00  0.00     0.026 A 
ATOM     22  C   UNL A   1      31.195  27.947  25.381  1.00  0.00     0.014 A 
ATOM     23  C   UNL A   1      32.493  27.907  25.885  1.00  0.00     0.003 A 
BRANCH  20  24
ATOM     24  C   UNL A   1      29.443  27.362  23.764  1.00  0.00     0.254 C 
ATOM     25  O   UNL A   1      28.628  26.481  24.043  1.00  0.00    -0.269 OA
ATOM     26  N   UNL A   1      29.086  28.489  23.033  1.00  0.00    -0.334 N 
ATOM     27  C   UNL A   1      29.971  29.325  22.210  1.00  0.00     0.148 C 
ATOM     28  C   UNL A   1      27.660  28.770  22.848  1.00  0.00     0.148 C 
ATOM     29  C   UNL A   1      29.577  30.811  22.284  1.00  0.00     0.181 C 
ATOM     30  C   UNL A   1      27.389  30.271  22.973  1.00  0.00     0.181 C 
ATOM     31  O   UNL A   1      28.179  30.999  22.017  1.00  0.00    -0.378 OA
ENDBRANCH  20  24
ENDBRANCH  14  17
ENDBRANCH   8  13
ENDBRANCH   4   7
ENDBRANCH   2   3
ENDBRANCH   1   2
BRANCH   1  32
ATOM     32  C   UNL A   1      37.579  23.327  26.276  1.00  0.00     0.118 C 
BRANCH  32  33
ATOM     33  N   UNL A   1      38.951  22.975  26.632  1.00  0.00    -0.352 N 
ATOM     34  C   UNL A   1      39.927  23.805  27.184  1.00  0.00     0.251 C 
ATOM     35  H   UNL A   1      39.219  22.043  26.465  1.00  0.00     0.163 HD
ATOM     36  O   UNL A   1      41.048  23.440  27.399  1.00  0.00    -0.269 OA
BRANCH  34  37
ATOM     37  C   UNL A   1      39.465  25.161  27.552  1.00  0.00     0.039 A 
ATOM     38  C   UNL A   1      39.964  26.234  26.809  1.00  0.00     0.014 A 
ATOM     39  C   UNL A   1      38.870  25.348  28.796  1.00  0.00     0.014 A 
ATOM     40  C   UNL A   1      40.026  27.495  27.398  1.00  0.00     0.010 A 
ATOM     41  C   UNL A   1      39.035  26.574  29.412  1.00  0.00     0.010 A 
ATOM     42  C   UNL A   1      39.651  27.639  28.734  1.00  0.00    -0.014 A 
BRANCH  42  43
ATOM     43  C   UNL A   1      39.914  28.841  29.527  1.00  0.00     0.031 A 
ATOM     44  C   UNL A   1      38.919  29.944  29.534  1.00  0.00     0.074 A 
ATOM     45  C   UNL A   1      41.024  28.965  30.291  1.00  0.00     0.049 A 
ATOM     46  N   UNL A   1      39.179  31.161  29.887  1.00  0.00    -0.248 NA
ATOM     47  C   UNL A   1      37.546  29.768  29.071  1.00  0.00     0.031 C 
ATOM     48  C   UNL A   1      41.238  29.951  31.351  1.00  0.00     0.029 A 
ATOM     49  N   UNL A   1      42.281  28.384  30.123  1.00  0.00    -0.354 N 
ATOM     50  C   UNL A   1      37.986  31.839  29.967  1.00  0.00     0.074 A 
ATOM     51  C   UNL A   1      37.006  30.946  29.393  1.00  0.00     0.031 C 
ATOM     52  C   UNL A   1      42.556  30.137  31.503  1.00  0.00     0.029 A 
ATOM     53  C   UNL A   1      43.224  29.371  30.467  1.00  0.00     0.049 A 
ATOM     54  H   UNL A   1      42.472  27.466  29.824  1.00  0.00     0.167 HD
ATOM     55  C   UNL A   1      37.925  33.044  30.599  1.00  0.00     0.031 A 
ATOM     56  C   UNL A   1      44.196  29.839  29.631  1.00  0.00     0.031 A 
ATOM     57  C   UNL A   1      39.238  33.530  31.012  1.00  0.00     0.049 A 
ATOM     58  C   UNL A   1      44.144  31.340  29.405  1.00  0.00     0.074 A 
ATOM     59  C   UNL A   1      39.913  33.638  32.217  1.00  0.00     0.029 A 
ATOM     60  N   UNL A   1      40.175  33.794  30.028  1.00  0.00    -0.354 N 
ATOM     61  N   UNL A   1      43.292  32.144  29.978  1.00  0.00    -0.248 NA
ATOM     62  C   UNL A   1      44.979  32.031  28.417  1.00  0.00     0.031 C 
ATOM     63  C   UNL A   1      41.267  33.987  31.938  1.00  0.00     0.029 A 
ATOM     64  C   UNL A   1      41.407  34.093  30.567  1.00  0.00     0.049 A 
ATOM     65  H   UNL A   1      39.984  33.771  29.062  1.00  0.00     0.167 HD
ATOM     66  C   UNL A   1      43.377  33.381  29.395  1.00  0.00     0.074 A 
ATOM     67  C   UNL A   1      44.469  33.275  28.447  1.00  0.00     0.031 C 
ATOM     68  C   UNL A   1      42.502  34.389  29.664  1.00  0.00     0.031 A 
BRANCH  55  69
ATOM     69  C   UNL A   1      36.628  33.702  31.009  1.00  0.00    -0.014 A 
ATOM     70  C   UNL A   1      35.608  33.889  30.054  1.00  0.00     0.010 A 
ATOM     71  C   UNL A   1      36.366  34.194  32.301  1.00  0.00     0.010 A 
ATOM     72  C   UNL A   1      34.444  34.618  30.342  1.00  0.00     0.020 A 
ATOM     73  C   UNL A   1      35.230  34.964  32.593  1.00  0.00     0.020 A 
ATOM     74  C   UNL A   1      34.279  35.183  31.604  1.00  0.00     0.054 A 
BRANCH  74  75
ATOM     75  S   UNL A   1      32.822  36.206  31.936  1.00  0.00     0.124 S 
ATOM     76  O   UNL A   1      32.535  36.782  30.624  1.00  0.00    -0.237 OA
ATOM     77  O   UNL A   1      31.854  35.227  32.420  1.00  0.00    -0.237 OA
ATOM     78  O   UNL A   1      33.292  37.163  32.936  1.00  0.00    -0.744 OA
ENDBRANCH  74  75
ENDBRANCH  55  69
BRANCH  56  79
ATOM     79  C   UNL A   1      44.658  28.841  28.629  1.00  0.00    -0.014 A 
ATOM     80  C   UNL A   1      44.035  28.871  27.363  1.00  0.00     0.010 A 
ATOM     81  C   UNL A   1      45.920  28.238  28.758  1.00  0.00     0.010 A 
ATOM     82  C   UNL A   1      44.743  28.499  26.221  1.00  0.00     0.020 A 
ATOM     83  C   UNL A   1      46.627  27.852  27.613  1.00  0.00     0.020 A 
ATOM     84  C   UNL A   1      46.062  28.062  26.351  1.00  0.00     0.054 A 
BRANCH  84  85
ATOM     85  S   UNL A   1      47.086  27.995  24.851  1.00  0.00     0.124 S 
ATOM     86  O   UNL A   1      48.437  28.147  25.380  1.00  0.00    -0.237 OA
ATOM     87  O   UNL A   1      46.761  26.668  24.327  1.00  0.00    -0.237 OA
ATOM     88  O   UNL A   1      46.590  29.114  24.057  1.00  0.00    -0.744 OA
ENDBRANCH  84  85
ENDBRANCH  56  79
BRANCH  68  89
ATOM     89  C   UNL A   1      42.589  35.742  29.024  1.00  0.00    -0.014 A 
ATOM     90  C   UNL A   1      43.234  36.818  29.656  1.00  0.00     0.010 A 
ATOM     91  C   UNL A   1      41.906  36.002  27.817  1.00  0.00     0.010 A 
ATOM     92  C   UNL A   1      43.231  38.095  29.081  1.00  0.00     0.020 A 
ATOM     93  C   UNL A   1      41.885  37.277  27.244  1.00  0.00     0.020 A 
ATOM     94  C   UNL A   1      42.562  38.315  27.874  1.00  0.00     0.054 A 
BRANCH  94  95
ATOM     95  S   UNL A   1      42.530  39.982  27.165  1.00  0.00     0.124 S 
ATOM     96  O   UNL A   1      41.122  40.158  26.815  1.00  0.00    -0.237 OA
ATOM     97  O   UNL A   1      43.003  40.793  28.284  1.00  0.00    -0.237 OA
ATOM     98  O   UNL A   1      43.442  39.894  26.027  1.00  0.00    -0.744 OA
ENDBRANCH  94  95
ENDBRANCH  68  89
ENDBRANCH  42  43
ENDBRANCH  34  37
ENDBRANCH  32  33
ENDBRANCH   1  32
TORSDOF 16
ENDMDL
MODEL 3
REMARK VINA RESULT:     -13.9      1.451      2.094
REMARK SMILES Cc1c(NC(=O)[C@@H]2CC=CC[C@@H]2C(=O)NCCCNC(=O)c2ccc(-c3c4nc(c(-c5ccc(S(=O)(=O)[O-])cc5)c5ccc([nH]5)c(-c5ccc(S(=O)(=O)[O-])cc5)c5nc(c(-c6ccc(S(=O)(=O)[O-])cc6)c6ccc3[nH]6)C=C5)C=C4)cc2)cccc1C(=O)N1CCOCC1
REMARK SMILES IDX 17 1 16 2 15 3 13 4 14 5 12 7 7 8 8 9 9 10 11 11 10 12 5 13
REMARK SMILES IDX 4 14 6 16 3 17 1 18 2 19 85 20 82 21 84 22 83 23 86 24 87 25
REMARK SMILES IDX 88 26 89 27 93 28 90 29 92 30 91 31 18 32 19 33 20 34 21 36
REMARK SMILES IDX 22 37 23 38 81 39 24 40 80 41 25 42 26 43 27 44 74 45 28 46
REMARK SMILES IDX 79 47 73 48 75 49 29 50 78 51 72 52 71 53 30 55 60 56 41 57
REMARK SMILES IDX 59 58 42 59 45 60 58 61 76 62 43 63 44 64 57 66 77 67 46 68
REMARK SMILES IDX 31 69 32 70 40 71 33 72 39 73 34 74 35 75 36 76 37 77 38 78
REMARK SMILES IDX 61 79 62 80 70 81 63 82 69 83 64 84 65 85 66 86 67 87 68 88
REMARK SMILES IDX 47 89 48 90 56 91 49 92 55 93 50 94 51 95 52 96 53 97 54 98
REMARK H PARENT 15 6 4 15 19 35 75 54 45 65
REMARK Flexibility Score: inf
ROOT
ATOM      1  C   UNL A   1      34.574  29.111  26.376  1.00  0.00     0.042 C 
ENDROOT
BRANCH   1   2
ATOM      2  C   UNL A   1      33.298  28.660  25.667  1.00  0.00     0.117 C 
BRANCH   2   3
ATOM      3  N   UNL A   1      33.515  27.567  24.732  1.00  0.00    -0.356 N 
ATOM      4  C   UNL A   1      32.918  26.395  24.413  1.00  0.00     0.224 C 
ATOM      5  O   UNL A   1      33.423  25.853  23.416  1.00  0.00    -0.275 OA
ATOM      6  H   UNL A   1      34.315  27.722  24.180  1.00  0.00     0.163 HD
BRANCH   4   7
ATOM      7  C   UNL A   1      31.659  25.750  25.060  1.00  0.00     0.095 C 
ATOM      8  C   UNL A   1      31.595  24.222  25.346  1.00  0.00     0.095 C 
ATOM      9  C   UNL A   1      31.934  23.468  24.058  1.00  0.00     0.041 C 
ATOM     10  C   UNL A   1      31.078  23.941  22.910  1.00  0.00    -0.030 C 
ATOM     11  C   UNL A   1      30.446  26.042  24.120  1.00  0.00     0.041 C 
ATOM     12  C   UNL A   1      30.380  25.087  22.951  1.00  0.00    -0.030 C 
BRANCH   8  13
ATOM     13  C   UNL A   1      32.267  23.899  26.671  1.00  0.00     0.228 C 
ATOM     14  N   UNL A   1      33.587  23.655  26.838  1.00  0.00    -0.326 N 
ATOM     15  H   UNL A   1      33.903  23.907  27.735  1.00  0.00     0.169 HD
ATOM     16  O   UNL A   1      31.590  23.822  27.706  1.00  0.00    -0.274 OA
BRANCH  14  17
ATOM     17  C   UNL A   1      34.615  23.130  26.039  1.00  0.00     0.044 A 
ATOM     18  C   UNL A   1      33.936  20.852  26.904  1.00  0.00     0.047 C 
ATOM     19  C   UNL A   1      34.717  21.716  25.944  1.00  0.00    -0.015 A 
ATOM     20  C   UNL A   1      35.592  21.156  24.987  1.00  0.00     0.045 A 
ATOM     21  C   UNL A   1      35.435  23.945  25.257  1.00  0.00     0.026 A 
ATOM     22  C   UNL A   1      36.433  21.997  24.242  1.00  0.00     0.014 A 
ATOM     23  C   UNL A   1      36.365  23.381  24.386  1.00  0.00     0.003 A 
BRANCH  20  24
ATOM     24  C   UNL A   1      35.810  19.692  24.812  1.00  0.00     0.254 C 
ATOM     25  O   UNL A   1      36.964  19.282  24.938  1.00  0.00    -0.269 OA
ATOM     26  N   UNL A   1      34.751  18.834  24.536  1.00  0.00    -0.334 N 
ATOM     27  C   UNL A   1      33.484  19.178  23.875  1.00  0.00     0.148 C 
ATOM     28  C   UNL A   1      34.969  17.394  24.691  1.00  0.00     0.148 C 
ATOM     29  C   UNL A   1      32.302  18.393  24.470  1.00  0.00     0.181 C 
ATOM     30  C   UNL A   1      33.741  16.730  25.318  1.00  0.00     0.181 C 
ATOM     31  O   UNL A   1      32.575  16.984  24.515  1.00  0.00    -0.378 OA
ENDBRANCH  20  24
ENDBRANCH  14  17
ENDBRANCH   8  13
ENDBRANCH   4   7
ENDBRANCH   2   3
ENDBRANCH   1   2
BRANCH   1  32
ATOM     32  C   UNL A   1      34.414  29.260  27.883  1.00  0.00     0.118 C 
BRANCH  32  33
ATOM     33  N   UNL A   1      34.972  30.515  28.381  1.00  0.00    -0.352 N 
ATOM     34  C   UNL A   1      36.256  30.736  28.879  1.00  0.00     0.251 C 
ATOM     35  H   UNL A   1      34.373  31.295  28.362  1.00  0.00     0.163 HD
ATOM     36  O   UNL A   1      36.613  31.795  29.313  1.00  0.00    -0.269 OA
BRANCH  34  37
ATOM     37  C   UNL A   1      37.180  29.586  28.773  1.00  0.00     0.039 A 
ATOM     38  C   UNL A   1      37.395  28.827  29.927  1.00  0.00     0.014 A 
ATOM     39  C   UNL A   1      38.044  29.522  27.685  1.00  0.00     0.014 A 
ATOM     40  C   UNL A   1      38.590  28.125  30.061  1.00  0.00     0.010 A 
ATOM     41  C   UNL A   1      39.271  28.914  27.870  1.00  0.00     0.010 A 
ATOM     42  C   UNL A   1      39.567  28.250  29.072  1.00  0.00    -0.014 A 
BRANCH  42  43
ATOM     43  C   UNL A   1      40.943  27.778  29.225  1.00  0.00     0.031 A 
ATOM     44  C   UNL A   1      41.313  26.429  28.722  1.00  0.00     0.074 A 
ATOM     45  C   UNL A   1      41.909  28.548  29.777  1.00  0.00     0.049 A 
ATOM     46  N   UNL A   1      42.359  25.770  29.097  1.00  0.00    -0.248 NA
ATOM     47  C   UNL A   1      40.476  25.682  27.787  1.00  0.00     0.031 C 
ATOM     48  C   UNL A   1      43.351  28.320  29.694  1.00  0.00     0.029 A 
ATOM     49  N   UNL A   1      41.791  29.568  30.723  1.00  0.00    -0.354 N 
ATOM     50  C   UNL A   1      42.483  24.674  28.276  1.00  0.00     0.074 A 
ATOM     51  C   UNL A   1      41.256  24.633  27.516  1.00  0.00     0.031 C 
ATOM     52  C   UNL A   1      43.940  28.909  30.743  1.00  0.00     0.029 A 
ATOM     53  C   UNL A   1      42.887  29.428  31.596  1.00  0.00     0.049 A 
ATOM     54  H   UNL A   1      41.082  30.249  30.771  1.00  0.00     0.167 HD
ATOM     55  C   UNL A   1      43.649  23.970  28.246  1.00  0.00     0.031 A 
ATOM     56  C   UNL A   1      42.784  29.236  32.944  1.00  0.00     0.031 A 
ATOM     57  C   UNL A   1      44.609  24.429  29.245  1.00  0.00     0.049 A 
ATOM     58  C   UNL A   1      43.465  27.972  33.439  1.00  0.00     0.074 A 
ATOM     59  C   UNL A   1      45.783  25.165  29.215  1.00  0.00     0.029 A 
ATOM     60  N   UNL A   1      44.266  24.317  30.581  1.00  0.00    -0.354 N 
ATOM     61  N   UNL A   1      44.135  27.148  32.682  1.00  0.00    -0.248 NA
ATOM     62  C   UNL A   1      43.338  27.479  34.814  1.00  0.00     0.031 C 
ATOM     63  C   UNL A   1      46.145  25.478  30.559  1.00  0.00     0.029 A 
ATOM     64  C   UNL A   1      45.194  24.928  31.397  1.00  0.00     0.049 A 
ATOM     65  H   UNL A   1      43.460  23.857  30.907  1.00  0.00     0.167 HD
ATOM     66  C   UNL A   1      44.426  26.015  33.394  1.00  0.00     0.074 A 
ATOM     67  C   UNL A   1      43.939  26.280  34.735  1.00  0.00     0.031 C 
ATOM     68  C   UNL A   1      44.974  24.904  32.829  1.00  0.00     0.031 A 
BRANCH  55  69
ATOM     69  C   UNL A   1      43.986  22.967  27.168  1.00  0.00    -0.014 A 
ATOM     70  C   UNL A   1      43.047  21.974  26.820  1.00  0.00     0.010 A 
ATOM     71  C   UNL A   1      45.218  22.921  26.489  1.00  0.00     0.010 A 
ATOM     72  C   UNL A   1      43.360  20.935  25.930  1.00  0.00     0.020 A 
ATOM     73  C   UNL A   1      45.562  21.864  25.633  1.00  0.00     0.020 A 
ATOM     74  C   UNL A   1      44.632  20.868  25.367  1.00  0.00     0.054 A 
BRANCH  74  75
ATOM     75  S   UNL A   1      45.058  19.468  24.300  1.00  0.00     0.124 S 
ATOM     76  O   UNL A   1      44.488  19.865  23.015  1.00  0.00    -0.237 OA
ATOM     77  O   UNL A   1      46.516  19.455  24.367  1.00  0.00    -0.237 OA
ATOM     78  O   UNL A   1      44.396  18.332  24.939  1.00  0.00    -0.744 OA
ENDBRANCH  74  75
ENDBRANCH  55  69
BRANCH  56  79
ATOM     79  C   UNL A   1      41.566  29.840  33.545  1.00  0.00    -0.014 A 
ATOM     80  C   UNL A   1      41.560  31.242  33.706  1.00  0.00     0.010 A 
ATOM     81  C   UNL A   1      40.343  29.148  33.517  1.00  0.00     0.010 A 
ATOM     82  C   UNL A   1      40.364  31.956  33.630  1.00  0.00     0.020 A 
ATOM     83  C   UNL A   1      39.141  29.863  33.453  1.00  0.00     0.020 A 
ATOM     84  C   UNL A   1      39.171  31.261  33.429  1.00  0.00     0.054 A 
BRANCH  84  85
ATOM     85  S   UNL A   1      37.712  32.213  32.910  1.00  0.00     0.124 S 
ATOM     86  O   UNL A   1      37.361  32.944  34.123  1.00  0.00    -0.237 OA
ATOM     87  O   UNL A   1      38.258  33.025  31.822  1.00  0.00    -0.237 OA
ATOM     88  O   UNL A   1      36.766  31.181  32.500  1.00  0.00    -0.744 OA
ENDBRANCH  84  85
ENDBRANCH  56  79
BRANCH  68  89
ATOM     89  C   UNL A   1      45.290  23.661  33.606  1.00  0.00    -0.014 A 
ATOM     90  C   UNL A   1      44.280  22.799  34.065  1.00  0.00     0.010 A 
ATOM     91  C   UNL A   1      46.616  23.392  34.008  1.00  0.00     0.010 A 
ATOM     92  C   UNL A   1      44.589  21.689  34.861  1.00  0.00     0.020 A 
ATOM     93  C   UNL A   1      46.932  22.296  34.815  1.00  0.00     0.020 A 
ATOM     94  C   UNL A   1      45.915  21.440  35.225  1.00  0.00     0.054 A 
BRANCH  94  95
ATOM     95  S   UNL A   1      46.294  20.025  36.292  1.00  0.00     0.124 S 
ATOM     96  O   UNL A   1      45.723  18.901  35.553  1.00  0.00    -0.237 OA
ATOM     97  O   UNL A   1      47.753  20.068  36.338  1.00  0.00    -0.237 OA
ATOM     98  O   UNL A   1      45.619  20.345  37.547  1.00  0.00    -0.744 OA
ENDBRANCH  94  95
ENDBRANCH  68  89
ENDBRANCH  42  43
ENDBRANCH  34  37
ENDBRANCH  32  33
ENDBRANCH   1  32
TORSDOF 16
ENDMDL
