MODEL 1
REMARK VINA RESULT:     -12.4      0.000      0.000
REMARK SMILES Cc1nsc(NC(=O)c2ccc(N)cc2)c1C(=O)NCCCNC(=O)c1ccc(-c2c3nc(c(-c4ccc(S(=O)(=O)[O-])cc4)c4ccc([nH]4)c(-c4ccc(S(=O)(=O)[O-])cc4)c4nc(c(-c5ccc(S(=O)(=O)[O-])cc5)c5ccc2[nH]5)C=C4)C=C3)cc1
REMARK SMILES IDX 21 1 20 2 19 3 17 4 18 5 16 7 1 8 2 9 3 10 4 11 5 12 6 13
REMARK SMILES IDX 7 14 8 16 9 17 10 18 15 19 11 20 14 21 12 22 13 23 22 26
REMARK SMILES IDX 23 27 24 28 25 30 26 31 27 32 85 33 28 34 84 35 29 36 30 37
REMARK SMILES IDX 31 38 78 39 32 40 83 41 77 42 79 43 33 44 82 45 76 46 75 47
REMARK SMILES IDX 34 49 64 50 45 51 63 52 46 53 49 54 62 55 80 56 47 57 48 58
REMARK SMILES IDX 61 60 81 61 50 62 35 63 36 64 44 65 37 66 43 67 38 68 39 69
REMARK SMILES IDX 40 70 41 71 42 72 65 73 66 74 74 75 67 76 73 77 68 78 69 79
REMARK SMILES IDX 70 80 71 81 72 82 51 83 52 84 60 85 53 86 59 87 54 88 55 89
REMARK SMILES IDX 56 90 57 91 58 92
REMARK H PARENT 19 6 6 15 13 24 13 25 23 29 79 48 49 59
REMARK Flexibility Score: inf
ROOT
ATOM      1  C   UNL A   1      38.680  22.404  25.957  1.00  0.00     0.042 C 
ENDROOT
BRANCH   1   2
ATOM      2  C   UNL A   1      37.737  23.603  26.054  1.00  0.00     0.118 C 
BRANCH   2   3
ATOM      3  N   UNL A   1      36.465  23.263  26.643  1.00  0.00    -0.352 N 
ATOM      4  C   UNL A   1      35.226  22.956  26.158  1.00  0.00     0.256 C 
ATOM      5  O   UNL A   1      34.474  22.500  27.029  1.00  0.00    -0.269 OA
ATOM      6  H   UNL A   1      36.499  23.249  27.627  1.00  0.00     0.163 HD
BRANCH   4   7
ATOM      7  C   UNL A   1      34.726  23.133  24.781  1.00  0.00     0.097 A 
ATOM      8  C   UNL A   1      36.645  22.685  22.925  1.00  0.00     0.069 C 
ATOM      9  C   UNL A   1      35.307  23.075  23.433  1.00  0.00     0.066 A 
ATOM     10  N   UNL A   1      34.511  23.473  22.437  1.00  0.00    -0.195 NA
ATOM     11  S   UNL A   1      33.086  23.972  23.037  1.00  0.00    -0.017 S 
ATOM     12  C   UNL A   1      33.360  23.443  24.621  1.00  0.00     0.129 A 
BRANCH  12  13
ATOM     13  N   UNL A   1      32.362  23.471  25.589  1.00  0.00    -0.312 N 
ATOM     14  C   UNL A   1      31.804  24.512  26.303  1.00  0.00     0.256 C 
ATOM     15  H   UNL A   1      31.984  22.587  25.804  1.00  0.00     0.171 HD
ATOM     16  O   UNL A   1      31.033  24.296  27.237  1.00  0.00    -0.269 OA
BRANCH  14  17
ATOM     17  C   UNL A   1      32.058  25.920  25.948  1.00  0.00     0.040 A 
ATOM     18  C   UNL A   1      31.109  26.663  25.238  1.00  0.00     0.016 A 
ATOM     19  C   UNL A   1      33.289  26.484  26.287  1.00  0.00     0.016 A 
ATOM     20  C   UNL A   1      31.454  27.926  24.752  1.00  0.00     0.026 A 
ATOM     21  C   UNL A   1      33.613  27.757  25.808  1.00  0.00     0.026 A 
ATOM     22  C   UNL A   1      32.728  28.454  24.980  1.00  0.00     0.031 A 
BRANCH  22  23
ATOM     23  N   UNL A   1      33.065  29.710  24.494  1.00  0.00    -0.399 N 
ATOM     24  H   UNL A   1      32.628  30.513  24.861  1.00  0.00     0.156 HD
ATOM     25  H   UNL A   1      33.741  29.798  23.784  1.00  0.00     0.156 HD
ENDBRANCH  22  23
ENDBRANCH  14  17
ENDBRANCH  12  13
ENDBRANCH   4   7
ENDBRANCH   2   3
ENDBRANCH   1   2
BRANCH   1  26
ATOM     26  C   UNL A   1      39.884  22.517  26.869  1.00  0.00     0.118 C 
BRANCH  26  27
ATOM     27  N   UNL A   1      41.126  22.163  26.183  1.00  0.00    -0.352 N 
ATOM     28  C   UNL A   1      42.098  23.013  25.687  1.00  0.00     0.251 C 
ATOM     29  H   UNL A   1      41.291  21.200  26.060  1.00  0.00     0.163 HD
ATOM     30  O   UNL A   1      42.887  22.624  24.844  1.00  0.00    -0.269 OA
BRANCH  28  31
ATOM     31  C   UNL A   1      42.133  24.399  26.185  1.00  0.00     0.039 A 
ATOM     32  C   UNL A   1      41.381  25.402  25.571  1.00  0.00     0.014 A 
ATOM     33  C   UNL A   1      42.878  24.668  27.330  1.00  0.00     0.014 A 
ATOM     34  C   UNL A   1      41.313  26.652  26.181  1.00  0.00     0.010 A 
ATOM     35  C   UNL A   1      42.669  25.836  28.017  1.00  0.00     0.010 A 
ATOM     36  C   UNL A   1      41.931  26.855  27.428  1.00  0.00    -0.014 A 
BRANCH  36  37
ATOM     37  C   UNL A   1      41.713  28.093  28.170  1.00  0.00     0.031 A 
ATOM     38  C   UNL A   1      42.743  29.146  27.948  1.00  0.00     0.074 A 
ATOM     39  C   UNL A   1      40.581  28.378  28.851  1.00  0.00     0.049 A 
ATOM     40  N   UNL A   1      43.634  29.560  28.785  1.00  0.00    -0.248 NA
ATOM     41  C   UNL A   1      42.891  29.706  26.594  1.00  0.00     0.031 C 
ATOM     42  C   UNL A   1      39.331  27.614  28.925  1.00  0.00     0.029 A 
ATOM     43  N   UNL A   1      40.275  29.505  29.546  1.00  0.00    -0.354 N 
ATOM     44  C   UNL A   1      44.318  30.589  28.144  1.00  0.00     0.074 A 
ATOM     45  C   UNL A   1      43.945  30.509  26.752  1.00  0.00     0.031 C 
ATOM     46  C   UNL A   1      38.341  28.407  29.392  1.00  0.00     0.029 A 
ATOM     47  C   UNL A   1      38.924  29.660  29.831  1.00  0.00     0.049 A 
ATOM     48  H   UNL A   1      40.956  30.161  29.823  1.00  0.00     0.167 HD
ATOM     49  C   UNL A   1      44.952  31.572  28.842  1.00  0.00     0.031 A 
ATOM     50  C   UNL A   1      38.329  30.755  30.367  1.00  0.00     0.031 A 
ATOM     51  C   UNL A   1      45.101  31.230  30.234  1.00  0.00     0.049 A 
ATOM     52  C   UNL A   1      39.393  31.530  31.051  1.00  0.00     0.074 A 
ATOM     53  C   UNL A   1      45.686  30.179  30.914  1.00  0.00     0.029 A 
ATOM     54  N   UNL A   1      44.230  31.813  31.126  1.00  0.00    -0.354 N 
ATOM     55  N   UNL A   1      40.028  31.099  32.104  1.00  0.00    -0.248 NA
ATOM     56  C   UNL A   1      40.069  32.575  30.298  1.00  0.00     0.031 C 
ATOM     57  C   UNL A   1      44.772  29.874  31.966  1.00  0.00     0.029 A 
ATOM     58  C   UNL A   1      43.735  30.807  31.918  1.00  0.00     0.049 A 
ATOM     59  H   UNL A   1      44.005  32.769  31.186  1.00  0.00     0.167 HD
ATOM     60  C   UNL A   1      41.345  31.485  31.907  1.00  0.00     0.074 A 
ATOM     61  C   UNL A   1      41.292  32.470  30.825  1.00  0.00     0.031 C 
ATOM     62  C   UNL A   1      42.384  30.775  32.440  1.00  0.00     0.031 A 
BRANCH  49  63
ATOM     63  C   UNL A   1      45.084  32.993  28.349  1.00  0.00    -0.014 A 
ATOM     64  C   UNL A   1      46.194  33.761  28.755  1.00  0.00     0.010 A 
ATOM     65  C   UNL A   1      44.026  33.682  27.720  1.00  0.00     0.010 A 
ATOM     66  C   UNL A   1      46.215  35.153  28.589  1.00  0.00     0.020 A 
ATOM     67  C   UNL A   1      44.057  35.061  27.509  1.00  0.00     0.020 A 
ATOM     68  C   UNL A   1      45.139  35.793  27.974  1.00  0.00     0.054 A 
BRANCH  68  69
ATOM     69  S   UNL A   1      45.136  37.598  27.840  1.00  0.00     0.124 S 
ATOM     70  O   UNL A   1      43.834  37.852  27.233  1.00  0.00    -0.237 OA
ATOM     71  O   UNL A   1      45.278  38.011  29.234  1.00  0.00    -0.237 OA
ATOM     72  O   UNL A   1      46.292  37.878  26.992  1.00  0.00    -0.744 OA
ENDBRANCH  68  69
ENDBRANCH  49  63
BRANCH  50  73
ATOM     73  C   UNL A   1      36.989  31.324  30.075  1.00  0.00    -0.014 A 
ATOM     74  C   UNL A   1      36.234  31.928  31.098  1.00  0.00     0.010 A 
ATOM     75  C   UNL A   1      36.588  31.553  28.742  1.00  0.00     0.010 A 
ATOM     76  C   UNL A   1      35.180  32.806  30.799  1.00  0.00     0.020 A 
ATOM     77  C   UNL A   1      35.530  32.419  28.437  1.00  0.00     0.020 A 
ATOM     78  C   UNL A   1      34.854  33.070  29.467  1.00  0.00     0.054 A 
BRANCH  78  79
ATOM     79  S   UNL A   1      33.650  34.378  29.087  1.00  0.00     0.124 S 
ATOM     80  O   UNL A   1      33.092  34.678  30.403  1.00  0.00    -0.237 OA
ATOM     81  O   UNL A   1      34.489  35.421  28.504  1.00  0.00    -0.237 OA
ATOM     82  O   UNL A   1      32.728  33.735  28.153  1.00  0.00    -0.744 OA
ENDBRANCH  78  79
ENDBRANCH  50  73
BRANCH  62  83
ATOM     83  C   UNL A   1      42.089  29.719  33.484  1.00  0.00    -0.014 A 
ATOM     84  C   UNL A   1      41.615  28.424  33.192  1.00  0.00     0.010 A 
ATOM     85  C   UNL A   1      42.446  30.010  34.813  1.00  0.00     0.010 A 
ATOM     86  C   UNL A   1      41.471  27.464  34.208  1.00  0.00     0.020 A 
ATOM     87  C   UNL A   1      42.324  29.055  35.824  1.00  0.00     0.020 A 
ATOM     88  C   UNL A   1      41.826  27.789  35.520  1.00  0.00     0.054 A 
BRANCH  88  89
ATOM     89  S   UNL A   1      41.664  26.541  36.829  1.00  0.00     0.124 S 
ATOM     90  O   UNL A   1      41.646  25.290  36.077  1.00  0.00    -0.237 OA
ATOM     91  O   UNL A   1      42.856  26.768  37.645  1.00  0.00    -0.237 OA
ATOM     92  O   UNL A   1      40.403  26.885  37.485  1.00  0.00    -0.744 OA
ENDBRANCH  88  89
ENDBRANCH  62  83
ENDBRANCH  36  37
ENDBRANCH  28  31
ENDBRANCH  26  27
ENDBRANCH   1  26
TORSDOF 16
ENDMDL
MODEL 2
REMARK VINA RESULT:     -12.0      1.521      2.087
REMARK SMILES Cc1nsc(NC(=O)c2ccc(N)cc2)c1C(=O)NCCCNC(=O)c1ccc(-c2c3nc(c(-c4ccc(S(=O)(=O)[O-])cc4)c4ccc([nH]4)c(-c4ccc(S(=O)(=O)[O-])cc4)c4nc(c(-c5ccc(S(=O)(=O)[O-])cc5)c5ccc2[nH]5)C=C4)C=C3)cc1
REMARK SMILES IDX 21 1 20 2 19 3 17 4 18 5 16 7 1 8 2 9 3 10 4 11 5 12 6 13
REMARK SMILES IDX 7 14 8 16 9 17 10 18 15 19 11 20 14 21 12 22 13 23 22 26
REMARK SMILES IDX 23 27 24 28 25 30 26 31 27 32 85 33 28 34 84 35 29 36 30 37
REMARK SMILES IDX 31 38 78 39 32 40 83 41 77 42 79 43 33 44 82 45 76 46 75 47
REMARK SMILES IDX 34 49 64 50 45 51 63 52 46 53 49 54 62 55 80 56 47 57 48 58
REMARK SMILES IDX 61 60 81 61 50 62 35 63 36 64 44 65 37 66 43 67 38 68 39 69
REMARK SMILES IDX 40 70 41 71 42 72 65 73 66 74 74 75 67 76 73 77 68 78 69 79
REMARK SMILES IDX 70 80 71 81 72 82 51 83 52 84 60 85 53 86 59 87 54 88 55 89
REMARK SMILES IDX 56 90 57 91 58 92
REMARK H PARENT 19 6 6 15 13 24 13 25 23 29 79 48 49 59
REMARK Flexibility Score: inf
ROOT
ATOM      1  C   UNL A   1      38.201  22.134  25.270  1.00  0.00     0.042 C 
ENDROOT
BRANCH   1   2
ATOM      2  C   UNL A   1      36.849  21.431  25.388  1.00  0.00     0.118 C 
BRANCH   2   3
ATOM      3  N   UNL A   1      35.918  22.151  26.221  1.00  0.00    -0.352 N 
ATOM      4  C   UNL A   1      34.640  22.609  26.071  1.00  0.00     0.256 C 
ATOM      5  O   UNL A   1      34.139  22.980  27.141  1.00  0.00    -0.269 OA
ATOM      6  H   UNL A   1      36.293  22.363  27.106  1.00  0.00     0.163 HD
BRANCH   4   7
ATOM      7  C   UNL A   1      33.861  22.720  24.823  1.00  0.00     0.097 A 
ATOM      8  C   UNL A   1      32.806  20.348  24.057  1.00  0.00     0.069 C 
ATOM      9  C   UNL A   1      33.137  21.790  23.947  1.00  0.00     0.066 A 
ATOM     10  N   UNL A   1      32.695  22.298  22.794  1.00  0.00    -0.195 NA
ATOM     11  S   UNL A   1      33.147  23.854  22.669  1.00  0.00    -0.017 S 
ATOM     12  C   UNL A   1      33.729  24.002  24.252  1.00  0.00     0.129 A 
BRANCH  12  13
ATOM     13  N   UNL A   1      34.119  25.228  24.780  1.00  0.00    -0.312 N 
ATOM     14  C   UNL A   1      33.431  26.410  24.962  1.00  0.00     0.256 C 
ATOM     15  H   UNL A   1      35.058  25.258  25.078  1.00  0.00     0.171 HD
ATOM     16  O   UNL A   1      34.017  27.435  25.305  1.00  0.00    -0.269 OA
BRANCH  14  17
ATOM     17  C   UNL A   1      31.967  26.486  24.810  1.00  0.00     0.040 A 
ATOM     18  C   UNL A   1      31.117  25.866  25.733  1.00  0.00     0.016 A 
ATOM     19  C   UNL A   1      31.442  27.144  23.697  1.00  0.00     0.016 A 
ATOM     20  C   UNL A   1      29.749  25.792  25.460  1.00  0.00     0.026 A 
ATOM     21  C   UNL A   1      30.069  27.076  23.446  1.00  0.00     0.026 A 
ATOM     22  C   UNL A   1      29.226  26.342  24.285  1.00  0.00     0.031 A 
BRANCH  22  23
ATOM     23  N   UNL A   1      27.866  26.265  24.020  1.00  0.00    -0.399 N 
ATOM     24  H   UNL A   1      27.223  26.721  24.610  1.00  0.00     0.156 HD
ATOM     25  H   UNL A   1      27.544  25.755  23.243  1.00  0.00     0.156 HD
ENDBRANCH  22  23
ENDBRANCH  14  17
ENDBRANCH  12  13
ENDBRANCH   4   7
ENDBRANCH   2   3
ENDBRANCH   1   2
BRANCH   1  26
ATOM     26  C   UNL A   1      39.195  21.694  26.325  1.00  0.00     0.118 C 
BRANCH  26  27
ATOM     27  N   UNL A   1      40.565  21.680  25.814  1.00  0.00    -0.352 N 
ATOM     28  C   UNL A   1      41.483  22.714  25.807  1.00  0.00     0.251 C 
ATOM     29  H   UNL A   1      40.873  20.828  25.428  1.00  0.00     0.163 HD
ATOM     30  O   UNL A   1      42.439  22.688  25.053  1.00  0.00    -0.269 OA
BRANCH  28  31
ATOM     31  C   UNL A   1      41.256  23.854  26.715  1.00  0.00     0.039 A 
ATOM     32  C   UNL A   1      41.816  23.875  27.993  1.00  0.00     0.014 A 
ATOM     33  C   UNL A   1      40.531  24.941  26.237  1.00  0.00     0.014 A 
ATOM     34  C   UNL A   1      41.717  25.043  28.744  1.00  0.00     0.010 A 
ATOM     35  C   UNL A   1      40.588  26.139  26.901  1.00  0.00     0.010 A 
ATOM     36  C   UNL A   1      41.132  26.190  28.178  1.00  0.00    -0.014 A 
BRANCH  36  37
ATOM     37  C   UNL A   1      41.189  27.472  28.875  1.00  0.00     0.031 A 
ATOM     38  C   UNL A   1      42.228  28.412  28.370  1.00  0.00     0.074 A 
ATOM     39  C   UNL A   1      40.266  27.889  29.769  1.00  0.00     0.049 A 
ATOM     40  N   UNL A   1      43.315  28.774  28.964  1.00  0.00    -0.248 NA
ATOM     41  C   UNL A   1      42.115  28.901  26.985  1.00  0.00     0.031 C 
ATOM     42  C   UNL A   1      39.005  27.250  30.162  1.00  0.00     0.029 A 
ATOM     43  N   UNL A   1      40.218  29.067  30.445  1.00  0.00    -0.354 N 
ATOM     44  C   UNL A   1      43.921  29.707  28.128  1.00  0.00     0.074 A 
ATOM     45  C   UNL A   1      43.241  29.607  26.860  1.00  0.00     0.031 C 
ATOM     46  C   UNL A   1      38.214  28.151  30.786  1.00  0.00     0.029 A 
ATOM     47  C   UNL A   1      38.983  29.360  31.010  1.00  0.00     0.049 A 
ATOM     48  H   UNL A   1      40.996  29.666  30.527  1.00  0.00     0.167 HD
ATOM     49  C   UNL A   1      44.775  30.653  28.610  1.00  0.00     0.031 A 
ATOM     50  C   UNL A   1      38.616  30.526  31.597  1.00  0.00     0.031 A 
ATOM     51  C   UNL A   1      45.202  30.354  29.953  1.00  0.00     0.049 A 
ATOM     52  C   UNL A   1      39.867  31.225  31.983  1.00  0.00     0.074 A 
ATOM     53  C   UNL A   1      45.835  29.281  30.550  1.00  0.00     0.029 A 
ATOM     54  N   UNL A   1      44.605  31.052  30.978  1.00  0.00    -0.354 N 
ATOM     55  N   UNL A   1      40.684  30.778  32.895  1.00  0.00    -0.248 NA
ATOM     56  C   UNL A   1      40.442  32.170  31.039  1.00  0.00     0.031 C 
ATOM     57  C   UNL A   1      45.158  29.105  31.794  1.00  0.00     0.029 A 
ATOM     58  C   UNL A   1      44.218  30.129  31.918  1.00  0.00     0.049 A 
ATOM     59  H   UNL A   1      44.479  32.027  31.029  1.00  0.00     0.167 HD
ATOM     60  C   UNL A   1      41.951  31.029  32.391  1.00  0.00     0.074 A 
ATOM     61  C   UNL A   1      41.739  31.971  31.291  1.00  0.00     0.031 C 
ATOM     62  C   UNL A   1      43.020  30.246  32.725  1.00  0.00     0.031 A 
BRANCH  49  63
ATOM     63  C   UNL A   1      44.911  32.034  28.016  1.00  0.00    -0.014 A 
ATOM     64  C   UNL A   1      46.163  32.448  27.518  1.00  0.00     0.010 A 
ATOM     65  C   UNL A   1      43.924  33.030  28.171  1.00  0.00     0.010 A 
ATOM     66  C   UNL A   1      46.427  33.797  27.245  1.00  0.00     0.020 A 
ATOM     67  C   UNL A   1      44.162  34.369  27.858  1.00  0.00     0.020 A 
ATOM     68  C   UNL A   1      45.424  34.750  27.427  1.00  0.00     0.054 A 
BRANCH  68  69
ATOM     69  S   UNL A   1      45.798  36.499  27.152  1.00  0.00     0.124 S 
ATOM     70  O   UNL A   1      46.687  36.438  25.997  1.00  0.00    -0.237 OA
ATOM     71  O   UNL A   1      44.474  37.062  26.905  1.00  0.00    -0.237 OA
ATOM     72  O   UNL A   1      46.422  36.915  28.406  1.00  0.00    -0.744 OA
ENDBRANCH  68  69
ENDBRANCH  49  63
BRANCH  50  73
ATOM     73  C   UNL A   1      37.297  31.208  31.572  1.00  0.00    -0.014 A 
ATOM     74  C   UNL A   1      36.575  31.403  32.765  1.00  0.00     0.010 A 
ATOM     75  C   UNL A   1      36.894  31.937  30.434  1.00  0.00     0.010 A 
ATOM     76  C   UNL A   1      35.553  32.364  32.844  1.00  0.00     0.020 A 
ATOM     77  C   UNL A   1      35.868  32.889  30.503  1.00  0.00     0.020 A 
ATOM     78  C   UNL A   1      35.227  33.122  31.718  1.00  0.00     0.054 A 
BRANCH  78  79
ATOM     79  S   UNL A   1      34.071  34.515  31.888  1.00  0.00     0.124 S 
ATOM     80  O   UNL A   1      34.951  35.601  32.311  1.00  0.00    -0.237 OA
ATOM     81  O   UNL A   1      33.521  34.637  30.540  1.00  0.00    -0.237 OA
ATOM     82  O   UNL A   1      33.123  34.054  32.900  1.00  0.00    -0.744 OA
ENDBRANCH  78  79
ENDBRANCH  50  73
BRANCH  62  83
ATOM     83  C   UNL A   1      42.879  29.266  33.870  1.00  0.00    -0.014 A 
ATOM     84  C   UNL A   1      43.175  29.567  35.215  1.00  0.00     0.010 A 
ATOM     85  C   UNL A   1      42.282  28.024  33.585  1.00  0.00     0.010 A 
ATOM     86  C   UNL A   1      42.913  28.638  36.236  1.00  0.00     0.020 A 
ATOM     87  C   UNL A   1      42.000  27.105  34.597  1.00  0.00     0.020 A 
ATOM     88  C   UNL A   1      42.327  27.410  35.917  1.00  0.00     0.054 A 
BRANCH  88  89
ATOM     89  S   UNL A   1      41.964  26.219  37.238  1.00  0.00     0.124 S 
ATOM     90  O   UNL A   1      42.060  24.936  36.547  1.00  0.00    -0.237 OA
ATOM     91  O   UNL A   1      43.017  26.487  38.217  1.00  0.00    -0.237 OA
ATOM     92  O   UNL A   1      40.617  26.584  37.677  1.00  0.00    -0.744 OA
ENDBRANCH  88  89
ENDBRANCH  62  83
ENDBRANCH  36  37
ENDBRANCH  28  31
ENDBRANCH  26  27
ENDBRANCH   1  26
TORSDOF 16
ENDMDL
MODEL 3
REMARK VINA RESULT:     -12.0      1.278      1.687
REMARK SMILES Cc1nsc(NC(=O)c2ccc(N)cc2)c1C(=O)NCCCNC(=O)c1ccc(-c2c3nc(c(-c4ccc(S(=O)(=O)[O-])cc4)c4ccc([nH]4)c(-c4ccc(S(=O)(=O)[O-])cc4)c4nc(c(-c5ccc(S(=O)(=O)[O-])cc5)c5ccc2[nH]5)C=C4)C=C3)cc1
REMARK SMILES IDX 21 1 20 2 19 3 17 4 18 5 16 7 1 8 2 9 3 10 4 11 5 12 6 13
REMARK SMILES IDX 7 14 8 16 9 17 10 18 15 19 11 20 14 21 12 22 13 23 22 26
REMARK SMILES IDX 23 27 24 28 25 30 26 31 27 32 85 33 28 34 84 35 29 36 30 37
REMARK SMILES IDX 31 38 78 39 32 40 83 41 77 42 79 43 33 44 82 45 76 46 75 47
REMARK SMILES IDX 34 49 64 50 45 51 63 52 46 53 49 54 62 55 80 56 47 57 48 58
REMARK SMILES IDX 61 60 81 61 50 62 35 63 36 64 44 65 37 66 43 67 38 68 39 69
REMARK SMILES IDX 40 70 41 71 42 72 65 73 66 74 74 75 67 76 73 77 68 78 69 79
REMARK SMILES IDX 70 80 71 81 72 82 51 83 52 84 60 85 53 86 59 87 54 88 55 89
REMARK SMILES IDX 56 90 57 91 58 92
REMARK H PARENT 19 6 6 15 13 24 13 25 23 29 79 48 49 59
REMARK Flexibility Score: inf
ROOT
ATOM      1  C   UNL A   1      38.212  21.901  25.755  1.00  0.00     0.042 C 
ENDROOT
BRANCH   1   2
ATOM      2  C   UNL A   1      36.999  22.774  25.431  1.00  0.00     0.118 C 
BRANCH   2   3
ATOM      3  N   UNL A   1      36.012  22.767  26.482  1.00  0.00    -0.352 N 
ATOM      4  C   UNL A   1      34.898  22.027  26.757  1.00  0.00     0.256 C 
ATOM      5  O   UNL A   1      34.472  22.217  27.904  1.00  0.00    -0.269 OA
ATOM      6  H   UNL A   1      36.182  23.459  27.161  1.00  0.00     0.163 HD
BRANCH   4   7
ATOM      7  C   UNL A   1      34.185  21.100  25.857  1.00  0.00     0.097 A 
ATOM      8  C   UNL A   1      35.836  19.253  24.766  1.00  0.00     0.069 C 
ATOM      9  C   UNL A   1      34.560  19.979  24.986  1.00  0.00     0.066 A 
ATOM     10  N   UNL A   1      33.595  19.505  24.195  1.00  0.00    -0.195 NA
ATOM     11  S   UNL A   1      32.239  20.376  24.400  1.00  0.00    -0.017 S 
ATOM     12  C   UNL A   1      32.790  21.259  25.735  1.00  0.00     0.129 A 
BRANCH  12  13
ATOM     13  N   UNL A   1      31.948  22.093  26.463  1.00  0.00    -0.312 N 
ATOM     14  C   UNL A   1      31.583  23.411  26.284  1.00  0.00     0.256 C 
ATOM     15  H   UNL A   1      31.537  21.665  27.250  1.00  0.00     0.171 HD
ATOM     16  O   UNL A   1      30.942  24.012  27.145  1.00  0.00    -0.269 OA
BRANCH  14  17
ATOM     17  C   UNL A   1      31.892  24.140  25.040  1.00  0.00     0.040 A 
ATOM     18  C   UNL A   1      33.085  24.857  24.907  1.00  0.00     0.016 A 
ATOM     19  C   UNL A   1      30.946  24.144  24.014  1.00  0.00     0.016 A 
ATOM     20  C   UNL A   1      33.263  25.689  23.799  1.00  0.00     0.026 A 
ATOM     21  C   UNL A   1      31.146  24.968  22.903  1.00  0.00     0.026 A 
ATOM     22  C   UNL A   1      32.269  25.798  22.823  1.00  0.00     0.031 A 
BRANCH  22  23
ATOM     23  N   UNL A   1      32.452  26.626  21.724  1.00  0.00    -0.399 N 
ATOM     24  H   UNL A   1      32.349  26.266  20.813  1.00  0.00     0.156 HD
ATOM     25  H   UNL A   1      32.683  27.573  21.856  1.00  0.00     0.156 HD
ENDBRANCH  22  23
ENDBRANCH  14  17
ENDBRANCH  12  13
ENDBRANCH   4   7
ENDBRANCH   2   3
ENDBRANCH   1   2
BRANCH   1  26
ATOM     26  C   UNL A   1      39.355  22.676  26.376  1.00  0.00     0.118 C 
BRANCH  26  27
ATOM     27  N   UNL A   1      40.657  22.119  26.010  1.00  0.00    -0.352 N 
ATOM     28  C   UNL A   1      41.848  22.793  25.812  1.00  0.00     0.251 C 
ATOM     29  H   UNL A   1      40.689  21.142  25.889  1.00  0.00     0.163 HD
ATOM     30  O   UNL A   1      42.753  22.278  25.179  1.00  0.00    -0.269 OA
BRANCH  28  31
ATOM     31  C   UNL A   1      41.979  24.153  26.364  1.00  0.00     0.039 A 
ATOM     32  C   UNL A   1      41.506  25.262  25.661  1.00  0.00     0.014 A 
ATOM     33  C   UNL A   1      42.521  24.296  27.638  1.00  0.00     0.014 A 
ATOM     34  C   UNL A   1      41.496  26.500  26.298  1.00  0.00     0.010 A 
ATOM     35  C   UNL A   1      42.348  25.473  28.321  1.00  0.00     0.010 A 
ATOM     36  C   UNL A   1      41.886  26.596  27.645  1.00  0.00    -0.014 A 
BRANCH  36  37
ATOM     37  C   UNL A   1      41.704  27.843  28.383  1.00  0.00     0.031 A 
ATOM     38  C   UNL A   1      42.759  28.867  28.150  1.00  0.00     0.074 A 
ATOM     39  C   UNL A   1      40.583  28.159  29.069  1.00  0.00     0.049 A 
ATOM     40  N   UNL A   1      43.665  29.262  28.980  1.00  0.00    -0.248 NA
ATOM     41  C   UNL A   1      42.914  29.417  26.793  1.00  0.00     0.031 C 
ATOM     42  C   UNL A   1      39.314  27.428  29.154  1.00  0.00     0.029 A 
ATOM     43  N   UNL A   1      40.310  29.297  29.760  1.00  0.00    -0.354 N 
ATOM     44  C   UNL A   1      44.371  30.271  28.330  1.00  0.00     0.074 A 
ATOM     45  C   UNL A   1      43.989  30.194  26.941  1.00  0.00     0.031 C 
ATOM     46  C   UNL A   1      38.348  28.248  29.622  1.00  0.00     0.029 A 
ATOM     47  C   UNL A   1      38.965  29.488  30.052  1.00  0.00     0.049 A 
ATOM     48  H   UNL A   1      41.009  29.936  30.031  1.00  0.00     0.167 HD
ATOM     49  C   UNL A   1      45.034  31.241  29.021  1.00  0.00     0.031 A 
ATOM     50  C   UNL A   1      38.401  30.600  30.586  1.00  0.00     0.031 A 
ATOM     51  C   UNL A   1      45.182  30.901  30.413  1.00  0.00     0.049 A 
ATOM     52  C   UNL A   1      39.489  31.351  31.260  1.00  0.00     0.074 A 
ATOM     53  C   UNL A   1      45.745  29.839  31.095  1.00  0.00     0.029 A 
ATOM     54  N   UNL A   1      44.332  31.510  31.307  1.00  0.00    -0.354 N 
ATOM     55  N   UNL A   1      40.119  30.909  32.312  1.00  0.00    -0.248 NA
ATOM     56  C   UNL A   1      40.187  32.374  30.499  1.00  0.00     0.031 C 
ATOM     57  C   UNL A   1      44.829  29.562  32.153  1.00  0.00     0.029 A 
ATOM     58  C   UNL A   1      43.816  30.520  32.106  1.00  0.00     0.049 A 
ATOM     59  H   UNL A   1      44.131  32.472  31.364  1.00  0.00     0.167 HD
ATOM     60  C   UNL A   1      41.444  31.260  32.106  1.00  0.00     0.074 A 
ATOM     61  C   UNL A   1      41.410  32.241  31.020  1.00  0.00     0.031 C 
ATOM     62  C   UNL A   1      42.468  30.526  32.636  1.00  0.00     0.031 A 
BRANCH  49  63
ATOM     63  C   UNL A   1      45.200  32.655  28.520  1.00  0.00    -0.014 A 
ATOM     64  C   UNL A   1      46.478  33.250  28.550  1.00  0.00     0.010 A 
ATOM     65  C   UNL A   1      44.104  33.508  28.271  1.00  0.00     0.010 A 
ATOM     66  C   UNL A   1      46.640  34.634  28.395  1.00  0.00     0.020 A 
ATOM     67  C   UNL A   1      44.259  34.880  28.071  1.00  0.00     0.020 A 
ATOM     68  C   UNL A   1      45.524  35.440  28.165  1.00  0.00     0.054 A 
BRANCH  68  69
ATOM     69  S   UNL A   1      45.732  37.234  28.050  1.00  0.00     0.124 S 
ATOM     70  O   UNL A   1      47.024  37.344  27.380  1.00  0.00    -0.237 OA
ATOM     71  O   UNL A   1      44.571  37.628  27.258  1.00  0.00    -0.237 OA
ATOM     72  O   UNL A   1      45.707  37.670  29.444  1.00  0.00    -0.744 OA
ENDBRANCH  68  69
ENDBRANCH  49  63
BRANCH  50  73
ATOM     73  C   UNL A   1      37.074  31.202  30.299  1.00  0.00    -0.014 A 
ATOM     74  C   UNL A   1      36.299  31.743  31.340  1.00  0.00     0.010 A 
ATOM     75  C   UNL A   1      36.711  31.524  28.975  1.00  0.00     0.010 A 
ATOM     76  C   UNL A   1      35.260  32.651  31.074  1.00  0.00     0.020 A 
ATOM     77  C   UNL A   1      35.670  32.421  28.701  1.00  0.00     0.020 A 
ATOM     78  C   UNL A   1      34.973  33.007  29.755  1.00  0.00     0.054 A 
BRANCH  78  79
ATOM     79  S   UNL A   1      33.790  34.350  29.434  1.00  0.00     0.124 S 
ATOM     80  O   UNL A   1      34.603  35.310  28.692  1.00  0.00    -0.237 OA
ATOM     81  O   UNL A   1      32.747  33.677  28.665  1.00  0.00    -0.237 OA
ATOM     82  O   UNL A   1      33.387  34.781  30.771  1.00  0.00    -0.744 OA
ENDBRANCH  78  79
ENDBRANCH  50  73
BRANCH  62  83
ATOM     83  C   UNL A   1      42.151  29.482  33.687  1.00  0.00    -0.014 A 
ATOM     84  C   UNL A   1      41.654  28.195  33.403  1.00  0.00     0.010 A 
ATOM     85  C   UNL A   1      42.512  29.776  35.015  1.00  0.00     0.010 A 
ATOM     86  C   UNL A   1      41.490  27.244  34.425  1.00  0.00     0.020 A 
ATOM     87  C   UNL A   1      42.371  28.830  36.032  1.00  0.00     0.020 A 
ATOM     88  C   UNL A   1      41.850  27.572  35.736  1.00  0.00     0.054 A 
BRANCH  88  89
ATOM     89  S   UNL A   1      41.663  26.336  37.053  1.00  0.00     0.124 S 
ATOM     90  O   UNL A   1      42.842  26.573  37.881  1.00  0.00    -0.237 OA
ATOM     91  O   UNL A   1      40.383  26.698  37.660  1.00  0.00    -0.237 OA
ATOM     92  O   UNL A   1      41.659  25.061  36.337  1.00  0.00    -0.744 OA
ENDBRANCH  88  89
ENDBRANCH  62  83
ENDBRANCH  36  37
ENDBRANCH  28  31
ENDBRANCH  26  27
ENDBRANCH   1  26
TORSDOF 16
ENDMDL
