MODEL 1
REMARK VINA RESULT:     -11.5      0.000      0.000
REMARK SMILES CCC(CC)(NC(=O)c1cc([N+](=O)[O-])c[nH]1)C(=O)NCCCNC(=O)c1ccc(-c2c3nc(c(-c4ccc(S(=O)(=O)[O-])cc4)c4ccc([nH]4)c(-c4ccc(S(=O)(=O)[O-])cc4)c4nc(c(-c5ccc(S(=O)(=O)[O-])cc5)c5ccc2[nH]5)C=C4)C=C3)cc1
REMARK SMILES IDX 21 1 20 2 19 3 17 4 18 5 3 7 2 8 1 9 4 10 5 11 6 12 7 13
REMARK SMILES IDX 8 15 9 16 10 17 16 18 11 19 15 20 12 22 13 23 14 24 22 25
REMARK SMILES IDX 23 26 24 27 25 29 26 30 27 31 85 32 28 33 84 34 29 35 30 36
REMARK SMILES IDX 31 37 78 38 32 39 83 40 77 41 79 42 33 43 82 44 76 45 75 46
REMARK SMILES IDX 34 48 64 49 45 50 63 51 46 52 49 53 62 54 80 55 47 56 48 57
REMARK SMILES IDX 61 59 81 60 50 61 35 62 36 63 44 64 37 65 43 66 38 67 39 68
REMARK SMILES IDX 40 69 41 70 42 71 65 72 66 73 74 74 67 75 73 76 68 77 69 78
REMARK SMILES IDX 70 79 71 80 72 81 51 82 52 83 60 84 53 85 59 86 54 87 55 88
REMARK SMILES IDX 56 89 57 90 58 91
REMARK H PARENT 19 6 6 14 16 21 23 28 79 47 49 58
REMARK Flexibility Score: inf
ROOT
ATOM      1  C   UNL A   1      37.425  19.990  24.814  1.00  0.00     0.042 C 
ENDROOT
BRANCH   1   2
ATOM      2  C   UNL A   1      36.100  20.732  25.018  1.00  0.00     0.117 C 
BRANCH   2   3
ATOM      3  N   UNL A   1      34.928  19.946  25.399  1.00  0.00    -0.354 N 
ATOM      4  C   UNL A   1      33.584  20.224  25.511  1.00  0.00     0.245 C 
ATOM      5  O   UNL A   1      32.836  19.250  25.639  1.00  0.00    -0.272 OA
ATOM      6  H   UNL A   1      35.148  19.014  25.625  1.00  0.00     0.163 HD
BRANCH   4   7
ATOM      7  C   UNL A   1      33.019  21.657  25.329  1.00  0.00     0.118 C 
BRANCH   7   8
ATOM      8  C   UNL A   1      33.221  22.287  23.917  1.00  0.00     0.035 C 
ATOM      9  C   UNL A   1      32.368  21.785  22.759  1.00  0.00     0.007 C 
ENDBRANCH   7   8
BRANCH   7  10
ATOM     10  C   UNL A   1      33.836  22.469  26.397  1.00  0.00     0.035 C 
ATOM     11  C   UNL A   1      33.628  22.137  27.864  1.00  0.00     0.007 C 
ENDBRANCH   7  10
BRANCH   7  12
ATOM     12  N   UNL A   1      31.553  21.678  25.588  1.00  0.00    -0.336 N 
ATOM     13  C   UNL A   1      30.739  22.704  26.054  1.00  0.00     0.268 C 
ATOM     14  H   UNL A   1      31.086  20.832  25.398  1.00  0.00     0.165 HD
ATOM     15  O   UNL A   1      29.793  22.341  26.752  1.00  0.00    -0.268 OA
BRANCH  13  16
ATOM     16  C   UNL A   1      30.916  24.116  25.727  1.00  0.00     0.111 A 
ATOM     17  C   UNL A   1      30.683  24.878  24.598  1.00  0.00     0.119 A 
ATOM     18  N   UNL A   1      31.279  25.049  26.698  1.00  0.00    -0.351 N 
ATOM     19  C   UNL A   1      30.903  26.252  24.868  1.00  0.00     0.287 A 
ATOM     20  C   UNL A   1      31.269  26.328  26.190  1.00  0.00     0.169 A 
ATOM     21  H   UNL A   1      31.511  24.822  27.627  1.00  0.00     0.166 HD
BRANCH  19  22
ATOM     22  N   UNL A   1      30.692  27.333  23.938  1.00  0.00     0.064 N 
ATOM     23  O   UNL A   1      31.578  28.179  23.827  1.00  0.00    -0.258 OA
ATOM     24  O   UNL A   1      29.571  27.379  23.402  1.00  0.00    -0.258 OA
ENDBRANCH  19  22
ENDBRANCH  13  16
ENDBRANCH   7  12
ENDBRANCH   4   7
ENDBRANCH   2   3
ENDBRANCH   1   2
BRANCH   1  25
ATOM     25  C   UNL A   1      38.576  20.449  25.697  1.00  0.00     0.118 C 
BRANCH  25  26
ATOM     26  N   UNL A   1      39.610  19.446  25.854  1.00  0.00    -0.352 N 
ATOM     27  C   UNL A   1      40.956  19.586  26.101  1.00  0.00     0.251 C 
ATOM     28  H   UNL A   1      39.299  18.516  25.771  1.00  0.00     0.163 HD
ATOM     29  O   UNL A   1      41.662  18.589  25.964  1.00  0.00    -0.269 OA
BRANCH  27  30
ATOM     30  C   UNL A   1      41.584  20.877  26.502  1.00  0.00     0.039 A 
ATOM     31  C   UNL A   1      42.044  21.723  25.478  1.00  0.00     0.014 A 
ATOM     32  C   UNL A   1      41.823  21.242  27.829  1.00  0.00     0.014 A 
ATOM     33  C   UNL A   1      42.687  22.924  25.782  1.00  0.00     0.010 A 
ATOM     34  C   UNL A   1      42.451  22.445  28.138  1.00  0.00     0.010 A 
ATOM     35  C   UNL A   1      42.875  23.294  27.117  1.00  0.00    -0.014 A 
BRANCH  35  36
ATOM     36  C   UNL A   1      43.383  24.644  27.453  1.00  0.00     0.031 A 
ATOM     37  C   UNL A   1      42.236  25.653  27.641  1.00  0.00     0.074 A 
ATOM     38  C   UNL A   1      44.741  24.807  27.516  1.00  0.00     0.049 A 
ATOM     39  N   UNL A   1      42.224  26.934  27.446  1.00  0.00    -0.248 NA
ATOM     40  C   UNL A   1      40.880  25.167  28.031  1.00  0.00     0.031 C 
ATOM     41  C   UNL A   1      45.727  23.709  27.380  1.00  0.00     0.029 A 
ATOM     42  N   UNL A   1      45.577  25.893  27.709  1.00  0.00    -0.354 N 
ATOM     43  C   UNL A   1      40.951  27.424  27.819  1.00  0.00     0.074 A 
ATOM     44  C   UNL A   1      40.138  26.277  28.085  1.00  0.00     0.031 C 
ATOM     45  C   UNL A   1      46.993  24.185  27.404  1.00  0.00     0.029 A 
ATOM     46  C   UNL A   1      46.968  25.624  27.575  1.00  0.00     0.049 A 
ATOM     47  H   UNL A   1      45.233  26.790  27.923  1.00  0.00     0.167 HD
ATOM     48  C   UNL A   1      40.684  28.752  27.999  1.00  0.00     0.031 A 
ATOM     49  C   UNL A   1      48.024  26.497  27.559  1.00  0.00     0.031 A 
ATOM     50  C   UNL A   1      41.851  29.518  27.724  1.00  0.00     0.049 A 
ATOM     51  C   UNL A   1      47.466  27.814  27.894  1.00  0.00     0.074 A 
ATOM     52  C   UNL A   1      42.512  29.810  26.561  1.00  0.00     0.029 A 
ATOM     53  N   UNL A   1      42.679  29.759  28.796  1.00  0.00    -0.354 N 
ATOM     54  N   UNL A   1      47.084  28.180  29.077  1.00  0.00    -0.248 NA
ATOM     55  C   UNL A   1      47.283  28.802  26.822  1.00  0.00     0.031 C 
ATOM     56  C   UNL A   1      43.867  29.721  26.940  1.00  0.00     0.029 A 
ATOM     57  C   UNL A   1      43.960  29.613  28.334  1.00  0.00     0.049 A 
ATOM     58  H   UNL A   1      42.404  29.989  29.713  1.00  0.00     0.167 HD
ATOM     59  C   UNL A   1      46.257  29.237  28.796  1.00  0.00     0.074 A 
ATOM     60  C   UNL A   1      46.688  29.767  27.518  1.00  0.00     0.031 C 
ATOM     61  C   UNL A   1      44.985  29.219  29.272  1.00  0.00     0.031 A 
BRANCH  48  62
ATOM     62  C   UNL A   1      39.536  29.488  28.636  1.00  0.00    -0.014 A 
ATOM     63  C   UNL A   1      38.269  29.366  28.004  1.00  0.00     0.010 A 
ATOM     64  C   UNL A   1      39.700  30.526  29.562  1.00  0.00     0.010 A 
ATOM     65  C   UNL A   1      37.265  30.321  28.171  1.00  0.00     0.020 A 
ATOM     66  C   UNL A   1      38.677  31.471  29.766  1.00  0.00     0.020 A 
ATOM     67  C   UNL A   1      37.491  31.392  29.027  1.00  0.00     0.054 A 
BRANCH  67  68
ATOM     68  S   UNL A   1      36.250  32.713  29.087  1.00  0.00     0.124 S 
ATOM     69  O   UNL A   1      35.845  32.820  27.689  1.00  0.00    -0.237 OA
ATOM     70  O   UNL A   1      35.242  32.160  29.990  1.00  0.00    -0.237 OA
ATOM     71  O   UNL A   1      36.990  33.855  29.618  1.00  0.00    -0.744 OA
ENDBRANCH  67  68
ENDBRANCH  48  62
BRANCH  49  72
ATOM     72  C   UNL A   1      49.498  26.503  27.206  1.00  0.00    -0.014 A 
ATOM     73  C   UNL A   1      50.572  26.586  28.098  1.00  0.00     0.010 A 
ATOM     74  C   UNL A   1      49.853  26.257  25.845  1.00  0.00     0.010 A 
ATOM     75  C   UNL A   1      51.893  26.278  27.681  1.00  0.00     0.020 A 
ATOM     76  C   UNL A   1      51.136  25.896  25.432  1.00  0.00     0.020 A 
ATOM     77  C   UNL A   1      52.153  25.876  26.365  1.00  0.00     0.054 A 
BRANCH  77  78
ATOM     78  S   UNL A   1      53.763  25.179  25.891  1.00  0.00     0.124 S 
ATOM     79  O   UNL A   1      54.507  25.218  27.146  1.00  0.00    -0.237 OA
ATOM     80  O   UNL A   1      53.409  23.847  25.406  1.00  0.00    -0.237 OA
ATOM     81  O   UNL A   1      54.238  26.096  24.855  1.00  0.00    -0.744 OA
ENDBRANCH  77  78
ENDBRANCH  49  72
BRANCH  61  82
ATOM     82  C   UNL A   1      44.772  28.394  30.540  1.00  0.00    -0.014 A 
ATOM     83  C   UNL A   1      44.179  27.120  30.448  1.00  0.00     0.010 A 
ATOM     84  C   UNL A   1      45.046  28.878  31.836  1.00  0.00     0.010 A 
ATOM     85  C   UNL A   1      43.861  26.368  31.590  1.00  0.00     0.020 A 
ATOM     86  C   UNL A   1      44.733  28.130  32.992  1.00  0.00     0.020 A 
ATOM     87  C   UNL A   1      44.142  26.874  32.859  1.00  0.00     0.054 A 
BRANCH  87  88
ATOM     88  S   UNL A   1      43.740  25.854  34.311  1.00  0.00     0.124 S 
ATOM     89  O   UNL A   1      43.847  24.492  33.792  1.00  0.00    -0.237 OA
ATOM     90  O   UNL A   1      44.779  26.237  35.265  1.00  0.00    -0.237 OA
ATOM     91  O   UNL A   1      42.389  26.274  34.682  1.00  0.00    -0.744 OA
ENDBRANCH  87  88
ENDBRANCH  61  82
ENDBRANCH  35  36
ENDBRANCH  27  30
ENDBRANCH  25  26
ENDBRANCH   1  25
TORSDOF 18
ENDMDL
MODEL 2
REMARK VINA RESULT:     -11.1      3.516      9.037
REMARK SMILES CCC(CC)(NC(=O)c1cc([N+](=O)[O-])c[nH]1)C(=O)NCCCNC(=O)c1ccc(-c2c3nc(c(-c4ccc(S(=O)(=O)[O-])cc4)c4ccc([nH]4)c(-c4ccc(S(=O)(=O)[O-])cc4)c4nc(c(-c5ccc(S(=O)(=O)[O-])cc5)c5ccc2[nH]5)C=C4)C=C3)cc1
REMARK SMILES IDX 21 1 20 2 19 3 17 4 18 5 3 7 2 8 1 9 4 10 5 11 6 12 7 13
REMARK SMILES IDX 8 15 9 16 10 17 16 18 11 19 15 20 12 22 13 23 14 24 22 25
REMARK SMILES IDX 23 26 24 27 25 29 26 30 27 31 85 32 28 33 84 34 29 35 30 36
REMARK SMILES IDX 31 37 78 38 32 39 83 40 77 41 79 42 33 43 82 44 76 45 75 46
REMARK SMILES IDX 34 48 64 49 45 50 63 51 46 52 49 53 62 54 80 55 47 56 48 57
REMARK SMILES IDX 61 59 81 60 50 61 35 62 36 63 44 64 37 65 43 66 38 67 39 68
REMARK SMILES IDX 40 69 41 70 42 71 65 72 66 73 74 74 67 75 73 76 68 77 69 78
REMARK SMILES IDX 70 79 71 80 72 81 51 82 52 83 60 84 53 85 59 86 54 87 55 88
REMARK SMILES IDX 56 89 57 90 58 91
REMARK H PARENT 19 6 6 14 16 21 23 28 79 47 49 58
REMARK Flexibility Score: inf
ROOT
ATOM      1  C   UNL A   1      33.161  28.364  26.945  1.00  0.00     0.042 C 
ENDROOT
BRANCH   1   2
ATOM      2  C   UNL A   1      32.844  26.951  26.442  1.00  0.00     0.117 C 
BRANCH   2   3
ATOM      3  N   UNL A   1      31.524  26.714  25.861  1.00  0.00    -0.354 N 
ATOM      4  C   UNL A   1      31.010  26.800  24.586  1.00  0.00     0.245 C 
ATOM      5  O   UNL A   1      29.894  26.300  24.415  1.00  0.00    -0.272 OA
ATOM      6  H   UNL A   1      30.857  26.431  26.527  1.00  0.00     0.163 HD
BRANCH   4   7
ATOM      7  C   UNL A   1      31.841  27.348  23.396  1.00  0.00     0.118 C 
BRANCH   7   8
ATOM      8  C   UNL A   1      33.301  27.779  23.735  1.00  0.00     0.035 C 
ATOM      9  C   UNL A   1      34.109  28.531  22.686  1.00  0.00     0.007 C 
ENDBRANCH   7   8
BRANCH   7  10
ATOM     10  C   UNL A   1      31.002  28.603  22.962  1.00  0.00     0.035 C 
ATOM     11  C   UNL A   1      30.707  29.665  24.005  1.00  0.00     0.007 C 
ENDBRANCH   7  10
BRANCH   7  12
ATOM     12  N   UNL A   1      31.948  26.326  22.319  1.00  0.00    -0.336 N 
ATOM     13  C   UNL A   1      32.679  25.144  22.274  1.00  0.00     0.268 C 
ATOM     14  H   UNL A   1      31.417  26.517  21.512  1.00  0.00     0.165 HD
ATOM     15  O   UNL A   1      33.101  24.836  21.160  1.00  0.00    -0.268 OA
BRANCH  13  16
ATOM     16  C   UNL A   1      32.912  24.270  23.419  1.00  0.00     0.111 A 
ATOM     17  C   UNL A   1      32.273  23.153  23.923  1.00  0.00     0.119 A 
ATOM     18  N   UNL A   1      34.059  24.387  24.205  1.00  0.00    -0.351 N 
ATOM     19  C   UNL A   1      33.009  22.597  24.999  1.00  0.00     0.287 A 
ATOM     20  C   UNL A   1      34.124  23.387  25.148  1.00  0.00     0.169 A 
ATOM     21  H   UNL A   1      34.736  25.094  24.097  1.00  0.00     0.166 HD
BRANCH  19  22
ATOM     22  N   UNL A   1      32.668  21.393  25.715  1.00  0.00     0.064 N 
ATOM     23  O   UNL A   1      33.331  21.107  26.710  1.00  0.00    -0.258 OA
ATOM     24  O   UNL A   1      31.794  20.680  25.193  1.00  0.00    -0.258 OA
ENDBRANCH  19  22
ENDBRANCH  13  16
ENDBRANCH   7  12
ENDBRANCH   4   7
ENDBRANCH   2   3
ENDBRANCH   1   2
BRANCH   1  25
ATOM     25  C   UNL A   1      34.628  28.767  26.887  1.00  0.00     0.118 C 
BRANCH  25  26
ATOM     26  N   UNL A   1      34.869  30.114  27.362  1.00  0.00    -0.352 N 
ATOM     27  C   UNL A   1      35.872  30.610  28.163  1.00  0.00     0.251 C 
ATOM     28  H   UNL A   1      34.209  30.781  27.064  1.00  0.00     0.163 HD
ATOM     29  O   UNL A   1      35.727  31.745  28.610  1.00  0.00    -0.269 OA
BRANCH  27  30
ATOM     30  C   UNL A   1      37.094  29.833  28.518  1.00  0.00     0.039 A 
ATOM     31  C   UNL A   1      38.203  29.938  27.662  1.00  0.00     0.014 A 
ATOM     32  C   UNL A   1      37.159  28.943  29.593  1.00  0.00     0.014 A 
ATOM     33  C   UNL A   1      39.362  29.199  27.905  1.00  0.00     0.010 A 
ATOM     34  C   UNL A   1      38.318  28.215  29.848  1.00  0.00     0.010 A 
ATOM     35  C   UNL A   1      39.425  28.349  29.013  1.00  0.00    -0.014 A 
BRANCH  35  36
ATOM     36  C   UNL A   1      40.706  27.707  29.390  1.00  0.00     0.031 A 
ATOM     37  C   UNL A   1      40.981  26.448  28.546  1.00  0.00     0.074 A 
ATOM     38  C   UNL A   1      41.419  28.277  30.409  1.00  0.00     0.049 A 
ATOM     39  N   UNL A   1      41.651  25.382  28.851  1.00  0.00    -0.248 NA
ATOM     40  C   UNL A   1      40.363  26.313  27.196  1.00  0.00     0.031 C 
ATOM     41  C   UNL A   1      41.055  29.546  31.083  1.00  0.00     0.029 A 
ATOM     42  N   UNL A   1      42.577  27.939  31.086  1.00  0.00    -0.354 N 
ATOM     43  C   UNL A   1      41.670  24.535  27.718  1.00  0.00     0.074 A 
ATOM     44  C   UNL A   1      40.783  25.122  26.761  1.00  0.00     0.031 C 
ATOM     45  C   UNL A   1      41.900  29.816  32.104  1.00  0.00     0.029 A 
ATOM     46  C   UNL A   1      42.904  28.775  32.191  1.00  0.00     0.049 A 
ATOM     47  H   UNL A   1      43.136  27.173  30.823  1.00  0.00     0.167 HD
ATOM     48  C   UNL A   1      42.509  23.464  27.599  1.00  0.00     0.031 A 
ATOM     49  C   UNL A   1      43.885  28.621  33.136  1.00  0.00     0.031 A 
ATOM     50  C   UNL A   1      43.299  23.339  28.775  1.00  0.00     0.049 A 
ATOM     51  C   UNL A   1      44.697  27.479  32.696  1.00  0.00     0.074 A 
ATOM     52  C   UNL A   1      42.997  22.958  30.056  1.00  0.00     0.029 A 
ATOM     53  N   UNL A   1      44.501  24.009  28.767  1.00  0.00    -0.354 N 
ATOM     54  N   UNL A   1      45.542  27.503  31.713  1.00  0.00    -0.248 NA
ATOM     55  C   UNL A   1      44.537  26.188  33.379  1.00  0.00     0.031 C 
ATOM     56  C   UNL A   1      43.758  23.851  30.837  1.00  0.00     0.029 A 
ATOM     57  C   UNL A   1      44.644  24.560  30.013  1.00  0.00     0.049 A 
ATOM     58  H   UNL A   1      45.131  24.079  28.015  1.00  0.00     0.167 HD
ATOM     59  C   UNL A   1      45.674  26.171  31.418  1.00  0.00     0.074 A 
ATOM     60  C   UNL A   1      45.349  25.447  32.629  1.00  0.00     0.031 C 
ATOM     61  C   UNL A   1      45.441  25.756  30.145  1.00  0.00     0.031 A 
BRANCH  48  62
ATOM     62  C   UNL A   1      42.908  22.600  26.432  1.00  0.00    -0.014 A 
ATOM     63  C   UNL A   1      42.527  21.233  26.490  1.00  0.00     0.010 A 
ATOM     64  C   UNL A   1      43.893  22.959  25.504  1.00  0.00     0.010 A 
ATOM     65  C   UNL A   1      43.202  20.247  25.769  1.00  0.00     0.020 A 
ATOM     66  C   UNL A   1      44.552  21.974  24.743  1.00  0.00     0.020 A 
ATOM     67  C   UNL A   1      44.239  20.623  24.924  1.00  0.00     0.054 A 
BRANCH  67  68
ATOM     68  S   UNL A   1      45.218  19.313  24.140  1.00  0.00     0.124 S 
ATOM     69  O   UNL A   1      46.581  19.815  24.289  1.00  0.00    -0.237 OA
ATOM     70  O   UNL A   1      44.892  18.143  24.953  1.00  0.00    -0.237 OA
ATOM     71  O   UNL A   1      44.707  19.274  22.773  1.00  0.00    -0.744 OA
ENDBRANCH  67  68
ENDBRANCH  48  62
BRANCH  49  72
ATOM     72  C   UNL A   1      44.276  29.197  34.483  1.00  0.00    -0.014 A 
ATOM     73  C   UNL A   1      43.706  28.887  35.722  1.00  0.00     0.010 A 
ATOM     74  C   UNL A   1      45.431  30.034  34.534  1.00  0.00     0.010 A 
ATOM     75  C   UNL A   1      44.350  29.253  36.933  1.00  0.00     0.020 A 
ATOM     76  C   UNL A   1      46.105  30.353  35.713  1.00  0.00     0.020 A 
ATOM     77  C   UNL A   1      45.576  29.930  36.917  1.00  0.00     0.054 A 
BRANCH  77  78
ATOM     78  S   UNL A   1      46.565  30.130  38.427  1.00  0.00     0.124 S 
ATOM     79  O   UNL A   1      47.668  29.199  38.208  1.00  0.00    -0.237 OA
ATOM     80  O   UNL A   1      46.919  31.548  38.397  1.00  0.00    -0.237 OA
ATOM     81  O   UNL A   1      45.636  29.759  39.494  1.00  0.00    -0.744 OA
ENDBRANCH  77  78
ENDBRANCH  49  72
BRANCH  61  82
ATOM     82  C   UNL A   1      45.667  26.809  29.062  1.00  0.00    -0.014 A 
ATOM     83  C   UNL A   1      46.955  27.346  28.873  1.00  0.00     0.010 A 
ATOM     84  C   UNL A   1      44.625  27.364  28.290  1.00  0.00     0.010 A 
ATOM     85  C   UNL A   1      47.195  28.392  27.968  1.00  0.00     0.020 A 
ATOM     86  C   UNL A   1      44.855  28.415  27.375  1.00  0.00     0.020 A 
ATOM     87  C   UNL A   1      46.144  28.922  27.220  1.00  0.00     0.054 A 
BRANCH  87  88
ATOM     88  S   UNL A   1      46.505  30.258  26.039  1.00  0.00     0.124 S 
ATOM     89  O   UNL A   1      47.822  30.725  26.466  1.00  0.00    -0.237 OA
ATOM     90  O   UNL A   1      46.482  29.560  24.754  1.00  0.00    -0.237 OA
ATOM     91  O   UNL A   1      45.414  31.213  26.231  1.00  0.00    -0.744 OA
ENDBRANCH  87  88
ENDBRANCH  61  82
ENDBRANCH  35  36
ENDBRANCH  27  30
ENDBRANCH  25  26
ENDBRANCH   1  25
TORSDOF 18
ENDMDL
MODEL 3
REMARK VINA RESULT:     -11.0      4.187      8.046
REMARK SMILES CCC(CC)(NC(=O)c1cc([N+](=O)[O-])c[nH]1)C(=O)NCCCNC(=O)c1ccc(-c2c3nc(c(-c4ccc(S(=O)(=O)[O-])cc4)c4ccc([nH]4)c(-c4ccc(S(=O)(=O)[O-])cc4)c4nc(c(-c5ccc(S(=O)(=O)[O-])cc5)c5ccc2[nH]5)C=C4)C=C3)cc1
REMARK SMILES IDX 21 1 20 2 19 3 17 4 18 5 3 7 2 8 1 9 4 10 5 11 6 12 7 13
REMARK SMILES IDX 8 15 9 16 10 17 16 18 11 19 15 20 12 22 13 23 14 24 22 25
REMARK SMILES IDX 23 26 24 27 25 29 26 30 27 31 85 32 28 33 84 34 29 35 30 36
REMARK SMILES IDX 31 37 78 38 32 39 83 40 77 41 79 42 33 43 82 44 76 45 75 46
REMARK SMILES IDX 34 48 64 49 45 50 63 51 46 52 49 53 62 54 80 55 47 56 48 57
REMARK SMILES IDX 61 59 81 60 50 61 35 62 36 63 44 64 37 65 43 66 38 67 39 68
REMARK SMILES IDX 40 69 41 70 42 71 65 72 66 73 74 74 67 75 73 76 68 77 69 78
REMARK SMILES IDX 70 79 71 80 72 81 51 82 52 83 60 84 53 85 59 86 54 87 55 88
REMARK SMILES IDX 56 89 57 90 58 91
REMARK H PARENT 19 6 6 14 16 21 23 28 79 47 49 58
REMARK Flexibility Score: inf
ROOT
ATOM      1  C   UNL A   1      32.823  29.797  27.175  1.00  0.00     0.042 C 
ENDROOT
BRANCH   1   2
ATOM      2  C   UNL A   1      32.183  29.720  25.785  1.00  0.00     0.117 C 
BRANCH   2   3
ATOM      3  N   UNL A   1      33.070  29.730  24.623  1.00  0.00    -0.354 N 
ATOM      4  C   UNL A   1      33.317  28.843  23.600  1.00  0.00     0.245 C 
ATOM      5  O   UNL A   1      33.973  29.278  22.648  1.00  0.00    -0.272 OA
ATOM      6  H   UNL A   1      33.608  30.552  24.558  1.00  0.00     0.163 HD
BRANCH   4   7
ATOM      7  C   UNL A   1      32.683  27.428  23.562  1.00  0.00     0.118 C 
BRANCH   7   8
ATOM      8  C   UNL A   1      31.282  27.300  24.237  1.00  0.00     0.035 C 
ATOM      9  C   UNL A   1      30.038  27.613  23.415  1.00  0.00     0.007 C 
ENDBRANCH   7   8
BRANCH   7  10
ATOM     10  C   UNL A   1      33.737  26.575  24.354  1.00  0.00     0.035 C 
ATOM     11  C   UNL A   1      33.434  26.220  25.798  1.00  0.00     0.007 C 
ENDBRANCH   7  10
BRANCH   7  12
ATOM     12  N   UNL A   1      32.510  26.970  22.156  1.00  0.00    -0.336 N 
ATOM     13  C   UNL A   1      32.763  25.730  21.580  1.00  0.00     0.268 C 
ATOM     14  H   UNL A   1      32.162  27.651  21.537  1.00  0.00     0.165 HD
ATOM     15  O   UNL A   1      33.146  25.768  20.411  1.00  0.00    -0.268 OA
BRANCH  13  16
ATOM     16  C   UNL A   1      32.556  24.448  22.247  1.00  0.00     0.111 A 
ATOM     17  C   UNL A   1      33.398  23.441  22.679  1.00  0.00     0.119 A 
ATOM     18  N   UNL A   1      31.301  24.067  22.722  1.00  0.00    -0.351 N 
ATOM     19  C   UNL A   1      32.676  22.459  23.402  1.00  0.00     0.287 A 
ATOM     20  C   UNL A   1      31.368  22.881  23.417  1.00  0.00     0.169 A 
ATOM     21  H   UNL A   1      30.474  24.581  22.579  1.00  0.00     0.166 HD
BRANCH  19  22
ATOM     22  N   UNL A   1      33.248  21.306  24.050  1.00  0.00     0.064 N 
ATOM     23  O   UNL A   1      32.660  20.232  23.940  1.00  0.00    -0.258 OA
ATOM     24  O   UNL A   1      34.240  21.522  24.767  1.00  0.00    -0.258 OA
ENDBRANCH  19  22
ENDBRANCH  13  16
ENDBRANCH   7  12
ENDBRANCH   4   7
ENDBRANCH   2   3
ENDBRANCH   1   2
BRANCH   1  25
ATOM     25  C   UNL A   1      34.005  30.747  27.300  1.00  0.00     0.118 C 
BRANCH  25  26
ATOM     26  N   UNL A   1      33.883  31.667  28.413  1.00  0.00    -0.352 N 
ATOM     27  C   UNL A   1      34.691  31.849  29.511  1.00  0.00     0.251 C 
ATOM     28  H   UNL A   1      33.095  32.256  28.377  1.00  0.00     0.163 HD
ATOM     29  O   UNL A   1      34.249  32.536  30.430  1.00  0.00    -0.269 OA
BRANCH  27  30
ATOM     30  C   UNL A   1      36.047  31.244  29.638  1.00  0.00     0.039 A 
ATOM     31  C   UNL A   1      36.941  31.420  28.568  1.00  0.00     0.014 A 
ATOM     32  C   UNL A   1      36.438  30.440  30.711  1.00  0.00     0.014 A 
ATOM     33  C   UNL A   1      38.209  30.838  28.596  1.00  0.00     0.010 A 
ATOM     34  C   UNL A   1      37.707  29.869  30.751  1.00  0.00     0.010 A 
ATOM     35  C   UNL A   1      38.599  30.074  29.701  1.00  0.00    -0.014 A 
BRANCH  35  36
ATOM     36  C   UNL A   1      40.000  29.610  29.831  1.00  0.00     0.031 A 
ATOM     37  C   UNL A   1      40.928  30.735  30.324  1.00  0.00     0.074 A 
ATOM     38  C   UNL A   1      40.268  28.314  29.480  1.00  0.00     0.049 A 
ATOM     39  N   UNL A   1      42.192  30.916  30.104  1.00  0.00    -0.248 NA
ATOM     40  C   UNL A   1      40.363  31.867  31.115  1.00  0.00     0.031 C 
ATOM     41  C   UNL A   1      39.242  27.320  29.087  1.00  0.00     0.029 A 
ATOM     42  N   UNL A   1      41.422  27.558  29.383  1.00  0.00    -0.354 N 
ATOM     43  C   UNL A   1      42.604  32.060  30.828  1.00  0.00     0.074 A 
ATOM     44  C   UNL A   1      41.415  32.654  31.357  1.00  0.00     0.031 C 
ATOM     45  C   UNL A   1      39.812  26.150  28.718  1.00  0.00     0.029 A 
ATOM     46  C   UNL A   1      41.252  26.251  28.847  1.00  0.00     0.049 A 
ATOM     47  H   UNL A   1      42.301  27.901  29.664  1.00  0.00     0.167 HD
ATOM     48  C   UNL A   1      43.916  32.378  31.040  1.00  0.00     0.031 A 
ATOM     49  C   UNL A   1      42.200  25.327  28.490  1.00  0.00     0.031 A 
ATOM     50  C   UNL A   1      44.752  31.417  30.407  1.00  0.00     0.049 A 
ATOM     51  C   UNL A   1      43.487  25.875  28.939  1.00  0.00     0.074 A 
ATOM     52  C   UNL A   1      45.030  31.157  29.091  1.00  0.00     0.029 A 
ATOM     53  N   UNL A   1      45.111  30.333  31.175  1.00  0.00    -0.354 N 
ATOM     54  N   UNL A   1      43.887  25.921  30.171  1.00  0.00    -0.248 NA
ATOM     55  C   UNL A   1      44.400  26.453  27.942  1.00  0.00     0.031 C 
ATOM     56  C   UNL A   1      45.064  29.748  29.050  1.00  0.00     0.029 A 
ATOM     57  C   UNL A   1      45.038  29.238  30.356  1.00  0.00     0.049 A 
ATOM     58  H   UNL A   1      45.370  30.344  32.125  1.00  0.00     0.167 HD
ATOM     59  C   UNL A   1      44.861  26.883  30.120  1.00  0.00     0.074 A 
ATOM     60  C   UNL A   1      45.353  26.898  28.757  1.00  0.00     0.031 C 
ATOM     61  C   UNL A   1      44.773  27.952  30.955  1.00  0.00     0.031 A 
BRANCH  48  62
ATOM     62  C   UNL A   1      44.597  33.347  31.971  1.00  0.00    -0.014 A 
ATOM     63  C   UNL A   1      44.295  33.223  33.353  1.00  0.00     0.010 A 
ATOM     64  C   UNL A   1      45.202  34.535  31.544  1.00  0.00     0.010 A 
ATOM     65  C   UNL A   1      44.449  34.289  34.241  1.00  0.00     0.020 A 
ATOM     66  C   UNL A   1      45.397  35.601  32.442  1.00  0.00     0.020 A 
ATOM     67  C   UNL A   1      44.967  35.488  33.768  1.00  0.00     0.054 A 
BRANCH  67  68
ATOM     68  S   UNL A   1      44.986  36.912  34.893  1.00  0.00     0.124 S 
ATOM     69  O   UNL A   1      44.335  36.373  36.083  1.00  0.00    -0.237 OA
ATOM     70  O   UNL A   1      46.415  37.187  35.032  1.00  0.00    -0.237 OA
ATOM     71  O   UNL A   1      44.231  37.931  34.168  1.00  0.00    -0.744 OA
ENDBRANCH  67  68
ENDBRANCH  48  62
BRANCH  49  72
ATOM     72  C   UNL A   1      42.298  24.030  27.713  1.00  0.00    -0.014 A 
ATOM     73  C   UNL A   1      43.359  23.119  27.736  1.00  0.00     0.010 A 
ATOM     74  C   UNL A   1      41.144  23.605  26.988  1.00  0.00     0.010 A 
ATOM     75  C   UNL A   1      43.207  21.809  27.210  1.00  0.00     0.020 A 
ATOM     76  C   UNL A   1      40.959  22.305  26.518  1.00  0.00     0.020 A 
ATOM     77  C   UNL A   1      41.987  21.394  26.661  1.00  0.00     0.054 A 
BRANCH  77  78
ATOM     78  S   UNL A   1      41.670  19.648  26.274  1.00  0.00     0.124 S 
ATOM     79  O   UNL A   1      42.493  19.432  25.088  1.00  0.00    -0.237 OA
ATOM     80  O   UNL A   1      42.114  18.961  27.485  1.00  0.00    -0.237 OA
ATOM     81  O   UNL A   1      40.226  19.606  26.048  1.00  0.00    -0.744 OA
ENDBRANCH  77  78
ENDBRANCH  49  72
BRANCH  61  82
ATOM     82  C   UNL A   1      44.004  27.706  32.251  1.00  0.00    -0.014 A 
ATOM     83  C   UNL A   1      44.548  26.850  33.229  1.00  0.00     0.010 A 
ATOM     84  C   UNL A   1      42.711  28.213  32.496  1.00  0.00     0.010 A 
ATOM     85  C   UNL A   1      43.835  26.504  34.388  1.00  0.00     0.020 A 
ATOM     86  C   UNL A   1      41.985  27.874  33.658  1.00  0.00     0.020 A 
ATOM     87  C   UNL A   1      42.557  27.020  34.600  1.00  0.00     0.054 A 
BRANCH  87  88
ATOM     88  S   UNL A   1      41.680  26.569  36.130  1.00  0.00     0.124 S 
ATOM     89  O   UNL A   1      40.810  25.477  35.697  1.00  0.00    -0.237 OA
ATOM     90  O   UNL A   1      42.772  26.175  37.017  1.00  0.00    -0.237 OA
ATOM     91  O   UNL A   1      40.989  27.795  36.524  1.00  0.00    -0.744 OA
ENDBRANCH  87  88
ENDBRANCH  61  82
ENDBRANCH  35  36
ENDBRANCH  27  30
ENDBRANCH  25  26
ENDBRANCH   1  25
TORSDOF 18
ENDMDL
