MODEL 1
REMARK VINA RESULT:     -11.1      0.000      0.000
REMARK SMILES CC(C)(C)OC(=O)Nc1ccc(-c2cccc(Cl)c2C(=O)NCCCNC(=O)c2ccc(-c3c4nc(c(-c5ccc(S(=O)(=O)[O-])cc5)c5ccc([nH]5)c(-c5ccc(S(=O)(=O)[O-])cc5)c5nc(c(-c6ccc(S(=O)(=O)[O-])cc6)c6ccc3[nH]6)C=C5)C=C4)cc2)cc1
REMARK SMILES IDX 23 1 22 2 20 3 21 4 19 6 13 7 14 8 15 9 17 10 16 11 18 12
REMARK SMILES IDX 12 13 9 14 10 15 90 16 11 17 89 18 8 19 6 20 7 21 5 23 2 24
REMARK SMILES IDX 1 25 3 26 4 27 24 28 25 29 26 30 27 31 28 33 29 34 30 35
REMARK SMILES IDX 88 36 31 37 87 38 32 39 33 40 34 41 81 42 35 43 86 44 80 45
REMARK SMILES IDX 82 46 36 47 85 48 79 49 78 50 37 52 67 53 48 54 66 55 49 56
REMARK SMILES IDX 52 57 65 58 83 59 50 60 51 61 64 63 84 64 53 65 38 66 39 67
REMARK SMILES IDX 47 68 40 69 46 70 41 71 42 72 43 73 44 74 45 75 68 76 69 77
REMARK SMILES IDX 77 78 70 79 76 80 71 81 72 82 73 83 74 84 75 85 54 86 55 87
REMARK SMILES IDX 63 88 56 89 62 90 57 91 58 92 59 93 60 94 61 95
REMARK H PARENT 22 5 8 22 26 32 82 51 52 62
REMARK Flexibility Score: inf
ROOT
ATOM      1  C   UNL A   1      36.656  20.367  25.274  1.00  0.00     0.118 C 
ENDROOT
BRANCH   1   2
ATOM      2  N   UNL A   1      35.802  21.449  25.698  1.00  0.00    -0.352 N 
ATOM      3  C   UNL A   1      34.460  21.252  25.922  1.00  0.00     0.253 C 
ATOM      4  O   UNL A   1      34.078  21.157  27.089  1.00  0.00    -0.269 OA
ATOM      5  H   UNL A   1      36.187  22.346  25.829  1.00  0.00     0.163 HD
BRANCH   3   6
ATOM      6  C   UNL A   1      33.449  21.371  24.822  1.00  0.00     0.066 A 
ATOM      7  C   UNL A   1      32.971  22.573  24.228  1.00  0.00    -0.004 A 
ATOM      8  C   UNL A   1      32.237  22.477  23.020  1.00  0.00     0.009 A 
ATOM      9  C   UNL A   1      31.942  21.258  22.421  1.00  0.00     0.002 A 
ATOM     10  C   UNL A   1      33.071  20.136  24.234  1.00  0.00     0.054 A 
ATOM     11  C   UNL A   1      32.338  20.087  23.042  1.00  0.00     0.021 A 
ATOM     12  Cl  UNL A   1      33.392  18.586  24.960  1.00  0.00    -0.083 Cl
BRANCH   7  13
ATOM     13  C   UNL A   1      33.067  23.941  24.767  1.00  0.00    -0.017 A 
ATOM     14  C   UNL A   1      33.195  26.658  25.606  1.00  0.00     0.044 A 
ATOM     15  C   UNL A   1      34.030  26.183  24.589  1.00  0.00     0.027 A 
ATOM     16  C   UNL A   1      32.395  25.735  26.286  1.00  0.00     0.027 A 
ATOM     17  C   UNL A   1      33.957  24.849  24.168  1.00  0.00     0.011 A 
ATOM     18  C   UNL A   1      32.356  24.380  25.892  1.00  0.00     0.011 A 
BRANCH  14  19
ATOM     19  N   UNL A   1      33.197  28.051  25.805  1.00  0.00    -0.291 N 
ATOM     20  C   UNL A   1      32.293  29.032  25.505  1.00  0.00     0.412 C 
ATOM     21  O   UNL A   1      32.563  30.207  25.758  1.00  0.00    -0.224 OA
ATOM     22  H   UNL A   1      34.010  28.386  26.248  1.00  0.00     0.173 HD
BRANCH  20  23
ATOM     23  O   UNL A   1      31.125  28.605  24.985  1.00  0.00    -0.444 OA
BRANCH  23  24
ATOM     24  C   UNL A   1      30.916  28.531  23.551  1.00  0.00     0.106 C 
ATOM     25  C   UNL A   1      29.804  29.557  23.295  1.00  0.00     0.056 C 
ATOM     26  C   UNL A   1      30.423  27.154  23.103  1.00  0.00     0.056 C 
ATOM     27  C   UNL A   1      32.168  28.950  22.772  1.00  0.00     0.056 C 
ENDBRANCH  23  24
ENDBRANCH  20  23
ENDBRANCH  14  19
ENDBRANCH   7  13
ENDBRANCH   3   6
ENDBRANCH   1   2
BRANCH   1  28
ATOM     28  C   UNL A   1      38.055  20.816  24.922  1.00  0.00     0.042 C 
BRANCH  28  29
ATOM     29  C   UNL A   1      38.975  20.874  26.125  1.00  0.00     0.118 C 
BRANCH  29  30
ATOM     30  N   UNL A   1      40.120  19.971  26.073  1.00  0.00    -0.352 N 
ATOM     31  C   UNL A   1      41.441  20.181  26.379  1.00  0.00     0.251 C 
ATOM     32  H   UNL A   1      39.909  19.059  25.767  1.00  0.00     0.163 HD
ATOM     33  O   UNL A   1      42.223  19.236  26.346  1.00  0.00    -0.269 OA
BRANCH  31  34
ATOM     34  C   UNL A   1      41.931  21.534  26.698  1.00  0.00     0.039 A 
ATOM     35  C   UNL A   1      42.394  21.800  27.990  1.00  0.00     0.014 A 
ATOM     36  C   UNL A   1      41.970  22.529  25.725  1.00  0.00     0.014 A 
ATOM     37  C   UNL A   1      42.984  23.029  28.275  1.00  0.00     0.010 A 
ATOM     38  C   UNL A   1      42.669  23.699  25.969  1.00  0.00     0.010 A 
ATOM     39  C   UNL A   1      43.162  23.969  27.252  1.00  0.00    -0.014 A 
BRANCH  39  40
ATOM     40  C   UNL A   1      43.785  25.286  27.502  1.00  0.00     0.031 A 
ATOM     41  C   UNL A   1      42.925  26.395  28.045  1.00  0.00     0.074 A 
ATOM     42  C   UNL A   1      45.071  25.498  27.166  1.00  0.00     0.049 A 
ATOM     43  N   UNL A   1      43.219  27.655  28.220  1.00  0.00    -0.248 NA
ATOM     44  C   UNL A   1      41.536  26.049  28.401  1.00  0.00     0.031 C 
ATOM     45  C   UNL A   1      45.980  24.496  26.601  1.00  0.00     0.029 A 
ATOM     46  N   UNL A   1      45.836  26.633  27.237  1.00  0.00    -0.354 N 
ATOM     47  C   UNL A   1      42.049  28.251  28.675  1.00  0.00     0.074 A 
ATOM     48  C   UNL A   1      41.026  27.233  28.694  1.00  0.00     0.031 C 
ATOM     49  C   UNL A   1      47.182  25.059  26.394  1.00  0.00     0.029 A 
ATOM     50  C   UNL A   1      47.117  26.468  26.767  1.00  0.00     0.049 A 
ATOM     51  H   UNL A   1      45.498  27.488  27.591  1.00  0.00     0.167 HD
ATOM     52  C   UNL A   1      41.855  29.530  29.064  1.00  0.00     0.031 A 
ATOM     53  C   UNL A   1      48.118  27.360  26.641  1.00  0.00     0.031 A 
ATOM     54  C   UNL A   1      42.895  30.521  29.067  1.00  0.00     0.049 A 
ATOM     55  C   UNL A   1      47.874  28.779  27.083  1.00  0.00     0.074 A 
ATOM     56  C   UNL A   1      42.830  31.831  29.504  1.00  0.00     0.029 A 
ATOM     57  N   UNL A   1      44.188  30.309  28.615  1.00  0.00    -0.354 N 
ATOM     58  N   UNL A   1      46.780  29.312  27.579  1.00  0.00    -0.248 NA
ATOM     59  C   UNL A   1      49.000  29.714  26.965  1.00  0.00     0.031 C 
ATOM     60  C   UNL A   1      44.068  32.430  29.255  1.00  0.00     0.029 A 
ATOM     61  C   UNL A   1      44.924  31.473  28.731  1.00  0.00     0.049 A 
ATOM     62  H   UNL A   1      44.530  29.455  28.262  1.00  0.00     0.167 HD
ATOM     63  C   UNL A   1      47.096  30.637  27.857  1.00  0.00     0.074 A 
ATOM     64  C   UNL A   1      48.488  30.816  27.496  1.00  0.00     0.031 C 
ATOM     65  C   UNL A   1      46.310  31.619  28.365  1.00  0.00     0.031 A 
BRANCH  52  66
ATOM     66  C   UNL A   1      40.474  29.928  29.511  1.00  0.00    -0.014 A 
ATOM     67  C   UNL A   1      40.164  30.095  30.873  1.00  0.00     0.010 A 
ATOM     68  C   UNL A   1      39.484  30.191  28.546  1.00  0.00     0.010 A 
ATOM     69  C   UNL A   1      38.885  30.495  31.263  1.00  0.00     0.020 A 
ATOM     70  C   UNL A   1      38.212  30.623  28.932  1.00  0.00     0.020 A 
ATOM     71  C   UNL A   1      37.918  30.762  30.289  1.00  0.00     0.054 A 
BRANCH  71  72
ATOM     72  S   UNL A   1      36.286  31.344  30.824  1.00  0.00     0.124 S 
ATOM     73  O   UNL A   1      35.903  30.319  31.793  1.00  0.00    -0.237 OA
ATOM     74  O   UNL A   1      36.584  32.659  31.385  1.00  0.00    -0.237 OA
ATOM     75  O   UNL A   1      35.501  31.357  29.593  1.00  0.00    -0.744 OA
ENDBRANCH  71  72
ENDBRANCH  52  66
BRANCH  53  76
ATOM     76  C   UNL A   1      49.430  26.946  26.070  1.00  0.00    -0.014 A 
ATOM     77  C   UNL A   1      49.717  27.138  24.707  1.00  0.00     0.010 A 
ATOM     78  C   UNL A   1      50.402  26.341  26.889  1.00  0.00     0.010 A 
ATOM     79  C   UNL A   1      50.933  26.703  24.167  1.00  0.00     0.020 A 
ATOM     80  C   UNL A   1      51.631  25.936  26.362  1.00  0.00     0.020 A 
ATOM     81  C   UNL A   1      51.882  26.104  25.000  1.00  0.00     0.054 A 
BRANCH  81  82
ATOM     82  S   UNL A   1      53.462  25.569  24.285  1.00  0.00     0.124 S 
ATOM     83  O   UNL A   1      53.269  25.863  22.869  1.00  0.00    -0.237 OA
ATOM     84  O   UNL A   1      54.426  26.415  24.983  1.00  0.00    -0.237 OA
ATOM     85  O   UNL A   1      53.527  24.149  24.626  1.00  0.00    -0.744 OA
ENDBRANCH  81  82
ENDBRANCH  53  76
BRANCH  65  86
ATOM     86  C   UNL A   1      46.947  32.963  28.594  1.00  0.00    -0.014 A 
ATOM     87  C   UNL A   1      46.901  33.969  27.615  1.00  0.00     0.010 A 
ATOM     88  C   UNL A   1      47.548  33.238  29.836  1.00  0.00     0.010 A 
ATOM     89  C   UNL A   1      47.480  35.216  27.860  1.00  0.00     0.020 A 
ATOM     90  C   UNL A   1      48.096  34.493  30.098  1.00  0.00     0.020 A 
ATOM     91  C   UNL A   1      48.074  35.470  29.101  1.00  0.00     0.054 A 
BRANCH  91  92
ATOM     92  S   UNL A   1      48.783  37.110  29.406  1.00  0.00     0.124 S 
ATOM     93  O   UNL A   1      48.884  37.130  30.863  1.00  0.00    -0.237 OA
ATOM     94  O   UNL A   1      50.053  37.046  28.688  1.00  0.00    -0.237 OA
ATOM     95  O   UNL A   1      47.797  38.026  28.837  1.00  0.00    -0.744 OA
ENDBRANCH  91  92
ENDBRANCH  65  86
ENDBRANCH  39  40
ENDBRANCH  31  34
ENDBRANCH  29  30
ENDBRANCH  28  29
ENDBRANCH   1  28
TORSDOF 17
ENDMDL
MODEL 2
REMARK VINA RESULT:     -10.6      0.593      8.076
REMARK SMILES CC(C)(C)OC(=O)Nc1ccc(-c2cccc(Cl)c2C(=O)NCCCNC(=O)c2ccc(-c3c4nc(c(-c5ccc(S(=O)(=O)[O-])cc5)c5ccc([nH]5)c(-c5ccc(S(=O)(=O)[O-])cc5)c5nc(c(-c6ccc(S(=O)(=O)[O-])cc6)c6ccc3[nH]6)C=C5)C=C4)cc2)cc1
REMARK SMILES IDX 23 1 22 2 20 3 21 4 19 6 13 7 14 8 15 9 17 10 16 11 18 12
REMARK SMILES IDX 12 13 9 14 10 15 90 16 11 17 89 18 8 19 6 20 7 21 5 23 2 24
REMARK SMILES IDX 1 25 3 26 4 27 24 28 25 29 26 30 27 31 28 33 29 34 30 35
REMARK SMILES IDX 88 36 31 37 87 38 32 39 33 40 34 41 81 42 35 43 86 44 80 45
REMARK SMILES IDX 82 46 36 47 85 48 79 49 78 50 37 52 67 53 48 54 66 55 49 56
REMARK SMILES IDX 52 57 65 58 83 59 50 60 51 61 64 63 84 64 53 65 38 66 39 67
REMARK SMILES IDX 47 68 40 69 46 70 41 71 42 72 43 73 44 74 45 75 68 76 69 77
REMARK SMILES IDX 77 78 70 79 76 80 71 81 72 82 73 83 74 84 75 85 54 86 55 87
REMARK SMILES IDX 63 88 56 89 62 90 57 91 58 92 59 93 60 94 61 95
REMARK H PARENT 22 5 8 22 26 32 82 51 52 62
REMARK Flexibility Score: inf
ROOT
ATOM      1  C   UNL A   1      37.219  21.431  24.317  1.00  0.00     0.118 C 
ENDROOT
BRANCH   1   2
ATOM      2  N   UNL A   1      36.203  22.283  24.884  1.00  0.00    -0.352 N 
ATOM      3  C   UNL A   1      35.036  21.761  25.388  1.00  0.00     0.253 C 
ATOM      4  O   UNL A   1      34.930  21.661  26.611  1.00  0.00    -0.269 OA
ATOM      5  H   UNL A   1      36.348  23.256  24.911  1.00  0.00     0.163 HD
BRANCH   3   6
ATOM      6  C   UNL A   1      33.837  21.524  24.522  1.00  0.00     0.066 A 
ATOM      7  C   UNL A   1      33.087  22.507  23.815  1.00  0.00    -0.004 A 
ATOM      8  C   UNL A   1      32.169  22.067  22.829  1.00  0.00     0.009 A 
ATOM      9  C   UNL A   1      31.954  20.721  22.557  1.00  0.00     0.002 A 
ATOM     10  C   UNL A   1      33.545  20.156  24.280  1.00  0.00     0.054 A 
ATOM     11  C   UNL A   1      32.624  19.767  23.301  1.00  0.00     0.021 A 
ATOM     12  Cl  UNL A   1      34.217  18.849  25.215  1.00  0.00    -0.083 Cl
BRANCH   7  13
ATOM     13  C   UNL A   1      33.074  23.962  24.042  1.00  0.00    -0.017 A 
ATOM     14  C   UNL A   1      33.137  26.735  24.679  1.00  0.00     0.044 A 
ATOM     15  C   UNL A   1      32.382  25.842  25.446  1.00  0.00     0.027 A 
ATOM     16  C   UNL A   1      33.748  26.253  23.518  1.00  0.00     0.027 A 
ATOM     17  C   UNL A   1      32.362  24.476  25.139  1.00  0.00     0.011 A 
ATOM     18  C   UNL A   1      33.690  24.883  23.183  1.00  0.00     0.011 A 
BRANCH  14  19
ATOM     19  N   UNL A   1      33.259  28.040  25.194  1.00  0.00    -0.291 N 
ATOM     20  C   UNL A   1      32.367  29.065  25.344  1.00  0.00     0.412 C 
ATOM     21  O   UNL A   1      32.751  30.144  25.797  1.00  0.00    -0.224 OA
ATOM     22  H   UNL A   1      34.167  28.257  25.508  1.00  0.00     0.173 HD
BRANCH  20  23
ATOM     23  O   UNL A   1      31.092  28.777  25.015  1.00  0.00    -0.444 OA
BRANCH  23  24
ATOM     24  C   UNL A   1      30.568  29.059  23.692  1.00  0.00     0.106 C 
ATOM     25  C   UNL A   1      29.742  27.810  23.357  1.00  0.00     0.056 C 
ATOM     26  C   UNL A   1      31.673  29.209  22.645  1.00  0.00     0.056 C 
ATOM     27  C   UNL A   1      29.641  30.280  23.697  1.00  0.00     0.056 C 
ENDBRANCH  23  24
ENDBRANCH  20  23
ENDBRANCH  14  19
ENDBRANCH   7  13
ENDBRANCH   3   6
ENDBRANCH   1   2
BRANCH   1  28
ATOM     28  C   UNL A   1      37.853  20.505  25.330  1.00  0.00     0.042 C 
BRANCH  28  29
ATOM     29  C   UNL A   1      39.192  21.009  25.830  1.00  0.00     0.118 C 
BRANCH  29  30
ATOM     30  N   UNL A   1      40.195  19.975  26.059  1.00  0.00    -0.352 N 
ATOM     31  C   UNL A   1      41.493  20.065  26.498  1.00  0.00     0.251 C 
ATOM     32  H   UNL A   1      39.890  19.058  25.867  1.00  0.00     0.163 HD
ATOM     33  O   UNL A   1      42.130  19.038  26.705  1.00  0.00    -0.269 OA
BRANCH  31  34
ATOM     34  C   UNL A   1      42.134  21.381  26.673  1.00  0.00     0.039 A 
ATOM     35  C   UNL A   1      42.317  22.200  25.555  1.00  0.00     0.014 A 
ATOM     36  C   UNL A   1      42.519  21.827  27.935  1.00  0.00     0.014 A 
ATOM     37  C   UNL A   1      42.796  23.499  25.719  1.00  0.00     0.010 A 
ATOM     38  C   UNL A   1      42.871  23.153  28.116  1.00  0.00     0.010 A 
ATOM     39  C   UNL A   1      43.035  23.995  27.007  1.00  0.00    -0.014 A 
BRANCH  39  40
ATOM     40  C   UNL A   1      43.541  25.365  27.234  1.00  0.00     0.031 A 
ATOM     41  C   UNL A   1      44.994  25.647  26.969  1.00  0.00     0.074 A 
ATOM     42  C   UNL A   1      42.727  26.306  27.749  1.00  0.00     0.049 A 
ATOM     43  N   UNL A   1      45.682  26.728  27.217  1.00  0.00    -0.248 NA
ATOM     44  C   UNL A   1      45.791  24.550  26.386  1.00  0.00     0.031 C 
ATOM     45  C   UNL A   1      41.309  26.122  28.071  1.00  0.00     0.029 A 
ATOM     46  N   UNL A   1      42.980  27.605  28.104  1.00  0.00    -0.354 N 
ATOM     47  C   UNL A   1      46.988  26.432  26.848  1.00  0.00     0.074 A 
ATOM     48  C   UNL A   1      47.013  25.055  26.416  1.00  0.00     0.031 C 
ATOM     49  C   UNL A   1      40.817  27.273  28.561  1.00  0.00     0.029 A 
ATOM     50  C   UNL A   1      41.891  28.258  28.630  1.00  0.00     0.049 A 
ATOM     51  H   UNL A   1      43.861  28.031  27.994  1.00  0.00     0.167 HD
ATOM     52  C   UNL A   1      48.067  27.247  26.848  1.00  0.00     0.031 A 
ATOM     53  C   UNL A   1      41.779  29.506  29.123  1.00  0.00     0.031 A 
ATOM     54  C   UNL A   1      48.015  28.625  27.253  1.00  0.00     0.049 A 
ATOM     55  C   UNL A   1      42.997  30.393  29.110  1.00  0.00     0.074 A 
ATOM     56  C   UNL A   1      49.030  29.563  27.231  1.00  0.00     0.029 A 
ATOM     57  N   UNL A   1      46.887  29.259  27.749  1.00  0.00    -0.354 N 
ATOM     58  N   UNL A   1      44.212  30.119  28.692  1.00  0.00    -0.248 NA
ATOM     59  C   UNL A   1      42.829  31.759  29.622  1.00  0.00     0.031 C 
ATOM     60  C   UNL A   1      48.530  30.750  27.775  1.00  0.00     0.029 A 
ATOM     61  C   UNL A   1      47.187  30.570  28.068  1.00  0.00     0.049 A 
ATOM     62  H   UNL A   1      46.004  28.838  27.858  1.00  0.00     0.167 HD
ATOM     63  C   UNL A   1      44.944  31.289  28.863  1.00  0.00     0.074 A 
ATOM     64  C   UNL A   1      44.030  32.276  29.401  1.00  0.00     0.031 C 
ATOM     65  C   UNL A   1      46.253  31.529  28.600  1.00  0.00     0.031 A 
BRANCH  52  66
ATOM     66  C   UNL A   1      49.384  26.671  26.405  1.00  0.00    -0.014 A 
ATOM     67  C   UNL A   1      49.859  26.852  25.093  1.00  0.00     0.010 A 
ATOM     68  C   UNL A   1      50.185  25.982  27.334  1.00  0.00     0.010 A 
ATOM     69  C   UNL A   1      51.100  26.336  24.713  1.00  0.00     0.020 A 
ATOM     70  C   UNL A   1      51.441  25.491  26.965  1.00  0.00     0.020 A 
ATOM     71  C   UNL A   1      51.886  25.663  25.654  1.00  0.00     0.054 A 
BRANCH  71  72
ATOM     72  S   UNL A   1      53.519  25.061  25.147  1.00  0.00     0.124 S 
ATOM     73  O   UNL A   1      53.661  25.654  23.819  1.00  0.00    -0.237 OA
ATOM     74  O   UNL A   1      54.395  25.613  26.177  1.00  0.00    -0.237 OA
ATOM     75  O   UNL A   1      53.376  23.609  25.167  1.00  0.00    -0.744 OA
ENDBRANCH  71  72
ENDBRANCH  52  66
BRANCH  53  76
ATOM     76  C   UNL A   1      40.481  29.988  29.672  1.00  0.00    -0.014 A 
ATOM     77  C   UNL A   1      39.510  30.560  28.831  1.00  0.00     0.010 A 
ATOM     78  C   UNL A   1      40.213  29.889  31.051  1.00  0.00     0.010 A 
ATOM     79  C   UNL A   1      38.312  31.054  29.361  1.00  0.00     0.020 A 
ATOM     80  C   UNL A   1      39.004  30.350  31.579  1.00  0.00     0.020 A 
ATOM     81  C   UNL A   1      38.068  30.946  30.733  1.00  0.00     0.054 A 
BRANCH  81  82
ATOM     82  S   UNL A   1      36.499  31.571  31.397  1.00  0.00     0.124 S 
ATOM     83  O   UNL A   1      36.804  32.981  31.619  1.00  0.00    -0.237 OA
ATOM     84  O   UNL A   1      35.563  31.289  30.311  1.00  0.00    -0.237 OA
ATOM     85  O   UNL A   1      36.299  30.776  32.606  1.00  0.00    -0.744 OA
ENDBRANCH  81  82
ENDBRANCH  53  76
BRANCH  65  86
ATOM     86  C   UNL A   1      46.763  32.921  28.857  1.00  0.00    -0.014 A 
ATOM     87  C   UNL A   1      46.683  33.922  27.874  1.00  0.00     0.010 A 
ATOM     88  C   UNL A   1      47.275  33.244  30.128  1.00  0.00     0.010 A 
ATOM     89  C   UNL A   1      47.142  35.212  28.145  1.00  0.00     0.020 A 
ATOM     90  C   UNL A   1      47.702  34.541  30.413  1.00  0.00     0.020 A 
ATOM     91  C   UNL A   1      47.648  35.514  29.414  1.00  0.00     0.054 A 
BRANCH  91  92
ATOM     92  S   UNL A   1      48.201  37.207  29.750  1.00  0.00     0.124 S 
ATOM     93  O   UNL A   1      48.314  37.205  31.206  1.00  0.00    -0.237 OA
ATOM     94  O   UNL A   1      49.464  37.280  29.020  1.00  0.00    -0.237 OA
ATOM     95  O   UNL A   1      47.126  38.036  29.210  1.00  0.00    -0.744 OA
ENDBRANCH  91  92
ENDBRANCH  65  86
ENDBRANCH  39  40
ENDBRANCH  31  34
ENDBRANCH  29  30
ENDBRANCH  28  29
ENDBRANCH   1  28
TORSDOF 17
ENDMDL
MODEL 3
REMARK VINA RESULT:     -10.4      5.166     10.073
REMARK SMILES CC(C)(C)OC(=O)Nc1ccc(-c2cccc(Cl)c2C(=O)NCCCNC(=O)c2ccc(-c3c4nc(c(-c5ccc(S(=O)(=O)[O-])cc5)c5ccc([nH]5)c(-c5ccc(S(=O)(=O)[O-])cc5)c5nc(c(-c6ccc(S(=O)(=O)[O-])cc6)c6ccc3[nH]6)C=C5)C=C4)cc2)cc1
REMARK SMILES IDX 23 1 22 2 20 3 21 4 19 6 13 7 14 8 15 9 17 10 16 11 18 12
REMARK SMILES IDX 12 13 9 14 10 15 90 16 11 17 89 18 8 19 6 20 7 21 5 23 2 24
REMARK SMILES IDX 1 25 3 26 4 27 24 28 25 29 26 30 27 31 28 33 29 34 30 35
REMARK SMILES IDX 88 36 31 37 87 38 32 39 33 40 34 41 81 42 35 43 86 44 80 45
REMARK SMILES IDX 82 46 36 47 85 48 79 49 78 50 37 52 67 53 48 54 66 55 49 56
REMARK SMILES IDX 52 57 65 58 83 59 50 60 51 61 64 63 84 64 53 65 38 66 39 67
REMARK SMILES IDX 47 68 40 69 46 70 41 71 42 72 43 73 44 74 45 75 68 76 69 77
REMARK SMILES IDX 77 78 70 79 76 80 71 81 72 82 73 83 74 84 75 85 54 86 55 87
REMARK SMILES IDX 63 88 56 89 62 90 57 91 58 92 59 93 60 94 61 95
REMARK H PARENT 22 5 8 22 26 32 82 51 52 62
REMARK Flexibility Score: inf
ROOT
ATOM      1  C   UNL A   1      38.549  31.545  32.014  1.00  0.00     0.118 C 
ENDROOT
BRANCH   1   2
ATOM      2  N   UNL A   1      39.262  30.983  33.135  1.00  0.00    -0.352 N 
ATOM      3  C   UNL A   1      38.747  31.041  34.408  1.00  0.00     0.253 C 
ATOM      4  O   UNL A   1      38.227  30.023  34.867  1.00  0.00    -0.269 OA
ATOM      5  H   UNL A   1      40.133  30.549  32.986  1.00  0.00     0.163 HD
BRANCH   3   6
ATOM      6  C   UNL A   1      38.994  32.213  35.308  1.00  0.00     0.066 A 
ATOM      7  C   UNL A   1      38.219  33.405  35.391  1.00  0.00    -0.004 A 
ATOM      8  C   UNL A   1      38.438  34.271  36.492  1.00  0.00     0.009 A 
ATOM      9  C   UNL A   1      39.399  34.015  37.463  1.00  0.00     0.002 A 
ATOM     10  C   UNL A   1      40.019  32.012  36.269  1.00  0.00     0.054 A 
ATOM     11  C   UNL A   1      40.205  32.898  37.336  1.00  0.00     0.021 A 
ATOM     12  Cl  UNL A   1      41.186  30.723  36.175  1.00  0.00    -0.083 Cl
BRANCH   7  13
ATOM     13  C   UNL A   1      37.249  33.916  34.407  1.00  0.00    -0.017 A 
ATOM     14  C   UNL A   1      35.299  35.038  32.664  1.00  0.00     0.044 A 
ATOM     15  C   UNL A   1      34.915  34.358  33.825  1.00  0.00     0.027 A 
ATOM     16  C   UNL A   1      36.653  35.035  32.317  1.00  0.00     0.027 A 
ATOM     17  C   UNL A   1      35.875  33.817  34.688  1.00  0.00     0.011 A 
ATOM     18  C   UNL A   1      37.618  34.450  33.165  1.00  0.00     0.011 A 
BRANCH  14  19
ATOM     19  N   UNL A   1      34.275  35.722  31.983  1.00  0.00    -0.291 N 
ATOM     20  C   UNL A   1      33.485  35.388  30.918  1.00  0.00     0.412 C 
ATOM     21  O   UNL A   1      32.673  36.204  30.482  1.00  0.00    -0.224 OA
ATOM     22  H   UNL A   1      34.091  36.620  32.344  1.00  0.00     0.173 HD
BRANCH  20  23
ATOM     23  O   UNL A   1      33.639  34.131  30.455  1.00  0.00    -0.444 OA
BRANCH  23  24
ATOM     24  C   UNL A   1      34.103  33.872  29.105  1.00  0.00     0.106 C 
ATOM     25  C   UNL A   1      34.569  32.411  29.157  1.00  0.00     0.056 C 
ATOM     26  C   UNL A   1      35.293  34.751  28.717  1.00  0.00     0.056 C 
ATOM     27  C   UNL A   1      32.968  33.994  28.081  1.00  0.00     0.056 C 
ENDBRANCH  23  24
ENDBRANCH  20  23
ENDBRANCH  14  19
ENDBRANCH   7  13
ENDBRANCH   3   6
ENDBRANCH   1   2
BRANCH   1  28
ATOM     28  C   UNL A   1      37.106  31.103  31.944  1.00  0.00     0.042 C 
BRANCH  28  29
ATOM     29  C   UNL A   1      36.952  29.666  31.490  1.00  0.00     0.118 C 
BRANCH  29  30
ATOM     30  N   UNL A   1      36.305  29.493  30.194  1.00  0.00    -0.352 N 
ATOM     31  C   UNL A   1      36.831  29.198  28.961  1.00  0.00     0.251 C 
ATOM     32  H   UNL A   1      35.326  29.606  30.206  1.00  0.00     0.163 HD
ATOM     33  O   UNL A   1      36.074  29.008  28.015  1.00  0.00    -0.269 OA
BRANCH  31  34
ATOM     34  C   UNL A   1      38.291  29.155  28.761  1.00  0.00     0.039 A 
ATOM     35  C   UNL A   1      39.108  28.747  29.819  1.00  0.00     0.014 A 
ATOM     36  C   UNL A   1      38.854  29.478  27.529  1.00  0.00     0.014 A 
ATOM     37  C   UNL A   1      40.474  28.571  29.610  1.00  0.00     0.010 A 
ATOM     38  C   UNL A   1      40.183  29.181  27.284  1.00  0.00     0.010 A 
ATOM     39  C   UNL A   1      41.011  28.747  28.328  1.00  0.00    -0.014 A 
BRANCH  39  40
ATOM     40  C   UNL A   1      42.452  28.569  28.054  1.00  0.00     0.031 A 
ATOM     41  C   UNL A   1      43.372  29.742  28.259  1.00  0.00     0.074 A 
ATOM     42  C   UNL A   1      42.904  27.405  27.550  1.00  0.00     0.049 A 
ATOM     43  N   UNL A   1      44.638  29.857  27.965  1.00  0.00    -0.248 NA
ATOM     44  C   UNL A   1      42.777  30.963  28.836  1.00  0.00     0.031 C 
ATOM     45  C   UNL A   1      42.086  26.218  27.284  1.00  0.00     0.029 A 
ATOM     46  N   UNL A   1      44.163  27.032  27.159  1.00  0.00    -0.354 N 
ATOM     47  C   UNL A   1      44.980  31.164  28.291  1.00  0.00     0.074 A 
ATOM     48  C   UNL A   1      43.780  31.821  28.750  1.00  0.00     0.031 C 
ATOM     49  C   UNL A   1      42.870  25.246  26.789  1.00  0.00     0.029 A 
ATOM     50  C   UNL A   1      44.232  25.753  26.660  1.00  0.00     0.049 A 
ATOM     51  H   UNL A   1      44.946  27.626  27.228  1.00  0.00     0.167 HD
ATOM     52  C   UNL A   1      46.194  31.754  28.235  1.00  0.00     0.031 A 
ATOM     53  C   UNL A   1      45.276  25.075  26.146  1.00  0.00     0.031 A 
ATOM     54  C   UNL A   1      47.383  31.073  27.804  1.00  0.00     0.049 A 
ATOM     55  C   UNL A   1      46.618  25.758  26.096  1.00  0.00     0.074 A 
ATOM     56  C   UNL A   1      48.680  31.551  27.769  1.00  0.00     0.029 A 
ATOM     57  N   UNL A   1      47.419  29.768  27.337  1.00  0.00    -0.354 N 
ATOM     58  N   UNL A   1      46.940  26.973  26.475  1.00  0.00    -0.248 NA
ATOM     59  C   UNL A   1      47.740  24.975  25.563  1.00  0.00     0.031 C 
ATOM     60  C   UNL A   1      49.491  30.554  27.219  1.00  0.00     0.029 A 
ATOM     61  C   UNL A   1      48.712  29.432  26.980  1.00  0.00     0.049 A 
ATOM     62  H   UNL A   1      46.640  29.171  27.268  1.00  0.00     0.167 HD
ATOM     63  C   UNL A   1      48.308  27.089  26.253  1.00  0.00     0.074 A 
ATOM     64  C   UNL A   1      48.753  25.815  25.728  1.00  0.00     0.031 C 
ATOM     65  C   UNL A   1      49.124  28.153  26.462  1.00  0.00     0.031 A 
BRANCH  52  66
ATOM     66  C   UNL A   1      46.294  33.200  28.641  1.00  0.00    -0.014 A 
ATOM     67  C   UNL A   1      46.382  33.576  29.993  1.00  0.00     0.010 A 
ATOM     68  C   UNL A   1      46.354  34.194  27.648  1.00  0.00     0.010 A 
ATOM     69  C   UNL A   1      46.506  34.922  30.346  1.00  0.00     0.020 A 
ATOM     70  C   UNL A   1      46.509  35.539  27.996  1.00  0.00     0.020 A 
ATOM     71  C   UNL A   1      46.575  35.895  29.344  1.00  0.00     0.054 A 
BRANCH  71  72
ATOM     72  S   UNL A   1      46.801  37.626  29.831  1.00  0.00     0.124 S 
ATOM     73  O   UNL A   1      48.079  37.953  29.200  1.00  0.00    -0.237 OA
ATOM     74  O   UNL A   1      45.630  38.277  29.250  1.00  0.00    -0.237 OA
ATOM     75  O   UNL A   1      46.824  37.576  31.290  1.00  0.00    -0.744 OA
ENDBRANCH  71  72
ENDBRANCH  52  66
BRANCH  53  76
ATOM     76  C   UNL A   1      45.097  23.687  25.635  1.00  0.00    -0.014 A 
ATOM     77  C   UNL A   1      45.372  22.577  26.453  1.00  0.00     0.010 A 
ATOM     78  C   UNL A   1      44.661  23.468  24.315  1.00  0.00     0.010 A 
ATOM     79  C   UNL A   1      45.248  21.276  25.950  1.00  0.00     0.020 A 
ATOM     80  C   UNL A   1      44.503  22.170  23.820  1.00  0.00     0.020 A 
ATOM     81  C   UNL A   1      44.815  21.082  24.636  1.00  0.00     0.054 A 
BRANCH  81  82
ATOM     82  S   UNL A   1      44.637  19.387  24.012  1.00  0.00     0.124 S 
ATOM     83  O   UNL A   1      45.897  18.779  24.426  1.00  0.00    -0.237 OA
ATOM     84  O   UNL A   1      43.445  18.916  24.714  1.00  0.00    -0.237 OA
ATOM     85  O   UNL A   1      44.473  19.569  22.572  1.00  0.00    -0.744 OA
ENDBRANCH  81  82
ENDBRANCH  53  76
BRANCH  65  86
ATOM     86  C   UNL A   1      50.586  27.969  26.158  1.00  0.00    -0.014 A 
ATOM     87  C   UNL A   1      51.511  27.669  27.172  1.00  0.00     0.010 A 
ATOM     88  C   UNL A   1      51.026  28.037  24.823  1.00  0.00     0.010 A 
ATOM     89  C   UNL A   1      52.860  27.481  26.861  1.00  0.00     0.020 A 
ATOM     90  C   UNL A   1      52.366  27.814  24.504  1.00  0.00     0.020 A 
ATOM     91  C   UNL A   1      53.278  27.553  25.528  1.00  0.00     0.054 A 
BRANCH  91  92
ATOM     92  S   UNL A   1      55.026  27.265  25.148  1.00  0.00     0.124 S 
ATOM     93  O   UNL A   1      55.329  28.378  24.252  1.00  0.00    -0.237 OA
ATOM     94  O   UNL A   1      55.654  27.329  26.465  1.00  0.00    -0.237 OA
ATOM     95  O   UNL A   1      55.033  25.943  24.524  1.00  0.00    -0.744 OA
ENDBRANCH  91  92
ENDBRANCH  65  86
ENDBRANCH  39  40
ENDBRANCH  31  34
ENDBRANCH  29  30
ENDBRANCH  28  29
ENDBRANCH   1  28
TORSDOF 17
ENDMDL
