MODEL 1
REMARK VINA RESULT:     -14.1      0.000      0.000
REMARK SMILES Cc1ccc(C(=O)c2cccc(C)c2C(=O)NCCCNC(=O)c2ccc(-c3c4nc(c(-c5ccc(S(=O)(=O)[O-])cc5)c5ccc([nH]5)c(-c5ccc(S(=O)(=O)[O-])cc5)c5nc(c(-c6ccc(S(=O)(=O)[O-])cc6)c6ccc3[nH]6)C=C5)C=C4)cc2)c(C)c1
REMARK SMILES IDX 19 1 18 2 17 3 15 4 16 5 14 7 8 8 9 9 10 10 12 11 11 12
REMARK SMILES IDX 13 13 6 14 7 15 5 16 1 17 2 18 3 19 86 20 4 21 84 22 85 23
REMARK SMILES IDX 20 24 21 25 22 26 23 28 24 29 25 30 83 31 26 32 82 33 27 34
REMARK SMILES IDX 28 35 29 36 76 37 30 38 81 39 75 40 77 41 31 42 80 43 74 44
REMARK SMILES IDX 73 45 32 47 62 48 43 49 61 50 44 51 47 52 60 53 78 54 45 55
REMARK SMILES IDX 46 56 59 58 79 59 48 60 33 61 34 62 42 63 35 64 41 65 36 66
REMARK SMILES IDX 37 67 38 68 39 69 40 70 63 71 64 72 72 73 65 74 71 75 66 76
REMARK SMILES IDX 67 77 68 78 69 79 70 80 49 81 50 82 58 83 51 84 57 85 52 86
REMARK SMILES IDX 53 87 54 88 55 89 56 90
REMARK H PARENT 17 6 21 27 77 46 47 57
REMARK Flexibility Score: inf
ROOT
ATOM      1  C   UNL A   1      33.053  30.730  27.266  1.00  0.00     0.042 C 
ENDROOT
BRANCH   1   2
ATOM      2  C   UNL A   1      32.299  30.222  26.056  1.00  0.00     0.118 C 
BRANCH   2   3
ATOM      3  N   UNL A   1      33.119  29.597  25.038  1.00  0.00    -0.352 N 
ATOM      4  C   UNL A   1      32.778  28.665  24.080  1.00  0.00     0.252 C 
ATOM      5  O   UNL A   1      33.617  28.357  23.235  1.00  0.00    -0.269 OA
ATOM      6  H   UNL A   1      34.061  29.880  25.027  1.00  0.00     0.163 HD
BRANCH   4   7
ATOM      7  C   UNL A   1      31.470  27.936  24.115  1.00  0.00     0.053 A 
ATOM      8  C   UNL A   1      31.230  26.822  24.947  1.00  0.00     0.036 A 
ATOM      9  C   UNL A   1      29.983  26.171  24.923  1.00  0.00     0.013 A 
ATOM     10  C   UNL A   1      28.979  26.595  24.061  1.00  0.00     0.001 A 
ATOM     11  C   UNL A   1      30.405  28.420  23.306  1.00  0.00    -0.038 A 
ATOM     12  C   UNL A   1      29.181  27.724  23.275  1.00  0.00     0.004 A 
ATOM     13  C   UNL A   1      30.496  29.703  22.516  1.00  0.00     0.045 C 
BRANCH   8  14
ATOM     14  C   UNL A   1      32.175  26.411  26.011  1.00  0.00     0.194 C 
ATOM     15  O   UNL A   1      32.068  27.023  27.069  1.00  0.00    -0.289 OA
BRANCH  14  16
ATOM     16  C   UNL A   1      33.148  25.260  25.837  1.00  0.00     0.025 A 
ATOM     17  C   UNL A   1      35.853  21.966  25.053  1.00  0.00     0.044 C 
ATOM     18  C   UNL A   1      34.954  23.120  25.377  1.00  0.00    -0.051 A 
ATOM     19  C   UNL A   1      35.337  24.432  25.111  1.00  0.00     0.004 A 
ATOM     20  C   UNL A   1      33.697  22.890  25.945  1.00  0.00     0.007 A 
ATOM     21  C   UNL A   1      34.450  25.487  25.348  1.00  0.00     0.013 A 
ATOM     22  C   UNL A   1      32.799  23.944  26.211  1.00  0.00    -0.040 A 
ATOM     23  C   UNL A   1      31.516  23.600  26.926  1.00  0.00     0.045 C 
ENDBRANCH  14  16
ENDBRANCH   8  14
ENDBRANCH   4   7
ENDBRANCH   2   3
ENDBRANCH   1   2
BRANCH   1  24
ATOM     24  C   UNL A   1      34.519  30.310  27.247  1.00  0.00     0.118 C 
BRANCH  24  25
ATOM     25  N   UNL A   1      35.395  31.320  27.862  1.00  0.00    -0.352 N 
ATOM     26  C   UNL A   1      36.678  31.157  28.355  1.00  0.00     0.251 C 
ATOM     27  H   UNL A   1      35.020  32.227  27.933  1.00  0.00     0.163 HD
ATOM     28  O   UNL A   1      37.304  32.048  28.917  1.00  0.00    -0.269 OA
BRANCH  26  29
ATOM     29  C   UNL A   1      37.280  29.828  28.159  1.00  0.00     0.039 A 
ATOM     30  C   UNL A   1      37.351  29.001  29.285  1.00  0.00     0.014 A 
ATOM     31  C   UNL A   1      38.148  29.685  27.078  1.00  0.00     0.014 A 
ATOM     32  C   UNL A   1      38.455  28.175  29.440  1.00  0.00     0.010 A 
ATOM     33  C   UNL A   1      39.279  28.914  27.272  1.00  0.00     0.010 A 
ATOM     34  C   UNL A   1      39.473  28.236  28.491  1.00  0.00    -0.014 A 
BRANCH  34  35
ATOM     35  C   UNL A   1      40.819  27.725  28.738  1.00  0.00     0.031 A 
ATOM     36  C   UNL A   1      41.113  26.304  28.431  1.00  0.00     0.074 A 
ATOM     37  C   UNL A   1      41.814  28.533  29.185  1.00  0.00     0.049 A 
ATOM     38  N   UNL A   1      42.115  25.641  28.903  1.00  0.00    -0.248 NA
ATOM     39  C   UNL A   1      40.230  25.485  27.605  1.00  0.00     0.031 C 
ATOM     40  C   UNL A   1      43.244  28.210  29.204  1.00  0.00     0.029 A 
ATOM     41  N   UNL A   1      41.754  29.737  29.899  1.00  0.00    -0.354 N 
ATOM     42  C   UNL A   1      42.195  24.457  28.206  1.00  0.00     0.074 A 
ATOM     43  C   UNL A   1      40.940  24.360  27.500  1.00  0.00     0.031 C 
ATOM     44  C   UNL A   1      43.844  28.964  30.136  1.00  0.00     0.029 A 
ATOM     45  C   UNL A   1      42.793  29.669  30.845  1.00  0.00     0.049 A 
ATOM     46  H   UNL A   1      41.117  30.476  29.766  1.00  0.00     0.167 HD
ATOM     47  C   UNL A   1      43.374  23.771  28.190  1.00  0.00     0.031 A 
ATOM     48  C   UNL A   1      42.616  29.630  32.200  1.00  0.00     0.031 A 
ATOM     49  C   UNL A   1      44.326  24.310  29.168  1.00  0.00     0.049 A 
ATOM     50  C   UNL A   1      43.244  28.415  32.872  1.00  0.00     0.074 A 
ATOM     51  C   UNL A   1      45.489  25.056  29.081  1.00  0.00     0.029 A 
ATOM     52  N   UNL A   1      43.962  24.325  30.512  1.00  0.00    -0.354 N 
ATOM     53  N   UNL A   1      43.748  27.390  32.238  1.00  0.00    -0.248 NA
ATOM     54  C   UNL A   1      43.292  28.233  34.320  1.00  0.00     0.031 C 
ATOM     55  C   UNL A   1      45.796  25.556  30.381  1.00  0.00     0.029 A 
ATOM     56  C   UNL A   1      44.835  25.091  31.262  1.00  0.00     0.049 A 
ATOM     57  H   UNL A   1      43.182  23.850  30.881  1.00  0.00     0.167 HD
ATOM     58  C   UNL A   1      44.141  26.420  33.131  1.00  0.00     0.074 A 
ATOM     59  C   UNL A   1      43.854  27.015  34.425  1.00  0.00     0.031 C 
ATOM     60  C   UNL A   1      44.634  25.210  32.710  1.00  0.00     0.031 A 
BRANCH  47  61
ATOM     61  C   UNL A   1      43.739  22.783  27.093  1.00  0.00    -0.014 A 
ATOM     62  C   UNL A   1      42.851  21.741  26.753  1.00  0.00     0.010 A 
ATOM     63  C   UNL A   1      44.978  22.763  26.422  1.00  0.00     0.010 A 
ATOM     64  C   UNL A   1      43.218  20.698  25.878  1.00  0.00     0.020 A 
ATOM     65  C   UNL A   1      45.372  21.719  25.573  1.00  0.00     0.020 A 
ATOM     66  C   UNL A   1      44.491  20.681  25.315  1.00  0.00     0.054 A 
BRANCH  66  67
ATOM     67  S   UNL A   1      44.998  19.297  24.261  1.00  0.00     0.124 S 
ATOM     68  O   UNL A   1      46.451  19.308  24.402  1.00  0.00    -0.237 OA
ATOM     69  O   UNL A   1      44.310  18.166  24.878  1.00  0.00    -0.237 OA
ATOM     70  O   UNL A   1      44.506  19.671  22.936  1.00  0.00    -0.744 OA
ENDBRANCH  66  67
ENDBRANCH  47  61
BRANCH  48  71
ATOM     71  C   UNL A   1      41.411  30.354  32.691  1.00  0.00    -0.014 A 
ATOM     72  C   UNL A   1      40.241  29.596  32.907  1.00  0.00     0.010 A 
ATOM     73  C   UNL A   1      41.530  31.611  33.309  1.00  0.00     0.010 A 
ATOM     74  C   UNL A   1      39.303  29.991  33.863  1.00  0.00     0.020 A 
ATOM     75  C   UNL A   1      40.584  32.015  34.264  1.00  0.00     0.020 A 
ATOM     76  C   UNL A   1      39.517  31.168  34.582  1.00  0.00     0.054 A 
BRANCH  76  77
ATOM     77  S   UNL A   1      38.522  31.443  36.079  1.00  0.00     0.124 S 
ATOM     78  O   UNL A   1      38.404  30.098  36.633  1.00  0.00    -0.237 OA
ATOM     79  O   UNL A   1      39.365  32.367  36.836  1.00  0.00    -0.237 OA
ATOM     80  O   UNL A   1      37.286  32.021  35.559  1.00  0.00    -0.744 OA
ENDBRANCH  76  77
ENDBRANCH  48  71
BRANCH  60  81
ATOM     81  C   UNL A   1      44.992  23.991  33.561  1.00  0.00    -0.014 A 
ATOM     82  C   UNL A   1      44.111  22.972  33.949  1.00  0.00     0.010 A 
ATOM     83  C   UNL A   1      46.339  23.830  33.986  1.00  0.00     0.010 A 
ATOM     84  C   UNL A   1      44.541  21.862  34.698  1.00  0.00     0.020 A 
ATOM     85  C   UNL A   1      46.788  22.719  34.711  1.00  0.00     0.020 A 
ATOM     86  C   UNL A   1      45.878  21.739  35.071  1.00  0.00     0.054 A 
BRANCH  86  87
ATOM     87  S   UNL A   1      46.409  20.274  35.991  1.00  0.00     0.124 S 
ATOM     88  O   UNL A   1      45.968  19.189  35.120  1.00  0.00    -0.237 OA
ATOM     89  O   UNL A   1      47.857  20.461  36.074  1.00  0.00    -0.237 OA
ATOM     90  O   UNL A   1      45.700  20.384  37.263  1.00  0.00    -0.744 OA
ENDBRANCH  86  87
ENDBRANCH  60  81
ENDBRANCH  34  35
ENDBRANCH  26  29
ENDBRANCH  24  25
ENDBRANCH   1  24
TORSDOF 15
ENDMDL
MODEL 2
REMARK VINA RESULT:     -13.9      4.866     11.445
REMARK SMILES Cc1ccc(C(=O)c2cccc(C)c2C(=O)NCCCNC(=O)c2ccc(-c3c4nc(c(-c5ccc(S(=O)(=O)[O-])cc5)c5ccc([nH]5)c(-c5ccc(S(=O)(=O)[O-])cc5)c5nc(c(-c6ccc(S(=O)(=O)[O-])cc6)c6ccc3[nH]6)C=C5)C=C4)cc2)c(C)c1
REMARK SMILES IDX 19 1 18 2 17 3 15 4 16 5 14 7 8 8 9 9 10 10 12 11 11 12
REMARK SMILES IDX 13 13 6 14 7 15 5 16 1 17 2 18 3 19 86 20 4 21 84 22 85 23
REMARK SMILES IDX 20 24 21 25 22 26 23 28 24 29 25 30 83 31 26 32 82 33 27 34
REMARK SMILES IDX 28 35 29 36 76 37 30 38 81 39 75 40 77 41 31 42 80 43 74 44
REMARK SMILES IDX 73 45 32 47 62 48 43 49 61 50 44 51 47 52 60 53 78 54 45 55
REMARK SMILES IDX 46 56 59 58 79 59 48 60 33 61 34 62 42 63 35 64 41 65 36 66
REMARK SMILES IDX 37 67 38 68 39 69 40 70 63 71 64 72 72 73 65 74 71 75 66 76
REMARK SMILES IDX 67 77 68 78 69 79 70 80 49 81 50 82 58 83 51 84 57 85 52 86
REMARK SMILES IDX 53 87 54 88 55 89 56 90
REMARK H PARENT 17 6 21 27 77 46 47 57
REMARK Flexibility Score: inf
ROOT
ATOM      1  C   UNL A   1      38.242  21.582  25.573  1.00  0.00     0.042 C 
ENDROOT
BRANCH   1   2
ATOM      2  C   UNL A   1      36.776  21.475  25.208  1.00  0.00     0.118 C 
BRANCH   2   3
ATOM      3  N   UNL A   1      35.862  22.088  26.149  1.00  0.00    -0.352 N 
ATOM      4  C   UNL A   1      34.490  22.214  26.092  1.00  0.00     0.252 C 
ATOM      5  O   UNL A   1      33.900  22.674  27.068  1.00  0.00    -0.269 OA
ATOM      6  H   UNL A   1      36.283  22.473  26.951  1.00  0.00     0.163 HD
BRANCH   4   7
ATOM      7  C   UNL A   1      33.721  21.924  24.839  1.00  0.00     0.053 A 
ATOM      8  C   UNL A   1      33.619  22.836  23.768  1.00  0.00     0.036 A 
ATOM      9  C   UNL A   1      32.868  22.509  22.624  1.00  0.00     0.013 A 
ATOM     10  C   UNL A   1      32.192  21.298  22.542  1.00  0.00     0.001 A 
ATOM     11  C   UNL A   1      33.103  20.649  24.706  1.00  0.00    -0.038 A 
ATOM     12  C   UNL A   1      32.327  20.367  23.566  1.00  0.00     0.004 A 
ATOM     13  C   UNL A   1      33.295  19.539  25.710  1.00  0.00     0.045 C 
BRANCH   8  14
ATOM     14  C   UNL A   1      34.439  24.068  23.696  1.00  0.00     0.194 C 
ATOM     15  O   UNL A   1      35.534  23.935  23.162  1.00  0.00    -0.289 OA
BRANCH  14  16
ATOM     16  C   UNL A   1      33.929  25.414  24.173  1.00  0.00     0.025 A 
ATOM     17  C   UNL A   1      32.236  29.124  25.642  1.00  0.00     0.044 C 
ATOM     18  C   UNL A   1      32.880  27.870  25.135  1.00  0.00    -0.051 A 
ATOM     19  C   UNL A   1      33.597  27.031  25.984  1.00  0.00     0.004 A 
ATOM     20  C   UNL A   1      32.758  27.515  23.788  1.00  0.00     0.007 A 
ATOM     21  C   UNL A   1      34.122  25.826  25.507  1.00  0.00     0.013 A 
ATOM     22  C   UNL A   1      33.300  26.315  23.285  1.00  0.00    -0.040 A 
ATOM     23  C   UNL A   1      33.208  26.080  21.797  1.00  0.00     0.045 C 
ENDBRANCH  14  16
ENDBRANCH   8  14
ENDBRANCH   4   7
ENDBRANCH   2   3
ENDBRANCH   1   2
BRANCH   1  24
ATOM     24  C   UNL A   1      38.585  22.937  26.180  1.00  0.00     0.118 C 
BRANCH  24  25
ATOM     25  N   UNL A   1      39.876  22.921  26.886  1.00  0.00    -0.352 N 
ATOM     26  C   UNL A   1      40.513  23.965  27.535  1.00  0.00     0.251 C 
ATOM     27  H   UNL A   1      40.347  22.057  26.897  1.00  0.00     0.163 HD
ATOM     28  O   UNL A   1      41.628  23.868  28.036  1.00  0.00    -0.269 OA
BRANCH  26  29
ATOM     29  C   UNL A   1      39.767  25.230  27.607  1.00  0.00     0.039 A 
ATOM     30  C   UNL A   1      40.231  26.278  26.806  1.00  0.00     0.014 A 
ATOM     31  C   UNL A   1      39.023  25.455  28.764  1.00  0.00     0.014 A 
ATOM     32  C   UNL A   1      40.159  27.576  27.292  1.00  0.00     0.010 A 
ATOM     33  C   UNL A   1      39.018  26.740  29.274  1.00  0.00     0.010 A 
ATOM     34  C   UNL A   1      39.668  27.779  28.581  1.00  0.00    -0.014 A 
BRANCH  34  35
ATOM     35  C   UNL A   1      39.900  29.011  29.332  1.00  0.00     0.031 A 
ATOM     36  C   UNL A   1      38.918  30.115  29.215  1.00  0.00     0.074 A 
ATOM     37  C   UNL A   1      40.958  29.140  30.173  1.00  0.00     0.049 A 
ATOM     38  N   UNL A   1      39.153  31.345  29.527  1.00  0.00    -0.248 NA
ATOM     39  C   UNL A   1      37.586  29.920  28.650  1.00  0.00     0.031 C 
ATOM     40  C   UNL A   1      41.138  30.198  31.172  1.00  0.00     0.029 A 
ATOM     41  N   UNL A   1      42.190  28.477  30.191  1.00  0.00    -0.354 N 
ATOM     42  C   UNL A   1      37.950  32.013  29.524  1.00  0.00     0.074 A 
ATOM     43  C   UNL A   1      37.034  31.116  28.861  1.00  0.00     0.031 C 
ATOM     44  C   UNL A   1      42.447  30.320  31.439  1.00  0.00     0.029 A 
ATOM     45  C   UNL A   1      43.147  29.460  30.504  1.00  0.00     0.049 A 
ATOM     46  H   UNL A   1      42.354  27.521  30.020  1.00  0.00     0.167 HD
ATOM     47  C   UNL A   1      37.834  33.184  30.215  1.00  0.00     0.031 A 
ATOM     48  C   UNL A   1      44.139  29.880  29.664  1.00  0.00     0.031 A 
ATOM     49  C   UNL A   1      39.141  33.681  30.659  1.00  0.00     0.049 A 
ATOM     50  C   UNL A   1      44.123  31.378  29.386  1.00  0.00     0.074 A 
ATOM     51  C   UNL A   1      39.787  33.759  31.881  1.00  0.00     0.029 A 
ATOM     52  N   UNL A   1      40.111  33.951  29.696  1.00  0.00    -0.354 N 
ATOM     53  N   UNL A   1      43.164  32.191  29.740  1.00  0.00    -0.248 NA
ATOM     54  C   UNL A   1      45.163  32.066  28.625  1.00  0.00     0.031 C 
ATOM     55  C   UNL A   1      41.165  34.035  31.640  1.00  0.00     0.029 A 
ATOM     56  C   UNL A   1      41.351  34.153  30.273  1.00  0.00     0.049 A 
ATOM     57  H   UNL A   1      39.936  33.993  28.728  1.00  0.00     0.167 HD
ATOM     58  C   UNL A   1      43.403  33.455  29.252  1.00  0.00     0.074 A 
ATOM     59  C   UNL A   1      44.685  33.323  28.582  1.00  0.00     0.031 C 
ATOM     60  C   UNL A   1      42.502  34.476  29.425  1.00  0.00     0.031 A 
BRANCH  47  61
ATOM     61  C   UNL A   1      36.500  33.723  30.708  1.00  0.00    -0.014 A 
ATOM     62  C   UNL A   1      35.499  34.092  29.785  1.00  0.00     0.010 A 
ATOM     63  C   UNL A   1      36.198  33.981  32.060  1.00  0.00     0.010 A 
ATOM     64  C   UNL A   1      34.324  34.763  30.180  1.00  0.00     0.020 A 
ATOM     65  C   UNL A   1      35.050  34.674  32.469  1.00  0.00     0.020 A 
ATOM     66  C   UNL A   1      34.122  35.075  31.521  1.00  0.00     0.054 A 
BRANCH  66  67
ATOM     67  S   UNL A   1      32.657  36.016  32.022  1.00  0.00     0.124 S 
ATOM     68  O   UNL A   1      33.193  36.924  33.032  1.00  0.00    -0.237 OA
ATOM     69  O   UNL A   1      32.240  36.638  30.768  1.00  0.00    -0.237 OA
ATOM     70  O   UNL A   1      31.747  34.994  32.537  1.00  0.00    -0.744 OA
ENDBRANCH  66  67
ENDBRANCH  47  61
BRANCH  48  71
ATOM     71  C   UNL A   1      44.643  28.840  28.725  1.00  0.00    -0.014 A 
ATOM     72  C   UNL A   1      43.971  28.698  27.493  1.00  0.00     0.010 A 
ATOM     73  C   UNL A   1      45.944  28.325  28.853  1.00  0.00     0.010 A 
ATOM     74  C   UNL A   1      44.648  28.232  26.363  1.00  0.00     0.020 A 
ATOM     75  C   UNL A   1      46.623  27.847  27.721  1.00  0.00     0.020 A 
ATOM     76  C   UNL A   1      45.991  27.871  26.474  1.00  0.00     0.054 A 
BRANCH  76  77
ATOM     77  S   UNL A   1      46.946  27.666  24.939  1.00  0.00     0.124 S 
ATOM     78  O   UNL A   1      46.595  28.864  24.185  1.00  0.00    -0.237 OA
ATOM     79  O   UNL A   1      48.317  27.613  25.443  1.00  0.00    -0.237 OA
ATOM     80  O   UNL A   1      46.440  26.409  24.394  1.00  0.00    -0.744 OA
ENDBRANCH  76  77
ENDBRANCH  48  71
BRANCH  60  81
ATOM     81  C   UNL A   1      42.557  35.889  28.841  1.00  0.00    -0.014 A 
ATOM     82  C   UNL A   1      43.121  37.013  29.460  1.00  0.00     0.010 A 
ATOM     83  C   UNL A   1      42.027  36.109  27.540  1.00  0.00     0.010 A 
ATOM     84  C   UNL A   1      43.166  38.268  28.826  1.00  0.00     0.020 A 
ATOM     85  C   UNL A   1      42.085  37.345  26.886  1.00  0.00     0.020 A 
ATOM     86  C   UNL A   1      42.652  38.426  27.540  1.00  0.00     0.054 A 
BRANCH  86  87
ATOM     87  S   UNL A   1      42.770  40.041  26.732  1.00  0.00     0.124 S 
ATOM     88  O   UNL A   1      41.482  40.136  26.051  1.00  0.00    -0.237 OA
ATOM     89  O   UNL A   1      42.948  40.949  27.864  1.00  0.00    -0.237 OA
ATOM     90  O   UNL A   1      43.932  39.910  25.857  1.00  0.00    -0.744 OA
ENDBRANCH  86  87
ENDBRANCH  60  81
ENDBRANCH  34  35
ENDBRANCH  26  29
ENDBRANCH  24  25
ENDBRANCH   1  24
TORSDOF 15
ENDMDL
MODEL 3
REMARK VINA RESULT:     -13.2      5.048     11.406
REMARK SMILES Cc1ccc(C(=O)c2cccc(C)c2C(=O)NCCCNC(=O)c2ccc(-c3c4nc(c(-c5ccc(S(=O)(=O)[O-])cc5)c5ccc([nH]5)c(-c5ccc(S(=O)(=O)[O-])cc5)c5nc(c(-c6ccc(S(=O)(=O)[O-])cc6)c6ccc3[nH]6)C=C5)C=C4)cc2)c(C)c1
REMARK SMILES IDX 19 1 18 2 17 3 15 4 16 5 14 7 8 8 9 9 10 10 12 11 11 12
REMARK SMILES IDX 13 13 6 14 7 15 5 16 1 17 2 18 3 19 86 20 4 21 84 22 85 23
REMARK SMILES IDX 20 24 21 25 22 26 23 28 24 29 25 30 83 31 26 32 82 33 27 34
REMARK SMILES IDX 28 35 29 36 76 37 30 38 81 39 75 40 77 41 31 42 80 43 74 44
REMARK SMILES IDX 73 45 32 47 62 48 43 49 61 50 44 51 47 52 60 53 78 54 45 55
REMARK SMILES IDX 46 56 59 58 79 59 48 60 33 61 34 62 42 63 35 64 41 65 36 66
REMARK SMILES IDX 37 67 38 68 39 69 40 70 63 71 64 72 72 73 65 74 71 75 66 76
REMARK SMILES IDX 67 77 68 78 69 79 70 80 49 81 50 82 58 83 51 84 57 85 52 86
REMARK SMILES IDX 53 87 54 88 55 89 56 90
REMARK H PARENT 17 6 21 27 77 46 47 57
REMARK Flexibility Score: inf
ROOT
ATOM      1  C   UNL A   1      38.112  21.545  25.487  1.00  0.00     0.042 C 
ENDROOT
BRANCH   1   2
ATOM      2  C   UNL A   1      36.627  21.336  25.282  1.00  0.00     0.118 C 
BRANCH   2   3
ATOM      3  N   UNL A   1      35.800  21.622  26.436  1.00  0.00    -0.352 N 
ATOM      4  C   UNL A   1      34.622  22.333  26.523  1.00  0.00     0.252 C 
ATOM      5  O   UNL A   1      34.024  22.352  27.597  1.00  0.00    -0.269 OA
ATOM      6  H   UNL A   1      36.128  21.253  27.287  1.00  0.00     0.163 HD
BRANCH   4   7
ATOM      7  C   UNL A   1      34.120  23.175  25.389  1.00  0.00     0.053 A 
ATOM      8  C   UNL A   1      33.029  22.801  24.576  1.00  0.00     0.036 A 
ATOM      9  C   UNL A   1      32.615  23.630  23.517  1.00  0.00     0.013 A 
ATOM     10  C   UNL A   1      33.290  24.811  23.236  1.00  0.00     0.001 A 
ATOM     11  C   UNL A   1      34.745  24.431  25.152  1.00  0.00    -0.038 A 
ATOM     12  C   UNL A   1      34.332  25.219  24.061  1.00  0.00     0.004 A 
ATOM     13  C   UNL A   1      35.799  25.005  26.067  1.00  0.00     0.045 C 
BRANCH   8  14
ATOM     14  C   UNL A   1      32.152  21.655  24.906  1.00  0.00     0.194 C 
ATOM     15  O   UNL A   1      31.085  21.949  25.435  1.00  0.00    -0.289 OA
BRANCH  14  16
ATOM     16  C   UNL A   1      32.506  20.226  24.541  1.00  0.00     0.025 A 
ATOM     17  C   UNL A   1      33.805  16.222  23.504  1.00  0.00     0.044 C 
ATOM     18  C   UNL A   1      33.300  17.581  23.885  1.00  0.00    -0.051 A 
ATOM     19  C   UNL A   1      33.288  18.002  25.212  1.00  0.00     0.004 A 
ATOM     20  C   UNL A   1      32.839  18.459  22.899  1.00  0.00     0.007 A 
ATOM     21  C   UNL A   1      32.888  19.303  25.535  1.00  0.00     0.013 A 
ATOM     22  C   UNL A   1      32.411  19.765  23.210  1.00  0.00    -0.040 A 
ATOM     23  C   UNL A   1      31.830  20.592  22.088  1.00  0.00     0.045 C 
ENDBRANCH  14  16
ENDBRANCH   8  14
ENDBRANCH   4   7
ENDBRANCH   2   3
ENDBRANCH   1   2
BRANCH   1  24
ATOM     24  C   UNL A   1      38.413  22.857  26.202  1.00  0.00     0.118 C 
BRANCH  24  25
ATOM     25  N   UNL A   1      39.709  22.828  26.898  1.00  0.00    -0.352 N 
ATOM     26  C   UNL A   1      40.369  23.869  27.527  1.00  0.00     0.251 C 
ATOM     27  H   UNL A   1      40.164  21.956  26.919  1.00  0.00     0.163 HD
ATOM     28  O   UNL A   1      41.486  23.759  28.022  1.00  0.00    -0.269 OA
BRANCH  26  29
ATOM     29  C   UNL A   1      39.646  25.148  27.587  1.00  0.00     0.039 A 
ATOM     30  C   UNL A   1      40.132  26.180  26.777  1.00  0.00     0.014 A 
ATOM     31  C   UNL A   1      38.905  25.398  28.740  1.00  0.00     0.014 A 
ATOM     32  C   UNL A   1      40.083  27.484  27.252  1.00  0.00     0.010 A 
ATOM     33  C   UNL A   1      38.923  26.687  29.239  1.00  0.00     0.010 A 
ATOM     34  C   UNL A   1      39.594  27.708  28.538  1.00  0.00    -0.014 A 
BRANCH  34  35
ATOM     35  C   UNL A   1      39.847  28.941  29.278  1.00  0.00     0.031 A 
ATOM     36  C   UNL A   1      38.870  30.052  29.173  1.00  0.00     0.074 A 
ATOM     37  C   UNL A   1      40.920  29.068  30.100  1.00  0.00     0.049 A 
ATOM     38  N   UNL A   1      39.119  31.282  29.475  1.00  0.00    -0.248 NA
ATOM     39  C   UNL A   1      37.527  29.862  28.633  1.00  0.00     0.031 C 
ATOM     40  C   UNL A   1      41.125  30.130  31.090  1.00  0.00     0.029 A 
ATOM     41  N   UNL A   1      42.148  28.396  30.099  1.00  0.00    -0.354 N 
ATOM     42  C   UNL A   1      37.920  31.957  29.490  1.00  0.00     0.074 A 
ATOM     43  C   UNL A   1      36.986  31.063  28.848  1.00  0.00     0.031 C 
ATOM     44  C   UNL A   1      42.440  30.244  31.333  1.00  0.00     0.029 A 
ATOM     45  C   UNL A   1      43.117  29.375  30.390  1.00  0.00     0.049 A 
ATOM     46  H   UNL A   1      42.303  27.438  29.930  1.00  0.00     0.167 HD
ATOM     47  C   UNL A   1      37.824  33.132  30.176  1.00  0.00     0.031 A 
ATOM     48  C   UNL A   1      44.097  29.784  29.530  1.00  0.00     0.031 A 
ATOM     49  C   UNL A   1      39.142  33.623  30.594  1.00  0.00     0.049 A 
ATOM     50  C   UNL A   1      44.086  31.281  29.245  1.00  0.00     0.074 A 
ATOM     51  C   UNL A   1      39.810  33.702  31.805  1.00  0.00     0.029 A 
ATOM     52  N   UNL A   1      40.097  33.882  29.613  1.00  0.00    -0.354 N 
ATOM     53  N   UNL A   1      43.138  32.102  29.612  1.00  0.00    -0.248 NA
ATOM     54  C   UNL A   1      45.116  31.958  28.462  1.00  0.00     0.031 C 
ATOM     55  C   UNL A   1      41.186  33.968  31.538  1.00  0.00     0.029 A 
ATOM     56  C   UNL A   1      41.348  34.078  30.167  1.00  0.00     0.049 A 
ATOM     57  H   UNL A   1      39.904  33.921  28.648  1.00  0.00     0.167 HD
ATOM     58  C   UNL A   1      43.377  33.362  29.113  1.00  0.00     0.074 A 
ATOM     59  C   UNL A   1      44.646  33.218  28.421  1.00  0.00     0.031 C 
ATOM     60  C   UNL A   1      42.486  34.390  29.296  1.00  0.00     0.031 A 
BRANCH  47  61
ATOM     61  C   UNL A   1      36.503  33.683  30.690  1.00  0.00    -0.014 A 
ATOM     62  C   UNL A   1      35.468  34.001  29.787  1.00  0.00     0.010 A 
ATOM     63  C   UNL A   1      36.245  34.000  32.039  1.00  0.00     0.010 A 
ATOM     64  C   UNL A   1      34.300  34.680  30.191  1.00  0.00     0.020 A 
ATOM     65  C   UNL A   1      35.105  34.702  32.455  1.00  0.00     0.020 A 
ATOM     66  C   UNL A   1      34.141  35.052  31.523  1.00  0.00     0.054 A 
BRANCH  66  67
ATOM     67  S   UNL A   1      32.685  36.003  32.031  1.00  0.00     0.124 S 
ATOM     68  O   UNL A   1      32.265  36.630  30.781  1.00  0.00    -0.237 OA
ATOM     69  O   UNL A   1      31.798  34.966  32.550  1.00  0.00    -0.237 OA
ATOM     70  O   UNL A   1      33.208  36.928  33.036  1.00  0.00    -0.744 OA
ENDBRANCH  66  67
ENDBRANCH  47  61
BRANCH  48  71
ATOM     71  C   UNL A   1      44.577  28.736  28.588  1.00  0.00    -0.014 A 
ATOM     72  C   UNL A   1      43.967  28.677  27.317  1.00  0.00     0.010 A 
ATOM     73  C   UNL A   1      45.829  28.124  28.769  1.00  0.00     0.010 A 
ATOM     74  C   UNL A   1      44.670  28.193  26.212  1.00  0.00     0.020 A 
ATOM     75  C   UNL A   1      46.534  27.629  27.662  1.00  0.00     0.020 A 
ATOM     76  C   UNL A   1      45.976  27.733  26.383  1.00  0.00     0.054 A 
BRANCH  76  77
ATOM     77  S   UNL A   1      46.998  27.500  24.897  1.00  0.00     0.124 S 
ATOM     78  O   UNL A   1      46.618  28.640  24.069  1.00  0.00    -0.237 OA
ATOM     79  O   UNL A   1      48.350  27.544  25.451  1.00  0.00    -0.237 OA
ATOM     80  O   UNL A   1      46.577  26.193  24.400  1.00  0.00    -0.744 OA
ENDBRANCH  76  77
ENDBRANCH  48  71
BRANCH  60  81
ATOM     81  C   UNL A   1      42.540  35.799  28.705  1.00  0.00    -0.014 A 
ATOM     82  C   UNL A   1      41.878  36.231  27.548  1.00  0.00     0.010 A 
ATOM     83  C   UNL A   1      43.293  36.794  29.387  1.00  0.00     0.010 A 
ATOM     84  C   UNL A   1      41.950  37.564  27.102  1.00  0.00     0.020 A 
ATOM     85  C   UNL A   1      43.355  38.130  28.970  1.00  0.00     0.020 A 
ATOM     86  C   UNL A   1      42.684  38.507  27.818  1.00  0.00     0.054 A 
BRANCH  86  87
ATOM     87  S   UNL A   1      42.717  40.224  27.248  1.00  0.00     0.124 S 
ATOM     88  O   UNL A   1      43.085  40.943  28.463  1.00  0.00    -0.237 OA
ATOM     89  O   UNL A   1      43.741  40.191  26.205  1.00  0.00    -0.237 OA
ATOM     90  O   UNL A   1      41.357  40.459  26.768  1.00  0.00    -0.744 OA
ENDBRANCH  86  87
ENDBRANCH  60  81
ENDBRANCH  34  35
ENDBRANCH  26  29
ENDBRANCH  24  25
ENDBRANCH   1  24
TORSDOF 15
ENDMDL
