MODEL 1
REMARK VINA RESULT:     -11.2      0.000      0.000
REMARK SMILES Cc1ccc(-n2nc(C(=O)NCCCNC(=O)c3ccc(-c4c5nc(c(-c6ccc(S(=O)(=O)[O-])cc6)c6ccc([nH]6)c(-c6ccc(S(=O)(=O)[O-])cc6)c6nc(c(-c7ccc(S(=O)(=O)[O-])cc7)c7ccc4[nH]7)C=C6)C=C5)cc3)c3c2CCC3)c(F)c1
REMARK SMILES IDX 14 1 13 2 12 3 11 4 9 5 10 6 8 8 6 9 7 10 79 11 78 12 80 13
REMARK SMILES IDX 82 14 81 15 5 16 1 17 2 18 3 19 85 20 4 21 83 22 84 23 15 24
REMARK SMILES IDX 16 25 17 27 18 28 19 29 77 30 20 31 76 32 21 33 22 34 23 35
REMARK SMILES IDX 70 36 24 37 75 38 69 39 71 40 25 41 74 42 68 43 67 44 26 46
REMARK SMILES IDX 56 47 37 48 55 49 38 50 41 51 54 52 72 53 39 54 40 55 53 57
REMARK SMILES IDX 73 58 42 59 27 60 28 61 36 62 29 63 35 64 30 65 31 66 32 67
REMARK SMILES IDX 33 68 34 69 57 70 58 71 66 72 59 73 65 74 60 75 61 76 62 77
REMARK SMILES IDX 63 78 64 79 43 80 44 81 52 82 45 83 51 84 46 85 47 86 48 87
REMARK SMILES IDX 49 88 50 89
REMARK H PARENT 11 7 15 26 71 45 41 56
REMARK Flexibility Score: inf
ROOT
ATOM      1  C   UNL A   1      41.595  21.355  27.708  1.00  0.00     0.118 C 
ENDROOT
BRANCH   1   2
ATOM      2  C   UNL A   1      42.625  20.362  27.182  1.00  0.00     0.042 C 
BRANCH   2   3
ATOM      3  C   UNL A   1      42.882  20.546  25.684  1.00  0.00     0.118 C 
BRANCH   3   4
ATOM      4  N   UNL A   1      44.298  20.539  25.350  1.00  0.00    -0.351 N 
ATOM      5  C   UNL A   1      45.311  21.412  25.680  1.00  0.00     0.272 C 
ATOM      6  O   UNL A   1      46.446  21.131  25.285  1.00  0.00    -0.267 OA
ATOM      7  H   UNL A   1      44.580  19.780  24.790  1.00  0.00     0.163 HD
BRANCH   5   8
ATOM      8  C   UNL A   1      45.063  22.630  26.469  1.00  0.00     0.154 A 
ATOM      9  N   UNL A   1      45.002  24.038  28.123  1.00  0.00    -0.234 N 
ATOM     10  N   UNL A   1      45.368  22.777  27.779  1.00  0.00    -0.162 NA
ATOM     11  C   UNL A   1      44.449  24.678  27.061  1.00  0.00     0.048 A 
ATOM     12  C   UNL A   1      44.510  23.833  25.993  1.00  0.00     0.007 A 
ATOM     13  C   UNL A   1      44.023  26.047  26.738  1.00  0.00     0.057 C 
ATOM     14  C   UNL A   1      44.066  24.481  24.747  1.00  0.00     0.040 C 
ATOM     15  C   UNL A   1      43.479  25.836  25.282  1.00  0.00     0.011 C 
BRANCH   9  16
ATOM     16  C   UNL A   1      45.172  24.507  29.435  1.00  0.00     0.101 A 
ATOM     17  C   UNL A   1      45.674  25.898  33.473  1.00  0.00     0.044 C 
ATOM     18  C   UNL A   1      45.489  25.441  32.058  1.00  0.00    -0.048 A 
ATOM     19  C   UNL A   1      46.347  25.880  31.040  1.00  0.00     0.006 A 
ATOM     20  C   UNL A   1      44.471  24.530  31.746  1.00  0.00     0.045 A 
ATOM     21  C   UNL A   1      46.204  25.403  29.734  1.00  0.00     0.032 A 
ATOM     22  C   UNL A   1      44.300  24.087  30.438  1.00  0.00     0.149 A 
ATOM     23  F   UNL A   1      43.342  23.178  30.203  1.00  0.00    -0.205 F 
ENDBRANCH   9  16
ENDBRANCH   5   8
ENDBRANCH   3   4
ENDBRANCH   2   3
ENDBRANCH   1   2
BRANCH   1  24
ATOM     24  N   UNL A   1      40.420  21.456  26.836  1.00  0.00    -0.352 N 
ATOM     25  C   UNL A   1      39.600  22.541  26.615  1.00  0.00     0.251 C 
ATOM     26  H   UNL A   1      40.184  20.637  26.344  1.00  0.00     0.163 HD
ATOM     27  O   UNL A   1      38.506  22.391  26.077  1.00  0.00    -0.269 OA
BRANCH  25  28
ATOM     28  C   UNL A   1      40.040  23.876  27.057  1.00  0.00     0.039 A 
ATOM     29  C   UNL A   1      39.436  25.025  26.545  1.00  0.00     0.014 A 
ATOM     30  C   UNL A   1      41.033  23.968  28.029  1.00  0.00     0.014 A 
ATOM     31  C   UNL A   1      39.766  26.263  27.093  1.00  0.00     0.010 A 
ATOM     32  C   UNL A   1      41.265  25.173  28.654  1.00  0.00     0.010 A 
ATOM     33  C   UNL A   1      40.659  26.332  28.176  1.00  0.00    -0.014 A 
BRANCH  33  34
ATOM     34  C   UNL A   1      40.856  27.597  28.886  1.00  0.00     0.031 A 
ATOM     35  C   UNL A   1      41.924  28.480  28.331  1.00  0.00     0.074 A 
ATOM     36  C   UNL A   1      40.016  28.069  29.831  1.00  0.00     0.049 A 
ATOM     37  N   UNL A   1      43.038  28.825  28.888  1.00  0.00    -0.248 NA
ATOM     38  C   UNL A   1      41.783  28.950  26.942  1.00  0.00     0.031 C 
ATOM     39  C   UNL A   1      38.744  27.494  30.283  1.00  0.00     0.029 A 
ATOM     40  N   UNL A   1      40.068  29.250  30.509  1.00  0.00    -0.354 N 
ATOM     41  C   UNL A   1      43.651  29.720  28.013  1.00  0.00     0.074 A 
ATOM     42  C   UNL A   1      42.917  29.633  26.774  1.00  0.00     0.031 C 
ATOM     43  C   UNL A   1      38.038  28.430  30.955  1.00  0.00     0.029 A 
ATOM     44  C   UNL A   1      38.882  29.593  31.145  1.00  0.00     0.049 A 
ATOM     45  H   UNL A   1      40.876  29.812  30.544  1.00  0.00     0.167 HD
ATOM     46  C   UNL A   1      44.577  30.625  28.439  1.00  0.00     0.031 A 
ATOM     47  C   UNL A   1      38.595  30.756  31.779  1.00  0.00     0.031 A 
ATOM     48  C   UNL A   1      45.039  30.328  29.770  1.00  0.00     0.049 A 
ATOM     49  C   UNL A   1      39.884  31.393  32.128  1.00  0.00     0.074 A 
ATOM     50  C   UNL A   1      45.701  29.276  30.366  1.00  0.00     0.029 A 
ATOM     51  N   UNL A   1      44.478  31.059  30.791  1.00  0.00    -0.354 N 
ATOM     52  N   UNL A   1      40.726  30.884  32.983  1.00  0.00    -0.248 NA
ATOM     53  C   UNL A   1      40.439  32.390  31.227  1.00  0.00     0.031 C 
ATOM     54  C   UNL A   1      45.124  29.168  31.666  1.00  0.00     0.029 A 
ATOM     55  C   UNL A   1      44.187  30.194  31.813  1.00  0.00     0.049 A 
ATOM     56  H   UNL A   1      44.315  32.029  30.788  1.00  0.00     0.167 HD
ATOM     57  C   UNL A   1      41.978  31.157  32.454  1.00  0.00     0.074 A 
ATOM     58  C   UNL A   1      41.741  32.192  31.450  1.00  0.00     0.031 C 
ATOM     59  C   UNL A   1      43.039  30.328  32.688  1.00  0.00     0.031 A 
BRANCH  46  60
ATOM     60  C   UNL A   1      44.768  31.997  27.831  1.00  0.00    -0.014 A 
ATOM     61  C   UNL A   1      46.039  32.349  27.329  1.00  0.00     0.010 A 
ATOM     62  C   UNL A   1      43.838  33.043  27.999  1.00  0.00     0.010 A 
ATOM     63  C   UNL A   1      46.386  33.687  27.093  1.00  0.00     0.020 A 
ATOM     64  C   UNL A   1      44.159  34.374  27.724  1.00  0.00     0.020 A 
ATOM     65  C   UNL A   1      45.446  34.693  27.311  1.00  0.00     0.054 A 
BRANCH  65  66
ATOM     66  S   UNL A   1      45.939  36.425  27.130  1.00  0.00     0.124 S 
ATOM     67  O   UNL A   1      44.645  37.097  27.047  1.00  0.00    -0.237 OA
ATOM     68  O   UNL A   1      46.699  36.662  28.354  1.00  0.00    -0.237 OA
ATOM     69  O   UNL A   1      46.728  36.428  25.901  1.00  0.00    -0.744 OA
ENDBRANCH  65  66
ENDBRANCH  46  60
BRANCH  47  70
ATOM     70  C   UNL A   1      37.288  31.443  31.883  1.00  0.00    -0.014 A 
ATOM     71  C   UNL A   1      36.765  31.841  33.125  1.00  0.00     0.010 A 
ATOM     72  C   UNL A   1      36.673  31.945  30.717  1.00  0.00     0.010 A 
ATOM     73  C   UNL A   1      35.692  32.748  33.198  1.00  0.00     0.020 A 
ATOM     74  C   UNL A   1      35.603  32.846  30.782  1.00  0.00     0.020 A 
ATOM     75  C   UNL A   1      35.130  33.259  32.024  1.00  0.00     0.054 A 
BRANCH  75  76
ATOM     76  S   UNL A   1      33.853  34.548  32.133  1.00  0.00     0.124 S 
ATOM     77  O   UNL A   1      33.415  34.670  30.745  1.00  0.00    -0.237 OA
ATOM     78  O   UNL A   1      32.883  33.960  33.052  1.00  0.00    -0.237 OA
ATOM     79  O   UNL A   1      34.576  35.706  32.657  1.00  0.00    -0.744 OA
ENDBRANCH  75  76
ENDBRANCH  47  70
BRANCH  59  80
ATOM     80  C   UNL A   1      42.918  29.305  33.795  1.00  0.00    -0.014 A 
ATOM     81  C   UNL A   1      43.111  29.596  35.160  1.00  0.00     0.010 A 
ATOM     82  C   UNL A   1      42.451  28.026  33.444  1.00  0.00     0.010 A 
ATOM     83  C   UNL A   1      42.866  28.624  36.143  1.00  0.00     0.020 A 
ATOM     84  C   UNL A   1      42.186  27.060  34.417  1.00  0.00     0.020 A 
ATOM     85  C   UNL A   1      42.403  27.359  35.763  1.00  0.00     0.054 A 
BRANCH  85  86
ATOM     86  S   UNL A   1      42.041  26.119  37.037  1.00  0.00     0.124 S 
ATOM     87  O   UNL A   1      42.223  24.861  36.318  1.00  0.00    -0.237 OA
ATOM     88  O   UNL A   1      43.039  26.407  38.066  1.00  0.00    -0.237 OA
ATOM     89  O   UNL A   1      40.662  26.412  37.427  1.00  0.00    -0.744 OA
ENDBRANCH  85  86
ENDBRANCH  59  80
ENDBRANCH  33  34
ENDBRANCH  25  28
ENDBRANCH   1  24
TORSDOF 14
ENDMDL
MODEL 2
REMARK VINA RESULT:     -11.1      3.897     10.655
REMARK SMILES Cc1ccc(-n2nc(C(=O)NCCCNC(=O)c3ccc(-c4c5nc(c(-c6ccc(S(=O)(=O)[O-])cc6)c6ccc([nH]6)c(-c6ccc(S(=O)(=O)[O-])cc6)c6nc(c(-c7ccc(S(=O)(=O)[O-])cc7)c7ccc4[nH]7)C=C6)C=C5)cc3)c3c2CCC3)c(F)c1
REMARK SMILES IDX 14 1 13 2 12 3 11 4 9 5 10 6 8 8 6 9 7 10 79 11 78 12 80 13
REMARK SMILES IDX 82 14 81 15 5 16 1 17 2 18 3 19 85 20 4 21 83 22 84 23 15 24
REMARK SMILES IDX 16 25 17 27 18 28 19 29 77 30 20 31 76 32 21 33 22 34 23 35
REMARK SMILES IDX 70 36 24 37 75 38 69 39 71 40 25 41 74 42 68 43 67 44 26 46
REMARK SMILES IDX 56 47 37 48 55 49 38 50 41 51 54 52 72 53 39 54 40 55 53 57
REMARK SMILES IDX 73 58 42 59 27 60 28 61 36 62 29 63 35 64 30 65 31 66 32 67
REMARK SMILES IDX 33 68 34 69 57 70 58 71 66 72 59 73 65 74 60 75 61 76 62 77
REMARK SMILES IDX 63 78 64 79 43 80 44 81 52 82 45 83 51 84 46 85 47 86 48 87
REMARK SMILES IDX 49 88 50 89
REMARK H PARENT 11 7 15 26 71 45 41 56
REMARK Flexibility Score: inf
ROOT
ATOM      1  C   UNL A   1      33.549  29.400  26.924  1.00  0.00     0.118 C 
ENDROOT
BRANCH   1   2
ATOM      2  C   UNL A   1      32.348  28.506  27.208  1.00  0.00     0.042 C 
BRANCH   2   3
ATOM      3  C   UNL A   1      32.244  27.355  26.204  1.00  0.00     0.118 C 
BRANCH   3   4
ATOM      4  N   UNL A   1      31.520  26.209  26.732  1.00  0.00    -0.351 N 
ATOM      5  C   UNL A   1      31.763  24.857  26.628  1.00  0.00     0.272 C 
ATOM      6  O   UNL A   1      30.991  24.100  27.221  1.00  0.00    -0.267 OA
ATOM      7  H   UNL A   1      30.717  26.440  27.253  1.00  0.00     0.163 HD
BRANCH   5   8
ATOM      8  C   UNL A   1      32.891  24.327  25.842  1.00  0.00     0.154 A 
ATOM      9  N   UNL A   1      34.824  23.483  25.324  1.00  0.00    -0.234 N 
ATOM     10  N   UNL A   1      34.067  23.911  26.366  1.00  0.00    -0.162 NA
ATOM     11  C   UNL A   1      34.156  23.645  24.153  1.00  0.00     0.048 A 
ATOM     12  C   UNL A   1      32.919  24.137  24.449  1.00  0.00     0.007 A 
ATOM     13  C   UNL A   1      34.339  23.246  22.750  1.00  0.00     0.057 C 
ATOM     14  C   UNL A   1      32.054  24.216  23.259  1.00  0.00     0.040 C 
ATOM     15  C   UNL A   1      33.072  23.906  22.103  1.00  0.00     0.011 C 
BRANCH   9  16
ATOM     16  C   UNL A   1      36.124  22.997  25.528  1.00  0.00     0.101 A 
ATOM     17  C   UNL A   1      40.103  21.472  26.114  1.00  0.00     0.044 C 
ATOM     18  C   UNL A   1      38.713  22.006  25.940  1.00  0.00    -0.048 A 
ATOM     19  C   UNL A   1      38.420  23.352  26.196  1.00  0.00     0.006 A 
ATOM     20  C   UNL A   1      37.695  21.162  25.477  1.00  0.00     0.045 A 
ATOM     21  C   UNL A   1      37.135  23.855  25.975  1.00  0.00     0.032 A 
ATOM     22  C   UNL A   1      36.404  21.650  25.296  1.00  0.00     0.149 A 
ATOM     23  F   UNL A   1      35.479  20.814  24.804  1.00  0.00    -0.205 F 
ENDBRANCH   9  16
ENDBRANCH   5   8
ENDBRANCH   3   4
ENDBRANCH   2   3
ENDBRANCH   1   2
BRANCH   1  24
ATOM     24  N   UNL A   1      33.383  30.751  27.470  1.00  0.00    -0.352 N 
ATOM     25  C   UNL A   1      34.292  31.518  28.165  1.00  0.00     0.251 C 
ATOM     26  H   UNL A   1      32.502  31.164  27.321  1.00  0.00     0.163 HD
ATOM     27  O   UNL A   1      33.918  32.507  28.790  1.00  0.00    -0.269 OA
BRANCH  25  28
ATOM     28  C   UNL A   1      35.711  31.122  28.171  1.00  0.00     0.039 A 
ATOM     29  C   UNL A   1      36.691  32.009  28.620  1.00  0.00     0.014 A 
ATOM     30  C   UNL A   1      36.051  29.832  27.769  1.00  0.00     0.014 A 
ATOM     31  C   UNL A   1      38.001  31.554  28.759  1.00  0.00     0.010 A 
ATOM     32  C   UNL A   1      37.314  29.349  28.024  1.00  0.00     0.010 A 
ATOM     33  C   UNL A   1      38.305  30.208  28.493  1.00  0.00    -0.014 A 
BRANCH  33  34
ATOM     34  C   UNL A   1      39.627  29.674  28.826  1.00  0.00     0.031 A 
ATOM     35  C   UNL A   1      39.929  29.581  30.285  1.00  0.00     0.074 A 
ATOM     36  C   UNL A   1      40.451  29.091  27.930  1.00  0.00     0.049 A 
ATOM     37  N   UNL A   1      40.819  30.234  30.955  1.00  0.00    -0.248 NA
ATOM     38  C   UNL A   1      39.059  28.735  31.120  1.00  0.00     0.031 C 
ATOM     39  C   UNL A   1      40.195  28.806  26.513  1.00  0.00     0.029 A 
ATOM     40  N   UNL A   1      41.667  28.511  28.137  1.00  0.00    -0.354 N 
ATOM     41  C   UNL A   1      40.769  29.739  32.256  1.00  0.00     0.074 A 
ATOM     42  C   UNL A   1      39.570  28.943  32.335  1.00  0.00     0.031 C 
ATOM     43  C   UNL A   1      41.094  27.903  26.063  1.00  0.00     0.029 A 
ATOM     44  C   UNL A   1      42.093  27.698  27.094  1.00  0.00     0.049 A 
ATOM     45  H   UNL A   1      42.196  28.654  28.954  1.00  0.00     0.167 HD
ATOM     46  C   UNL A   1      41.830  29.840  33.107  1.00  0.00     0.031 A 
ATOM     47  C   UNL A   1      43.187  26.898  27.070  1.00  0.00     0.031 A 
ATOM     48  C   UNL A   1      42.824  30.756  32.613  1.00  0.00     0.049 A 
ATOM     49  C   UNL A   1      44.118  27.397  28.105  1.00  0.00     0.074 A 
ATOM     50  C   UNL A   1      42.856  32.102  32.313  1.00  0.00     0.029 A 
ATOM     51  N   UNL A   1      43.918  30.198  31.995  1.00  0.00    -0.354 N 
ATOM     52  N   UNL A   1      44.702  28.561  28.042  1.00  0.00    -0.248 NA
ATOM     53  C   UNL A   1      44.091  26.786  29.424  1.00  0.00     0.031 C 
ATOM     54  C   UNL A   1      43.695  32.202  31.164  1.00  0.00     0.029 A 
ATOM     55  C   UNL A   1      44.176  30.926  30.863  1.00  0.00     0.049 A 
ATOM     56  H   UNL A   1      44.426  29.415  32.309  1.00  0.00     0.167 HD
ATOM     57  C   UNL A   1      44.722  29.020  29.350  1.00  0.00     0.074 A 
ATOM     58  C   UNL A   1      44.455  27.837  30.165  1.00  0.00     0.031 C 
ATOM     59  C   UNL A   1      44.684  30.357  29.630  1.00  0.00     0.031 A 
BRANCH  46  60
ATOM     60  C   UNL A   1      42.164  28.822  34.174  1.00  0.00    -0.014 A 
ATOM     61  C   UNL A   1      42.772  27.607  33.790  1.00  0.00     0.010 A 
ATOM     62  C   UNL A   1      41.642  28.886  35.482  1.00  0.00     0.010 A 
ATOM     63  C   UNL A   1      42.778  26.492  34.641  1.00  0.00     0.020 A 
ATOM     64  C   UNL A   1      41.682  27.795  36.354  1.00  0.00     0.020 A 
ATOM     65  C   UNL A   1      42.214  26.591  35.912  1.00  0.00     0.054 A 
BRANCH  65  66
ATOM     66  S   UNL A   1      42.107  25.115  36.954  1.00  0.00     0.124 S 
ATOM     67  O   UNL A   1      41.940  24.058  35.961  1.00  0.00    -0.237 OA
ATOM     68  O   UNL A   1      43.390  25.133  37.652  1.00  0.00    -0.237 OA
ATOM     69  O   UNL A   1      40.942  25.375  37.796  1.00  0.00    -0.744 OA
ENDBRANCH  65  66
ENDBRANCH  46  60
BRANCH  47  70
ATOM     70  C   UNL A   1      43.358  25.604  26.371  1.00  0.00    -0.014 A 
ATOM     71  C   UNL A   1      44.328  25.434  25.368  1.00  0.00     0.010 A 
ATOM     72  C   UNL A   1      42.731  24.450  26.885  1.00  0.00     0.010 A 
ATOM     73  C   UNL A   1      44.692  24.148  24.929  1.00  0.00     0.020 A 
ATOM     74  C   UNL A   1      43.086  23.167  26.450  1.00  0.00     0.020 A 
ATOM     75  C   UNL A   1      44.080  23.022  25.487  1.00  0.00     0.054 A 
BRANCH  75  76
ATOM     76  S   UNL A   1      44.670  21.365  25.027  1.00  0.00     0.124 S 
ATOM     77  O   UNL A   1      44.585  21.397  23.569  1.00  0.00    -0.237 OA
ATOM     78  O   UNL A   1      46.022  21.343  25.580  1.00  0.00    -0.237 OA
ATOM     79  O   UNL A   1      43.722  20.466  25.682  1.00  0.00    -0.744 OA
ENDBRANCH  75  76
ENDBRANCH  47  70
BRANCH  59  80
ATOM     80  C   UNL A   1      44.958  31.332  28.506  1.00  0.00    -0.014 A 
ATOM     81  C   UNL A   1      44.007  31.699  27.534  1.00  0.00     0.010 A 
ATOM     82  C   UNL A   1      46.189  32.010  28.526  1.00  0.00     0.010 A 
ATOM     83  C   UNL A   1      44.294  32.700  26.592  1.00  0.00     0.020 A 
ATOM     84  C   UNL A   1      46.475  33.020  27.605  1.00  0.00     0.020 A 
ATOM     85  C   UNL A   1      45.529  33.355  26.635  1.00  0.00     0.054 A 
BRANCH  85  86
ATOM     86  S   UNL A   1      45.881  34.682  25.446  1.00  0.00     0.124 S 
ATOM     87  O   UNL A   1      47.308  34.510  25.191  1.00  0.00    -0.237 OA
ATOM     88  O   UNL A   1      44.997  34.360  24.328  1.00  0.00    -0.237 OA
ATOM     89  O   UNL A   1      45.526  35.902  26.172  1.00  0.00    -0.744 OA
ENDBRANCH  85  86
ENDBRANCH  59  80
ENDBRANCH  33  34
ENDBRANCH  25  28
ENDBRANCH   1  24
TORSDOF 14
ENDMDL
MODEL 3
REMARK VINA RESULT:     -11.1      3.408      6.192
REMARK SMILES Cc1ccc(-n2nc(C(=O)NCCCNC(=O)c3ccc(-c4c5nc(c(-c6ccc(S(=O)(=O)[O-])cc6)c6ccc([nH]6)c(-c6ccc(S(=O)(=O)[O-])cc6)c6nc(c(-c7ccc(S(=O)(=O)[O-])cc7)c7ccc4[nH]7)C=C6)C=C5)cc3)c3c2CCC3)c(F)c1
REMARK SMILES IDX 14 1 13 2 12 3 11 4 9 5 10 6 8 8 6 9 7 10 79 11 78 12 80 13
REMARK SMILES IDX 82 14 81 15 5 16 1 17 2 18 3 19 85 20 4 21 83 22 84 23 15 24
REMARK SMILES IDX 16 25 17 27 18 28 19 29 77 30 20 31 76 32 21 33 22 34 23 35
REMARK SMILES IDX 70 36 24 37 75 38 69 39 71 40 25 41 74 42 68 43 67 44 26 46
REMARK SMILES IDX 56 47 37 48 55 49 38 50 41 51 54 52 72 53 39 54 40 55 53 57
REMARK SMILES IDX 73 58 42 59 27 60 28 61 36 62 29 63 35 64 30 65 31 66 32 67
REMARK SMILES IDX 33 68 34 69 57 70 58 71 66 72 59 73 65 74 60 75 61 76 62 77
REMARK SMILES IDX 63 78 64 79 43 80 44 81 52 82 45 83 51 84 46 85 47 86 48 87
REMARK SMILES IDX 49 88 50 89
REMARK H PARENT 11 7 15 26 71 45 41 56
REMARK Flexibility Score: inf
ROOT
ATOM      1  C   UNL A   1      37.797  22.848  25.219  1.00  0.00     0.118 C 
ENDROOT
BRANCH   1   2
ATOM      2  C   UNL A   1      36.298  22.577  25.203  1.00  0.00     0.042 C 
BRANCH   2   3
ATOM      3  C   UNL A   1      35.533  23.551  26.104  1.00  0.00     0.118 C 
BRANCH   3   4
ATOM      4  N   UNL A   1      34.098  23.308  26.107  1.00  0.00    -0.351 N 
ATOM      5  C   UNL A   1      33.038  24.142  25.828  1.00  0.00     0.272 C 
ATOM      6  O   UNL A   1      31.908  23.649  25.872  1.00  0.00    -0.267 OA
ATOM      7  H   UNL A   1      33.841  22.390  26.352  1.00  0.00     0.163 HD
BRANCH   5   8
ATOM      8  C   UNL A   1      33.232  25.564  25.494  1.00  0.00     0.154 A 
ATOM      9  N   UNL A   1      33.512  27.708  25.697  1.00  0.00    -0.234 N 
ATOM     10  N   UNL A   1      33.317  26.564  26.401  1.00  0.00    -0.162 NA
ATOM     11  C   UNL A   1      33.525  27.449  24.364  1.00  0.00     0.048 A 
ATOM     12  C   UNL A   1      33.392  26.101  24.205  1.00  0.00     0.007 A 
ATOM     13  C   UNL A   1      33.843  28.186  23.132  1.00  0.00     0.057 C 
ATOM     14  C   UNL A   1      33.538  25.692  22.797  1.00  0.00     0.040 C 
ATOM     15  C   UNL A   1      33.547  27.080  22.060  1.00  0.00     0.011 C 
BRANCH   9  16
ATOM     16  C   UNL A   1      33.627  28.946  26.348  1.00  0.00     0.101 A 
ATOM     17  C   UNL A   1      33.928  32.739  28.353  1.00  0.00     0.044 C 
ATOM     18  C   UNL A   1      33.843  31.427  27.633  1.00  0.00    -0.048 A 
ATOM     19  C   UNL A   1      34.923  30.534  27.630  1.00  0.00     0.006 A 
ATOM     20  C   UNL A   1      32.654  31.064  26.985  1.00  0.00     0.045 A 
ATOM     21  C   UNL A   1      34.814  29.288  27.005  1.00  0.00     0.032 A 
ATOM     22  C   UNL A   1      32.558  29.841  26.327  1.00  0.00     0.149 A 
ATOM     23  F   UNL A   1      31.383  29.521  25.765  1.00  0.00    -0.205 F 
ENDBRANCH   9  16
ENDBRANCH   5   8
ENDBRANCH   3   4
ENDBRANCH   2   3
ENDBRANCH   1   2
BRANCH   1  24
ATOM     24  N   UNL A   1      38.527  21.911  26.078  1.00  0.00    -0.352 N 
ATOM     25  C   UNL A   1      39.593  22.158  26.915  1.00  0.00     0.251 C 
ATOM     26  H   UNL A   1      38.213  20.978  26.053  1.00  0.00     0.163 HD
ATOM     27  O   UNL A   1      40.265  21.228  27.354  1.00  0.00    -0.269 OA
BRANCH  25  28
ATOM     28  C   UNL A   1      39.934  23.551  27.253  1.00  0.00     0.039 A 
ATOM     29  C   UNL A   1      38.948  24.540  27.255  1.00  0.00     0.014 A 
ATOM     30  C   UNL A   1      41.244  23.854  27.615  1.00  0.00     0.014 A 
ATOM     31  C   UNL A   1      39.268  25.812  27.725  1.00  0.00     0.010 A 
ATOM     32  C   UNL A   1      41.527  25.070  28.195  1.00  0.00     0.010 A 
ATOM     33  C   UNL A   1      40.555  26.067  28.230  1.00  0.00    -0.014 A 
BRANCH  33  34
ATOM     34  C   UNL A   1      40.841  27.332  28.907  1.00  0.00     0.031 A 
ATOM     35  C   UNL A   1      41.954  28.134  28.320  1.00  0.00     0.074 A 
ATOM     36  C   UNL A   1      40.044  27.878  29.852  1.00  0.00     0.049 A 
ATOM     37  N   UNL A   1      43.095  28.421  28.855  1.00  0.00    -0.248 NA
ATOM     38  C   UNL A   1      41.824  28.581  26.922  1.00  0.00     0.031 C 
ATOM     39  C   UNL A   1      38.745  27.393  30.333  1.00  0.00     0.029 A 
ATOM     40  N   UNL A   1      40.179  29.068  30.501  1.00  0.00    -0.354 N 
ATOM     41  C   UNL A   1      43.750  29.255  27.952  1.00  0.00     0.074 A 
ATOM     42  C   UNL A   1      42.996  29.187  26.724  1.00  0.00     0.031 C 
ATOM     43  C   UNL A   1      38.108  28.386  30.991  1.00  0.00     0.029 A 
ATOM     44  C   UNL A   1      39.025  29.499  31.143  1.00  0.00     0.049 A 
ATOM     45  H   UNL A   1      41.021  29.579  30.514  1.00  0.00     0.167 HD
ATOM     46  C   UNL A   1      44.736  30.110  28.346  1.00  0.00     0.031 A 
ATOM     47  C   UNL A   1      38.820  30.691  31.753  1.00  0.00     0.031 A 
ATOM     48  C   UNL A   1      45.198  29.815  29.677  1.00  0.00     0.049 A 
ATOM     49  C   UNL A   1      40.151  31.254  32.073  1.00  0.00     0.074 A 
ATOM     50  C   UNL A   1      45.801  28.737  30.289  1.00  0.00     0.029 A 
ATOM     51  N   UNL A   1      44.697  30.602  30.688  1.00  0.00    -0.354 N 
ATOM     52  N   UNL A   1      40.971  30.712  32.929  1.00  0.00    -0.248 NA
ATOM     53  C   UNL A   1      40.755  32.193  31.142  1.00  0.00     0.031 C 
ATOM     54  C   UNL A   1      45.235  28.695  31.599  1.00  0.00     0.029 A 
ATOM     55  C   UNL A   1      44.366  29.781  31.733  1.00  0.00     0.049 A 
ATOM     56  H   UNL A   1      44.595  31.581  30.664  1.00  0.00     0.167 HD
ATOM     57  C   UNL A   1      42.231  30.895  32.378  1.00  0.00     0.074 A 
ATOM     58  C   UNL A   1      42.045  31.919  31.354  1.00  0.00     0.031 C 
ATOM     59  C   UNL A   1      43.241  30.006  32.619  1.00  0.00     0.031 A 
BRANCH  46  60
ATOM     60  C   UNL A   1      45.004  31.453  27.703  1.00  0.00    -0.014 A 
ATOM     61  C   UNL A   1      46.342  31.870  27.527  1.00  0.00     0.010 A 
ATOM     62  C   UNL A   1      44.006  32.434  27.539  1.00  0.00     0.010 A 
ATOM     63  C   UNL A   1      46.662  33.214  27.286  1.00  0.00     0.020 A 
ATOM     64  C   UNL A   1      44.312  33.767  27.255  1.00  0.00     0.020 A 
ATOM     65  C   UNL A   1      45.642  34.157  27.171  1.00  0.00     0.054 A 
BRANCH  65  66
ATOM     66  S   UNL A   1      46.065  35.907  26.990  1.00  0.00     0.124 S 
ATOM     67  O   UNL A   1      46.923  36.129  28.151  1.00  0.00    -0.237 OA
ATOM     68  O   UNL A   1      46.735  35.933  25.692  1.00  0.00    -0.237 OA
ATOM     69  O   UNL A   1      44.768  36.578  27.030  1.00  0.00    -0.744 OA
ENDBRANCH  65  66
ENDBRANCH  46  60
BRANCH  47  70
ATOM     70  C   UNL A   1      37.561  31.461  31.858  1.00  0.00    -0.014 A 
ATOM     71  C   UNL A   1      36.917  31.652  33.092  1.00  0.00     0.010 A 
ATOM     72  C   UNL A   1      37.129  32.237  30.762  1.00  0.00     0.010 A 
ATOM     73  C   UNL A   1      35.907  32.622  33.236  1.00  0.00     0.020 A 
ATOM     74  C   UNL A   1      36.123  33.202  30.896  1.00  0.00     0.020 A 
ATOM     75  C   UNL A   1      35.530  33.403  32.140  1.00  0.00     0.054 A 
BRANCH  75  76
ATOM     76  S   UNL A   1      34.341  34.758  32.376  1.00  0.00     0.124 S 
ATOM     77  O   UNL A   1      35.080  35.674  33.241  1.00  0.00    -0.237 OA
ATOM     78  O   UNL A   1      34.113  35.223  31.011  1.00  0.00    -0.237 OA
ATOM     79  O   UNL A   1      33.193  34.105  33.003  1.00  0.00    -0.744 OA
ENDBRANCH  75  76
ENDBRANCH  47  70
BRANCH  59  80
ATOM     80  C   UNL A   1      43.072  29.017  33.751  1.00  0.00    -0.014 A 
ATOM     81  C   UNL A   1      43.554  29.228  35.058  1.00  0.00     0.010 A 
ATOM     82  C   UNL A   1      42.266  27.891  33.509  1.00  0.00     0.010 A 
ATOM     83  C   UNL A   1      43.256  28.320  36.087  1.00  0.00     0.020 A 
ATOM     84  C   UNL A   1      41.949  26.995  34.532  1.00  0.00     0.020 A 
ATOM     85  C   UNL A   1      42.454  27.208  35.815  1.00  0.00     0.054 A 
BRANCH  85  86
ATOM     86  S   UNL A   1      42.030  26.061  37.157  1.00  0.00     0.124 S 
ATOM     87  O   UNL A   1      42.993  26.417  38.196  1.00  0.00    -0.237 OA
ATOM     88  O   UNL A   1      40.638  26.396  37.446  1.00  0.00    -0.237 OA
ATOM     89  O   UNL A   1      42.228  24.739  36.561  1.00  0.00    -0.744 OA
ENDBRANCH  85  86
ENDBRANCH  59  80
ENDBRANCH  33  34
ENDBRANCH  25  28
ENDBRANCH   1  24
TORSDOF 14
ENDMDL
