MODEL 1
REMARK VINA RESULT:     -12.1      0.000      0.000
REMARK SMILES O=C(NCCCNC(=O)c1ccc(-c2c3nc(c(-c4ccc(S(=O)(=O)[O-])cc4)c4ccc([nH]4)c(-c4ccc(S(=O)(=O)[O-])cc4)c4nc(c(-c5ccc(S(=O)(=O)[O-])cc5)c5ccc2[nH]5)C=C4)C=C3)cc1)C1=Cc2cc(S(F)(F)(F)(F)F)cc(Br)c2O[C@H]1C(F)(F)F
REMARK SMILES IDX 6 1 5 2 4 3 3 4 1 5 2 6 70 8 71 9 86 10 72 11 85 12 73 13
REMARK SMILES IDX 84 14 74 15 82 16 81 17 83 18 87 19 88 20 89 21 90 22 75 23
REMARK SMILES IDX 76 24 77 25 78 26 79 27 80 28 7 29 8 30 9 32 10 33 11 34
REMARK SMILES IDX 69 35 12 36 68 37 13 38 14 39 15 40 62 41 16 42 67 43 61 44
REMARK SMILES IDX 63 45 17 46 66 47 60 48 59 49 18 51 48 52 29 53 47 54 30 55
REMARK SMILES IDX 33 56 46 57 64 58 31 59 32 60 45 62 65 63 34 64 19 65 20 66
REMARK SMILES IDX 28 67 21 68 27 69 22 70 23 71 24 72 25 73 26 74 49 75 50 76
REMARK SMILES IDX 58 77 51 78 57 79 52 80 53 81 54 82 55 83 56 84 35 85 36 86
REMARK SMILES IDX 44 87 37 88 43 89 38 90 39 91 40 92 41 93 42 94
REMARK H PARENT 3 7 7 31 63 50 33 61
REMARK Flexibility Score: inf
ROOT
ATOM      1  C   UNL A   1      33.813  28.355  27.274  1.00  0.00     0.118 C 
ENDROOT
BRANCH   1   2
ATOM      2  C   UNL A   1      33.946  28.228  25.765  1.00  0.00     0.042 C 
BRANCH   2   3
ATOM      3  C   UNL A   1      32.695  28.776  25.099  1.00  0.00     0.118 C 
BRANCH   3   4
ATOM      4  N   UNL A   1      31.517  28.049  25.594  1.00  0.00    -0.352 N 
ATOM      5  O   UNL A   1      29.740  26.546  25.116  1.00  0.00    -0.270 OA
ATOM      6  C   UNL A   1      30.758  27.175  24.688  1.00  0.00     0.251 C 
ATOM      7  H   UNL A   1      31.237  28.148  26.533  1.00  0.00     0.163 HD
BRANCH   6   8
ATOM      8  C   UNL A   1      31.191  27.023  23.239  1.00  0.00     0.067 C 
ATOM      9  C   UNL A   1      32.201  26.169  22.917  1.00  0.00     0.025 C 
ATOM     10  C   UNL A   1      30.496  27.824  22.150  1.00  0.00     0.314 C 
ATOM     11  C   UNL A   1      32.896  25.368  24.006  1.00  0.00     0.020 A 
ATOM     12  O   UNL A   1      30.747  25.164  25.001  1.00  0.00    -0.474 OA
ATOM     13  C   UNL A   1      34.262  25.140  23.987  1.00  0.00     0.036 A 
ATOM     14  C   UNL A   1      32.112  24.786  24.907  1.00  0.00     0.142 A 
ATOM     15  C   UNL A   1      34.672  24.049  24.788  1.00  0.00     0.109 A 
ATOM     16  C   UNL A   1      32.612  23.823  25.750  1.00  0.00     0.062 A 
ATOM     17  C   UNL A   1      33.942  23.506  25.746  1.00  0.00     0.044 A 
ATOM     18  Br  UNL A   1      31.401  22.892  26.978  1.00  0.00    -0.047 Br
BRANCH  10  19
ATOM     19  C   UNL A   1      29.415  28.692  22.772  1.00  0.00     0.429 C 
ATOM     20  F   UNL A   1      28.857  29.449  21.832  1.00  0.00    -0.167 F 
ATOM     21  F   UNL A   1      28.487  27.916  23.325  1.00  0.00    -0.167 F 
ATOM     22  F   UNL A   1      29.956  29.470  23.705  1.00  0.00    -0.167 F 
ENDBRANCH  10  19
BRANCH  15  23
ATOM     23  S   UNL A   1      36.311  23.346  24.479  1.00  0.00     0.310 S 
ATOM     24  F   UNL A   1      36.002  22.066  25.363  1.00  0.00    -0.094 F 
ATOM     25  F   UNL A   1      36.825  24.047  25.794  1.00  0.00    -0.094 F 
ATOM     26  F   UNL A   1      37.722  22.748  24.214  1.00  0.00    -0.094 F 
ATOM     27  F   UNL A   1      35.745  22.539  23.244  1.00  0.00    -0.094 F 
ATOM     28  F   UNL A   1      34.848  23.855  24.797  1.00  0.00    -0.094 F 
ENDBRANCH  15  23
ENDBRANCH   6   8
ENDBRANCH   3   4
ENDBRANCH   2   3
ENDBRANCH   1   2
BRANCH   1  29
ATOM     29  N   UNL A   1      33.411  29.727  27.617  1.00  0.00    -0.352 N 
ATOM     30  C   UNL A   1      34.404  30.673  28.149  1.00  0.00     0.251 C 
ATOM     31  H   UNL A   1      32.478  30.012  27.492  1.00  0.00     0.163 HD
ATOM     32  O   UNL A   1      34.057  31.858  28.445  1.00  0.00    -0.269 OA
BRANCH  30  33
ATOM     33  C   UNL A   1      35.845  30.232  28.343  1.00  0.00     0.039 A 
ATOM     34  C   UNL A   1      36.805  30.300  27.347  1.00  0.00     0.014 A 
ATOM     35  C   UNL A   1      36.156  29.837  29.573  1.00  0.00     0.014 A 
ATOM     36  C   UNL A   1      38.018  29.648  27.674  1.00  0.00     0.010 A 
ATOM     37  C   UNL A   1      37.405  29.338  29.853  1.00  0.00     0.010 A 
ATOM     38  C   UNL A   1      38.385  29.319  28.899  1.00  0.00    -0.014 A 
BRANCH  38  39
ATOM     39  C   UNL A   1      39.819  28.939  29.231  1.00  0.00     0.031 A 
ATOM     40  C   UNL A   1      40.604  29.965  29.759  1.00  0.00     0.074 A 
ATOM     41  C   UNL A   1      40.305  27.687  28.895  1.00  0.00     0.049 A 
ATOM     42  N   UNL A   1      41.903  29.923  30.059  1.00  0.00    -0.248 NA
ATOM     43  C   UNL A   1      40.098  31.307  30.084  1.00  0.00     0.031 C 
ATOM     44  C   UNL A   1      39.517  26.645  28.369  1.00  0.00     0.029 A 
ATOM     45  N   UNL A   1      41.599  27.227  29.000  1.00  0.00    -0.354 N 
ATOM     46  C   UNL A   1      42.298  31.095  30.563  1.00  0.00     0.074 A 
ATOM     47  C   UNL A   1      41.143  32.003  30.581  1.00  0.00     0.031 C 
ATOM     48  C   UNL A   1      40.326  25.574  28.150  1.00  0.00     0.029 A 
ATOM     49  C   UNL A   1      41.633  25.930  28.536  1.00  0.00     0.049 A 
ATOM     50  H   UNL A   1      42.366  27.736  29.348  1.00  0.00     0.167 HD
ATOM     51  C   UNL A   1      43.574  31.440  31.011  1.00  0.00     0.031 A 
ATOM     52  C   UNL A   1      42.732  25.091  28.445  1.00  0.00     0.031 A 
ATOM     53  C   UNL A   1      44.663  30.585  30.959  1.00  0.00     0.049 A 
ATOM     54  C   UNL A   1      44.021  25.456  28.838  1.00  0.00     0.074 A 
ATOM     55  C   UNL A   1      45.955  30.915  31.413  1.00  0.00     0.029 A 
ATOM     56  N   UNL A   1      44.703  29.297  30.471  1.00  0.00    -0.354 N 
ATOM     57  N   UNL A   1      44.407  26.612  29.379  1.00  0.00    -0.248 NA
ATOM     58  C   UNL A   1      45.198  24.586  28.716  1.00  0.00     0.031 C 
ATOM     59  C   UNL A   1      46.765  29.844  31.194  1.00  0.00     0.029 A 
ATOM     60  C   UNL A   1      45.992  28.828  30.598  1.00  0.00     0.049 A 
ATOM     61  H   UNL A   1      43.942  28.798  30.097  1.00  0.00     0.167 HD
ATOM     62  C   UNL A   1      45.715  26.584  29.640  1.00  0.00     0.074 A 
ATOM     63  C   UNL A   1      46.245  25.283  29.210  1.00  0.00     0.031 C 
ATOM     64  C   UNL A   1      46.488  27.591  30.223  1.00  0.00     0.031 A 
BRANCH  51  65
ATOM     65  C   UNL A   1      43.780  32.832  31.586  1.00  0.00    -0.014 A 
ATOM     66  C   UNL A   1      44.180  33.836  30.720  1.00  0.00     0.010 A 
ATOM     67  C   UNL A   1      43.657  33.054  32.889  1.00  0.00     0.010 A 
ATOM     68  C   UNL A   1      44.711  34.975  31.371  1.00  0.00     0.020 A 
ATOM     69  C   UNL A   1      44.071  34.243  33.438  1.00  0.00     0.020 A 
ATOM     70  C   UNL A   1      44.533  35.259  32.648  1.00  0.00     0.054 A 
BRANCH  70  71
ATOM     71  S   UNL A   1      44.883  36.903  33.318  1.00  0.00     0.124 S 
ATOM     72  O   UNL A   1      44.490  37.967  32.290  1.00  0.00    -0.237 OA
ATOM     73  O   UNL A   1      44.079  37.114  34.602  1.00  0.00    -0.237 OA
ATOM     74  O   UNL A   1      46.553  37.036  33.664  1.00  0.00    -0.744 OA
ENDBRANCH  70  71
ENDBRANCH  51  65
BRANCH  52  75
ATOM     75  C   UNL A   1      42.521  23.694  27.884  1.00  0.00    -0.014 A 
ATOM     76  C   UNL A   1      42.728  23.519  26.525  1.00  0.00     0.010 A 
ATOM     77  C   UNL A   1      42.222  22.668  28.673  1.00  0.00     0.010 A 
ATOM     78  C   UNL A   1      42.308  22.258  26.039  1.00  0.00     0.020 A 
ATOM     79  C   UNL A   1      41.956  21.430  28.139  1.00  0.00     0.020 A 
ATOM     80  C   UNL A   1      42.082  21.200  26.797  1.00  0.00     0.054 A 
BRANCH  80  81
ATOM     81  S   UNL A   1      41.947  19.536  26.097  1.00  0.00     0.124 S 
ATOM     82  O   UNL A   1      42.396  18.508  27.138  1.00  0.00    -0.237 OA
ATOM     83  O   UNL A   1      40.493  19.264  25.704  1.00  0.00    -0.237 OA
ATOM     84  O   UNL A   1      42.942  19.418  24.713  1.00  0.00    -0.744 OA
ENDBRANCH  80  81
ENDBRANCH  52  75
BRANCH  64  85
ATOM     85  C   UNL A   1      47.963  27.310  30.459  1.00  0.00    -0.014 A 
ATOM     86  C   UNL A   1      48.427  26.742  31.634  1.00  0.00     0.010 A 
ATOM     87  C   UNL A   1      48.789  27.599  29.461  1.00  0.00     0.010 A 
ATOM     88  C   UNL A   1      49.835  26.781  31.772  1.00  0.00     0.020 A 
ATOM     89  C   UNL A   1      50.148  27.485  29.622  1.00  0.00     0.020 A 
ATOM     90  C   UNL A   1      50.680  26.987  30.779  1.00  0.00     0.054 A 
BRANCH  90  91
ATOM     91  S   UNL A   1      52.447  26.626  30.939  1.00  0.00     0.124 S 
ATOM     92  O   UNL A   1      53.043  26.377  29.552  1.00  0.00    -0.237 OA
ATOM     93  O   UNL A   1      53.153  27.816  31.593  1.00  0.00    -0.237 OA
ATOM     94  O   UNL A   1      52.659  25.234  31.909  1.00  0.00    -0.744 OA
ENDBRANCH  90  91
ENDBRANCH  64  85
ENDBRANCH  38  39
ENDBRANCH  30  33
ENDBRANCH   1  29
TORSDOF 15
ENDMDL
MODEL 2
REMARK VINA RESULT:     -12.0      2.943      9.017
REMARK SMILES O=C(NCCCNC(=O)c1ccc(-c2c3nc(c(-c4ccc(S(=O)(=O)[O-])cc4)c4ccc([nH]4)c(-c4ccc(S(=O)(=O)[O-])cc4)c4nc(c(-c5ccc(S(=O)(=O)[O-])cc5)c5ccc2[nH]5)C=C4)C=C3)cc1)C1=Cc2cc(S(F)(F)(F)(F)F)cc(Br)c2O[C@H]1C(F)(F)F
REMARK SMILES IDX 6 1 5 2 4 3 3 4 1 5 2 6 70 8 71 9 86 10 72 11 85 12 73 13
REMARK SMILES IDX 84 14 74 15 82 16 81 17 83 18 87 19 88 20 89 21 90 22 75 23
REMARK SMILES IDX 76 24 77 25 78 26 79 27 80 28 7 29 8 30 9 32 10 33 11 34
REMARK SMILES IDX 69 35 12 36 68 37 13 38 14 39 15 40 62 41 16 42 67 43 61 44
REMARK SMILES IDX 63 45 17 46 66 47 60 48 59 49 18 51 48 52 29 53 47 54 30 55
REMARK SMILES IDX 33 56 46 57 64 58 31 59 32 60 45 62 65 63 34 64 19 65 20 66
REMARK SMILES IDX 28 67 21 68 27 69 22 70 23 71 24 72 25 73 26 74 49 75 50 76
REMARK SMILES IDX 58 77 51 78 57 79 52 80 53 81 54 82 55 83 56 84 35 85 36 86
REMARK SMILES IDX 44 87 37 88 43 89 38 90 39 91 40 92 41 93 42 94
REMARK H PARENT 3 7 7 31 63 50 33 61
REMARK Flexibility Score: inf
ROOT
ATOM      1  C   UNL A   1      36.917  23.804  25.088  1.00  0.00     0.118 C 
ENDROOT
BRANCH   1   2
ATOM      2  C   UNL A   1      35.862  23.562  24.020  1.00  0.00     0.042 C 
BRANCH   2   3
ATOM      3  C   UNL A   1      34.778  24.621  24.133  1.00  0.00     0.118 C 
BRANCH   3   4
ATOM      4  N   UNL A   1      33.558  24.147  23.463  1.00  0.00    -0.352 N 
ATOM      5  O   UNL A   1      31.426  23.118  23.671  1.00  0.00    -0.270 OA
ATOM      6  C   UNL A   1      32.481  23.528  24.250  1.00  0.00     0.251 C 
ATOM      7  H   UNL A   1      33.462  24.244  22.488  1.00  0.00     0.163 HD
BRANCH   6   8
ATOM      8  C   UNL A   1      32.629  23.378  25.755  1.00  0.00     0.067 C 
ATOM      9  C   UNL A   1      32.573  24.476  26.557  1.00  0.00     0.025 C 
ATOM     10  C   UNL A   1      32.839  22.001  26.365  1.00  0.00     0.314 C 
ATOM     11  C   UNL A   1      32.363  25.852  25.948  1.00  0.00     0.020 A 
ATOM     12  O   UNL A   1      30.883  24.776  24.431  1.00  0.00    -0.474 OA
ATOM     13  C   UNL A   1      33.019  26.973  26.429  1.00  0.00     0.036 A 
ATOM     14  C   UNL A   1      31.421  25.952  25.016  1.00  0.00     0.142 A 
ATOM     15  C   UNL A   1      32.405  28.195  26.068  1.00  0.00     0.109 A 
ATOM     16  C   UNL A   1      30.964  27.183  24.613  1.00  0.00     0.062 A 
ATOM     17  C   UNL A   1      31.527  28.334  25.091  1.00  0.00     0.044 A 
ATOM     18  Br  UNL A   1      29.483  27.293  23.333  1.00  0.00    -0.047 Br
BRANCH  10  19
ATOM     19  C   UNL A   1      32.863  20.957  25.261  1.00  0.00     0.429 C 
ATOM     20  F   UNL A   1      33.189  19.775  25.775  1.00  0.00    -0.167 F 
ATOM     21  F   UNL A   1      31.660  20.879  24.699  1.00  0.00    -0.167 F 
ATOM     22  F   UNL A   1      33.759  21.305  24.343  1.00  0.00    -0.167 F 
ENDBRANCH  10  19
BRANCH  15  23
ATOM     23  S   UNL A   1      32.855  29.673  27.012  1.00  0.00     0.310 S 
ATOM     24  F   UNL A   1      32.273  30.642  25.898  1.00  0.00    -0.094 F 
ATOM     25  F   UNL A   1      34.225  29.714  26.235  1.00  0.00    -0.094 F 
ATOM     26  F   UNL A   1      33.245  30.942  27.823  1.00  0.00    -0.094 F 
ATOM     27  F   UNL A   1      31.422  29.698  27.677  1.00  0.00    -0.094 F 
ATOM     28  F   UNL A   1      32.400  28.453  26.115  1.00  0.00    -0.094 F 
ENDBRANCH  15  23
ENDBRANCH   6   8
ENDBRANCH   3   4
ENDBRANCH   2   3
ENDBRANCH   1   2
BRANCH   1  29
ATOM     29  N   UNL A   1      37.782  22.621  25.199  1.00  0.00    -0.352 N 
ATOM     30  C   UNL A   1      38.997  22.673  26.025  1.00  0.00     0.251 C 
ATOM     31  H   UNL A   1      37.549  21.794  24.720  1.00  0.00     0.163 HD
ATOM     32  O   UNL A   1      39.745  21.650  26.122  1.00  0.00    -0.269 OA
BRANCH  30  33
ATOM     33  C   UNL A   1      39.358  23.951  26.766  1.00  0.00     0.039 A 
ATOM     34  C   UNL A   1      38.983  24.206  28.074  1.00  0.00     0.014 A 
ATOM     35  C   UNL A   1      40.134  24.795  26.094  1.00  0.00     0.014 A 
ATOM     36  C   UNL A   1      39.242  25.532  28.496  1.00  0.00     0.010 A 
ATOM     37  C   UNL A   1      40.459  26.019  26.625  1.00  0.00     0.010 A 
ATOM     38  C   UNL A   1      40.071  26.363  27.890  1.00  0.00    -0.014 A 
BRANCH  38  39
ATOM     39  C   UNL A   1      40.567  27.632  28.564  1.00  0.00     0.031 A 
ATOM     40  C   UNL A   1      41.844  27.555  29.122  1.00  0.00     0.074 A 
ATOM     41  C   UNL A   1      39.726  28.722  28.703  1.00  0.00     0.049 A 
ATOM     42  N   UNL A   1      42.479  28.489  29.832  1.00  0.00    -0.248 NA
ATOM     43  C   UNL A   1      42.726  26.384  29.005  1.00  0.00     0.031 C 
ATOM     44  C   UNL A   1      38.439  28.810  28.136  1.00  0.00     0.029 A 
ATOM     45  N   UNL A   1      39.963  29.891  29.394  1.00  0.00    -0.354 N 
ATOM     46  C   UNL A   1      43.693  28.058  30.180  1.00  0.00     0.074 A 
ATOM     47  C   UNL A   1      43.868  26.696  29.657  1.00  0.00     0.031 C 
ATOM     48  C   UNL A   1      37.904  30.009  28.489  1.00  0.00     0.029 A 
ATOM     49  C   UNL A   1      38.847  30.691  29.282  1.00  0.00     0.049 A 
ATOM     50  H   UNL A   1      40.788  30.115  29.883  1.00  0.00     0.167 HD
ATOM     51  C   UNL A   1      44.663  28.748  30.908  1.00  0.00     0.031 A 
ATOM     52  C   UNL A   1      38.645  31.945  29.834  1.00  0.00     0.031 A 
ATOM     53  C   UNL A   1      44.476  30.020  31.424  1.00  0.00     0.049 A 
ATOM     54  C   UNL A   1      39.593  32.612  30.613  1.00  0.00     0.074 A 
ATOM     55  C   UNL A   1      45.446  30.733  32.155  1.00  0.00     0.029 A 
ATOM     56  N   UNL A   1      43.351  30.810  31.333  1.00  0.00    -0.354 N 
ATOM     57  N   UNL A   1      40.822  32.197  30.926  1.00  0.00    -0.248 NA
ATOM     58  C   UNL A   1      39.377  33.928  31.230  1.00  0.00     0.031 C 
ATOM     59  C   UNL A   1      44.911  31.932  32.508  1.00  0.00     0.029 A 
ATOM     60  C   UNL A   1      43.597  31.988  32.004  1.00  0.00     0.049 A 
ATOM     61  H   UNL A   1      42.516  30.574  30.869  1.00  0.00     0.167 HD
ATOM     62  C   UNL A   1      41.440  33.115  31.672  1.00  0.00     0.074 A 
ATOM     63  C   UNL A   1      40.517  34.238  31.885  1.00  0.00     0.031 C 
ATOM     64  C   UNL A   1      42.740  33.062  32.181  1.00  0.00     0.031 A 
BRANCH  51  65
ATOM     65  C   UNL A   1      46.000  28.064  31.151  1.00  0.00    -0.014 A 
ATOM     66  C   UNL A   1      47.006  28.265  30.221  1.00  0.00     0.010 A 
ATOM     67  C   UNL A   1      46.165  27.240  32.178  1.00  0.00     0.010 A 
ATOM     68  C   UNL A   1      48.057  27.321  30.302  1.00  0.00     0.020 A 
ATOM     69  C   UNL A   1      47.281  26.444  32.265  1.00  0.00     0.020 A 
ATOM     70  C   UNL A   1      48.290  26.547  31.347  1.00  0.00     0.054 A 
BRANCH  70  71
ATOM     71  S   UNL A   1      49.859  25.670  31.553  1.00  0.00     0.124 S 
ATOM     72  O   UNL A   1      49.710  24.606  32.644  1.00  0.00    -0.237 OA
ATOM     73  O   UNL A   1      50.244  24.995  30.235  1.00  0.00    -0.237 OA
ATOM     74  O   UNL A   1      51.080  26.780  32.003  1.00  0.00    -0.744 OA
ENDBRANCH  70  71
ENDBRANCH  51  65
BRANCH  52  75
ATOM     75  C   UNL A   1      37.314  32.635  29.578  1.00  0.00    -0.014 A 
ATOM     76  C   UNL A   1      36.463  32.790  30.660  1.00  0.00     0.010 A 
ATOM     77  C   UNL A   1      37.009  33.131  28.385  1.00  0.00     0.010 A 
ATOM     78  C   UNL A   1      35.167  33.239  30.310  1.00  0.00     0.020 A 
ATOM     79  C   UNL A   1      35.771  33.678  28.151  1.00  0.00     0.020 A 
ATOM     80  C   UNL A   1      34.857  33.809  29.159  1.00  0.00     0.054 A 
BRANCH  80  81
ATOM     81  S   UNL A   1      33.307  34.715  28.931  1.00  0.00     0.124 S 
ATOM     82  O   UNL A   1      32.548  34.769  30.259  1.00  0.00    -0.237 OA
ATOM     83  O   UNL A   1      33.613  36.139  28.460  1.00  0.00    -0.237 OA
ATOM     84  O   UNL A   1      32.350  33.921  27.759  1.00  0.00    -0.744 OA
ENDBRANCH  80  81
ENDBRANCH  52  75
BRANCH  64  85
ATOM     85  C   UNL A   1      43.243  34.255  32.976  1.00  0.00    -0.014 A 
ATOM     86  C   UNL A   1      43.875  35.330  32.372  1.00  0.00     0.010 A 
ATOM     87  C   UNL A   1      43.009  34.239  34.282  1.00  0.00     0.010 A 
ATOM     88  C   UNL A   1      44.486  36.222  33.286  1.00  0.00     0.020 A 
ATOM     89  C   UNL A   1      43.523  35.218  35.097  1.00  0.00     0.020 A 
ATOM     90  C   UNL A   1      44.210  36.279  34.576  1.00  0.00     0.054 A 
BRANCH  90  91
ATOM     91  S   UNL A   1      44.711  37.686  35.598  1.00  0.00     0.124 S 
ATOM     92  O   UNL A   1      46.239  37.762  35.646  1.00  0.00    -0.237 OA
ATOM     93  O   UNL A   1      44.154  38.978  34.996  1.00  0.00    -0.237 OA
ATOM     94  O   UNL A   1      44.102  37.485  37.183  1.00  0.00    -0.744 OA
ENDBRANCH  90  91
ENDBRANCH  64  85
ENDBRANCH  38  39
ENDBRANCH  30  33
ENDBRANCH   1  29
TORSDOF 15
ENDMDL
MODEL 3
REMARK VINA RESULT:     -11.9      1.161      8.127
REMARK SMILES O=C(NCCCNC(=O)c1ccc(-c2c3nc(c(-c4ccc(S(=O)(=O)[O-])cc4)c4ccc([nH]4)c(-c4ccc(S(=O)(=O)[O-])cc4)c4nc(c(-c5ccc(S(=O)(=O)[O-])cc5)c5ccc2[nH]5)C=C4)C=C3)cc1)C1=Cc2cc(S(F)(F)(F)(F)F)cc(Br)c2O[C@H]1C(F)(F)F
REMARK SMILES IDX 6 1 5 2 4 3 3 4 1 5 2 6 70 8 71 9 86 10 72 11 85 12 73 13
REMARK SMILES IDX 84 14 74 15 82 16 81 17 83 18 87 19 88 20 89 21 90 22 75 23
REMARK SMILES IDX 76 24 77 25 78 26 79 27 80 28 7 29 8 30 9 32 10 33 11 34
REMARK SMILES IDX 69 35 12 36 68 37 13 38 14 39 15 40 62 41 16 42 67 43 61 44
REMARK SMILES IDX 63 45 17 46 66 47 60 48 59 49 18 51 48 52 29 53 47 54 30 55
REMARK SMILES IDX 33 56 46 57 64 58 31 59 32 60 45 62 65 63 34 64 19 65 20 66
REMARK SMILES IDX 28 67 21 68 27 69 22 70 23 71 24 72 25 73 26 74 49 75 50 76
REMARK SMILES IDX 58 77 51 78 57 79 52 80 53 81 54 82 55 83 56 84 35 85 36 86
REMARK SMILES IDX 44 87 37 88 43 89 38 90 39 91 40 92 41 93 42 94
REMARK H PARENT 3 7 7 31 63 50 33 61
REMARK Flexibility Score: inf
ROOT
ATOM      1  C   UNL A   1      33.726  28.422  27.177  1.00  0.00     0.118 C 
ENDROOT
BRANCH   1   2
ATOM      2  C   UNL A   1      32.503  27.600  26.803  1.00  0.00     0.042 C 
BRANCH   2   3
ATOM      3  C   UNL A   1      32.941  26.212  26.368  1.00  0.00     0.118 C 
BRANCH   3   4
ATOM      4  N   UNL A   1      31.791  25.488  25.807  1.00  0.00    -0.352 N 
ATOM      5  O   UNL A   1      30.653  24.729  23.864  1.00  0.00    -0.270 OA
ATOM      6  C   UNL A   1      31.647  25.355  24.350  1.00  0.00     0.251 C 
ATOM      7  H   UNL A   1      31.118  25.092  26.406  1.00  0.00     0.163 HD
BRANCH   6   8
ATOM      8  C   UNL A   1      32.686  25.965  23.424  1.00  0.00     0.067 C 
ATOM      9  C   UNL A   1      33.938  25.433  23.361  1.00  0.00     0.025 C 
ATOM     10  C   UNL A   1      32.329  27.170  22.568  1.00  0.00     0.314 C 
ATOM     11  C   UNL A   1      34.295  24.229  24.216  1.00  0.00     0.020 A 
ATOM     12  O   UNL A   1      32.093  23.457  23.764  1.00  0.00    -0.474 OA
ATOM     13  C   UNL A   1      35.535  24.103  24.821  1.00  0.00     0.036 A 
ATOM     14  C   UNL A   1      33.409  23.240  24.251  1.00  0.00     0.142 A 
ATOM     15  C   UNL A   1      35.860  22.778  25.193  1.00  0.00     0.109 A 
ATOM     16  C   UNL A   1      33.754  22.009  24.754  1.00  0.00     0.062 A 
ATOM     17  C   UNL A   1      34.983  21.797  25.314  1.00  0.00     0.044 A 
ATOM     18  Br  UNL A   1      32.465  20.535  24.670  1.00  0.00    -0.047 Br
BRANCH  10  19
ATOM     19  C   UNL A   1      30.883  27.562  22.826  1.00  0.00     0.429 C 
ATOM     20  F   UNL A   1      30.588  28.654  22.127  1.00  0.00    -0.167 F 
ATOM     21  F   UNL A   1      30.082  26.568  22.454  1.00  0.00    -0.167 F 
ATOM     22  F   UNL A   1      30.715  27.805  24.122  1.00  0.00    -0.167 F 
ENDBRANCH  10  19
BRANCH  15  23
ATOM     23  S   UNL A   1      37.598  22.400  25.529  1.00  0.00     0.310 S 
ATOM     24  F   UNL A   1      38.100  23.654  24.698  1.00  0.00    -0.094 F 
ATOM     25  F   UNL A   1      37.646  21.576  24.187  1.00  0.00    -0.094 F 
ATOM     26  F   UNL A   1      39.090  22.070  25.817  1.00  0.00    -0.094 F 
ATOM     27  F   UNL A   1      37.570  23.343  26.796  1.00  0.00    -0.094 F 
ATOM     28  F   UNL A   1      36.116  22.835  25.191  1.00  0.00    -0.094 F 
ENDBRANCH  15  23
ENDBRANCH   6   8
ENDBRANCH   3   4
ENDBRANCH   2   3
ENDBRANCH   1   2
BRANCH   1  29
ATOM     29  N   UNL A   1      33.306  29.775  27.571  1.00  0.00    -0.352 N 
ATOM     30  C   UNL A   1      34.289  30.720  28.121  1.00  0.00     0.251 C 
ATOM     31  H   UNL A   1      32.367  30.048  27.468  1.00  0.00     0.163 HD
ATOM     32  O   UNL A   1      33.926  31.888  28.461  1.00  0.00    -0.269 OA
BRANCH  30  33
ATOM     33  C   UNL A   1      35.741  30.298  28.282  1.00  0.00     0.039 A 
ATOM     34  C   UNL A   1      36.660  30.319  27.246  1.00  0.00     0.014 A 
ATOM     35  C   UNL A   1      36.103  29.970  29.516  1.00  0.00     0.014 A 
ATOM     36  C   UNL A   1      37.890  29.692  27.558  1.00  0.00     0.010 A 
ATOM     37  C   UNL A   1      37.365  29.493  29.773  1.00  0.00     0.010 A 
ATOM     38  C   UNL A   1      38.307  29.430  28.784  1.00  0.00    -0.014 A 
BRANCH  38  39
ATOM     39  C   UNL A   1      39.756  29.076  29.078  1.00  0.00     0.031 A 
ATOM     40  C   UNL A   1      40.139  27.779  28.732  1.00  0.00     0.074 A 
ATOM     41  C   UNL A   1      40.567  29.967  29.760  1.00  0.00     0.049 A 
ATOM     42  N   UNL A   1      41.316  27.193  28.952  1.00  0.00    -0.248 NA
ATOM     43  C   UNL A   1      39.267  26.819  28.039  1.00  0.00     0.031 C 
ATOM     44  C   UNL A   1      40.191  31.280  30.105  1.00  0.00     0.029 A 
ATOM     45  N   UNL A   1      41.849  29.761  30.220  1.00  0.00    -0.354 N 
ATOM     46  C   UNL A   1      41.313  25.952  28.460  1.00  0.00     0.074 A 
ATOM     47  C   UNL A   1      39.993  25.693  27.870  1.00  0.00     0.031 C 
ATOM     48  C   UNL A   1      41.226  31.853  30.774  1.00  0.00     0.029 A 
ATOM     49  C   UNL A   1      42.267  30.909  30.857  1.00  0.00     0.049 A 
ATOM     50  H   UNL A   1      42.376  28.936  30.112  1.00  0.00     0.167 HD
ATOM     51  C   UNL A   1      42.359  25.029  28.477  1.00  0.00     0.031 A 
ATOM     52  C   UNL A   1      43.483  31.137  31.481  1.00  0.00     0.031 A 
ATOM     53  C   UNL A   1      43.590  25.273  29.065  1.00  0.00     0.049 A 
ATOM     54  C   UNL A   1      44.509  30.192  31.551  1.00  0.00     0.074 A 
ATOM     55  C   UNL A   1      44.658  24.355  29.085  1.00  0.00     0.029 A 
ATOM     56  N   UNL A   1      43.999  26.412  29.723  1.00  0.00    -0.354 N 
ATOM     57  N   UNL A   1      44.519  28.967  31.023  1.00  0.00    -0.248 NA
ATOM     58  C   UNL A   1      45.788  30.412  32.238  1.00  0.00     0.031 C 
ATOM     59  C   UNL A   1      45.694  24.929  29.753  1.00  0.00     0.029 A 
ATOM     60  C   UNL A   1      45.289  26.214  30.164  1.00  0.00     0.049 A 
ATOM     61  H   UNL A   1      43.462  27.226  29.857  1.00  0.00     0.167 HD
ATOM     62  C   UNL A   1      45.683  28.366  31.281  1.00  0.00     0.074 A 
ATOM     63  C   UNL A   1      46.513  29.284  32.072  1.00  0.00     0.031 C 
ATOM     64  C   UNL A   1      46.086  27.089  30.884  1.00  0.00     0.031 A 
BRANCH  51  65
ATOM     65  C   UNL A   1      42.135  23.679  27.815  1.00  0.00    -0.014 A 
ATOM     66  C   UNL A   1      41.615  22.657  28.591  1.00  0.00     0.010 A 
ATOM     67  C   UNL A   1      42.502  23.470  26.556  1.00  0.00     0.010 A 
ATOM     68  C   UNL A   1      41.792  21.368  28.034  1.00  0.00     0.020 A 
ATOM     69  C   UNL A   1      42.521  22.199  26.034  1.00  0.00     0.020 A 
ATOM     70  C   UNL A   1      42.077  21.133  26.766  1.00  0.00     0.054 A 
BRANCH  70  71
ATOM     71  S   UNL A   1      41.891  19.487  26.035  1.00  0.00     0.124 S 
ATOM     72  O   UNL A   1      42.721  19.402  24.752  1.00  0.00    -0.237 OA
ATOM     73  O   UNL A   1      42.378  18.430  27.028  1.00  0.00    -0.237 OA
ATOM     74  O   UNL A   1      40.244  19.209  25.668  1.00  0.00    -0.744 OA
ENDBRANCH  70  71
ENDBRANCH  51  65
BRANCH  52  75
ATOM     75  C   UNL A   1      43.711  32.493  32.130  1.00  0.00    -0.014 A 
ATOM     76  C   UNL A   1      44.272  33.486  31.342  1.00  0.00     0.010 A 
ATOM     77  C   UNL A   1      43.326  32.739  33.376  1.00  0.00     0.010 A 
ATOM     78  C   UNL A   1      44.653  34.642  32.062  1.00  0.00     0.020 A 
ATOM     79  C   UNL A   1      43.613  33.943  33.972  1.00  0.00     0.020 A 
ATOM     80  C   UNL A   1      44.219  34.949  33.271  1.00  0.00     0.054 A 
BRANCH  80  81
ATOM     81  S   UNL A   1      44.416  36.610  33.963  1.00  0.00     0.124 S 
ATOM     82  O   UNL A   1      43.037  37.199  34.274  1.00  0.00    -0.237 OA
ATOM     83  O   UNL A   1      45.240  36.533  35.250  1.00  0.00    -0.237 OA
ATOM     84  O   UNL A   1      45.220  37.607  32.831  1.00  0.00    -0.744 OA
ENDBRANCH  80  81
ENDBRANCH  52  75
BRANCH  64  85
ATOM     85  C   UNL A   1      47.485  26.633  31.265  1.00  0.00    -0.014 A 
ATOM     86  C   UNL A   1      48.592  26.912  30.479  1.00  0.00     0.010 A 
ATOM     87  C   UNL A   1      47.605  25.986  32.418  1.00  0.00     0.010 A 
ATOM     88  C   UNL A   1      49.757  26.207  30.862  1.00  0.00     0.020 A 
ATOM     89  C   UNL A   1      48.808  25.440  32.792  1.00  0.00     0.020 A 
ATOM     90  C   UNL A   1      49.931  25.624  32.034  1.00  0.00     0.054 A 
BRANCH  90  91
ATOM     91  S   UNL A   1      51.566  25.099  32.607  1.00  0.00     0.124 S 
ATOM     92  O   UNL A   1      52.613  25.450  31.547  1.00  0.00    -0.237 OA
ATOM     93  O   UNL A   1      51.902  25.818  33.915  1.00  0.00    -0.237 OA
ATOM     94  O   UNL A   1      51.563  23.410  32.868  1.00  0.00    -0.744 OA
ENDBRANCH  90  91
ENDBRANCH  64  85
ENDBRANCH  38  39
ENDBRANCH  30  33
ENDBRANCH   1  29
TORSDOF 15
ENDMDL
