MODEL 1
REMARK VINA RESULT:     -12.3      0.000      0.000
REMARK SMILES CN(C)C(=O)[C@@H]1CC=CC[C@H]1C(=O)N(c1ccccc1)c1ccccc1C(=O)NCCCNC(=O)c1ccc(-c2c3nc(c(-c4ccc(S(=O)(=O)[O-])cc4)c4ccc([nH]4)c(-c4ccc(S(=O)(=O)[O-])cc4)c4nc(c(-c5ccc(S(=O)(=O)[O-])cc5)c5ccc2[nH]5)C=C4)C=C3)cc1
REMARK SMILES IDX 30 1 29 2 27 3 28 4 26 6 21 7 22 8 23 9 25 10 24 11 14 12
REMARK SMILES IDX 12 13 13 14 11 15 6 16 7 17 8 18 10 19 9 20 4 21 1 22 2 23
REMARK SMILES IDX 3 24 5 25 15 26 16 27 20 28 17 29 19 30 18 31 31 32 32 33
REMARK SMILES IDX 33 34 34 35 35 37 36 38 37 39 95 40 38 41 94 42 39 43 40 44
REMARK SMILES IDX 41 45 88 46 42 47 93 48 87 49 89 50 43 51 92 52 86 53 85 54
REMARK SMILES IDX 44 56 74 57 55 58 73 59 56 60 59 61 72 62 90 63 57 64 58 65
REMARK SMILES IDX 71 67 91 68 60 69 45 70 46 71 54 72 47 73 53 74 48 75 49 76
REMARK SMILES IDX 50 77 51 78 52 79 75 80 76 81 84 82 77 83 83 84 78 85 79 86
REMARK SMILES IDX 80 87 81 88 82 89 61 90 62 91 70 92 63 93 69 94 64 95 65 96
REMARK SMILES IDX 66 97 67 98 68 99
REMARK H PARENT 29 5 33 36 89 55 59 66
REMARK Flexibility Score: inf
ROOT
ATOM      1  C   UNL A   1      33.031  27.390  27.060  1.00  0.00     0.118 C 
ENDROOT
BRANCH   1   2
ATOM      2  N   UNL A   1      31.742  27.033  26.559  1.00  0.00    -0.352 N 
ATOM      3  C   UNL A   1      31.381  26.496  25.349  1.00  0.00     0.253 C 
ATOM      4  O   UNL A   1      30.231  26.036  25.331  1.00  0.00    -0.269 OA
ATOM      5  H   UNL A   1      30.996  27.197  27.180  1.00  0.00     0.163 HD
BRANCH   3   6
ATOM      6  C   UNL A   1      32.151  26.538  24.046  1.00  0.00     0.063 A 
ATOM      7  C   UNL A   1      32.901  25.584  23.307  1.00  0.00     0.062 A 
ATOM      8  C   UNL A   1      33.455  25.996  22.055  1.00  0.00     0.027 A 
ATOM      9  C   UNL A   1      33.346  27.291  21.555  1.00  0.00     0.002 A 
ATOM     10  C   UNL A   1      32.090  27.862  23.507  1.00  0.00     0.016 A 
ATOM     11  C   UNL A   1      32.675  28.237  22.296  1.00  0.00     0.001 A 
BRANCH   7  12
ATOM     12  N   UNL A   1      33.171  24.193  23.634  1.00  0.00    -0.280 N 
BRANCH  12  13
ATOM     13  C   UNL A   1      32.191  23.223  23.395  1.00  0.00     0.235 C 
ATOM     14  O   UNL A   1      31.003  23.565  23.301  1.00  0.00    -0.274 OA
BRANCH  13  15
ATOM     15  C   UNL A   1      32.504  21.686  23.317  1.00  0.00     0.096 C 
ATOM     16  C   UNL A   1      32.202  20.876  24.602  1.00  0.00     0.095 C 
ATOM     17  C   UNL A   1      32.855  19.485  24.508  1.00  0.00     0.041 C 
ATOM     18  C   UNL A   1      32.330  18.759  23.306  1.00  0.00    -0.030 C 
ATOM     19  C   UNL A   1      32.103  20.902  22.043  1.00  0.00     0.041 C 
ATOM     20  C   UNL A   1      31.948  19.418  22.204  1.00  0.00    -0.030 C 
BRANCH  16  21
ATOM     21  C   UNL A   1      32.686  21.593  25.854  1.00  0.00     0.226 C 
ATOM     22  C   UNL A   1      32.407  23.457  27.365  1.00  0.00     0.146 C 
ATOM     23  N   UNL A   1      31.811  22.472  26.482  1.00  0.00    -0.349 N 
ATOM     24  C   UNL A   1      30.368  22.530  26.323  1.00  0.00     0.146 C 
ATOM     25  O   UNL A   1      33.842  21.436  26.253  1.00  0.00    -0.275 OA
ENDBRANCH  16  21
ENDBRANCH  13  15
ENDBRANCH  12  13
BRANCH  12  26
ATOM     26  C   UNL A   1      34.536  23.939  24.024  1.00  0.00     0.049 A 
ATOM     27  C   UNL A   1      35.045  24.460  25.229  1.00  0.00     0.027 A 
ATOM     28  C   UNL A   1      35.396  23.164  23.244  1.00  0.00     0.027 A 
ATOM     29  C   UNL A   1      36.333  24.133  25.667  1.00  0.00     0.002 A 
ATOM     30  C   UNL A   1      36.673  22.812  23.688  1.00  0.00     0.002 A 
ATOM     31  C   UNL A   1      37.137  23.287  24.908  1.00  0.00     0.000 A 
ENDBRANCH  12  26
ENDBRANCH   7  12
ENDBRANCH   3   6
ENDBRANCH   1   2
BRANCH   1  32
ATOM     32  C   UNL A   1      33.558  28.759  26.679  1.00  0.00     0.042 C 
BRANCH  32  33
ATOM     33  C   UNL A   1      34.929  29.153  27.230  1.00  0.00     0.118 C 
BRANCH  33  34
ATOM     34  N   UNL A   1      34.951  30.067  28.373  1.00  0.00    -0.352 N 
ATOM     35  C   UNL A   1      35.922  30.548  29.232  1.00  0.00     0.251 C 
ATOM     36  H   UNL A   1      34.058  30.425  28.581  1.00  0.00     0.163 HD
ATOM     37  O   UNL A   1      35.583  31.328  30.109  1.00  0.00    -0.269 OA
BRANCH  35  38
ATOM     38  C   UNL A   1      37.338  30.100  29.173  1.00  0.00     0.039 A 
ATOM     39  C   UNL A   1      37.983  29.685  30.352  1.00  0.00     0.014 A 
ATOM     40  C   UNL A   1      38.056  30.098  27.989  1.00  0.00     0.014 A 
ATOM     41  C   UNL A   1      39.281  29.154  30.315  1.00  0.00     0.010 A 
ATOM     42  C   UNL A   1      39.294  29.476  27.924  1.00  0.00     0.010 A 
ATOM     43  C   UNL A   1      39.931  29.013  29.087  1.00  0.00    -0.014 A 
BRANCH  43  44
ATOM     44  C   UNL A   1      41.331  28.548  28.929  1.00  0.00     0.031 A 
ATOM     45  C   UNL A   1      42.411  29.597  28.949  1.00  0.00     0.074 A 
ATOM     46  C   UNL A   1      41.618  27.277  28.594  1.00  0.00     0.049 A 
ATOM     47  N   UNL A   1      43.624  29.552  28.469  1.00  0.00    -0.248 NA
ATOM     48  C   UNL A   1      42.030  30.905  29.516  1.00  0.00     0.031 C 
ATOM     49  C   UNL A   1      40.666  26.168  28.536  1.00  0.00     0.029 A 
ATOM     50  N   UNL A   1      42.807  26.718  28.193  1.00  0.00    -0.354 N 
ATOM     51  C   UNL A   1      44.122  30.843  28.607  1.00  0.00     0.074 A 
ATOM     52  C   UNL A   1      43.065  31.653  29.169  1.00  0.00     0.031 C 
ATOM     53  C   UNL A   1      41.308  25.062  28.117  1.00  0.00     0.029 A 
ATOM     54  C   UNL A   1      42.700  25.398  27.826  1.00  0.00     0.049 A 
ATOM     55  H   UNL A   1      43.656  27.216  28.169  1.00  0.00     0.167 HD
ATOM     56  C   UNL A   1      45.355  31.310  28.302  1.00  0.00     0.031 A 
ATOM     57  C   UNL A   1      43.616  24.566  27.289  1.00  0.00     0.031 A 
ATOM     58  C   UNL A   1      46.413  30.478  27.800  1.00  0.00     0.049 A 
ATOM     59  C   UNL A   1      44.999  25.091  26.998  1.00  0.00     0.074 A 
ATOM     60  C   UNL A   1      47.723  30.822  27.524  1.00  0.00     0.029 A 
ATOM     61  N   UNL A   1      46.283  29.125  27.526  1.00  0.00    -0.354 N 
ATOM     62  N   UNL A   1      45.466  26.309  27.142  1.00  0.00    -0.248 NA
ATOM     63  C   UNL A   1      45.980  24.129  26.474  1.00  0.00     0.031 C 
ATOM     64  C   UNL A   1      48.380  29.680  27.053  1.00  0.00     0.029 A 
ATOM     65  C   UNL A   1      47.491  28.617  27.085  1.00  0.00     0.049 A 
ATOM     66  H   UNL A   1      45.455  28.604  27.629  1.00  0.00     0.167 HD
ATOM     67  C   UNL A   1      46.805  26.249  26.769  1.00  0.00     0.074 A 
ATOM     68  C   UNL A   1      47.072  24.876  26.392  1.00  0.00     0.031 C 
ATOM     69  C   UNL A   1      47.733  27.238  26.742  1.00  0.00     0.031 A 
BRANCH  56  70
ATOM     70  C   UNL A   1      45.610  32.779  28.509  1.00  0.00    -0.014 A 
ATOM     71  C   UNL A   1      45.954  33.287  29.775  1.00  0.00     0.010 A 
ATOM     72  C   UNL A   1      45.501  33.667  27.424  1.00  0.00     0.010 A 
ATOM     73  C   UNL A   1      46.123  34.660  29.966  1.00  0.00     0.020 A 
ATOM     74  C   UNL A   1      45.704  35.038  27.603  1.00  0.00     0.020 A 
ATOM     75  C   UNL A   1      45.990  35.528  28.879  1.00  0.00     0.054 A 
BRANCH  75  76
ATOM     76  S   UNL A   1      46.222  37.305  29.154  1.00  0.00     0.124 S 
ATOM     77  O   UNL A   1      46.637  37.340  30.554  1.00  0.00    -0.237 OA
ATOM     78  O   UNL A   1      47.258  37.647  28.183  1.00  0.00    -0.237 OA
ATOM     79  O   UNL A   1      44.905  37.872  28.880  1.00  0.00    -0.744 OA
ENDBRANCH  75  76
ENDBRANCH  56  70
BRANCH  57  80
ATOM     80  C   UNL A   1      43.267  23.145  27.012  1.00  0.00    -0.014 A 
ATOM     81  C   UNL A   1      43.494  22.602  25.734  1.00  0.00     0.010 A 
ATOM     82  C   UNL A   1      42.717  22.325  28.013  1.00  0.00     0.010 A 
ATOM     83  C   UNL A   1      43.162  21.273  25.456  1.00  0.00     0.020 A 
ATOM     84  C   UNL A   1      42.408  20.986  27.747  1.00  0.00     0.020 A 
ATOM     85  C   UNL A   1      42.624  20.471  26.467  1.00  0.00     0.054 A 
BRANCH  85  86
ATOM     86  S   UNL A   1      42.257  18.732  26.100  1.00  0.00     0.124 S 
ATOM     87  O   UNL A   1      40.843  18.787  25.743  1.00  0.00    -0.237 OA
ATOM     88  O   UNL A   1      43.176  18.441  25.002  1.00  0.00    -0.237 OA
ATOM     89  O   UNL A   1      42.563  18.048  27.354  1.00  0.00    -0.744 OA
ENDBRANCH  85  86
ENDBRANCH  57  80
BRANCH  69  90
ATOM     90  C   UNL A   1      49.140  26.867  26.359  1.00  0.00    -0.014 A 
ATOM     91  C   UNL A   1      50.018  26.274  27.282  1.00  0.00     0.010 A 
ATOM     92  C   UNL A   1      49.553  27.035  25.024  1.00  0.00     0.010 A 
ATOM     93  C   UNL A   1      51.295  25.872  26.878  1.00  0.00     0.020 A 
ATOM     94  C   UNL A   1      50.817  26.611  24.612  1.00  0.00     0.020 A 
ATOM     95  C   UNL A   1      51.685  26.041  25.545  1.00  0.00     0.054 A 
BRANCH  95  96
ATOM     96  S   UNL A   1      53.321  25.451  25.032  1.00  0.00     0.124 S 
ATOM     97  O   UNL A   1      54.210  26.340  25.775  1.00  0.00    -0.237 OA
ATOM     98  O   UNL A   1      53.313  24.058  25.473  1.00  0.00    -0.237 OA
ATOM     99  O   UNL A   1      53.319  25.640  23.583  1.00  0.00    -0.744 OA
ENDBRANCH  95  96
ENDBRANCH  69  90
ENDBRANCH  43  44
ENDBRANCH  35  38
ENDBRANCH  33  34
ENDBRANCH  32  33
ENDBRANCH   1  32
TORSDOF 18
ENDMDL
MODEL 2
REMARK VINA RESULT:     -11.7      5.133     10.472
REMARK SMILES CN(C)C(=O)[C@@H]1CC=CC[C@H]1C(=O)N(c1ccccc1)c1ccccc1C(=O)NCCCNC(=O)c1ccc(-c2c3nc(c(-c4ccc(S(=O)(=O)[O-])cc4)c4ccc([nH]4)c(-c4ccc(S(=O)(=O)[O-])cc4)c4nc(c(-c5ccc(S(=O)(=O)[O-])cc5)c5ccc2[nH]5)C=C4)C=C3)cc1
REMARK SMILES IDX 30 1 29 2 27 3 28 4 26 6 21 7 22 8 23 9 25 10 24 11 14 12
REMARK SMILES IDX 12 13 13 14 11 15 6 16 7 17 8 18 10 19 9 20 4 21 1 22 2 23
REMARK SMILES IDX 3 24 5 25 15 26 16 27 20 28 17 29 19 30 18 31 31 32 32 33
REMARK SMILES IDX 33 34 34 35 35 37 36 38 37 39 95 40 38 41 94 42 39 43 40 44
REMARK SMILES IDX 41 45 88 46 42 47 93 48 87 49 89 50 43 51 92 52 86 53 85 54
REMARK SMILES IDX 44 56 74 57 55 58 73 59 56 60 59 61 72 62 90 63 57 64 58 65
REMARK SMILES IDX 71 67 91 68 60 69 45 70 46 71 54 72 47 73 53 74 48 75 49 76
REMARK SMILES IDX 50 77 51 78 52 79 75 80 76 81 84 82 77 83 83 84 78 85 79 86
REMARK SMILES IDX 80 87 81 88 82 89 61 90 62 91 70 92 63 93 69 94 64 95 65 96
REMARK SMILES IDX 66 97 67 98 68 99
REMARK H PARENT 29 5 33 36 89 55 59 66
REMARK Flexibility Score: inf
ROOT
ATOM      1  C   UNL A   1      37.114  22.389  25.224  1.00  0.00     0.118 C 
ENDROOT
BRANCH   1   2
ATOM      2  N   UNL A   1      36.388  23.340  24.444  1.00  0.00    -0.352 N 
ATOM      3  C   UNL A   1      35.253  24.049  24.745  1.00  0.00     0.253 C 
ATOM      4  O   UNL A   1      35.040  24.998  23.978  1.00  0.00    -0.269 OA
ATOM      5  H   UNL A   1      36.761  23.514  23.550  1.00  0.00     0.163 HD
BRANCH   3   6
ATOM      6  C   UNL A   1      34.198  23.721  25.780  1.00  0.00     0.063 A 
ATOM      7  C   UNL A   1      32.922  24.258  26.099  1.00  0.00     0.062 A 
ATOM      8  C   UNL A   1      32.174  23.628  27.143  1.00  0.00     0.027 A 
ATOM      9  C   UNL A   1      32.655  22.560  27.895  1.00  0.00     0.002 A 
ATOM     10  C   UNL A   1      34.661  22.642  26.599  1.00  0.00     0.016 A 
ATOM     11  C   UNL A   1      33.917  22.075  27.634  1.00  0.00     0.001 A 
BRANCH   7  12
ATOM     12  N   UNL A   1      32.227  25.374  25.476  1.00  0.00    -0.280 N 
BRANCH  12  13
ATOM     13  C   UNL A   1      31.282  25.128  24.475  1.00  0.00     0.235 C 
ATOM     14  O   UNL A   1      30.076  25.111  24.763  1.00  0.00    -0.274 OA
BRANCH  13  15
ATOM     15  C   UNL A   1      31.671  24.783  22.992  1.00  0.00     0.096 C 
ATOM     16  C   UNL A   1      32.317  25.936  22.184  1.00  0.00     0.095 C 
ATOM     17  C   UNL A   1      32.336  25.578  20.688  1.00  0.00     0.041 C 
ATOM     18  C   UNL A   1      33.106  24.310  20.480  1.00  0.00    -0.030 C 
ATOM     19  C   UNL A   1      32.354  23.425  22.691  1.00  0.00     0.041 C 
ATOM     20  C   UNL A   1      33.144  23.354  21.418  1.00  0.00    -0.030 C 
BRANCH  16  21
ATOM     21  C   UNL A   1      31.589  27.256  22.394  1.00  0.00     0.226 C 
ATOM     22  C   UNL A   1      31.531  29.389  23.526  1.00  0.00     0.146 C 
ATOM     23  N   UNL A   1      32.308  28.322  22.924  1.00  0.00    -0.349 N 
ATOM     24  C   UNL A   1      33.753  28.465  22.965  1.00  0.00     0.146 C 
ATOM     25  O   UNL A   1      30.383  27.345  22.155  1.00  0.00    -0.275 OA
ENDBRANCH  16  21
ENDBRANCH  13  15
ENDBRANCH  12  13
BRANCH  12  26
ATOM     26  C   UNL A   1      32.479  26.645  26.110  1.00  0.00     0.049 A 
ATOM     27  C   UNL A   1      31.442  27.339  26.761  1.00  0.00     0.027 A 
ATOM     28  C   UNL A   1      33.748  27.227  26.119  1.00  0.00     0.027 A 
ATOM     29  C   UNL A   1      31.698  28.519  27.468  1.00  0.00     0.002 A 
ATOM     30  C   UNL A   1      34.016  28.389  26.845  1.00  0.00     0.002 A 
ATOM     31  C   UNL A   1      32.992  29.029  27.532  1.00  0.00     0.000 A 
ENDBRANCH  12  26
ENDBRANCH   7  12
ENDBRANCH   3   6
ENDBRANCH   1   2
BRANCH   1  32
ATOM     32  C   UNL A   1      38.333  22.902  25.967  1.00  0.00     0.042 C 
BRANCH  32  33
ATOM     33  C   UNL A   1      39.378  21.868  26.382  1.00  0.00     0.118 C 
BRANCH  33  34
ATOM     34  N   UNL A   1      40.674  21.919  25.702  1.00  0.00    -0.352 N 
ATOM     35  C   UNL A   1      41.796  22.723  25.778  1.00  0.00     0.251 C 
ATOM     36  H   UNL A   1      40.769  21.209  25.026  1.00  0.00     0.163 HD
ATOM     37  O   UNL A   1      42.736  22.475  25.038  1.00  0.00    -0.269 OA
BRANCH  35  38
ATOM     38  C   UNL A   1      41.873  23.910  26.670  1.00  0.00     0.039 A 
ATOM     39  C   UNL A   1      42.346  25.132  26.156  1.00  0.00     0.014 A 
ATOM     40  C   UNL A   1      41.512  23.848  28.005  1.00  0.00     0.014 A 
ATOM     41  C   UNL A   1      42.328  26.297  26.938  1.00  0.00     0.010 A 
ATOM     42  C   UNL A   1      41.388  25.011  28.749  1.00  0.00     0.010 A 
ATOM     43  C   UNL A   1      41.811  26.247  28.234  1.00  0.00    -0.014 A 
BRANCH  43  44
ATOM     44  C   UNL A   1      41.820  27.387  29.184  1.00  0.00     0.031 A 
ATOM     45  C   UNL A   1      42.834  27.349  30.296  1.00  0.00     0.074 A 
ATOM     46  C   UNL A   1      40.850  28.320  29.173  1.00  0.00     0.049 A 
ATOM     47  N   UNL A   1      42.831  27.965  31.447  1.00  0.00    -0.248 NA
ATOM     48  C   UNL A   1      43.962  26.417  30.110  1.00  0.00     0.031 C 
ATOM     49  C   UNL A   1      39.809  28.466  28.156  1.00  0.00     0.029 A 
ATOM     50  N   UNL A   1      40.564  29.304  30.088  1.00  0.00    -0.354 N 
ATOM     51  C   UNL A   1      43.909  27.439  32.149  1.00  0.00     0.074 A 
ATOM     52  C   UNL A   1      44.510  26.423  31.314  1.00  0.00     0.031 C 
ATOM     53  C   UNL A   1      38.994  29.477  28.506  1.00  0.00     0.029 A 
ATOM     54  C   UNL A   1      39.422  30.012  29.797  1.00  0.00     0.049 A 
ATOM     55  H   UNL A   1      41.123  29.484  30.878  1.00  0.00     0.167 HD
ATOM     56  C   UNL A   1      44.365  27.779  33.377  1.00  0.00     0.031 A 
ATOM     57  C   UNL A   1      38.783  30.963  30.508  1.00  0.00     0.031 A 
ATOM     58  C   UNL A   1      43.793  28.833  34.168  1.00  0.00     0.049 A 
ATOM     59  C   UNL A   1      39.331  31.362  31.854  1.00  0.00     0.074 A 
ATOM     60  C   UNL A   1      44.212  29.316  35.394  1.00  0.00     0.029 A 
ATOM     61  N   UNL A   1      42.688  29.583  33.794  1.00  0.00    -0.354 N 
ATOM     62  N   UNL A   1      40.358  30.870  32.506  1.00  0.00    -0.248 NA
ATOM     63  C   UNL A   1      38.636  32.449  32.560  1.00  0.00     0.031 C 
ATOM     64  C   UNL A   1      43.341  30.342  35.774  1.00  0.00     0.029 A 
ATOM     65  C   UNL A   1      42.412  30.529  34.763  1.00  0.00     0.049 A 
ATOM     66  H   UNL A   1      42.176  29.460  32.962  1.00  0.00     0.167 HD
ATOM     67  C   UNL A   1      40.457  31.614  33.677  1.00  0.00     0.074 A 
ATOM     68  C   UNL A   1      39.387  32.589  33.644  1.00  0.00     0.031 C 
ATOM     69  C   UNL A   1      41.354  31.505  34.690  1.00  0.00     0.031 A 
BRANCH  56  70
ATOM     70  C   UNL A   1      45.535  27.004  33.921  1.00  0.00    -0.014 A 
ATOM     71  C   UNL A   1      46.858  27.418  33.683  1.00  0.00     0.010 A 
ATOM     72  C   UNL A   1      45.309  25.840  34.678  1.00  0.00     0.010 A 
ATOM     73  C   UNL A   1      47.933  26.652  34.138  1.00  0.00     0.020 A 
ATOM     74  C   UNL A   1      46.383  25.089  35.166  1.00  0.00     0.020 A 
ATOM     75  C   UNL A   1      47.688  25.488  34.872  1.00  0.00     0.054 A 
BRANCH  75  76
ATOM     76  S   UNL A   1      49.103  24.517  35.456  1.00  0.00     0.124 S 
ATOM     77  O   UNL A   1      50.228  25.370  35.080  1.00  0.00    -0.237 OA
ATOM     78  O   UNL A   1      48.848  24.411  36.890  1.00  0.00    -0.237 OA
ATOM     79  O   UNL A   1      48.994  23.265  34.713  1.00  0.00    -0.744 OA
ENDBRANCH  75  76
ENDBRANCH  56  70
BRANCH  57  80
ATOM     80  C   UNL A   1      37.567  31.622  29.955  1.00  0.00    -0.014 A 
ATOM     81  C   UNL A   1      37.685  32.827  29.238  1.00  0.00     0.010 A 
ATOM     82  C   UNL A   1      36.292  31.056  30.131  1.00  0.00     0.010 A 
ATOM     83  C   UNL A   1      36.551  33.463  28.722  1.00  0.00     0.020 A 
ATOM     84  C   UNL A   1      35.157  31.674  29.594  1.00  0.00     0.020 A 
ATOM     85  C   UNL A   1      35.293  32.880  28.901  1.00  0.00     0.054 A 
BRANCH  85  86
ATOM     86  S   UNL A   1      33.843  33.691  28.171  1.00  0.00     0.124 S 
ATOM     87  O   UNL A   1      33.152  32.570  27.542  1.00  0.00    -0.237 OA
ATOM     88  O   UNL A   1      33.183  34.267  29.340  1.00  0.00    -0.237 OA
ATOM     89  O   UNL A   1      34.425  34.665  27.252  1.00  0.00    -0.744 OA
ENDBRANCH  85  86
ENDBRANCH  57  80
BRANCH  69  90
ATOM     90  C   UNL A   1      41.266  32.503  35.812  1.00  0.00    -0.014 A 
ATOM     91  C   UNL A   1      41.965  33.721  35.765  1.00  0.00     0.010 A 
ATOM     92  C   UNL A   1      40.396  32.249  36.888  1.00  0.00     0.010 A 
ATOM     93  C   UNL A   1      41.807  34.662  36.788  1.00  0.00     0.020 A 
ATOM     94  C   UNL A   1      40.215  33.195  37.896  1.00  0.00     0.020 A 
ATOM     95  C   UNL A   1      40.931  34.393  37.845  1.00  0.00     0.054 A 
BRANCH  95  96
ATOM     96  S   UNL A   1      40.694  35.656  39.124  1.00  0.00     0.124 S 
ATOM     97  O   UNL A   1      42.018  36.268  39.196  1.00  0.00    -0.237 OA
ATOM     98  O   UNL A   1      39.642  36.496  38.555  1.00  0.00    -0.237 OA
ATOM     99  O   UNL A   1      40.299  34.887  40.303  1.00  0.00    -0.744 OA
ENDBRANCH  95  96
ENDBRANCH  69  90
ENDBRANCH  43  44
ENDBRANCH  35  38
ENDBRANCH  33  34
ENDBRANCH  32  33
ENDBRANCH   1  32
TORSDOF 18
ENDMDL
MODEL 3
REMARK VINA RESULT:     -11.4      5.822      9.999
REMARK SMILES CN(C)C(=O)[C@@H]1CC=CC[C@H]1C(=O)N(c1ccccc1)c1ccccc1C(=O)NCCCNC(=O)c1ccc(-c2c3nc(c(-c4ccc(S(=O)(=O)[O-])cc4)c4ccc([nH]4)c(-c4ccc(S(=O)(=O)[O-])cc4)c4nc(c(-c5ccc(S(=O)(=O)[O-])cc5)c5ccc2[nH]5)C=C4)C=C3)cc1
REMARK SMILES IDX 30 1 29 2 27 3 28 4 26 6 21 7 22 8 23 9 25 10 24 11 14 12
REMARK SMILES IDX 12 13 13 14 11 15 6 16 7 17 8 18 10 19 9 20 4 21 1 22 2 23
REMARK SMILES IDX 3 24 5 25 15 26 16 27 20 28 17 29 19 30 18 31 31 32 32 33
REMARK SMILES IDX 33 34 34 35 35 37 36 38 37 39 95 40 38 41 94 42 39 43 40 44
REMARK SMILES IDX 41 45 88 46 42 47 93 48 87 49 89 50 43 51 92 52 86 53 85 54
REMARK SMILES IDX 44 56 74 57 55 58 73 59 56 60 59 61 72 62 90 63 57 64 58 65
REMARK SMILES IDX 71 67 91 68 60 69 45 70 46 71 54 72 47 73 53 74 48 75 49 76
REMARK SMILES IDX 50 77 51 78 52 79 75 80 76 81 84 82 77 83 83 84 78 85 79 86
REMARK SMILES IDX 80 87 81 88 82 89 61 90 62 91 70 92 63 93 69 94 64 95 65 96
REMARK SMILES IDX 66 97 67 98 68 99
REMARK H PARENT 29 5 33 36 89 55 59 66
REMARK Flexibility Score: inf
ROOT
ATOM      1  C   UNL A   1      33.062  28.928  27.037  1.00  0.00     0.118 C 
ENDROOT
BRANCH   1   2
ATOM      2  N   UNL A   1      32.185  27.811  26.885  1.00  0.00    -0.352 N 
ATOM      3  C   UNL A   1      32.144  26.845  25.912  1.00  0.00     0.253 C 
ATOM      4  O   UNL A   1      31.459  25.858  26.218  1.00  0.00    -0.269 OA
ATOM      5  H   UNL A   1      31.505  27.719  27.591  1.00  0.00     0.163 HD
BRANCH   3   6
ATOM      6  C   UNL A   1      32.698  26.918  24.505  1.00  0.00     0.063 A 
ATOM      7  C   UNL A   1      33.216  25.959  23.593  1.00  0.00     0.062 A 
ATOM      8  C   UNL A   1      33.606  26.415  22.295  1.00  0.00     0.027 A 
ATOM      9  C   UNL A   1      33.558  27.750  21.903  1.00  0.00     0.002 A 
ATOM     10  C   UNL A   1      32.693  28.280  24.068  1.00  0.00     0.016 A 
ATOM     11  C   UNL A   1      33.116  28.694  22.803  1.00  0.00     0.001 A 
BRANCH   7  12
ATOM     12  N   UNL A   1      33.386  24.527  23.783  1.00  0.00    -0.280 N 
BRANCH  12  13
ATOM     13  C   UNL A   1      32.339  23.658  23.457  1.00  0.00     0.235 C 
ATOM     14  O   UNL A   1      31.183  24.098  23.373  1.00  0.00    -0.274 OA
BRANCH  13  15
ATOM     15  C   UNL A   1      32.535  22.111  23.267  1.00  0.00     0.096 C 
ATOM     16  C   UNL A   1      32.066  21.226  24.450  1.00  0.00     0.095 C 
ATOM     17  C   UNL A   1      32.612  19.798  24.281  1.00  0.00     0.041 C 
ATOM     18  C   UNL A   1      32.130  19.220  22.985  1.00  0.00    -0.030 C 
ATOM     19  C   UNL A   1      32.178  21.471  21.902  1.00  0.00     0.041 C 
ATOM     20  C   UNL A   1      31.893  19.998  21.920  1.00  0.00    -0.030 C 
BRANCH  16  21
ATOM     21  C   UNL A   1      32.501  21.794  25.793  1.00  0.00     0.226 C 
ATOM     22  C   UNL A   1      33.883  21.537  27.758  1.00  0.00     0.146 C 
ATOM     23  N   UNL A   1      33.705  21.351  26.329  1.00  0.00    -0.349 N 
ATOM     24  C   UNL A   1      34.790  20.696  25.618  1.00  0.00     0.146 C 
ATOM     25  O   UNL A   1      31.769  22.575  26.404  1.00  0.00    -0.275 OA
ENDBRANCH  16  21
ENDBRANCH  13  15
ENDBRANCH  12  13
BRANCH  12  26
ATOM     26  C   UNL A   1      34.729  24.140  24.139  1.00  0.00     0.049 A 
ATOM     27  C   UNL A   1      35.247  24.439  25.413  1.00  0.00     0.027 A 
ATOM     28  C   UNL A   1      35.557  23.448  23.254  1.00  0.00     0.027 A 
ATOM     29  C   UNL A   1      36.508  23.977  25.804  1.00  0.00     0.002 A 
ATOM     30  C   UNL A   1      36.806  22.960  23.647  1.00  0.00     0.002 A 
ATOM     31  C   UNL A   1      37.276  23.214  24.929  1.00  0.00     0.000 A 
ENDBRANCH  12  26
ENDBRANCH   7  12
ENDBRANCH   3   6
ENDBRANCH   1   2
BRANCH   1  32
ATOM     32  C   UNL A   1      32.414  30.282  27.255  1.00  0.00     0.042 C 
BRANCH  32  33
ATOM     33  C   UNL A   1      33.249  31.514  26.910  1.00  0.00     0.118 C 
BRANCH  33  34
ATOM     34  N   UNL A   1      32.863  32.778  27.540  1.00  0.00    -0.352 N 
ATOM     35  C   UNL A   1      33.431  33.630  28.470  1.00  0.00     0.251 C 
ATOM     36  H   UNL A   1      31.988  33.100  27.225  1.00  0.00     0.163 HD
ATOM     37  O   UNL A   1      32.816  34.639  28.781  1.00  0.00    -0.269 OA
BRANCH  35  38
ATOM     38  C   UNL A   1      34.718  33.331  29.151  1.00  0.00     0.039 A 
ATOM     39  C   UNL A   1      35.882  34.019  28.764  1.00  0.00     0.014 A 
ATOM     40  C   UNL A   1      34.814  32.374  30.147  1.00  0.00     0.014 A 
ATOM     41  C   UNL A   1      37.088  33.842  29.458  1.00  0.00     0.010 A 
ATOM     42  C   UNL A   1      35.969  32.272  30.907  1.00  0.00     0.010 A 
ATOM     43  C   UNL A   1      37.126  32.989  30.563  1.00  0.00    -0.014 A 
BRANCH  43  44
ATOM     44  C   UNL A   1      38.357  32.654  31.320  1.00  0.00     0.031 A 
ATOM     45  C   UNL A   1      39.188  31.505  30.811  1.00  0.00     0.074 A 
ATOM     46  C   UNL A   1      38.628  33.218  32.511  1.00  0.00     0.049 A 
ATOM     47  N   UNL A   1      40.055  30.761  31.441  1.00  0.00    -0.248 NA
ATOM     48  C   UNL A   1      38.933  31.092  29.418  1.00  0.00     0.031 C 
ATOM     49  C   UNL A   1      37.902  34.334  33.118  1.00  0.00     0.029 A 
ATOM     50  N   UNL A   1      39.576  32.887  33.448  1.00  0.00    -0.354 N 
ATOM     51  C   UNL A   1      40.391  29.750  30.549  1.00  0.00     0.074 A 
ATOM     52  C   UNL A   1      39.598  29.950  29.356  1.00  0.00     0.031 C 
ATOM     53  C   UNL A   1      38.428  34.591  34.329  1.00  0.00     0.029 A 
ATOM     54  C   UNL A   1      39.489  33.625  34.605  1.00  0.00     0.049 A 
ATOM     55  H   UNL A   1      40.253  32.187  33.306  1.00  0.00     0.167 HD
ATOM     56  C   UNL A   1      41.287  28.748  30.705  1.00  0.00     0.031 A 
ATOM     57  C   UNL A   1      40.171  33.511  35.763  1.00  0.00     0.031 A 
ATOM     58  C   UNL A   1      42.111  28.599  31.872  1.00  0.00     0.049 A 
ATOM     59  C   UNL A   1      41.198  32.418  35.903  1.00  0.00     0.074 A 
ATOM     60  C   UNL A   1      43.104  27.669  32.114  1.00  0.00     0.029 A 
ATOM     61  N   UNL A   1      42.049  29.424  32.986  1.00  0.00    -0.354 N 
ATOM     62  N   UNL A   1      41.519  31.473  35.050  1.00  0.00    -0.248 NA
ATOM     63  C   UNL A   1      41.960  32.376  37.160  1.00  0.00     0.031 C 
ATOM     64  C   UNL A   1      43.625  27.914  33.389  1.00  0.00     0.029 A 
ATOM     65  C   UNL A   1      42.989  29.027  33.917  1.00  0.00     0.049 A 
ATOM     66  H   UNL A   1      41.428  30.179  33.096  1.00  0.00     0.167 HD
ATOM     67  C   UNL A   1      42.548  30.753  35.650  1.00  0.00     0.074 A 
ATOM     68  C   UNL A   1      42.795  31.371  36.936  1.00  0.00     0.031 C 
ATOM     69  C   UNL A   1      43.230  29.679  35.180  1.00  0.00     0.031 A 
BRANCH  56  70
ATOM     70  C   UNL A   1      41.416  27.753  29.583  1.00  0.00    -0.014 A 
ATOM     71  C   UNL A   1      40.414  26.796  29.339  1.00  0.00     0.010 A 
ATOM     72  C   UNL A   1      42.558  27.769  28.762  1.00  0.00     0.010 A 
ATOM     73  C   UNL A   1      40.578  25.837  28.338  1.00  0.00     0.020 A 
ATOM     74  C   UNL A   1      42.710  26.834  27.735  1.00  0.00     0.020 A 
ATOM     75  C   UNL A   1      41.729  25.858  27.545  1.00  0.00     0.054 A 
BRANCH  75  76
ATOM     76  S   UNL A   1      41.912  24.606  26.248  1.00  0.00     0.124 S 
ATOM     77  O   UNL A   1      43.239  24.066  26.536  1.00  0.00    -0.237 OA
ATOM     78  O   UNL A   1      40.796  23.703  26.513  1.00  0.00    -0.237 OA
ATOM     79  O   UNL A   1      41.808  25.372  25.009  1.00  0.00    -0.744 OA
ENDBRANCH  75  76
ENDBRANCH  56  70
BRANCH  57  80
ATOM     80  C   UNL A   1      39.923  34.470  36.876  1.00  0.00    -0.014 A 
ATOM     81  C   UNL A   1      40.555  35.726  36.876  1.00  0.00     0.010 A 
ATOM     82  C   UNL A   1      39.056  34.144  37.934  1.00  0.00     0.010 A 
ATOM     83  C   UNL A   1      40.341  36.632  37.919  1.00  0.00     0.020 A 
ATOM     84  C   UNL A   1      38.816  35.057  38.967  1.00  0.00     0.020 A 
ATOM     85  C   UNL A   1      39.469  36.293  38.957  1.00  0.00     0.054 A 
BRANCH  85  86
ATOM     86  S   UNL A   1      39.158  37.508  40.270  1.00  0.00     0.124 S 
ATOM     87  O   UNL A   1      38.610  36.673  41.334  1.00  0.00    -0.237 OA
ATOM     88  O   UNL A   1      40.491  38.053  40.515  1.00  0.00    -0.237 OA
ATOM     89  O   UNL A   1      38.217  38.440  39.654  1.00  0.00    -0.744 OA
ENDBRANCH  85  86
ENDBRANCH  57  80
BRANCH  69  90
ATOM     90  C   UNL A   1      44.355  29.142  36.022  1.00  0.00    -0.014 A 
ATOM     91  C   UNL A   1      44.144  28.116  36.959  1.00  0.00     0.010 A 
ATOM     92  C   UNL A   1      45.662  29.615  35.802  1.00  0.00     0.010 A 
ATOM     93  C   UNL A   1      45.221  27.585  37.675  1.00  0.00     0.020 A 
ATOM     94  C   UNL A   1      46.742  29.070  36.496  1.00  0.00     0.020 A 
ATOM     95  C   UNL A   1      46.513  28.065  37.437  1.00  0.00     0.054 A 
BRANCH  95  96
ATOM     96  S   UNL A   1      47.901  27.315  38.331  1.00  0.00     0.124 S 
ATOM     97  O   UNL A   1      47.257  26.187  38.999  1.00  0.00    -0.237 OA
ATOM     98  O   UNL A   1      48.825  26.964  37.254  1.00  0.00    -0.237 OA
ATOM     99  O   UNL A   1      48.362  28.382  39.216  1.00  0.00    -0.744 OA
ENDBRANCH  95  96
ENDBRANCH  69  90
ENDBRANCH  43  44
ENDBRANCH  35  38
ENDBRANCH  33  34
ENDBRANCH  32  33
ENDBRANCH   1  32
TORSDOF 18
ENDMDL
