MODEL 1
REMARK VINA RESULT:     -11.8      0.000      0.000
REMARK SMILES O=C(CCCCCN1C(=O)/C(=C2\C(=O)Nc3ccccc32)SC1=S)NCCCNC(=O)c1ccc(-c2c3nc(c(-c4ccc(S(=O)(=O)[O-])cc4)c4ccc([nH]4)c(-c4ccc(S(=O)(=O)[O-])cc4)c4nc(c(-c5ccc(S(=O)(=O)[O-])cc5)c5ccc2[nH]5)C=C4)C=C3)cc1
REMARK SMILES IDX 26 1 25 2 1 3 2 4 3 6 4 7 5 8 6 9 7 10 8 11 9 12 23 13 10 14
REMARK SMILES IDX 11 15 22 16 24 17 12 18 13 19 21 20 14 21 15 22 16 23 20 24
REMARK SMILES IDX 17 26 19 27 18 28 27 29 28 30 29 31 30 32 31 34 32 35 33 36
REMARK SMILES IDX 91 37 34 38 90 39 35 40 36 41 37 42 84 43 38 44 89 45 83 46
REMARK SMILES IDX 85 47 39 48 88 49 82 50 81 51 40 53 70 54 51 55 69 56 52 57
REMARK SMILES IDX 55 58 68 59 86 60 53 61 54 62 67 64 87 65 56 66 41 67 42 68
REMARK SMILES IDX 50 69 43 70 49 71 44 72 45 73 46 74 47 75 48 76 71 77 72 78
REMARK SMILES IDX 80 79 73 80 79 81 74 82 75 83 76 84 77 85 78 86 57 87 58 88
REMARK SMILES IDX 66 89 59 90 65 91 60 92 61 93 62 94 63 95 64 96
REMARK H PARENT 25 5 15 25 29 33 85 52 55 63
REMARK Flexibility Score: inf
ROOT
ATOM      1  C   UNL A   1      41.996  21.060  27.369  1.00  0.00     0.117 C 
ENDROOT
BRANCH   1   2
ATOM      2  N   UNL A   1      40.797  20.755  26.615  1.00  0.00    -0.356 N 
ATOM      3  O   UNL A   1      39.785  22.806  26.829  1.00  0.00    -0.275 OA
ATOM      4  C   UNL A   1      39.811  21.674  26.359  1.00  0.00     0.219 C 
ATOM      5  H   UNL A   1      40.685  19.841  26.268  1.00  0.00     0.163 HD
BRANCH   4   6
ATOM      6  C   UNL A   1      38.751  21.170  25.398  1.00  0.00     0.100 C 
BRANCH   6   7
ATOM      7  C   UNL A   1      37.576  22.140  25.267  1.00  0.00     0.010 C 
BRANCH   7   8
ATOM      8  C   UNL A   1      36.757  22.043  23.974  1.00  0.00     0.002 C 
BRANCH   8   9
ATOM      9  C   UNL A   1      36.017  23.322  23.545  1.00  0.00     0.022 C 
BRANCH   9  10
ATOM     10  C   UNL A   1      34.689  23.095  22.801  1.00  0.00     0.127 C 
BRANCH  10  11
ATOM     11  N   UNL A   1      33.593  23.852  23.399  1.00  0.00    -0.293 N 
ATOM     12  C   UNL A   1      33.243  25.073  22.838  1.00  0.00     0.267 C 
ATOM     13  C   UNL A   1      32.844  23.458  24.482  1.00  0.00     0.148 C 
ATOM     14  O   UNL A   1      33.410  25.386  21.673  1.00  0.00    -0.268 OA
ATOM     15  C   UNL A   1      32.577  25.893  23.887  1.00  0.00     0.093 C 
ATOM     16  S   UNL A   1      31.792  24.781  24.959  1.00  0.00    -0.053 SA
ATOM     17  S   UNL A   1      32.874  22.014  25.311  1.00  0.00    -0.052 S 
ATOM     18  C   UNL A   1      32.753  27.208  24.090  1.00  0.00     0.069 C 
ATOM     19  C   UNL A   1      33.531  28.128  23.175  1.00  0.00     0.257 C 
ATOM     20  C   UNL A   1      32.348  28.037  25.249  1.00  0.00     0.012 A 
ATOM     21  O   UNL A   1      34.169  27.862  22.177  1.00  0.00    -0.269 OA
ATOM     22  N   UNL A   1      33.442  29.382  23.751  1.00  0.00    -0.321 N 
ATOM     23  C   UNL A   1      32.783  29.337  24.971  1.00  0.00     0.049 A 
ATOM     24  C   UNL A   1      31.779  27.767  26.483  1.00  0.00     0.011 A 
ATOM     25  H   UNL A   1      33.802  30.204  23.346  1.00  0.00     0.170 HD
ATOM     26  C   UNL A   1      32.634  30.390  25.854  1.00  0.00     0.027 A 
ATOM     27  C   UNL A   1      31.635  28.811  27.405  1.00  0.00     0.001 A 
ATOM     28  C   UNL A   1      32.051  30.113  27.089  1.00  0.00     0.002 A 
ENDBRANCH  10  11
ENDBRANCH   9  10
ENDBRANCH   8   9
ENDBRANCH   7   8
ENDBRANCH   6   7
ENDBRANCH   4   6
ENDBRANCH   1   2
BRANCH   1  29
ATOM     29  C   UNL A   1      43.006  21.832  26.534  1.00  0.00     0.042 C 
BRANCH  29  30
ATOM     30  C   UNL A   1      43.127  23.312  26.884  1.00  0.00     0.118 C 
BRANCH  30  31
ATOM     31  N   UNL A   1      42.645  24.211  25.844  1.00  0.00    -0.352 N 
ATOM     32  C   UNL A   1      42.079  25.464  25.968  1.00  0.00     0.251 C 
ATOM     33  H   UNL A   1      42.735  23.878  24.922  1.00  0.00     0.163 HD
ATOM     34  O   UNL A   1      41.615  26.029  24.982  1.00  0.00    -0.269 OA
BRANCH  32  35
ATOM     35  C   UNL A   1      41.977  26.093  27.305  1.00  0.00     0.039 A 
ATOM     36  C   UNL A   1      40.956  25.737  28.185  1.00  0.00     0.014 A 
ATOM     37  C   UNL A   1      42.874  27.107  27.652  1.00  0.00     0.014 A 
ATOM     38  C   UNL A   1      40.691  26.541  29.289  1.00  0.00     0.010 A 
ATOM     39  C   UNL A   1      42.671  27.843  28.824  1.00  0.00     0.010 A 
ATOM     40  C   UNL A   1      41.536  27.615  29.616  1.00  0.00    -0.014 A 
BRANCH  40  41
ATOM     41  C   UNL A   1      41.195  28.496  30.769  1.00  0.00     0.031 A 
ATOM     42  C   UNL A   1      42.038  28.491  32.022  1.00  0.00     0.074 A 
ATOM     43  C   UNL A   1      40.159  29.354  30.664  1.00  0.00     0.049 A 
ATOM     44  N   UNL A   1      41.907  29.221  33.102  1.00  0.00    -0.248 NA
ATOM     45  C   UNL A   1      43.171  27.553  32.075  1.00  0.00     0.031 C 
ATOM     46  C   UNL A   1      39.284  29.471  29.496  1.00  0.00     0.029 A 
ATOM     47  N   UNL A   1      39.684  30.308  31.530  1.00  0.00    -0.354 N 
ATOM     48  C   UNL A   1      42.925  28.822  33.962  1.00  0.00     0.074 A 
ATOM     49  C   UNL A   1      43.642  27.756  33.299  1.00  0.00     0.031 C 
ATOM     50  C   UNL A   1      38.426  30.481  29.690  1.00  0.00     0.029 A 
ATOM     51  C   UNL A   1      38.629  31.033  31.027  1.00  0.00     0.049 A 
ATOM     52  H   UNL A   1      40.063  30.459  32.426  1.00  0.00     0.167 HD
ATOM     53  C   UNL A   1      43.245  29.312  35.183  1.00  0.00     0.031 A 
ATOM     54  C   UNL A   1      37.892  32.022  31.572  1.00  0.00     0.031 A 
ATOM     55  C   UNL A   1      42.537  30.389  35.830  1.00  0.00     0.049 A 
ATOM     56  C   UNL A   1      38.229  32.508  32.954  1.00  0.00     0.074 A 
ATOM     57  C   UNL A   1      42.808  30.972  37.055  1.00  0.00     0.029 A 
ATOM     58  N   UNL A   1      41.431  31.047  35.312  1.00  0.00    -0.354 N 
ATOM     59  N   UNL A   1      39.213  32.136  33.737  1.00  0.00    -0.248 NA
ATOM     60  C   UNL A   1      37.364  33.549  33.526  1.00  0.00     0.031 C 
ATOM     61  C   UNL A   1      41.818  31.921  37.316  1.00  0.00     0.029 A 
ATOM     62  C   UNL A   1      40.984  32.000  36.212  1.00  0.00     0.049 A 
ATOM     63  H   UNL A   1      41.024  30.864  34.434  1.00  0.00     0.167 HD
ATOM     64  C   UNL A   1      39.095  32.905  34.888  1.00  0.00     0.074 A 
ATOM     65  C   UNL A   1      37.961  33.785  34.689  1.00  0.00     0.031 C 
ATOM     66  C   UNL A   1      39.854  32.877  36.011  1.00  0.00     0.031 A 
BRANCH  53  67
ATOM     67  C   UNL A   1      44.418  28.713  35.923  1.00  0.00    -0.014 A 
ATOM     68  C   UNL A   1      44.220  27.596  36.759  1.00  0.00     0.010 A 
ATOM     69  C   UNL A   1      45.679  29.335  35.908  1.00  0.00     0.010 A 
ATOM     70  C   UNL A   1      45.242  27.144  37.599  1.00  0.00     0.020 A 
ATOM     71  C   UNL A   1      46.717  28.863  36.721  1.00  0.00     0.020 A 
ATOM     72  C   UNL A   1      46.482  27.788  37.583  1.00  0.00     0.054 A 
BRANCH  72  73
ATOM     73  S   UNL A   1      47.778  27.220  38.717  1.00  0.00     0.124 S 
ATOM     74  O   UNL A   1      48.820  28.225  38.525  1.00  0.00    -0.237 OA
ATOM     75  O   UNL A   1      47.103  27.249  40.012  1.00  0.00    -0.237 OA
ATOM     76  O   UNL A   1      48.103  25.883  38.224  1.00  0.00    -0.744 OA
ENDBRANCH  72  73
ENDBRANCH  53  67
BRANCH  54  77
ATOM     77  C   UNL A   1      36.780  32.619  30.778  1.00  0.00    -0.014 A 
ATOM     78  C   UNL A   1      37.022  33.712  29.923  1.00  0.00     0.010 A 
ATOM     79  C   UNL A   1      35.460  32.168  30.946  1.00  0.00     0.010 A 
ATOM     80  C   UNL A   1      35.962  34.389  29.315  1.00  0.00     0.020 A 
ATOM     81  C   UNL A   1      34.399  32.817  30.305  1.00  0.00     0.020 A 
ATOM     82  C   UNL A   1      34.655  33.946  29.524  1.00  0.00     0.054 A 
BRANCH  82  83
ATOM     83  S   UNL A   1      33.292  34.888  28.786  1.00  0.00     0.124 S 
ATOM     84  O   UNL A   1      32.485  35.216  29.959  1.00  0.00    -0.237 OA
ATOM     85  O   UNL A   1      33.984  36.014  28.164  1.00  0.00    -0.237 OA
ATOM     86  O   UNL A   1      32.684  33.941  27.855  1.00  0.00    -0.744 OA
ENDBRANCH  82  83
ENDBRANCH  54  77
BRANCH  66  87
ATOM     87  C   UNL A   1      39.502  33.815  37.140  1.00  0.00    -0.014 A 
ATOM     88  C   UNL A   1      40.074  35.100  37.184  1.00  0.00     0.010 A 
ATOM     89  C   UNL A   1      38.730  33.374  38.228  1.00  0.00     0.010 A 
ATOM     90  C   UNL A   1      39.924  35.906  38.316  1.00  0.00     0.020 A 
ATOM     91  C   UNL A   1      38.546  34.192  39.348  1.00  0.00     0.020 A 
ATOM     92  C   UNL A   1      39.170  35.441  39.396  1.00  0.00     0.054 A 
BRANCH  92  93
ATOM     93  S   UNL A   1      39.037  36.477  40.878  1.00  0.00     0.124 S 
ATOM     94  O   UNL A   1      38.588  37.751  40.324  1.00  0.00    -0.237 OA
ATOM     95  O   UNL A   1      38.053  35.759  41.684  1.00  0.00    -0.237 OA
ATOM     96  O   UNL A   1      40.395  36.478  41.421  1.00  0.00    -0.744 OA
ENDBRANCH  92  93
ENDBRANCH  66  87
ENDBRANCH  40  41
ENDBRANCH  32  35
ENDBRANCH  30  31
ENDBRANCH  29  30
ENDBRANCH   1  29
TORSDOF 18
ENDMDL
MODEL 2
REMARK VINA RESULT:     -11.7      1.581      8.156
REMARK SMILES O=C(CCCCCN1C(=O)/C(=C2\C(=O)Nc3ccccc32)SC1=S)NCCCNC(=O)c1ccc(-c2c3nc(c(-c4ccc(S(=O)(=O)[O-])cc4)c4ccc([nH]4)c(-c4ccc(S(=O)(=O)[O-])cc4)c4nc(c(-c5ccc(S(=O)(=O)[O-])cc5)c5ccc2[nH]5)C=C4)C=C3)cc1
REMARK SMILES IDX 26 1 25 2 1 3 2 4 3 6 4 7 5 8 6 9 7 10 8 11 9 12 23 13 10 14
REMARK SMILES IDX 11 15 22 16 24 17 12 18 13 19 21 20 14 21 15 22 16 23 20 24
REMARK SMILES IDX 17 26 19 27 18 28 27 29 28 30 29 31 30 32 31 34 32 35 33 36
REMARK SMILES IDX 91 37 34 38 90 39 35 40 36 41 37 42 84 43 38 44 89 45 83 46
REMARK SMILES IDX 85 47 39 48 88 49 82 50 81 51 40 53 70 54 51 55 69 56 52 57
REMARK SMILES IDX 55 58 68 59 86 60 53 61 54 62 67 64 87 65 56 66 41 67 42 68
REMARK SMILES IDX 50 69 43 70 49 71 44 72 45 73 46 74 47 75 48 76 71 77 72 78
REMARK SMILES IDX 80 79 73 80 79 81 74 82 75 83 76 84 77 85 78 86 57 87 58 88
REMARK SMILES IDX 66 89 59 90 65 91 60 92 61 93 62 94 63 95 64 96
REMARK H PARENT 25 5 15 25 29 33 85 52 55 63
REMARK Flexibility Score: inf
ROOT
ATOM      1  C   UNL A   1      40.085  21.262  26.249  1.00  0.00     0.117 C 
ENDROOT
BRANCH   1   2
ATOM      2  N   UNL A   1      38.824  21.698  25.684  1.00  0.00    -0.356 N 
ATOM      3  O   UNL A   1      38.095  19.640  24.969  1.00  0.00    -0.275 OA
ATOM      4  C   UNL A   1      37.904  20.838  25.137  1.00  0.00     0.219 C 
ATOM      5  H   UNL A   1      38.616  22.660  25.694  1.00  0.00     0.163 HD
BRANCH   4   6
ATOM      6  C   UNL A   1      36.590  21.508  24.783  1.00  0.00     0.100 C 
BRANCH   6   7
ATOM      7  C   UNL A   1      36.787  22.916  24.221  1.00  0.00     0.010 C 
BRANCH   7   8
ATOM      8  C   UNL A   1      36.090  24.053  24.978  1.00  0.00     0.002 C 
BRANCH   8   9
ATOM      9  C   UNL A   1      34.608  23.824  25.324  1.00  0.00     0.022 C 
BRANCH   9  10
ATOM     10  C   UNL A   1      33.816  25.092  25.694  1.00  0.00     0.127 C 
BRANCH  10  11
ATOM     11  N   UNL A   1      32.622  25.247  24.868  1.00  0.00    -0.293 N 
ATOM     12  C   UNL A   1      32.718  25.970  23.687  1.00  0.00     0.267 C 
ATOM     13  C   UNL A   1      31.383  24.721  25.145  1.00  0.00     0.148 C 
ATOM     14  O   UNL A   1      33.731  26.106  23.025  1.00  0.00    -0.268 OA
ATOM     15  C   UNL A   1      31.364  26.487  23.347  1.00  0.00     0.093 C 
ATOM     16  S   UNL A   1      30.226  25.345  23.981  1.00  0.00    -0.053 SA
ATOM     17  S   UNL A   1      30.928  23.691  26.373  1.00  0.00    -0.052 S 
ATOM     18  C   UNL A   1      31.084  27.707  22.861  1.00  0.00     0.069 C 
ATOM     19  C   UNL A   1      32.117  28.714  22.407  1.00  0.00     0.257 C 
ATOM     20  C   UNL A   1      29.775  28.389  22.746  1.00  0.00     0.012 A 
ATOM     21  O   UNL A   1      33.329  28.651  22.456  1.00  0.00    -0.269 OA
ATOM     22  N   UNL A   1      31.397  29.811  21.970  1.00  0.00    -0.321 N 
ATOM     23  C   UNL A   1      30.036  29.646  22.190  1.00  0.00     0.049 A 
ATOM     24  C   UNL A   1      28.485  28.089  23.153  1.00  0.00     0.011 A 
ATOM     25  H   UNL A   1      31.798  30.609  21.557  1.00  0.00     0.170 HD
ATOM     26  C   UNL A   1      29.058  30.599  21.982  1.00  0.00     0.027 A 
ATOM     27  C   UNL A   1      27.478  29.044  22.973  1.00  0.00     0.001 A 
ATOM     28  C   UNL A   1      27.761  30.286  22.384  1.00  0.00     0.002 A 
ENDBRANCH  10  11
ENDBRANCH   9  10
ENDBRANCH   8   9
ENDBRANCH   7   8
ENDBRANCH   6   7
ENDBRANCH   4   6
ENDBRANCH   1   2
BRANCH   1  29
ATOM     29  C   UNL A   1      40.569  22.203  27.341  1.00  0.00     0.042 C 
BRANCH  29  30
ATOM     30  C   UNL A   1      41.859  22.949  27.017  1.00  0.00     0.118 C 
BRANCH  30  31
ATOM     31  N   UNL A   1      41.729  23.930  25.948  1.00  0.00    -0.352 N 
ATOM     32  C   UNL A   1      41.567  25.297  26.033  1.00  0.00     0.251 C 
ATOM     33  H   UNL A   1      41.759  23.565  25.033  1.00  0.00     0.163 HD
ATOM     34  O   UNL A   1      41.349  25.956  25.019  1.00  0.00    -0.269 OA
BRANCH  32  35
ATOM     35  C   UNL A   1      41.595  25.957  27.358  1.00  0.00     0.039 A 
ATOM     36  C   UNL A   1      40.528  25.817  28.247  1.00  0.00     0.014 A 
ATOM     37  C   UNL A   1      42.670  26.787  27.686  1.00  0.00     0.014 A 
ATOM     38  C   UNL A   1      40.428  26.675  29.338  1.00  0.00     0.010 A 
ATOM     39  C   UNL A   1      42.617  27.568  28.845  1.00  0.00     0.010 A 
ATOM     40  C   UNL A   1      41.464  27.575  29.644  1.00  0.00    -0.014 A 
BRANCH  40  41
ATOM     41  C   UNL A   1      41.303  28.524  30.782  1.00  0.00     0.031 A 
ATOM     42  C   UNL A   1      40.209  29.564  30.772  1.00  0.00     0.074 A 
ATOM     43  C   UNL A   1      42.104  28.408  31.860  1.00  0.00     0.049 A 
ATOM     44  N   UNL A   1      39.902  30.442  31.695  1.00  0.00    -0.248 NA
ATOM     45  C   UNL A   1      39.346  29.633  29.580  1.00  0.00     0.031 C 
ATOM     46  C   UNL A   1      43.182  27.427  32.001  1.00  0.00     0.029 A 
ATOM     47  N   UNL A   1      42.121  29.090  33.052  1.00  0.00    -0.354 N 
ATOM     48  C   UNL A   1      38.829  31.171  31.192  1.00  0.00     0.074 A 
ATOM     49  C   UNL A   1      38.561  30.664  29.865  1.00  0.00     0.031 C 
ATOM     50  C   UNL A   1      43.709  27.526  33.228  1.00  0.00     0.029 A 
ATOM     51  C   UNL A   1      43.067  28.630  33.937  1.00  0.00     0.049 A 
ATOM     52  H   UNL A   1      41.514  29.838  33.253  1.00  0.00     0.167 HD
ATOM     53  C   UNL A   1      38.120  32.158  31.789  1.00  0.00     0.031 A 
ATOM     54  C   UNL A   1      43.400  29.046  35.176  1.00  0.00     0.031 A 
ATOM     55  C   UNL A   1      38.381  32.645  33.121  1.00  0.00     0.049 A 
ATOM     56  C   UNL A   1      42.637  30.184  35.794  1.00  0.00     0.074 A 
ATOM     57  C   UNL A   1      37.695  33.623  33.820  1.00  0.00     0.029 A 
ATOM     58  N   UNL A   1      39.394  32.196  33.956  1.00  0.00    -0.354 N 
ATOM     59  N   UNL A   1      41.609  30.839  35.312  1.00  0.00    -0.248 NA
ATOM     60  C   UNL A   1      43.072  30.637  37.122  1.00  0.00     0.031 C 
ATOM     61  C   UNL A   1      38.344  33.824  35.040  1.00  0.00     0.029 A 
ATOM     62  C   UNL A   1      39.377  32.906  35.144  1.00  0.00     0.049 A 
ATOM     63  H   UNL A   1      40.031  31.478  33.735  1.00  0.00     0.167 HD
ATOM     64  C   UNL A   1      41.264  31.773  36.282  1.00  0.00     0.074 A 
ATOM     65  C   UNL A   1      42.175  31.579  37.392  1.00  0.00     0.031 C 
ATOM     66  C   UNL A   1      40.286  32.710  36.250  1.00  0.00     0.031 A 
BRANCH  53  67
ATOM     67  C   UNL A   1      36.977  32.792  31.032  1.00  0.00    -0.014 A 
ATOM     68  C   UNL A   1      35.661  32.333  31.238  1.00  0.00     0.010 A 
ATOM     69  C   UNL A   1      37.216  33.735  30.016  1.00  0.00     0.010 A 
ATOM     70  C   UNL A   1      34.618  32.766  30.415  1.00  0.00     0.020 A 
ATOM     71  C   UNL A   1      36.167  34.198  29.212  1.00  0.00     0.020 A 
ATOM     72  C   UNL A   1      34.880  33.688  29.399  1.00  0.00     0.054 A 
BRANCH  72  73
ATOM     73  S   UNL A   1      33.523  34.198  28.309  1.00  0.00     0.124 S 
ATOM     74  O   UNL A   1      32.569  34.777  29.252  1.00  0.00    -0.237 OA
ATOM     75  O   UNL A   1      34.176  35.146  27.409  1.00  0.00    -0.237 OA
ATOM     76  O   UNL A   1      33.099  32.949  27.680  1.00  0.00    -0.744 OA
ENDBRANCH  72  73
ENDBRANCH  53  67
BRANCH  54  77
ATOM     77  C   UNL A   1      44.499  28.349  35.904  1.00  0.00    -0.014 A 
ATOM     78  C   UNL A   1      44.212  27.282  36.777  1.00  0.00     0.010 A 
ATOM     79  C   UNL A   1      45.824  28.810  35.808  1.00  0.00     0.010 A 
ATOM     80  C   UNL A   1      45.208  26.743  37.596  1.00  0.00     0.020 A 
ATOM     81  C   UNL A   1      46.833  28.244  36.595  1.00  0.00     0.020 A 
ATOM     82  C   UNL A   1      46.509  27.239  37.510  1.00  0.00     0.054 A 
BRANCH  82  83
ATOM     83  S   UNL A   1      47.766  26.576  38.636  1.00  0.00     0.124 S 
ATOM     84  O   UNL A   1      46.953  26.133  39.766  1.00  0.00    -0.237 OA
ATOM     85  O   UNL A   1      48.373  25.511  37.842  1.00  0.00    -0.237 OA
ATOM     86  O   UNL A   1      48.631  27.723  38.901  1.00  0.00    -0.744 OA
ENDBRANCH  82  83
ENDBRANCH  54  77
BRANCH  66  87
ATOM     87  C   UNL A   1      40.127  33.625  37.440  1.00  0.00    -0.014 A 
ATOM     88  C   UNL A   1      39.306  33.237  38.515  1.00  0.00     0.010 A 
ATOM     89  C   UNL A   1      40.666  34.923  37.427  1.00  0.00     0.010 A 
ATOM     90  C   UNL A   1      38.984  34.144  39.528  1.00  0.00     0.020 A 
ATOM     91  C   UNL A   1      40.377  35.823  38.458  1.00  0.00     0.020 A 
ATOM     92  C   UNL A   1      39.513  35.436  39.486  1.00  0.00     0.054 A 
BRANCH  92  93
ATOM     93  S   UNL A   1      39.036  36.617  40.777  1.00  0.00     0.124 S 
ATOM     94  O   UNL A   1      38.038  35.862  41.531  1.00  0.00    -0.237 OA
ATOM     95  O   UNL A   1      40.298  36.859  41.471  1.00  0.00    -0.237 OA
ATOM     96  O   UNL A   1      38.517  37.759  40.026  1.00  0.00    -0.744 OA
ENDBRANCH  92  93
ENDBRANCH  66  87
ENDBRANCH  40  41
ENDBRANCH  32  35
ENDBRANCH  30  31
ENDBRANCH  29  30
ENDBRANCH   1  29
TORSDOF 18
ENDMDL
MODEL 3
REMARK VINA RESULT:     -11.7      1.626      1.946
REMARK SMILES O=C(CCCCCN1C(=O)/C(=C2\C(=O)Nc3ccccc32)SC1=S)NCCCNC(=O)c1ccc(-c2c3nc(c(-c4ccc(S(=O)(=O)[O-])cc4)c4ccc([nH]4)c(-c4ccc(S(=O)(=O)[O-])cc4)c4nc(c(-c5ccc(S(=O)(=O)[O-])cc5)c5ccc2[nH]5)C=C4)C=C3)cc1
REMARK SMILES IDX 26 1 25 2 1 3 2 4 3 6 4 7 5 8 6 9 7 10 8 11 9 12 23 13 10 14
REMARK SMILES IDX 11 15 22 16 24 17 12 18 13 19 21 20 14 21 15 22 16 23 20 24
REMARK SMILES IDX 17 26 19 27 18 28 27 29 28 30 29 31 30 32 31 34 32 35 33 36
REMARK SMILES IDX 91 37 34 38 90 39 35 40 36 41 37 42 84 43 38 44 89 45 83 46
REMARK SMILES IDX 85 47 39 48 88 49 82 50 81 51 40 53 70 54 51 55 69 56 52 57
REMARK SMILES IDX 55 58 68 59 86 60 53 61 54 62 67 64 87 65 56 66 41 67 42 68
REMARK SMILES IDX 50 69 43 70 49 71 44 72 45 73 46 74 47 75 48 76 71 77 72 78
REMARK SMILES IDX 80 79 73 80 79 81 74 82 75 83 76 84 77 85 78 86 57 87 58 88
REMARK SMILES IDX 66 89 59 90 65 91 60 92 61 93 62 94 63 95 64 96
REMARK H PARENT 25 5 15 25 29 33 85 52 55 63
REMARK Flexibility Score: inf
ROOT
ATOM      1  C   UNL A   1      40.182  21.557  25.959  1.00  0.00     0.117 C 
ENDROOT
BRANCH   1   2
ATOM      2  N   UNL A   1      38.733  21.561  25.945  1.00  0.00    -0.356 N 
ATOM      3  O   UNL A   1      38.444  23.840  25.916  1.00  0.00    -0.275 OA
ATOM      4  C   UNL A   1      37.981  22.707  25.869  1.00  0.00     0.219 C 
ATOM      5  H   UNL A   1      38.264  20.697  25.992  1.00  0.00     0.163 HD
BRANCH   4   6
ATOM      6  C   UNL A   1      36.499  22.443  25.683  1.00  0.00     0.100 C 
BRANCH   6   7
ATOM      7  C   UNL A   1      36.004  22.858  24.296  1.00  0.00     0.010 C 
BRANCH   7   8
ATOM      8  C   UNL A   1      34.730  23.710  24.258  1.00  0.00     0.002 C 
BRANCH   8   9
ATOM      9  C   UNL A   1      34.505  24.645  25.459  1.00  0.00     0.022 C 
BRANCH   9  10
ATOM     10  C   UNL A   1      33.039  25.025  25.732  1.00  0.00     0.127 C 
BRANCH  10  11
ATOM     11  N   UNL A   1      32.457  25.778  24.625  1.00  0.00    -0.293 N 
ATOM     12  C   UNL A   1      32.753  27.130  24.511  1.00  0.00     0.267 C 
ATOM     13  C   UNL A   1      31.637  25.264  23.649  1.00  0.00     0.148 C 
ATOM     14  O   UNL A   1      33.765  27.667  24.925  1.00  0.00    -0.268 OA
ATOM     15  C   UNL A   1      31.656  27.783  23.745  1.00  0.00     0.093 C 
ATOM     16  S   UNL A   1      31.027  26.584  22.664  1.00  0.00    -0.053 SA
ATOM     17  S   UNL A   1      31.190  23.683  23.376  1.00  0.00    -0.052 S 
ATOM     18  C   UNL A   1      31.113  28.982  24.010  1.00  0.00     0.069 C 
ATOM     19  C   UNL A   1      31.641  29.962  25.035  1.00  0.00     0.257 C 
ATOM     20  C   UNL A   1      29.868  29.582  23.479  1.00  0.00     0.012 A 
ATOM     21  O   UNL A   1      32.558  29.836  25.820  1.00  0.00    -0.269 OA
ATOM     22  N   UNL A   1      30.799  31.057  24.966  1.00  0.00    -0.321 N 
ATOM     23  C   UNL A   1      29.748  30.836  24.087  1.00  0.00     0.049 A 
ATOM     24  C   UNL A   1      28.844  29.129  22.663  1.00  0.00     0.011 A 
ATOM     25  H   UNL A   1      30.929  31.888  25.476  1.00  0.00     0.170 HD
ATOM     26  C   UNL A   1      28.671  31.677  23.880  1.00  0.00     0.027 A 
ATOM     27  C   UNL A   1      27.731  29.951  22.453  1.00  0.00     0.001 A 
ATOM     28  C   UNL A   1      27.649  31.219  23.050  1.00  0.00     0.002 A 
ENDBRANCH  10  11
ENDBRANCH   9  10
ENDBRANCH   8   9
ENDBRANCH   7   8
ENDBRANCH   6   7
ENDBRANCH   4   6
ENDBRANCH   1   2
BRANCH   1  29
ATOM     29  C   UNL A   1      40.734  21.977  27.312  1.00  0.00     0.042 C 
BRANCH  29  30
ATOM     30  C   UNL A   1      41.853  23.011  27.254  1.00  0.00     0.118 C 
BRANCH  30  31
ATOM     31  N   UNL A   1      41.709  23.985  26.179  1.00  0.00    -0.352 N 
ATOM     32  C   UNL A   1      41.454  25.339  26.257  1.00  0.00     0.251 C 
ATOM     33  H   UNL A   1      41.808  23.626  25.268  1.00  0.00     0.163 HD
ATOM     34  O   UNL A   1      41.242  25.985  25.235  1.00  0.00    -0.269 OA
BRANCH  32  35
ATOM     35  C   UNL A   1      41.374  25.994  27.583  1.00  0.00     0.039 A 
ATOM     36  C   UNL A   1      40.257  25.817  28.400  1.00  0.00     0.014 A 
ATOM     37  C   UNL A   1      42.399  26.857  27.981  1.00  0.00     0.014 A 
ATOM     38  C   UNL A   1      40.058  26.667  29.483  1.00  0.00     0.010 A 
ATOM     39  C   UNL A   1      42.246  27.631  29.136  1.00  0.00     0.010 A 
ATOM     40  C   UNL A   1      41.043  27.598  29.858  1.00  0.00    -0.014 A 
BRANCH  40  41
ATOM     41  C   UNL A   1      40.778  28.537  30.984  1.00  0.00     0.031 A 
ATOM     42  C   UNL A   1      41.653  28.534  32.215  1.00  0.00     0.074 A 
ATOM     43  C   UNL A   1      39.785  29.443  30.873  1.00  0.00     0.049 A 
ATOM     44  N   UNL A   1      41.589  29.309  33.269  1.00  0.00    -0.248 NA
ATOM     45  C   UNL A   1      42.739  27.541  32.275  1.00  0.00     0.031 C 
ATOM     46  C   UNL A   1      38.886  29.562  29.723  1.00  0.00     0.029 A 
ATOM     47  N   UNL A   1      39.383  30.452  31.713  1.00  0.00    -0.354 N 
ATOM     48  C   UNL A   1      42.608  28.889  34.118  1.00  0.00     0.074 A 
ATOM     49  C   UNL A   1      43.252  27.765  33.479  1.00  0.00     0.031 C 
ATOM     50  C   UNL A   1      38.086  30.622  29.900  1.00  0.00     0.029 A 
ATOM     51  C   UNL A   1      38.353  31.211  31.210  1.00  0.00     0.049 A 
ATOM     52  H   UNL A   1      39.793  30.615  32.593  1.00  0.00     0.167 HD
ATOM     53  C   UNL A   1      42.985  29.408  35.312  1.00  0.00     0.031 A 
ATOM     54  C   UNL A   1      37.682  32.256  31.735  1.00  0.00     0.031 A 
ATOM     55  C   UNL A   1      42.351  30.542  35.934  1.00  0.00     0.049 A 
ATOM     56  C   UNL A   1      38.080  32.775  33.088  1.00  0.00     0.074 A 
ATOM     57  C   UNL A   1      42.683  31.155  37.130  1.00  0.00     0.029 A 
ATOM     58  N   UNL A   1      41.265  31.237  35.419  1.00  0.00    -0.354 N 
ATOM     59  N   UNL A   1      39.065  32.381  33.860  1.00  0.00    -0.248 NA
ATOM     60  C   UNL A   1      37.285  33.879  33.641  1.00  0.00     0.031 C 
ATOM     61  C   UNL A   1      41.751  32.163  37.379  1.00  0.00     0.029 A 
ATOM     62  C   UNL A   1      40.892  32.245  36.293  1.00  0.00     0.049 A 
ATOM     63  H   UNL A   1      40.827  31.043  34.559  1.00  0.00     0.167 HD
ATOM     64  C   UNL A   1      39.017  33.198  34.983  1.00  0.00     0.074 A 
ATOM     65  C   UNL A   1      37.924  34.127  34.779  1.00  0.00     0.031 C 
ATOM     66  C   UNL A   1      39.803  33.171  36.087  1.00  0.00     0.031 A 
BRANCH  53  67
ATOM     67  C   UNL A   1      44.145  28.775  36.044  1.00  0.00    -0.014 A 
ATOM     68  C   UNL A   1      43.911  27.720  36.948  1.00  0.00     0.010 A 
ATOM     69  C   UNL A   1      45.441  29.314  35.952  1.00  0.00     0.010 A 
ATOM     70  C   UNL A   1      44.933  27.251  37.777  1.00  0.00     0.020 A 
ATOM     71  C   UNL A   1      46.477  28.822  36.755  1.00  0.00     0.020 A 
ATOM     72  C   UNL A   1      46.208  27.813  37.683  1.00  0.00     0.054 A 
BRANCH  72  73
ATOM     73  S   UNL A   1      47.508  27.225  38.804  1.00  0.00     0.124 S 
ATOM     74  O   UNL A   1      48.410  26.527  37.892  1.00  0.00    -0.237 OA
ATOM     75  O   UNL A   1      48.023  28.468  39.374  1.00  0.00    -0.237 OA
ATOM     76  O   UNL A   1      46.789  26.370  39.746  1.00  0.00    -0.744 OA
ENDBRANCH  72  73
ENDBRANCH  53  67
BRANCH  54  77
ATOM     77  C   UNL A   1      36.581  32.881  30.946  1.00  0.00    -0.014 A 
ATOM     78  C   UNL A   1      36.872  33.801  29.920  1.00  0.00     0.010 A 
ATOM     79  C   UNL A   1      35.237  32.639  31.280  1.00  0.00     0.010 A 
ATOM     80  C   UNL A   1      35.850  34.523  29.300  1.00  0.00     0.020 A 
ATOM     81  C   UNL A   1      34.207  33.329  30.631  1.00  0.00     0.020 A 
ATOM     82  C   UNL A   1      34.524  34.293  29.671  1.00  0.00     0.054 A 
BRANCH  82  83
ATOM     83  S   UNL A   1      33.222  35.297  28.906  1.00  0.00     0.124 S 
ATOM     84  O   UNL A   1      32.473  35.757  30.072  1.00  0.00    -0.237 OA
ATOM     85  O   UNL A   1      33.986  36.325  28.204  1.00  0.00    -0.237 OA
ATOM     86  O   UNL A   1      32.519  34.350  28.045  1.00  0.00    -0.744 OA
ENDBRANCH  82  83
ENDBRANCH  54  77
BRANCH  66  87
ATOM     87  C   UNL A   1      39.530  34.167  37.188  1.00  0.00    -0.014 A 
ATOM     88  C   UNL A   1      40.025  35.480  37.081  1.00  0.00     0.010 A 
ATOM     89  C   UNL A   1      38.918  33.764  38.387  1.00  0.00     0.010 A 
ATOM     90  C   UNL A   1      39.961  36.355  38.169  1.00  0.00     0.020 A 
ATOM     91  C   UNL A   1      38.817  34.649  39.466  1.00  0.00     0.020 A 
ATOM     92  C   UNL A   1      39.367  35.929  39.359  1.00  0.00     0.054 A 
BRANCH  92  93
ATOM     93  S   UNL A   1      39.346  37.059  40.777  1.00  0.00     0.124 S 
ATOM     94  O   UNL A   1      38.681  38.235  40.224  1.00  0.00    -0.237 OA
ATOM     95  O   UNL A   1      38.581  36.312  41.771  1.00  0.00    -0.237 OA
ATOM     96  O   UNL A   1      40.762  37.237  41.096  1.00  0.00    -0.744 OA
ENDBRANCH  92  93
ENDBRANCH  66  87
ENDBRANCH  40  41
ENDBRANCH  32  35
ENDBRANCH  30  31
ENDBRANCH  29  30
ENDBRANCH   1  29
TORSDOF 18
ENDMDL
