MODEL 1
REMARK VINA RESULT:     -10.5      0.000      0.000
REMARK SMILES CC(C)(C)N(CC(=O)NCCCNC(=O)c1ccc(-c2c3nc(c(-c4ccc(S(=O)(=O)[O-])cc4)c4ccc([nH]4)c(-c4ccc(S(=O)(=O)[O-])cc4)c4nc(c(-c5ccc(S(=O)(=O)[O-])cc5)c5ccc2[nH]5)C=C4)C=C3)cc1)C(=O)C1C[NH2+]C1
REMARK SMILES IDX 11 1 10 2 9 3 7 4 8 5 6 7 5 8 2 9 1 10 3 11 4 12 76 13 77 14
REMARK SMILES IDX 78 15 79 16 81 17 80 18 12 21 13 22 14 23 15 25 16 26 17 27
REMARK SMILES IDX 75 28 18 29 74 30 19 31 20 32 21 33 68 34 22 35 73 36 67 37
REMARK SMILES IDX 69 38 23 39 72 40 66 41 65 42 24 44 54 45 35 46 53 47 36 48
REMARK SMILES IDX 39 49 52 50 70 51 37 52 38 53 51 55 71 56 40 57 25 58 26 59
REMARK SMILES IDX 34 60 27 61 33 62 28 63 29 64 30 65 31 66 32 67 55 68 56 69
REMARK SMILES IDX 64 70 57 71 63 72 58 73 59 74 60 75 61 76 62 77 41 78 42 79
REMARK SMILES IDX 50 80 43 81 49 82 44 83 45 84 46 85 47 86 48 87
REMARK H PARENT 9 6 80 19 80 20 13 24 69 43 39 54
REMARK Flexibility Score: inf
ROOT
ATOM      1  C   UNL A   1      39.236  22.206  26.576  1.00  0.00     0.042 C 
ENDROOT
BRANCH   1   2
ATOM      2  C   UNL A   1      40.089  21.100  25.968  1.00  0.00     0.117 C 
BRANCH   2   3
ATOM      3  N   UNL A   1      40.747  20.275  26.959  1.00  0.00    -0.354 N 
ATOM      4  C   UNL A   1      41.924  19.597  26.874  1.00  0.00     0.239 C 
ATOM      5  O   UNL A   1      42.403  19.156  27.925  1.00  0.00    -0.273 OA
ATOM      6  H   UNL A   1      40.274  20.192  27.818  1.00  0.00     0.163 HD
BRANCH   4   7
ATOM      7  C   UNL A   1      42.715  19.483  25.556  1.00  0.00     0.219 C 
BRANCH   7   8
ATOM      8  N   UNL A   1      43.914  20.327  25.394  1.00  0.00    -0.328 N 
BRANCH   8   9
ATOM      9  C   UNL A   1      45.164  19.779  24.723  1.00  0.00     0.035 C 
ATOM     10  C   UNL A   1      44.949  19.290  23.267  1.00  0.00     0.034 C 
ATOM     11  C   UNL A   1      45.742  18.571  25.494  1.00  0.00     0.034 C 
ATOM     12  C   UNL A   1      46.242  20.885  24.622  1.00  0.00     0.034 C 
ENDBRANCH   8   9
BRANCH   8  13
ATOM     13  C   UNL A   1      43.787  21.742  25.528  1.00  0.00     0.238 C 
ATOM     14  O   UNL A   1      43.106  22.394  24.726  1.00  0.00    -0.274 OA
BRANCH  13  15
ATOM     15  C   UNL A   1      44.498  22.465  26.698  1.00  0.00     0.188 C 
ATOM     16  C   UNL A   1      44.734  23.992  26.561  1.00  0.00     0.280 C 
ATOM     17  C   UNL A   1      43.642  22.886  27.916  1.00  0.00     0.280 C 
ATOM     18  N   UNL A   1      44.442  24.129  28.012  1.00  0.00    -0.345 N 
ATOM     19  H   UNL A   1      43.905  24.960  28.260  1.00  0.00     0.346 HD
ATOM     20  H   UNL A   1      45.189  24.230  28.699  1.00  0.00     0.346 HD
ENDBRANCH  13  15
ENDBRANCH   8  13
ENDBRANCH   7   8
ENDBRANCH   4   7
ENDBRANCH   2   3
ENDBRANCH   1   2
BRANCH   1  21
ATOM     21  C   UNL A   1      40.042  23.362  27.161  1.00  0.00     0.118 C 
BRANCH  21  22
ATOM     22  N   UNL A   1      40.938  23.969  26.183  1.00  0.00    -0.352 N 
ATOM     23  C   UNL A   1      41.356  25.267  26.029  1.00  0.00     0.251 C 
ATOM     24  H   UNL A   1      41.306  23.339  25.521  1.00  0.00     0.163 HD
ATOM     25  O   UNL A   1      41.936  25.586  24.988  1.00  0.00    -0.269 OA
BRANCH  23  26
ATOM     26  C   UNL A   1      41.112  26.288  27.073  1.00  0.00     0.039 A 
ATOM     27  C   UNL A   1      40.207  26.004  28.101  1.00  0.00     0.014 A 
ATOM     28  C   UNL A   1      41.733  27.537  27.027  1.00  0.00     0.014 A 
ATOM     29  C   UNL A   1      39.995  26.932  29.125  1.00  0.00     0.010 A 
ATOM     30  C   UNL A   1      41.583  28.430  28.088  1.00  0.00     0.010 A 
ATOM     31  C   UNL A   1      40.721  28.134  29.153  1.00  0.00    -0.014 A 
BRANCH  31  32
ATOM     32  C   UNL A   1      40.633  29.075  30.301  1.00  0.00     0.031 A 
ATOM     33  C   UNL A   1      41.507  28.886  31.512  1.00  0.00     0.074 A 
ATOM     34  C   UNL A   1      39.695  30.043  30.293  1.00  0.00     0.049 A 
ATOM     35  N   UNL A   1      41.483  29.526  32.654  1.00  0.00    -0.248 NA
ATOM     36  C   UNL A   1      42.524  27.824  31.441  1.00  0.00     0.031 C 
ATOM     37  C   UNL A   1      38.761  30.308  29.195  1.00  0.00     0.029 A 
ATOM     38  N   UNL A   1      39.355  30.970  31.246  1.00  0.00    -0.354 N 
ATOM     39  C   UNL A   1      42.462  28.932  33.442  1.00  0.00     0.074 A 
ATOM     40  C   UNL A   1      43.036  27.857  32.664  1.00  0.00     0.031 C 
ATOM     41  C   UNL A   1      37.966  31.336  29.531  1.00  0.00     0.029 A 
ATOM     42  C   UNL A   1      38.296  31.770  30.884  1.00  0.00     0.049 A 
ATOM     43  H   UNL A   1      39.824  31.055  32.107  1.00  0.00     0.167 HD
ATOM     44  C   UNL A   1      42.854  29.261  34.697  1.00  0.00     0.031 A 
ATOM     45  C   UNL A   1      37.644  32.730  31.570  1.00  0.00     0.031 A 
ATOM     46  C   UNL A   1      42.286  30.337  35.467  1.00  0.00     0.049 A 
ATOM     47  C   UNL A   1      38.077  33.054  32.971  1.00  0.00     0.074 A 
ATOM     48  C   UNL A   1      42.662  30.791  36.719  1.00  0.00     0.029 A 
ATOM     49  N   UNL A   1      41.216  31.122  35.063  1.00  0.00    -0.354 N 
ATOM     50  N   UNL A   1      39.051  32.527  33.675  1.00  0.00    -0.248 NA
ATOM     51  C   UNL A   1      37.323  34.102  33.674  1.00  0.00     0.031 C 
ATOM     52  C   UNL A   1      41.785  31.812  37.097  1.00  0.00     0.029 A 
ATOM     53  C   UNL A   1      40.896  32.032  36.057  1.00  0.00     0.049 A 
ATOM     54  H   UNL A   1      40.753  31.043  34.198  1.00  0.00     0.167 HD
ATOM     55  C   UNL A   1      39.032  33.185  34.899  1.00  0.00     0.074 A 
ATOM     56  C   UNL A   1      37.966  34.165  34.831  1.00  0.00     0.031 C 
ATOM     57  C   UNL A   1      39.823  32.992  35.981  1.00  0.00     0.031 A 
BRANCH  44  58
ATOM     58  C   UNL A   1      43.947  28.436  35.325  1.00  0.00    -0.014 A 
ATOM     59  C   UNL A   1      45.300  28.793  35.184  1.00  0.00     0.010 A 
ATOM     60  C   UNL A   1      43.615  27.312  36.104  1.00  0.00     0.010 A 
ATOM     61  C   UNL A   1      46.303  28.020  35.775  1.00  0.00     0.020 A 
ATOM     62  C   UNL A   1      44.614  26.551  36.720  1.00  0.00     0.020 A 
ATOM     63  C   UNL A   1      45.953  26.901  36.537  1.00  0.00     0.054 A 
BRANCH  63  64
ATOM     64  S   UNL A   1      47.275  25.927  37.307  1.00  0.00     0.124 S 
ATOM     65  O   UNL A   1      47.133  24.640  36.630  1.00  0.00    -0.237 OA
ATOM     66  O   UNL A   1      48.475  26.686  36.965  1.00  0.00    -0.237 OA
ATOM     67  O   UNL A   1      46.925  25.926  38.725  1.00  0.00    -0.744 OA
ENDBRANCH  63  64
ENDBRANCH  44  58
BRANCH  45  68
ATOM     68  C   UNL A   1      36.502  33.445  30.937  1.00  0.00    -0.014 A 
ATOM     69  C   UNL A   1      35.281  33.580  31.621  1.00  0.00     0.010 A 
ATOM     70  C   UNL A   1      36.636  34.015  29.658  1.00  0.00     0.010 A 
ATOM     71  C   UNL A   1      34.212  34.263  31.033  1.00  0.00     0.020 A 
ATOM     72  C   UNL A   1      35.578  34.722  29.078  1.00  0.00     0.020 A 
ATOM     73  C   UNL A   1      34.370  34.833  29.766  1.00  0.00     0.054 A 
BRANCH  73  74
ATOM     74  S   UNL A   1      32.990  35.771  29.052  1.00  0.00     0.124 S 
ATOM     75  O   UNL A   1      33.682  36.869  28.386  1.00  0.00    -0.237 OA
ATOM     76  O   UNL A   1      32.363  34.789  28.170  1.00  0.00    -0.237 OA
ATOM     77  O   UNL A   1      32.192  36.145  30.218  1.00  0.00    -0.744 OA
ENDBRANCH  73  74
ENDBRANCH  45  68
BRANCH  57  78
ATOM     78  C   UNL A   1      39.571  33.860  37.185  1.00  0.00    -0.014 A 
ATOM     79  C   UNL A   1      38.727  33.426  38.223  1.00  0.00     0.010 A 
ATOM     80  C   UNL A   1      40.231  35.095  37.309  1.00  0.00     0.010 A 
ATOM     81  C   UNL A   1      38.529  34.225  39.352  1.00  0.00     0.020 A 
ATOM     82  C   UNL A   1      40.056  35.885  38.448  1.00  0.00     0.020 A 
ATOM     83  C   UNL A   1      39.196  35.449  39.459  1.00  0.00     0.054 A 
BRANCH  83  84
ATOM     84  S   UNL A   1      38.966  36.440  40.960  1.00  0.00     0.124 S 
ATOM     85  O   UNL A   1      38.536  37.725  40.413  1.00  0.00    -0.237 OA
ATOM     86  O   UNL A   1      37.943  35.692  41.685  1.00  0.00    -0.237 OA
ATOM     87  O   UNL A   1      40.288  36.440  41.581  1.00  0.00    -0.744 OA
ENDBRANCH  83  84
ENDBRANCH  57  78
ENDBRANCH  31  32
ENDBRANCH  23  26
ENDBRANCH  21  22
ENDBRANCH   1  21
TORSDOF 17
ENDMDL
MODEL 2
REMARK VINA RESULT:     -10.3      5.833     11.697
REMARK SMILES CC(C)(C)N(CC(=O)NCCCNC(=O)c1ccc(-c2c3nc(c(-c4ccc(S(=O)(=O)[O-])cc4)c4ccc([nH]4)c(-c4ccc(S(=O)(=O)[O-])cc4)c4nc(c(-c5ccc(S(=O)(=O)[O-])cc5)c5ccc2[nH]5)C=C4)C=C3)cc1)C(=O)C1C[NH2+]C1
REMARK SMILES IDX 11 1 10 2 9 3 7 4 8 5 6 7 5 8 2 9 1 10 3 11 4 12 76 13 77 14
REMARK SMILES IDX 78 15 79 16 81 17 80 18 12 21 13 22 14 23 15 25 16 26 17 27
REMARK SMILES IDX 75 28 18 29 74 30 19 31 20 32 21 33 68 34 22 35 73 36 67 37
REMARK SMILES IDX 69 38 23 39 72 40 66 41 65 42 24 44 54 45 35 46 53 47 36 48
REMARK SMILES IDX 39 49 52 50 70 51 37 52 38 53 51 55 71 56 40 57 25 58 26 59
REMARK SMILES IDX 34 60 27 61 33 62 28 63 29 64 30 65 31 66 32 67 55 68 56 69
REMARK SMILES IDX 64 70 57 71 63 72 58 73 59 74 60 75 61 76 62 77 41 78 42 79
REMARK SMILES IDX 50 80 43 81 49 82 44 83 45 84 46 85 47 86 48 87
REMARK H PARENT 9 6 80 19 80 20 13 24 69 43 39 54
REMARK Flexibility Score: inf
ROOT
ATOM      1  C   UNL A   1      32.323  27.800  27.387  1.00  0.00     0.042 C 
ENDROOT
BRANCH   1   2
ATOM      2  C   UNL A   1      31.702  26.901  26.325  1.00  0.00     0.117 C 
BRANCH   2   3
ATOM      3  N   UNL A   1      30.913  25.822  26.881  1.00  0.00    -0.354 N 
ATOM      4  C   UNL A   1      30.542  24.642  26.312  1.00  0.00     0.239 C 
ATOM      5  O   UNL A   1      30.073  23.774  27.058  1.00  0.00    -0.273 OA
ATOM      6  H   UNL A   1      30.598  25.962  27.803  1.00  0.00     0.163 HD
BRANCH   4   7
ATOM      7  C   UNL A   1      30.808  24.325  24.827  1.00  0.00     0.219 C 
BRANCH   7   8
ATOM      8  N   UNL A   1      32.195  24.033  24.420  1.00  0.00    -0.328 N 
BRANCH   8   9
ATOM      9  C   UNL A   1      32.807  24.713  23.205  1.00  0.00     0.035 C 
ATOM     10  C   UNL A   1      34.081  25.544  23.510  1.00  0.00     0.034 C 
ATOM     11  C   UNL A   1      31.814  25.692  22.538  1.00  0.00     0.034 C 
ATOM     12  C   UNL A   1      33.255  23.654  22.170  1.00  0.00     0.034 C 
ENDBRANCH   8   9
BRANCH   8  13
ATOM     13  C   UNL A   1      33.074  23.406  25.353  1.00  0.00     0.238 C 
ATOM     14  O   UNL A   1      33.613  24.063  26.252  1.00  0.00    -0.274 OA
BRANCH  13  15
ATOM     15  C   UNL A   1      33.339  21.884  25.249  1.00  0.00     0.188 C 
ATOM     16  C   UNL A   1      34.748  21.432  24.780  1.00  0.00     0.280 C 
ATOM     17  C   UNL A   1      33.720  21.124  26.541  1.00  0.00     0.280 C 
ATOM     18  N   UNL A   1      34.667  20.306  25.747  1.00  0.00    -0.345 N 
ATOM     19  H   UNL A   1      35.543  20.092  26.223  1.00  0.00     0.346 HD
ATOM     20  H   UNL A   1      34.430  19.361  25.446  1.00  0.00     0.346 HD
ENDBRANCH  13  15
ENDBRANCH   8  13
ENDBRANCH   7   8
ENDBRANCH   4   7
ENDBRANCH   2   3
ENDBRANCH   1   2
BRANCH   1  21
ATOM     21  C   UNL A   1      33.552  28.568  26.911  1.00  0.00     0.118 C 
BRANCH  21  22
ATOM     22  N   UNL A   1      33.544  29.960  27.348  1.00  0.00    -0.352 N 
ATOM     23  C   UNL A   1      34.463  30.684  28.066  1.00  0.00     0.251 C 
ATOM     24  H   UNL A   1      32.742  30.467  27.083  1.00  0.00     0.163 HD
ATOM     25  O   UNL A   1      34.135  31.785  28.515  1.00  0.00    -0.269 OA
BRANCH  23  26
ATOM     26  C   UNL A   1      35.825  30.165  28.323  1.00  0.00     0.039 A 
ATOM     27  C   UNL A   1      36.752  30.141  27.275  1.00  0.00     0.014 A 
ATOM     28  C   UNL A   1      36.188  29.662  29.575  1.00  0.00     0.014 A 
ATOM     29  C   UNL A   1      38.059  29.701  27.505  1.00  0.00     0.010 A 
ATOM     30  C   UNL A   1      37.510  29.298  29.824  1.00  0.00     0.010 A 
ATOM     31  C   UNL A   1      38.463  29.323  28.796  1.00  0.00    -0.014 A 
BRANCH  31  32
ATOM     32  C   UNL A   1      39.879  28.993  29.108  1.00  0.00     0.031 A 
ATOM     33  C   UNL A   1      40.805  30.045  29.658  1.00  0.00     0.074 A 
ATOM     34  C   UNL A   1      40.356  27.770  28.803  1.00  0.00     0.049 A 
ATOM     35  N   UNL A   1      42.095  29.978  29.871  1.00  0.00    -0.248 NA
ATOM     36  C   UNL A   1      40.209  31.350  29.989  1.00  0.00     0.031 C 
ATOM     37  C   UNL A   1      39.571  26.673  28.232  1.00  0.00     0.029 A 
ATOM     38  N   UNL A   1      41.622  27.249  28.910  1.00  0.00    -0.354 N 
ATOM     39  C   UNL A   1      42.468  31.233  30.337  1.00  0.00     0.074 A 
ATOM     40  C   UNL A   1      41.277  32.054  30.341  1.00  0.00     0.031 C 
ATOM     41  C   UNL A   1      40.367  25.607  28.053  1.00  0.00     0.029 A 
ATOM     42  C   UNL A   1      41.728  25.958  28.444  1.00  0.00     0.049 A 
ATOM     43  H   UNL A   1      42.382  27.751  29.282  1.00  0.00     0.167 HD
ATOM     44  C   UNL A   1      43.691  31.660  30.737  1.00  0.00     0.031 A 
ATOM     45  C   UNL A   1      42.801  25.153  28.323  1.00  0.00     0.031 A 
ATOM     46  C   UNL A   1      44.874  30.838  30.739  1.00  0.00     0.049 A 
ATOM     47  C   UNL A   1      44.152  25.660  28.742  1.00  0.00     0.074 A 
ATOM     48  C   UNL A   1      46.142  31.159  31.190  1.00  0.00     0.029 A 
ATOM     49  N   UNL A   1      44.937  29.539  30.261  1.00  0.00    -0.354 N 
ATOM     50  N   UNL A   1      44.472  26.828  29.246  1.00  0.00    -0.248 NA
ATOM     51  C   UNL A   1      45.287  24.741  28.577  1.00  0.00     0.031 C 
ATOM     52  C   UNL A   1      46.986  30.074  30.932  1.00  0.00     0.029 A 
ATOM     53  C   UNL A   1      46.231  29.056  30.371  1.00  0.00     0.049 A 
ATOM     54  H   UNL A   1      44.175  29.033  29.896  1.00  0.00     0.167 HD
ATOM     55  C   UNL A   1      45.843  26.781  29.466  1.00  0.00     0.074 A 
ATOM     56  C   UNL A   1      46.287  25.461  29.064  1.00  0.00     0.031 C 
ATOM     57  C   UNL A   1      46.661  27.745  29.954  1.00  0.00     0.031 A 
BRANCH  44  58
ATOM     58  C   UNL A   1      43.816  33.089  31.195  1.00  0.00    -0.014 A 
ATOM     59  C   UNL A   1      43.457  33.468  32.502  1.00  0.00     0.010 A 
ATOM     60  C   UNL A   1      44.340  34.061  30.323  1.00  0.00     0.010 A 
ATOM     61  C   UNL A   1      43.582  34.797  32.915  1.00  0.00     0.020 A 
ATOM     62  C   UNL A   1      44.492  35.387  30.740  1.00  0.00     0.020 A 
ATOM     63  C   UNL A   1      44.094  35.750  32.029  1.00  0.00     0.054 A 
BRANCH  63  64
ATOM     64  S   UNL A   1      44.261  37.464  32.598  1.00  0.00     0.124 S 
ATOM     65  O   UNL A   1      45.700  37.564  32.829  1.00  0.00    -0.237 OA
ATOM     66  O   UNL A   1      43.752  38.229  31.464  1.00  0.00    -0.237 OA
ATOM     67  O   UNL A   1      43.433  37.512  33.801  1.00  0.00    -0.744 OA
ENDBRANCH  63  64
ENDBRANCH  44  58
BRANCH  45  68
ATOM     68  C   UNL A   1      42.638  23.782  27.766  1.00  0.00    -0.014 A 
ATOM     69  C   UNL A   1      42.474  22.681  28.624  1.00  0.00     0.010 A 
ATOM     70  C   UNL A   1      42.621  23.574  26.374  1.00  0.00     0.010 A 
ATOM     71  C   UNL A   1      42.306  21.395  28.101  1.00  0.00     0.020 A 
ATOM     72  C   UNL A   1      42.427  22.293  25.847  1.00  0.00     0.020 A 
ATOM     73  C   UNL A   1      42.280  21.210  26.715  1.00  0.00     0.054 A 
BRANCH  73  74
ATOM     74  S   UNL A   1      41.996  19.542  26.061  1.00  0.00     0.124 S 
ATOM     75  O   UNL A   1      42.874  19.519  24.897  1.00  0.00    -0.237 OA
ATOM     76  O   UNL A   1      42.401  18.691  27.177  1.00  0.00    -0.237 OA
ATOM     77  O   UNL A   1      40.564  19.529  25.769  1.00  0.00    -0.744 OA
ENDBRANCH  73  74
ENDBRANCH  45  68
BRANCH  57  78
ATOM     78  C   UNL A   1      48.123  27.412  30.083  1.00  0.00    -0.014 A 
ATOM     79  C   UNL A   1      49.034  27.754  29.068  1.00  0.00     0.010 A 
ATOM     80  C   UNL A   1      48.601  26.803  31.257  1.00  0.00     0.010 A 
ATOM     81  C   UNL A   1      50.394  27.471  29.215  1.00  0.00     0.020 A 
ATOM     82  C   UNL A   1      49.964  26.543  31.419  1.00  0.00     0.020 A 
ATOM     83  C   UNL A   1      50.852  26.869  30.391  1.00  0.00     0.054 A 
BRANCH  83  84
ATOM     84  S   UNL A   1      52.629  26.564  30.581  1.00  0.00     0.124 S 
ATOM     85  O   UNL A   1      52.647  25.426  31.496  1.00  0.00    -0.237 OA
ATOM     86  O   UNL A   1      53.054  26.278  29.214  1.00  0.00    -0.237 OA
ATOM     87  O   UNL A   1      53.138  27.816  31.136  1.00  0.00    -0.744 OA
ENDBRANCH  83  84
ENDBRANCH  57  78
ENDBRANCH  31  32
ENDBRANCH  23  26
ENDBRANCH  21  22
ENDBRANCH   1  21
TORSDOF 17
ENDMDL
MODEL 3
REMARK VINA RESULT:     -10.2      6.708     13.546
REMARK SMILES CC(C)(C)N(CC(=O)NCCCNC(=O)c1ccc(-c2c3nc(c(-c4ccc(S(=O)(=O)[O-])cc4)c4ccc([nH]4)c(-c4ccc(S(=O)(=O)[O-])cc4)c4nc(c(-c5ccc(S(=O)(=O)[O-])cc5)c5ccc2[nH]5)C=C4)C=C3)cc1)C(=O)C1C[NH2+]C1
REMARK SMILES IDX 11 1 10 2 9 3 7 4 8 5 6 7 5 8 2 9 1 10 3 11 4 12 76 13 77 14
REMARK SMILES IDX 78 15 79 16 81 17 80 18 12 21 13 22 14 23 15 25 16 26 17 27
REMARK SMILES IDX 75 28 18 29 74 30 19 31 20 32 21 33 68 34 22 35 73 36 67 37
REMARK SMILES IDX 69 38 23 39 72 40 66 41 65 42 24 44 54 45 35 46 53 47 36 48
REMARK SMILES IDX 39 49 52 50 70 51 37 52 38 53 51 55 71 56 40 57 25 58 26 59
REMARK SMILES IDX 34 60 27 61 33 62 28 63 29 64 30 65 31 66 32 67 55 68 56 69
REMARK SMILES IDX 64 70 57 71 63 72 58 73 59 74 60 75 61 76 62 77 41 78 42 79
REMARK SMILES IDX 50 80 43 81 49 82 44 83 45 84 46 85 47 86 48 87
REMARK H PARENT 9 6 80 19 80 20 13 24 69 43 39 54
REMARK Flexibility Score: inf
ROOT
ATOM      1  C   UNL A   1      34.145  31.210  27.575  1.00  0.00     0.042 C 
ENDROOT
BRANCH   1   2
ATOM      2  C   UNL A   1      33.409  30.309  26.591  1.00  0.00     0.117 C 
BRANCH   2   3
ATOM      3  N   UNL A   1      32.317  29.574  27.196  1.00  0.00    -0.354 N 
ATOM      4  C   UNL A   1      32.122  28.230  27.277  1.00  0.00     0.239 C 
ATOM      5  O   UNL A   1      31.242  27.830  28.047  1.00  0.00    -0.273 OA
ATOM      6  H   UNL A   1      31.615  30.128  27.606  1.00  0.00     0.163 HD
BRANCH   4   7
ATOM      7  C   UNL A   1      33.034  27.220  26.552  1.00  0.00     0.219 C 
BRANCH   7   8
ATOM      8  N   UNL A   1      32.426  26.354  25.526  1.00  0.00    -0.328 N 
BRANCH   8   9
ATOM      9  C   UNL A   1      32.630  24.847  25.561  1.00  0.00     0.035 C 
ATOM     10  C   UNL A   1      34.089  24.403  25.847  1.00  0.00     0.034 C 
ATOM     11  C   UNL A   1      32.242  24.186  24.219  1.00  0.00     0.034 C 
ATOM     12  C   UNL A   1      31.789  24.223  26.700  1.00  0.00     0.034 C 
ENDBRANCH   8   9
BRANCH   8  13
ATOM     13  C   UNL A   1      31.364  26.870  24.724  1.00  0.00     0.238 C 
ATOM     14  O   UNL A   1      30.184  26.632  25.010  1.00  0.00    -0.274 OA
BRANCH  13  15
ATOM     15  C   UNL A   1      31.695  27.749  23.493  1.00  0.00     0.188 C 
ATOM     16  C   UNL A   1      30.640  27.820  22.357  1.00  0.00     0.280 C 
ATOM     17  C   UNL A   1      31.426  29.269  23.595  1.00  0.00     0.280 C 
ATOM     18  N   UNL A   1      30.979  29.257  22.183  1.00  0.00    -0.345 N 
ATOM     19  H   UNL A   1      30.181  29.859  21.986  1.00  0.00     0.346 HD
ATOM     20  H   UNL A   1      31.589  29.572  21.429  1.00  0.00     0.346 HD
ENDBRANCH  13  15
ENDBRANCH   8  13
ENDBRANCH   7   8
ENDBRANCH   4   7
ENDBRANCH   2   3
ENDBRANCH   1   2
BRANCH   1  21
ATOM     21  C   UNL A   1      35.405  30.586  28.167  1.00  0.00     0.118 C 
BRANCH  21  22
ATOM     22  N   UNL A   1      35.418  30.634  29.625  1.00  0.00    -0.352 N 
ATOM     23  C   UNL A   1      36.317  30.134  30.534  1.00  0.00     0.251 C 
ATOM     24  H   UNL A   1      34.652  31.106  30.025  1.00  0.00     0.163 HD
ATOM     25  O   UNL A   1      36.001  30.097  31.726  1.00  0.00    -0.269 OA
BRANCH  23  26
ATOM     26  C   UNL A   1      37.642  29.627  30.113  1.00  0.00     0.039 A 
ATOM     27  C   UNL A   1      38.051  29.813  28.787  1.00  0.00     0.014 A 
ATOM     28  C   UNL A   1      38.471  28.933  30.997  1.00  0.00     0.014 A 
ATOM     29  C   UNL A   1      39.317  29.386  28.377  1.00  0.00     0.010 A 
ATOM     30  C   UNL A   1      39.763  28.578  30.611  1.00  0.00     0.010 A 
ATOM     31  C   UNL A   1      40.204  28.809  29.301  1.00  0.00    -0.014 A 
BRANCH  31  32
ATOM     32  C   UNL A   1      41.609  28.482  28.938  1.00  0.00     0.031 A 
ATOM     33  C   UNL A   1      42.659  29.559  28.899  1.00  0.00     0.074 A 
ATOM     34  C   UNL A   1      41.915  27.228  28.548  1.00  0.00     0.049 A 
ATOM     35  N   UNL A   1      43.899  29.486  28.486  1.00  0.00    -0.248 NA
ATOM     36  C   UNL A   1      42.258  30.898  29.361  1.00  0.00     0.031 C 
ATOM     37  C   UNL A   1      40.980  26.101  28.506  1.00  0.00     0.029 A 
ATOM     38  N   UNL A   1      43.095  26.695  28.090  1.00  0.00    -0.354 N 
ATOM     39  C   UNL A   1      44.418  30.769  28.616  1.00  0.00     0.074 A 
ATOM     40  C   UNL A   1      43.349  31.609  29.111  1.00  0.00     0.031 C 
ATOM     41  C   UNL A   1      41.624  25.010  28.062  1.00  0.00     0.029 A 
ATOM     42  C   UNL A   1      43.000  25.368  27.739  1.00  0.00     0.049 A 
ATOM     43  H   UNL A   1      43.929  27.213  28.019  1.00  0.00     0.167 HD
ATOM     44  C   UNL A   1      45.675  31.205  28.358  1.00  0.00     0.031 A 
ATOM     45  C   UNL A   1      43.910  24.535  27.195  1.00  0.00     0.031 A 
ATOM     46  C   UNL A   1      46.739  30.366  27.873  1.00  0.00     0.049 A 
ATOM     47  C   UNL A   1      45.287  25.051  26.888  1.00  0.00     0.074 A 
ATOM     48  C   UNL A   1      48.063  30.700  27.647  1.00  0.00     0.029 A 
ATOM     49  N   UNL A   1      46.602  29.029  27.531  1.00  0.00    -0.354 N 
ATOM     50  N   UNL A   1      45.778  26.252  27.083  1.00  0.00    -0.248 NA
ATOM     51  C   UNL A   1      46.233  24.101  26.286  1.00  0.00     0.031 C 
ATOM     52  C   UNL A   1      48.713  29.581  27.115  1.00  0.00     0.029 A 
ATOM     53  C   UNL A   1      47.807  28.534  27.061  1.00  0.00     0.049 A 
ATOM     54  H   UNL A   1      45.770  28.508  27.611  1.00  0.00     0.167 HD
ATOM     55  C   UNL A   1      47.093  26.199  26.636  1.00  0.00     0.074 A 
ATOM     56  C   UNL A   1      47.328  24.841  26.184  1.00  0.00     0.031 C 
ATOM     57  C   UNL A   1      48.021  27.185  26.601  1.00  0.00     0.031 A 
BRANCH  44  58
ATOM     58  C   UNL A   1      45.967  32.666  28.584  1.00  0.00    -0.014 A 
ATOM     59  C   UNL A   1      46.531  33.117  29.791  1.00  0.00     0.010 A 
ATOM     60  C   UNL A   1      45.714  33.596  27.559  1.00  0.00     0.010 A 
ATOM     61  C   UNL A   1      46.799  34.474  29.985  1.00  0.00     0.020 A 
ATOM     62  C   UNL A   1      46.006  34.952  27.738  1.00  0.00     0.020 A 
ATOM     63  C   UNL A   1      46.531  35.385  28.958  1.00  0.00     0.054 A 
BRANCH  63  64
ATOM     64  S   UNL A   1      46.906  37.138  29.232  1.00  0.00     0.124 S 
ATOM     65  O   UNL A   1      48.107  37.062  30.061  1.00  0.00    -0.237 OA
ATOM     66  O   UNL A   1      47.111  37.638  27.875  1.00  0.00    -0.237 OA
ATOM     67  O   UNL A   1      45.715  37.647  29.908  1.00  0.00    -0.744 OA
ENDBRANCH  63  64
ENDBRANCH  44  58
BRANCH  45  68
ATOM     68  C   UNL A   1      43.536  23.126  26.896  1.00  0.00    -0.014 A 
ATOM     69  C   UNL A   1      43.858  22.553  25.653  1.00  0.00     0.010 A 
ATOM     70  C   UNL A   1      42.878  22.341  27.861  1.00  0.00     0.010 A 
ATOM     71  C   UNL A   1      43.520  21.225  25.377  1.00  0.00     0.020 A 
ATOM     72  C   UNL A   1      42.562  21.005  27.598  1.00  0.00     0.020 A 
ATOM     73  C   UNL A   1      42.877  20.458  26.354  1.00  0.00     0.054 A 
BRANCH  73  74
ATOM     74  S   UNL A   1      42.508  18.718  25.995  1.00  0.00     0.124 S 
ATOM     75  O   UNL A   1      43.364  18.457  24.843  1.00  0.00    -0.237 OA
ATOM     76  O   UNL A   1      42.894  18.050  27.235  1.00  0.00    -0.237 OA
ATOM     77  O   UNL A   1      41.072  18.723  25.722  1.00  0.00    -0.744 OA
ENDBRANCH  73  74
ENDBRANCH  45  68
BRANCH  57  78
ATOM     78  C   UNL A   1      49.380  26.837  26.056  1.00  0.00    -0.014 A 
ATOM     79  C   UNL A   1      50.307  26.119  26.834  1.00  0.00     0.010 A 
ATOM     80  C   UNL A   1      49.714  27.178  24.733  1.00  0.00     0.010 A 
ATOM     81  C   UNL A   1      51.552  25.770  26.304  1.00  0.00     0.020 A 
ATOM     82  C   UNL A   1      50.947  26.808  24.192  1.00  0.00     0.020 A 
ATOM     83  C   UNL A   1      51.864  26.115  24.986  1.00  0.00     0.054 A 
BRANCH  83  84
ATOM     84  S   UNL A   1      53.464  25.600  24.305  1.00  0.00     0.124 S 
ATOM     85  O   UNL A   1      54.395  26.459  25.033  1.00  0.00    -0.237 OA
ATOM     86  O   UNL A   1      53.519  24.182  24.648  1.00  0.00    -0.237 OA
ATOM     87  O   UNL A   1      53.342  25.886  22.878  1.00  0.00    -0.744 OA
ENDBRANCH  83  84
ENDBRANCH  57  78
ENDBRANCH  31  32
ENDBRANCH  23  26
ENDBRANCH  21  22
ENDBRANCH   1  21
TORSDOF 17
ENDMDL
