MODEL 1
REMARK VINA RESULT:     -10.4      0.000      0.000
REMARK SMILES CN(Cc1csc(Br)c1)c1cccc(F)c1C(=O)NCCCNC(=O)c1ccc(-c2c3nc(c(-c4ccc(S(=O)(=O)[O-])cc4)c4ccc([nH]4)c(-c4ccc(S(=O)(=O)[O-])cc4)c4nc(c(-c5ccc(S(=O)(=O)[O-])cc5)c5ccc2[nH]5)C=C4)C=C3)cc1
REMARK SMILES IDX 21 1 20 2 19 3 17 4 18 5 16 7 10 8 11 9 12 10 14 11 13 12
REMARK SMILES IDX 15 13 2 14 1 15 3 16 4 17 5 18 9 19 6 20 7 21 8 22 22 23
REMARK SMILES IDX 23 24 24 25 25 27 26 28 27 29 85 30 28 31 84 32 29 33 30 34
REMARK SMILES IDX 31 35 78 36 32 37 83 38 77 39 79 40 33 41 82 42 76 43 75 44
REMARK SMILES IDX 34 46 64 47 45 48 63 49 46 50 49 51 62 52 80 53 47 54 48 55
REMARK SMILES IDX 61 57 81 58 50 59 35 60 36 61 44 62 37 63 43 64 38 65 39 66
REMARK SMILES IDX 40 67 41 68 42 69 65 70 66 71 74 72 67 73 73 74 68 75 69 76
REMARK SMILES IDX 70 77 71 78 72 79 51 80 52 81 60 82 53 83 59 84 54 85 55 86
REMARK SMILES IDX 56 87 57 88 58 89
REMARK H PARENT 19 6 23 26 79 45 49 56
REMARK Flexibility Score: inf
ROOT
ATOM      1  C   UNL A   1      33.968  27.944  25.936  1.00  0.00     0.042 C 
ENDROOT
BRANCH   1   2
ATOM      2  C   UNL A   1      33.175  28.399  24.718  1.00  0.00     0.118 C 
BRANCH   2   3
ATOM      3  N   UNL A   1      31.765  28.039  24.702  1.00  0.00    -0.352 N 
ATOM      4  C   UNL A   1      31.195  26.802  24.447  1.00  0.00     0.256 C 
ATOM      5  O   UNL A   1      30.223  26.447  25.114  1.00  0.00    -0.269 OA
ATOM      6  H   UNL A   1      31.134  28.769  24.899  1.00  0.00     0.163 HD
BRANCH   4   7
ATOM      7  C   UNL A   1      31.672  25.934  23.346  1.00  0.00     0.098 A 
ATOM      8  C   UNL A   1      32.258  24.667  23.608  1.00  0.00     0.053 A 
ATOM      9  C   UNL A   1      32.750  23.931  22.506  1.00  0.00     0.027 A 
ATOM     10  C   UNL A   1      32.695  24.423  21.202  1.00  0.00     0.005 A 
ATOM     11  C   UNL A   1      31.705  26.445  22.044  1.00  0.00     0.138 A 
ATOM     12  C   UNL A   1      32.177  25.690  20.974  1.00  0.00     0.040 A 
ATOM     13  F   UNL A   1      31.339  27.709  21.786  1.00  0.00    -0.206 F 
BRANCH   8  14
ATOM     14  N   UNL A   1      32.421  24.125  24.883  1.00  0.00    -0.370 N 
ATOM     15  C   UNL A   1      31.236  23.635  25.573  1.00  0.00     0.144 C 
BRANCH  14  16
ATOM     16  C   UNL A   1      33.613  24.447  25.670  1.00  0.00     0.152 C 
BRANCH  16  17
ATOM     17  C   UNL A   1      34.763  23.479  25.592  1.00  0.00    -0.017 A 
ATOM     18  C   UNL A   1      34.640  22.129  25.304  1.00  0.00     0.071 A 
ATOM     19  C   UNL A   1      36.142  23.820  25.821  1.00  0.00     0.033 A 
ATOM     20  S   UNL A   1      36.141  21.304  25.346  1.00  0.00    -0.136 S 
ATOM     21  C   UNL A   1      36.960  22.722  25.766  1.00  0.00     0.070 A 
ATOM     22  Br  UNL A   1      38.793  22.775  26.144  1.00  0.00    -0.039 Br
ENDBRANCH  16  17
ENDBRANCH  14  16
ENDBRANCH   8  14
ENDBRANCH   4   7
ENDBRANCH   2   3
ENDBRANCH   1   2
BRANCH   1  23
ATOM     23  C   UNL A   1      33.386  28.298  27.299  1.00  0.00     0.118 C 
BRANCH  23  24
ATOM     24  N   UNL A   1      33.392  29.725  27.594  1.00  0.00    -0.352 N 
ATOM     25  C   UNL A   1      34.358  30.549  28.117  1.00  0.00     0.251 C 
ATOM     26  H   UNL A   1      32.546  30.182  27.381  1.00  0.00     0.163 HD
ATOM     27  O   UNL A   1      34.056  31.711  28.401  1.00  0.00    -0.269 OA
BRANCH  25  28
ATOM     28  C   UNL A   1      35.738  30.077  28.374  1.00  0.00     0.039 A 
ATOM     29  C   UNL A   1      36.663  30.091  27.322  1.00  0.00     0.014 A 
ATOM     30  C   UNL A   1      36.126  29.577  29.617  1.00  0.00     0.014 A 
ATOM     31  C   UNL A   1      37.984  29.686  27.541  1.00  0.00     0.010 A 
ATOM     32  C   UNL A   1      37.464  29.265  29.860  1.00  0.00     0.010 A 
ATOM     33  C   UNL A   1      38.410  29.315  28.826  1.00  0.00    -0.014 A 
BRANCH  33  34
ATOM     34  C   UNL A   1      39.833  28.980  29.111  1.00  0.00     0.031 A 
ATOM     35  C   UNL A   1      40.760  30.020  29.687  1.00  0.00     0.074 A 
ATOM     36  C   UNL A   1      40.311  27.763  28.781  1.00  0.00     0.049 A 
ATOM     37  N   UNL A   1      42.045  29.940  29.923  1.00  0.00    -0.248 NA
ATOM     38  C   UNL A   1      40.172  31.328  30.017  1.00  0.00     0.031 C 
ATOM     39  C   UNL A   1      39.530  26.680  28.179  1.00  0.00     0.029 A 
ATOM     40  N   UNL A   1      41.573  27.233  28.894  1.00  0.00    -0.354 N 
ATOM     41  C   UNL A   1      42.421  31.188  30.406  1.00  0.00     0.074 A 
ATOM     42  C   UNL A   1      41.240  32.023  30.381  1.00  0.00     0.031 C 
ATOM     43  C   UNL A   1      40.321  25.609  28.004  1.00  0.00     0.029 A 
ATOM     44  C   UNL A   1      41.675  25.941  28.432  1.00  0.00     0.049 A 
ATOM     45  H   UNL A   1      42.334  27.732  29.271  1.00  0.00     0.167 HD
ATOM     46  C   UNL A   1      43.634  31.599  30.850  1.00  0.00     0.031 A 
ATOM     47  C   UNL A   1      42.738  25.117  28.350  1.00  0.00     0.031 A 
ATOM     48  C   UNL A   1      44.805  30.762  30.885  1.00  0.00     0.049 A 
ATOM     49  C   UNL A   1      44.078  25.601  28.833  1.00  0.00     0.074 A 
ATOM     50  C   UNL A   1      46.065  31.066  31.368  1.00  0.00     0.029 A 
ATOM     51  N   UNL A   1      44.861  29.458  30.417  1.00  0.00    -0.354 N 
ATOM     52  N   UNL A   1      44.397  26.765  29.346  1.00  0.00    -0.248 NA
ATOM     53  C   UNL A   1      45.199  24.655  28.738  1.00  0.00     0.031 C 
ATOM     54  C   UNL A   1      46.899  29.967  31.138  1.00  0.00     0.029 A 
ATOM     55  C   UNL A   1      46.141  28.953  30.574  1.00  0.00     0.049 A 
ATOM     56  H   UNL A   1      44.103  28.964  30.030  1.00  0.00     0.167 HD
ATOM     57  C   UNL A   1      45.749  26.681  29.661  1.00  0.00     0.074 A 
ATOM     58  C   UNL A   1      46.182  25.348  29.296  1.00  0.00     0.031 C 
ATOM     59  C   UNL A   1      46.559  27.625  30.204  1.00  0.00     0.031 A 
BRANCH  46  60
ATOM     60  C   UNL A   1      43.759  33.024  31.327  1.00  0.00    -0.014 A 
ATOM     61  C   UNL A   1      43.545  33.363  32.676  1.00  0.00     0.010 A 
ATOM     62  C   UNL A   1      44.140  34.034  30.424  1.00  0.00     0.010 A 
ATOM     63  C   UNL A   1      43.666  34.688  33.104  1.00  0.00     0.020 A 
ATOM     64  C   UNL A   1      44.293  35.356  30.854  1.00  0.00     0.020 A 
ATOM     65  C   UNL A   1      44.038  35.677  32.188  1.00  0.00     0.054 A 
BRANCH  65  66
ATOM     66  S   UNL A   1      44.211  37.384  32.777  1.00  0.00     0.124 S 
ATOM     67  O   UNL A   1      44.038  38.147  31.543  1.00  0.00    -0.237 OA
ATOM     68  O   UNL A   1      43.124  37.500  33.744  1.00  0.00    -0.237 OA
ATOM     69  O   UNL A   1      45.555  37.421  33.347  1.00  0.00    -0.744 OA
ENDBRANCH  65  66
ENDBRANCH  46  60
BRANCH  47  70
ATOM     70  C   UNL A   1      42.576  23.744  27.793  1.00  0.00    -0.014 A 
ATOM     71  C   UNL A   1      42.227  22.669  28.630  1.00  0.00     0.010 A 
ATOM     72  C   UNL A   1      42.759  23.506  26.418  1.00  0.00     0.010 A 
ATOM     73  C   UNL A   1      42.084  21.380  28.107  1.00  0.00     0.020 A 
ATOM     74  C   UNL A   1      42.587  22.224  25.887  1.00  0.00     0.020 A 
ATOM     75  C   UNL A   1      42.262  21.167  26.737  1.00  0.00     0.054 A 
BRANCH  75  76
ATOM     76  S   UNL A   1      42.023  19.495  26.074  1.00  0.00     0.124 S 
ATOM     77  O   UNL A   1      42.894  19.504  24.903  1.00  0.00    -0.237 OA
ATOM     78  O   UNL A   1      42.460  18.651  27.183  1.00  0.00    -0.237 OA
ATOM     79  O   UNL A   1      40.590  19.442  25.788  1.00  0.00    -0.744 OA
ENDBRANCH  75  76
ENDBRANCH  47  70
BRANCH  59  80
ATOM     80  C   UNL A   1      47.991  27.239  30.474  1.00  0.00    -0.014 A 
ATOM     81  C   UNL A   1      49.018  27.559  29.569  1.00  0.00     0.010 A 
ATOM     82  C   UNL A   1      48.317  26.593  31.681  1.00  0.00     0.010 A 
ATOM     83  C   UNL A   1      50.341  27.211  29.852  1.00  0.00     0.020 A 
ATOM     84  C   UNL A   1      49.643  26.273  31.982  1.00  0.00     0.020 A 
ATOM     85  C   UNL A   1      50.645  26.570  31.058  1.00  0.00     0.054 A 
BRANCH  85  86
ATOM     86  S   UNL A   1      52.377  26.171  31.420  1.00  0.00     0.124 S 
ATOM     87  O   UNL A   1      52.970  26.150  30.085  1.00  0.00    -0.237 OA
ATOM     88  O   UNL A   1      52.790  27.281  32.274  1.00  0.00    -0.237 OA
ATOM     89  O   UNL A   1      52.301  24.873  32.088  1.00  0.00    -0.744 OA
ENDBRANCH  85  86
ENDBRANCH  59  80
ENDBRANCH  33  34
ENDBRANCH  25  28
ENDBRANCH  23  24
ENDBRANCH   1  23
TORSDOF 16
ENDMDL
MODEL 2
REMARK VINA RESULT:     -10.3      2.197      3.206
REMARK SMILES CN(Cc1csc(Br)c1)c1cccc(F)c1C(=O)NCCCNC(=O)c1ccc(-c2c3nc(c(-c4ccc(S(=O)(=O)[O-])cc4)c4ccc([nH]4)c(-c4ccc(S(=O)(=O)[O-])cc4)c4nc(c(-c5ccc(S(=O)(=O)[O-])cc5)c5ccc2[nH]5)C=C4)C=C3)cc1
REMARK SMILES IDX 21 1 20 2 19 3 17 4 18 5 16 7 10 8 11 9 12 10 14 11 13 12
REMARK SMILES IDX 15 13 2 14 1 15 3 16 4 17 5 18 9 19 6 20 7 21 8 22 22 23
REMARK SMILES IDX 23 24 24 25 25 27 26 28 27 29 85 30 28 31 84 32 29 33 30 34
REMARK SMILES IDX 31 35 78 36 32 37 83 38 77 39 79 40 33 41 82 42 76 43 75 44
REMARK SMILES IDX 34 46 64 47 45 48 63 49 46 50 49 51 62 52 80 53 47 54 48 55
REMARK SMILES IDX 61 57 81 58 50 59 35 60 36 61 44 62 37 63 43 64 38 65 39 66
REMARK SMILES IDX 40 67 41 68 42 69 65 70 66 71 74 72 67 73 73 74 68 75 69 76
REMARK SMILES IDX 70 77 71 78 72 79 51 80 52 81 60 82 53 83 59 84 54 85 55 86
REMARK SMILES IDX 56 87 57 88 58 89
REMARK H PARENT 19 6 23 26 79 45 49 56
REMARK Flexibility Score: inf
ROOT
ATOM      1  C   UNL A   1      33.399  27.079  26.087  1.00  0.00     0.042 C 
ENDROOT
BRANCH   1   2
ATOM      2  C   UNL A   1      34.161  25.772  25.910  1.00  0.00     0.118 C 
BRANCH   2   3
ATOM      3  N   UNL A   1      34.545  25.436  24.546  1.00  0.00    -0.352 N 
ATOM      4  C   UNL A   1      33.867  24.647  23.631  1.00  0.00     0.256 C 
ATOM      5  O   UNL A   1      33.849  24.993  22.450  1.00  0.00    -0.269 OA
ATOM      6  H   UNL A   1      35.396  25.819  24.235  1.00  0.00     0.163 HD
BRANCH   4   7
ATOM      7  C   UNL A   1      33.234  23.367  24.020  1.00  0.00     0.098 A 
ATOM      8  C   UNL A   1      31.900  23.322  24.506  1.00  0.00     0.053 A 
ATOM      9  C   UNL A   1      31.395  22.069  24.921  1.00  0.00     0.027 A 
ATOM     10  C   UNL A   1      32.169  20.909  24.885  1.00  0.00     0.005 A 
ATOM     11  C   UNL A   1      34.019  22.210  24.075  1.00  0.00     0.138 A 
ATOM     12  C   UNL A   1      33.490  20.984  24.468  1.00  0.00     0.040 A 
ATOM     13  F   UNL A   1      35.334  22.251  23.807  1.00  0.00    -0.206 F 
BRANCH   8  14
ATOM     14  N   UNL A   1      31.076  24.438  24.644  1.00  0.00    -0.370 N 
ATOM     15  C   UNL A   1      30.625  24.792  25.982  1.00  0.00     0.144 C 
BRANCH  14  16
ATOM     16  C   UNL A   1      30.331  24.947  23.491  1.00  0.00     0.152 C 
BRANCH  16  17
ATOM     17  C   UNL A   1      30.286  26.441  23.314  1.00  0.00    -0.017 A 
ATOM     18  C   UNL A   1      31.401  27.255  23.192  1.00  0.00     0.071 A 
ATOM     19  C   UNL A   1      29.082  27.227  23.262  1.00  0.00     0.033 A 
ATOM     20  S   UNL A   1      30.997  28.914  23.056  1.00  0.00    -0.136 S 
ATOM     21  C   UNL A   1      29.347  28.569  23.179  1.00  0.00     0.070 A 
ATOM     22  Br  UNL A   1      28.022  29.892  23.224  1.00  0.00    -0.039 Br
ENDBRANCH  16  17
ENDBRANCH  14  16
ENDBRANCH   8  14
ENDBRANCH   4   7
ENDBRANCH   2   3
ENDBRANCH   1   2
BRANCH   1  23
ATOM     23  C   UNL A   1      34.159  28.360  25.768  1.00  0.00     0.118 C 
BRANCH  23  24
ATOM     24  N   UNL A   1      33.714  29.520  26.528  1.00  0.00    -0.352 N 
ATOM     25  C   UNL A   1      34.314  30.247  27.528  1.00  0.00     0.251 C 
ATOM     26  H   UNL A   1      32.817  29.841  26.281  1.00  0.00     0.163 HD
ATOM     27  O   UNL A   1      33.654  31.112  28.110  1.00  0.00    -0.269 OA
BRANCH  25  28
ATOM     28  C   UNL A   1      35.714  30.003  27.944  1.00  0.00     0.039 A 
ATOM     29  C   UNL A   1      35.960  29.516  29.234  1.00  0.00     0.014 A 
ATOM     30  C   UNL A   1      36.792  30.290  27.106  1.00  0.00     0.014 A 
ATOM     31  C   UNL A   1      37.268  29.242  29.645  1.00  0.00     0.010 A 
ATOM     32  C   UNL A   1      38.085  29.927  27.480  1.00  0.00     0.010 A 
ATOM     33  C   UNL A   1      38.341  29.399  28.753  1.00  0.00    -0.014 A 
BRANCH  33  34
ATOM     34  C   UNL A   1      39.731  29.015  29.128  1.00  0.00     0.031 A 
ATOM     35  C   UNL A   1      40.646  30.015  29.786  1.00  0.00     0.074 A 
ATOM     36  C   UNL A   1      40.194  27.790  28.806  1.00  0.00     0.049 A 
ATOM     37  N   UNL A   1      41.909  29.891  30.108  1.00  0.00    -0.248 NA
ATOM     38  C   UNL A   1      40.077  31.335  30.101  1.00  0.00     0.031 C 
ATOM     39  C   UNL A   1      39.424  26.742  28.132  1.00  0.00     0.029 A 
ATOM     40  N   UNL A   1      41.429  27.219  28.995  1.00  0.00    -0.354 N 
ATOM     41  C   UNL A   1      42.289  31.118  30.640  1.00  0.00     0.074 A 
ATOM     42  C   UNL A   1      41.137  31.990  30.551  1.00  0.00     0.031 C 
ATOM     43  C   UNL A   1      40.193  25.650  27.989  1.00  0.00     0.029 A 
ATOM     44  C   UNL A   1      41.524  25.933  28.516  1.00  0.00     0.049 A 
ATOM     45  H   UNL A   1      42.177  27.687  29.433  1.00  0.00     0.167 HD
ATOM     46  C   UNL A   1      43.480  31.484  31.173  1.00  0.00     0.031 A 
ATOM     47  C   UNL A   1      42.565  25.078  28.490  1.00  0.00     0.031 A 
ATOM     48  C   UNL A   1      44.620  30.610  31.272  1.00  0.00     0.049 A 
ATOM     49  C   UNL A   1      43.882  25.511  29.073  1.00  0.00     0.074 A 
ATOM     50  C   UNL A   1      45.852  30.866  31.845  1.00  0.00     0.029 A 
ATOM     51  N   UNL A   1      44.669  29.313  30.782  1.00  0.00    -0.354 N 
ATOM     52  N   UNL A   1      44.200  26.655  29.629  1.00  0.00    -0.248 NA
ATOM     53  C   UNL A   1      44.979  24.533  29.035  1.00  0.00     0.031 C 
ATOM     54  C   UNL A   1      46.667  29.746  31.651  1.00  0.00     0.029 A 
ATOM     55  C   UNL A   1      45.920  28.766  31.016  1.00  0.00     0.049 A 
ATOM     56  H   UNL A   1      43.925  28.850  30.335  1.00  0.00     0.167 HD
ATOM     57  C   UNL A   1      45.524  26.524  30.034  1.00  0.00     0.074 A 
ATOM     58  C   UNL A   1      45.941  25.185  29.673  1.00  0.00     0.031 C 
ATOM     59  C   UNL A   1      46.322  27.432  30.650  1.00  0.00     0.031 A 
BRANCH  46  60
ATOM     60  C   UNL A   1      43.614  32.895  31.687  1.00  0.00    -0.014 A 
ATOM     61  C   UNL A   1      43.313  33.217  33.023  1.00  0.00     0.010 A 
ATOM     62  C   UNL A   1      44.091  33.907  30.834  1.00  0.00     0.010 A 
ATOM     63  C   UNL A   1      43.443  34.530  33.484  1.00  0.00     0.020 A 
ATOM     64  C   UNL A   1      44.253  35.216  31.299  1.00  0.00     0.020 A 
ATOM     65  C   UNL A   1      43.912  35.522  32.617  1.00  0.00     0.054 A 
BRANCH  65  66
ATOM     66  S   UNL A   1      44.095  37.212  33.250  1.00  0.00     0.124 S 
ATOM     67  O   UNL A   1      42.932  37.332  34.126  1.00  0.00    -0.237 OA
ATOM     68  O   UNL A   1      45.388  37.161  33.928  1.00  0.00    -0.237 OA
ATOM     69  O   UNL A   1      44.056  38.040  32.048  1.00  0.00    -0.744 OA
ENDBRANCH  65  66
ENDBRANCH  46  60
BRANCH  47  70
ATOM     70  C   UNL A   1      42.401  23.721  27.896  1.00  0.00    -0.014 A 
ATOM     71  C   UNL A   1      42.626  23.508  26.523  1.00  0.00     0.010 A 
ATOM     72  C   UNL A   1      42.029  22.629  28.702  1.00  0.00     0.010 A 
ATOM     73  C   UNL A   1      42.463  22.236  25.967  1.00  0.00     0.020 A 
ATOM     74  C   UNL A   1      41.895  21.350  28.155  1.00  0.00     0.020 A 
ATOM     75  C   UNL A   1      42.101  21.164  26.788  1.00  0.00     0.054 A 
BRANCH  75  76
ATOM     76  S   UNL A   1      41.944  19.513  26.051  1.00  0.00     0.124 S 
ATOM     77  O   UNL A   1      40.506  19.421  25.814  1.00  0.00    -0.237 OA
ATOM     78  O   UNL A   1      42.778  19.619  24.857  1.00  0.00    -0.237 OA
ATOM     79  O   UNL A   1      42.465  18.625  27.089  1.00  0.00    -0.744 OA
ENDBRANCH  75  76
ENDBRANCH  47  70
BRANCH  59  80
ATOM     80  C   UNL A   1      47.720  26.997  31.009  1.00  0.00    -0.014 A 
ATOM     81  C   UNL A   1      47.983  26.277  32.187  1.00  0.00     0.010 A 
ATOM     82  C   UNL A   1      48.777  27.267  30.120  1.00  0.00     0.010 A 
ATOM     83  C   UNL A   1      49.284  25.864  32.486  1.00  0.00     0.020 A 
ATOM     84  C   UNL A   1      50.074  26.828  30.400  1.00  0.00     0.020 A 
ATOM     85  C   UNL A   1      50.321  26.142  31.590  1.00  0.00     0.054 A 
BRANCH  85  86
ATOM     86  S   UNL A   1      51.992  25.555  31.981  1.00  0.00     0.124 S 
ATOM     87  O   UNL A   1      52.719  25.867  30.753  1.00  0.00    -0.237 OA
ATOM     88  O   UNL A   1      52.350  26.360  33.145  1.00  0.00    -0.237 OA
ATOM     89  O   UNL A   1      51.806  24.130  32.249  1.00  0.00    -0.744 OA
ENDBRANCH  85  86
ENDBRANCH  59  80
ENDBRANCH  33  34
ENDBRANCH  25  28
ENDBRANCH  23  24
ENDBRANCH   1  23
TORSDOF 16
ENDMDL
MODEL 3
REMARK VINA RESULT:     -10.2      3.565      8.880
REMARK SMILES CN(Cc1csc(Br)c1)c1cccc(F)c1C(=O)NCCCNC(=O)c1ccc(-c2c3nc(c(-c4ccc(S(=O)(=O)[O-])cc4)c4ccc([nH]4)c(-c4ccc(S(=O)(=O)[O-])cc4)c4nc(c(-c5ccc(S(=O)(=O)[O-])cc5)c5ccc2[nH]5)C=C4)C=C3)cc1
REMARK SMILES IDX 21 1 20 2 19 3 17 4 18 5 16 7 10 8 11 9 12 10 14 11 13 12
REMARK SMILES IDX 15 13 2 14 1 15 3 16 4 17 5 18 9 19 6 20 7 21 8 22 22 23
REMARK SMILES IDX 23 24 24 25 25 27 26 28 27 29 85 30 28 31 84 32 29 33 30 34
REMARK SMILES IDX 31 35 78 36 32 37 83 38 77 39 79 40 33 41 82 42 76 43 75 44
REMARK SMILES IDX 34 46 64 47 45 48 63 49 46 50 49 51 62 52 80 53 47 54 48 55
REMARK SMILES IDX 61 57 81 58 50 59 35 60 36 61 44 62 37 63 43 64 38 65 39 66
REMARK SMILES IDX 40 67 41 68 42 69 65 70 66 71 74 72 67 73 73 74 68 75 69 76
REMARK SMILES IDX 70 77 71 78 72 79 51 80 52 81 60 82 53 83 59 84 54 85 55 86
REMARK SMILES IDX 56 87 57 88 58 89
REMARK H PARENT 19 6 23 26 79 45 49 56
REMARK Flexibility Score: inf
ROOT
ATOM      1  C   UNL A   1      33.169  28.142  26.787  1.00  0.00     0.042 C 
ENDROOT
BRANCH   1   2
ATOM      2  C   UNL A   1      33.383  26.758  26.190  1.00  0.00     0.118 C 
BRANCH   2   3
ATOM      3  N   UNL A   1      32.243  25.854  26.246  1.00  0.00    -0.352 N 
ATOM      4  C   UNL A   1      32.239  24.485  26.455  1.00  0.00     0.256 C 
ATOM      5  O   UNL A   1      31.357  23.996  27.160  1.00  0.00    -0.269 OA
ATOM      6  H   UNL A   1      31.361  26.271  26.117  1.00  0.00     0.163 HD
BRANCH   4   7
ATOM      7  C   UNL A   1      33.217  23.590  25.795  1.00  0.00     0.098 A 
ATOM      8  C   UNL A   1      33.149  23.324  24.402  1.00  0.00     0.053 A 
ATOM      9  C   UNL A   1      34.078  22.405  23.863  1.00  0.00     0.027 A 
ATOM     10  C   UNL A   1      35.020  21.753  24.657  1.00  0.00     0.005 A 
ATOM     11  C   UNL A   1      34.112  22.862  26.586  1.00  0.00     0.138 A 
ATOM     12  C   UNL A   1      35.030  21.977  26.026  1.00  0.00     0.040 A 
ATOM     13  F   UNL A   1      34.078  22.941  27.924  1.00  0.00    -0.206 F 
BRANCH   8  14
ATOM     14  N   UNL A   1      32.198  23.874  23.542  1.00  0.00    -0.370 N 
ATOM     15  C   UNL A   1      30.863  23.292  23.539  1.00  0.00     0.144 C 
BRANCH  14  16
ATOM     16  C   UNL A   1      32.624  24.667  22.388  1.00  0.00     0.152 C 
BRANCH  16  17
ATOM     17  C   UNL A   1      32.437  26.158  22.479  1.00  0.00    -0.017 A 
ATOM     18  C   UNL A   1      33.468  27.083  22.501  1.00  0.00     0.071 A 
ATOM     19  C   UNL A   1      31.164  26.823  22.571  1.00  0.00     0.033 A 
ATOM     20  S   UNL A   1      32.910  28.694  22.662  1.00  0.00    -0.136 S 
ATOM     21  C   UNL A   1      31.301  28.177  22.727  1.00  0.00     0.070 A 
ATOM     22  Br  UNL A   1      29.861  29.340  23.009  1.00  0.00    -0.039 Br
ENDBRANCH  16  17
ENDBRANCH  14  16
ENDBRANCH   8  14
ENDBRANCH   4   7
ENDBRANCH   2   3
ENDBRANCH   1   2
BRANCH   1  23
ATOM     23  C   UNL A   1      33.874  29.300  26.091  1.00  0.00     0.118 C 
BRANCH  23  24
ATOM     24  N   UNL A   1      33.570  30.607  26.658  1.00  0.00    -0.352 N 
ATOM     25  C   UNL A   1      34.186  31.349  27.636  1.00  0.00     0.251 C 
ATOM     26  H   UNL A   1      32.774  31.038  26.269  1.00  0.00     0.163 HD
ATOM     27  O   UNL A   1      33.637  32.380  28.033  1.00  0.00    -0.269 OA
BRANCH  25  28
ATOM     28  C   UNL A   1      35.471  30.933  28.244  1.00  0.00     0.039 A 
ATOM     29  C   UNL A   1      36.610  31.716  28.016  1.00  0.00     0.014 A 
ATOM     30  C   UNL A   1      35.587  29.763  28.995  1.00  0.00     0.014 A 
ATOM     31  C   UNL A   1      37.831  31.371  28.606  1.00  0.00     0.010 A 
ATOM     32  C   UNL A   1      36.777  29.472  29.659  1.00  0.00     0.010 A 
ATOM     33  C   UNL A   1      37.915  30.271  29.474  1.00  0.00    -0.014 A 
BRANCH  33  34
ATOM     34  C   UNL A   1      39.174  29.941  30.198  1.00  0.00     0.031 A 
ATOM     35  C   UNL A   1      40.065  28.828  29.709  1.00  0.00     0.074 A 
ATOM     36  C   UNL A   1      39.479  30.594  31.338  1.00  0.00     0.049 A 
ATOM     37  N   UNL A   1      41.153  28.344  30.252  1.00  0.00    -0.248 NA
ATOM     38  C   UNL A   1      39.669  28.155  28.462  1.00  0.00     0.031 C 
ATOM     39  C   UNL A   1      38.680  31.664  31.942  1.00  0.00     0.029 A 
ATOM     40  N   UNL A   1      40.537  30.447  32.202  1.00  0.00    -0.354 N 
ATOM     41  C   UNL A   1      41.557  27.298  29.428  1.00  0.00     0.074 A 
ATOM     42  C   UNL A   1      40.569  27.186  28.377  1.00  0.00     0.031 C 
ATOM     43  C   UNL A   1      39.290  32.095  33.058  1.00  0.00     0.029 A 
ATOM     44  C   UNL A   1      40.494  31.302  33.279  1.00  0.00     0.049 A 
ATOM     45  H   UNL A   1      41.258  29.792  32.062  1.00  0.00     0.167 HD
ATOM     46  C   UNL A   1      42.659  26.515  29.524  1.00  0.00     0.031 A 
ATOM     47  C   UNL A   1      41.323  31.429  34.334  1.00  0.00     0.031 A 
ATOM     48  C   UNL A   1      43.646  26.638  30.565  1.00  0.00     0.049 A 
ATOM     49  C   UNL A   1      42.531  30.538  34.428  1.00  0.00     0.074 A 
ATOM     50  C   UNL A   1      44.826  25.932  30.718  1.00  0.00     0.029 A 
ATOM     51  N   UNL A   1      43.569  27.523  31.629  1.00  0.00    -0.354 N 
ATOM     52  N   UNL A   1      42.927  29.599  33.602  1.00  0.00    -0.248 NA
ATOM     53  C   UNL A   1      43.411  30.732  35.589  1.00  0.00     0.031 C 
ATOM     54  C   UNL A   1      45.433  26.347  31.907  1.00  0.00     0.029 A 
ATOM     55  C   UNL A   1      44.666  27.361  32.460  1.00  0.00     0.049 A 
ATOM     56  H   UNL A   1      42.842  28.171  31.774  1.00  0.00     0.167 HD
ATOM     57  C   UNL A   1      44.118  29.109  34.130  1.00  0.00     0.074 A 
ATOM     58  C   UNL A   1      44.384  29.868  35.335  1.00  0.00     0.031 C 
ATOM     59  C   UNL A   1      44.918  28.121  33.657  1.00  0.00     0.031 A 
BRANCH  46  60
ATOM     60  C   UNL A   1      42.852  25.447  28.477  1.00  0.00    -0.014 A 
ATOM     61  C   UNL A   1      43.580  25.702  27.301  1.00  0.00     0.010 A 
ATOM     62  C   UNL A   1      42.336  24.156  28.691  1.00  0.00     0.010 A 
ATOM     63  C   UNL A   1      43.751  24.702  26.340  1.00  0.00     0.020 A 
ATOM     64  C   UNL A   1      42.532  23.142  27.748  1.00  0.00     0.020 A 
ATOM     65  C   UNL A   1      43.224  23.427  26.570  1.00  0.00     0.054 A 
BRANCH  65  66
ATOM     66  S   UNL A   1      43.484  22.142  25.317  1.00  0.00     0.124 S 
ATOM     67  O   UNL A   1      43.394  22.908  24.077  1.00  0.00    -0.237 OA
ATOM     68  O   UNL A   1      44.814  21.637  25.648  1.00  0.00    -0.237 OA
ATOM     69  O   UNL A   1      42.389  21.203  25.549  1.00  0.00    -0.744 OA
ENDBRANCH  65  66
ENDBRANCH  46  60
BRANCH  47  70
ATOM     70  C   UNL A   1      41.041  32.447  35.385  1.00  0.00    -0.014 A 
ATOM     71  C   UNL A   1      41.544  33.756  35.268  1.00  0.00     0.010 A 
ATOM     72  C   UNL A   1      40.257  32.118  36.506  1.00  0.00     0.010 A 
ATOM     73  C   UNL A   1      41.286  34.707  36.259  1.00  0.00     0.020 A 
ATOM     74  C   UNL A   1      39.970  33.076  37.484  1.00  0.00     0.020 A 
ATOM     75  C   UNL A   1      40.497  34.361  37.359  1.00  0.00     0.054 A 
BRANCH  75  76
ATOM     76  S   UNL A   1      40.135  35.627  38.608  1.00  0.00     0.124 S 
ATOM     77  O   UNL A   1      41.405  35.723  39.322  1.00  0.00    -0.237 OA
ATOM     78  O   UNL A   1      39.777  36.783  37.791  1.00  0.00    -0.237 OA
ATOM     79  O   UNL A   1      39.031  35.048  39.371  1.00  0.00    -0.744 OA
ENDBRANCH  75  76
ENDBRANCH  47  70
BRANCH  59  80
ATOM     80  C   UNL A   1      46.181  27.825  34.424  1.00  0.00    -0.014 A 
ATOM     81  C   UNL A   1      47.378  28.513  34.159  1.00  0.00     0.010 A 
ATOM     82  C   UNL A   1      46.150  26.879  35.467  1.00  0.00     0.010 A 
ATOM     83  C   UNL A   1      48.530  28.237  34.899  1.00  0.00     0.020 A 
ATOM     84  C   UNL A   1      47.292  26.624  36.231  1.00  0.00     0.020 A 
ATOM     85  C   UNL A   1      48.479  27.294  35.932  1.00  0.00     0.054 A 
BRANCH  85  86
ATOM     86  S   UNL A   1      49.977  26.988  36.907  1.00  0.00     0.124 S 
ATOM     87  O   UNL A   1      50.856  26.358  35.925  1.00  0.00    -0.237 OA
ATOM     88  O   UNL A   1      50.366  28.332  37.327  1.00  0.00    -0.237 OA
ATOM     89  O   UNL A   1      49.518  26.114  37.983  1.00  0.00    -0.744 OA
ENDBRANCH  85  86
ENDBRANCH  59  80
ENDBRANCH  33  34
ENDBRANCH  25  28
ENDBRANCH  23  24
ENDBRANCH   1  23
TORSDOF 16
ENDMDL
