MODEL 1
REMARK VINA RESULT:     -13.0      0.000      0.000
REMARK SMILES Cc1ccc(Nc2c(F)cccc2I)c(CC(=O)NCCCNC(=O)c2ccc(-c3c4nc(c(-c5ccc(S(=O)(=O)[O-])cc5)c5ccc([nH]5)c(-c5ccc(S(=O)(=O)[O-])cc5)c5nc(c(-c6ccc(S(=O)(=O)[O-])cc6)c6ccc3[nH]6)C=C5)C=C4)cc2)c1
REMARK SMILES IDX 21 1 20 2 19 3 17 4 18 5 16 7 15 8 1 9 2 10 3 11 86 12 4 13
REMARK SMILES IDX 5 14 6 15 7 17 8 18 13 19 9 20 10 21 12 22 14 23 11 24 22 25
REMARK SMILES IDX 23 26 24 27 25 29 26 30 27 31 85 32 28 33 84 34 29 35 30 36
REMARK SMILES IDX 31 37 78 38 32 39 83 40 77 41 79 42 33 43 82 44 76 45 75 46
REMARK SMILES IDX 34 48 64 49 45 50 63 51 46 52 49 53 62 54 80 55 47 56 48 57
REMARK SMILES IDX 61 59 81 60 50 61 35 62 36 63 44 64 37 65 43 66 38 67 39 68
REMARK SMILES IDX 40 69 41 70 42 71 65 72 66 73 74 74 67 75 73 76 68 77 69 78
REMARK SMILES IDX 70 79 71 80 72 81 51 82 52 83 60 84 53 85 59 86 54 87 55 88
REMARK SMILES IDX 56 89 57 90 58 91
REMARK H PARENT 19 6 6 16 23 28 79 47 49 58
REMARK Flexibility Score: inf
ROOT
ATOM      1  C   UNL A   1      37.546  22.451  25.070  1.00  0.00     0.042 C 
ENDROOT
BRANCH   1   2
ATOM      2  C   UNL A   1      36.039  22.252  24.939  1.00  0.00     0.117 C 
BRANCH   2   3
ATOM      3  N   UNL A   1      35.479  22.932  23.779  1.00  0.00    -0.356 N 
ATOM      4  C   UNL A   1      34.795  24.109  23.716  1.00  0.00     0.224 C 
ATOM      5  O   UNL A   1      34.373  24.504  22.625  1.00  0.00    -0.275 OA
ATOM      6  H   UNL A   1      35.613  22.475  22.918  1.00  0.00     0.163 HD
BRANCH   4   7
ATOM      7  C   UNL A   1      34.528  24.932  24.964  1.00  0.00     0.137 C 
BRANCH   7   8
ATOM      8  C   UNL A   1      33.075  24.952  25.393  1.00  0.00    -0.015 A 
ATOM      9  C   UNL A   1      30.509  22.273  26.326  1.00  0.00     0.044 C 
ATOM     10  C   UNL A   1      31.140  23.609  26.072  1.00  0.00    -0.051 A 
ATOM     11  C   UNL A   1      30.362  24.763  26.071  1.00  0.00     0.005 A 
ATOM     12  C   UNL A   1      32.499  23.718  25.772  1.00  0.00     0.009 A 
ATOM     13  C   UNL A   1      30.931  25.999  25.747  1.00  0.00     0.026 A 
ATOM     14  C   UNL A   1      32.280  26.122  25.376  1.00  0.00     0.042 A 
BRANCH  14  15
ATOM     15  N   UNL A   1      32.819  27.375  25.009  1.00  0.00    -0.352 N 
ATOM     16  H   UNL A   1      33.430  27.356  24.238  1.00  0.00     0.167 HD
BRANCH  15  17
ATOM     17  C   UNL A   1      32.615  28.655  25.580  1.00  0.00     0.088 A 
ATOM     18  C   UNL A   1      33.302  29.070  26.734  1.00  0.00     0.147 A 
ATOM     19  C   UNL A   1      31.655  29.544  25.055  1.00  0.00     0.040 A 
ATOM     20  F   UNL A   1      34.235  28.280  27.291  1.00  0.00    -0.205 F 
ATOM     21  C   UNL A   1      33.067  30.309  27.333  1.00  0.00     0.041 A 
ATOM     22  C   UNL A   1      31.418  30.793  25.649  1.00  0.00     0.017 A 
ATOM     23  I   UNL A   1      30.452  29.043  23.402  1.00  0.00    -0.042 I 
ATOM     24  C   UNL A   1      32.124  31.174  26.788  1.00  0.00     0.004 A 
ENDBRANCH  15  17
ENDBRANCH  14  15
ENDBRANCH   7   8
ENDBRANCH   4   7
ENDBRANCH   2   3
ENDBRANCH   1   2
BRANCH   1  25
ATOM     25  C   UNL A   1      37.940  23.505  26.094  1.00  0.00     0.118 C 
BRANCH  25  26
ATOM     26  N   UNL A   1      39.134  23.125  26.843  1.00  0.00    -0.352 N 
ATOM     27  C   UNL A   1      40.046  23.956  27.470  1.00  0.00     0.251 C 
ATOM     28  H   UNL A   1      39.313  22.159  26.908  1.00  0.00     0.163 HD
ATOM     29  O   UNL A   1      41.102  23.562  27.921  1.00  0.00    -0.269 OA
BRANCH  27  30
ATOM     30  C   UNL A   1      39.608  25.349  27.676  1.00  0.00     0.039 A 
ATOM     31  C   UNL A   1      40.223  26.323  26.883  1.00  0.00     0.014 A 
ATOM     32  C   UNL A   1      38.896  25.682  28.824  1.00  0.00     0.014 A 
ATOM     33  C   UNL A   1      40.282  27.634  27.344  1.00  0.00     0.010 A 
ATOM     34  C   UNL A   1      39.025  26.965  29.317  1.00  0.00     0.010 A 
ATOM     35  C   UNL A   1      39.766  27.922  28.605  1.00  0.00    -0.014 A 
BRANCH  35  36
ATOM     36  C   UNL A   1      40.000  29.184  29.295  1.00  0.00     0.031 A 
ATOM     37  C   UNL A   1      38.974  30.251  29.218  1.00  0.00     0.074 A 
ATOM     38  C   UNL A   1      41.101  29.366  30.062  1.00  0.00     0.049 A 
ATOM     39  N   UNL A   1      39.190  31.493  29.493  1.00  0.00    -0.248 NA
ATOM     40  C   UNL A   1      37.611  30.000  28.757  1.00  0.00     0.031 C 
ATOM     41  C   UNL A   1      41.307  30.436  31.038  1.00  0.00     0.029 A 
ATOM     42  N   UNL A   1      42.341  28.728  30.047  1.00  0.00    -0.354 N 
ATOM     43  C   UNL A   1      37.965  32.115  29.584  1.00  0.00     0.074 A 
ATOM     44  C   UNL A   1      37.033  31.179  29.000  1.00  0.00     0.031 C 
ATOM     45  C   UNL A   1      42.624  30.572  31.251  1.00  0.00     0.029 A 
ATOM     46  C   UNL A   1      43.297  29.729  30.283  1.00  0.00     0.049 A 
ATOM     47  H   UNL A   1      42.511  27.769  29.902  1.00  0.00     0.167 HD
ATOM     48  C   UNL A   1      37.860  33.283  30.281  1.00  0.00     0.031 A 
ATOM     49  C   UNL A   1      44.203  30.179  29.358  1.00  0.00     0.031 A 
ATOM     50  C   UNL A   1      39.170  33.807  30.684  1.00  0.00     0.049 A 
ATOM     51  C   UNL A   1      44.107  31.676  29.063  1.00  0.00     0.074 A 
ATOM     52  C   UNL A   1      39.853  33.930  31.885  1.00  0.00     0.029 A 
ATOM     53  N   UNL A   1      40.102  34.079  29.694  1.00  0.00    -0.354 N 
ATOM     54  N   UNL A   1      43.233  32.481  29.605  1.00  0.00    -0.248 NA
ATOM     55  C   UNL A   1      44.924  32.368  28.061  1.00  0.00     0.031 C 
ATOM     56  C   UNL A   1      41.205  34.285  31.597  1.00  0.00     0.029 A 
ATOM     57  C   UNL A   1      41.339  34.389  30.226  1.00  0.00     0.049 A 
ATOM     58  H   UNL A   1      39.907  34.054  28.729  1.00  0.00     0.167 HD
ATOM     59  C   UNL A   1      43.301  33.717  29.018  1.00  0.00     0.074 A 
ATOM     60  C   UNL A   1      44.393  33.604  28.068  1.00  0.00     0.031 C 
ATOM     61  C   UNL A   1      42.422  34.721  29.311  1.00  0.00     0.031 A 
BRANCH  48  62
ATOM     62  C   UNL A   1      36.542  33.813  30.813  1.00  0.00    -0.014 A 
ATOM     63  C   UNL A   1      35.438  33.952  29.946  1.00  0.00     0.010 A 
ATOM     64  C   UNL A   1      36.341  34.261  32.133  1.00  0.00     0.010 A 
ATOM     65  C   UNL A   1      34.257  34.603  30.339  1.00  0.00     0.020 A 
ATOM     66  C   UNL A   1      35.184  34.946  32.532  1.00  0.00     0.020 A 
ATOM     67  C   UNL A   1      34.150  35.129  31.624  1.00  0.00     0.054 A 
BRANCH  67  68
ATOM     68  S   UNL A   1      32.668  36.054  32.092  1.00  0.00     0.124 S 
ATOM     69  O   UNL A   1      31.784  35.004  32.591  1.00  0.00    -0.237 OA
ATOM     70  O   UNL A   1      33.180  36.981  33.096  1.00  0.00    -0.237 OA
ATOM     71  O   UNL A   1      32.237  36.675  30.839  1.00  0.00    -0.744 OA
ENDBRANCH  67  68
ENDBRANCH  48  62
BRANCH  49  72
ATOM     72  C   UNL A   1      44.641  29.139  28.385  1.00  0.00    -0.014 A 
ATOM     73  C   UNL A   1      45.575  28.183  28.837  1.00  0.00     0.010 A 
ATOM     74  C   UNL A   1      43.871  28.852  27.246  1.00  0.00     0.010 A 
ATOM     75  C   UNL A   1      45.598  26.900  28.289  1.00  0.00     0.020 A 
ATOM     76  C   UNL A   1      43.905  27.568  26.683  1.00  0.00     0.020 A 
ATOM     77  C   UNL A   1      44.715  26.583  27.256  1.00  0.00     0.054 A 
BRANCH  77  78
ATOM     78  S   UNL A   1      44.499  24.827  26.835  1.00  0.00     0.124 S 
ATOM     79  O   UNL A   1      43.327  24.855  25.968  1.00  0.00    -0.237 OA
ATOM     80  O   UNL A   1      45.766  24.519  26.168  1.00  0.00    -0.237 OA
ATOM     81  O   UNL A   1      44.310  24.189  28.134  1.00  0.00    -0.744 OA
ENDBRANCH  77  78
ENDBRANCH  49  72
BRANCH  61  82
ATOM     82  C   UNL A   1      42.456  36.104  28.708  1.00  0.00    -0.014 A 
ATOM     83  C   UNL A   1      41.903  36.412  27.455  1.00  0.00     0.010 A 
ATOM     84  C   UNL A   1      43.183  37.132  29.357  1.00  0.00     0.010 A 
ATOM     85  C   UNL A   1      42.014  37.702  26.910  1.00  0.00     0.020 A 
ATOM     86  C   UNL A   1      43.316  38.413  28.816  1.00  0.00     0.020 A 
ATOM     87  C   UNL A   1      42.712  38.697  27.599  1.00  0.00     0.054 A 
BRANCH  87  88
ATOM     88  S   UNL A   1      42.868  40.346  26.867  1.00  0.00     0.124 S 
ATOM     89  O   UNL A   1      43.385  41.141  27.979  1.00  0.00    -0.237 OA
ATOM     90  O   UNL A   1      43.810  40.105  25.777  1.00  0.00    -0.237 OA
ATOM     91  O   UNL A   1      41.507  40.676  26.452  1.00  0.00    -0.744 OA
ENDBRANCH  87  88
ENDBRANCH  61  82
ENDBRANCH  35  36
ENDBRANCH  27  30
ENDBRANCH  25  26
ENDBRANCH   1  25
TORSDOF 16
ENDMDL
MODEL 2
REMARK VINA RESULT:     -13.0      4.812     11.312
REMARK SMILES Cc1ccc(Nc2c(F)cccc2I)c(CC(=O)NCCCNC(=O)c2ccc(-c3c4nc(c(-c5ccc(S(=O)(=O)[O-])cc5)c5ccc([nH]5)c(-c5ccc(S(=O)(=O)[O-])cc5)c5nc(c(-c6ccc(S(=O)(=O)[O-])cc6)c6ccc3[nH]6)C=C5)C=C4)cc2)c1
REMARK SMILES IDX 21 1 20 2 19 3 17 4 18 5 16 7 15 8 1 9 2 10 3 11 86 12 4 13
REMARK SMILES IDX 5 14 6 15 7 17 8 18 13 19 9 20 10 21 12 22 14 23 11 24 22 25
REMARK SMILES IDX 23 26 24 27 25 29 26 30 27 31 85 32 28 33 84 34 29 35 30 36
REMARK SMILES IDX 31 37 78 38 32 39 83 40 77 41 79 42 33 43 82 44 76 45 75 46
REMARK SMILES IDX 34 48 64 49 45 50 63 51 46 52 49 53 62 54 80 55 47 56 48 57
REMARK SMILES IDX 61 59 81 60 50 61 35 62 36 63 44 64 37 65 43 66 38 67 39 68
REMARK SMILES IDX 40 69 41 70 42 71 65 72 66 73 74 74 67 75 73 76 68 77 69 78
REMARK SMILES IDX 70 79 71 80 72 81 51 82 52 83 60 84 53 85 59 86 54 87 55 88
REMARK SMILES IDX 56 89 57 90 58 91
REMARK H PARENT 19 6 6 16 23 28 79 47 49 58
REMARK Flexibility Score: inf
ROOT
ATOM      1  C   UNL A   1      33.355  29.364  27.369  1.00  0.00     0.042 C 
ENDROOT
BRANCH   1   2
ATOM      2  C   UNL A   1      32.819  27.987  26.987  1.00  0.00     0.117 C 
BRANCH   2   3
ATOM      3  N   UNL A   1      31.749  28.053  26.001  1.00  0.00    -0.356 N 
ATOM      4  C   UNL A   1      31.823  27.985  24.641  1.00  0.00     0.224 C 
ATOM      5  O   UNL A   1      30.788  28.091  23.976  1.00  0.00    -0.275 OA
ATOM      6  H   UNL A   1      30.843  28.163  26.369  1.00  0.00     0.163 HD
BRANCH   4   7
ATOM      7  C   UNL A   1      33.153  27.799  23.933  1.00  0.00     0.137 C 
BRANCH   7   8
ATOM      8  C   UNL A   1      33.251  26.520  23.128  1.00  0.00    -0.015 A 
ATOM      9  C   UNL A   1      32.353  25.517  19.548  1.00  0.00     0.044 C 
ATOM     10  C   UNL A   1      32.858  25.450  20.958  1.00  0.00    -0.051 A 
ATOM     11  C   UNL A   1      33.225  24.229  21.514  1.00  0.00     0.005 A 
ATOM     12  C   UNL A   1      32.911  26.593  21.758  1.00  0.00     0.009 A 
ATOM     13  C   UNL A   1      33.612  24.150  22.855  1.00  0.00     0.026 A 
ATOM     14  C   UNL A   1      33.608  25.274  23.698  1.00  0.00     0.042 A 
BRANCH  14  15
ATOM     15  N   UNL A   1      33.960  25.159  25.061  1.00  0.00    -0.352 N 
ATOM     16  H   UNL A   1      34.421  25.943  25.439  1.00  0.00     0.167 HD
BRANCH  15  17
ATOM     17  C   UNL A   1      33.751  24.092  25.967  1.00  0.00     0.088 A 
ATOM     18  C   UNL A   1      32.523  23.911  26.628  1.00  0.00     0.147 A 
ATOM     19  C   UNL A   1      34.793  23.203  26.303  1.00  0.00     0.040 A 
ATOM     20  F   UNL A   1      31.481  24.714  26.359  1.00  0.00    -0.205 F 
ATOM     21  C   UNL A   1      32.327  22.893  27.563  1.00  0.00     0.041 A 
ATOM     22  C   UNL A   1      34.600  22.175  27.237  1.00  0.00     0.017 A 
ATOM     23  I   UNL A   1      36.728  23.396  25.499  1.00  0.00    -0.042 I 
ATOM     24  C   UNL A   1      33.367  22.020  27.867  1.00  0.00     0.004 A 
ENDBRANCH  15  17
ENDBRANCH  14  15
ENDBRANCH   7   8
ENDBRANCH   4   7
ENDBRANCH   2   3
ENDBRANCH   1   2
BRANCH   1  25
ATOM     25  C   UNL A   1      34.733  29.667  26.799  1.00  0.00     0.118 C 
BRANCH  25  26
ATOM     26  N   UNL A   1      35.325  30.860  27.398  1.00  0.00    -0.352 N 
ATOM     27  C   UNL A   1      36.484  30.949  28.149  1.00  0.00     0.251 C 
ATOM     28  H   UNL A   1      34.840  31.703  27.249  1.00  0.00     0.163 HD
ATOM     29  O   UNL A   1      36.808  31.952  28.752  1.00  0.00    -0.269 OA
BRANCH  27  30
ATOM     30  C   UNL A   1      37.384  29.782  28.081  1.00  0.00     0.039 A 
ATOM     31  C   UNL A   1      37.446  28.972  29.219  1.00  0.00     0.014 A 
ATOM     32  C   UNL A   1      38.351  29.720  27.083  1.00  0.00     0.014 A 
ATOM     33  C   UNL A   1      38.591  28.217  29.450  1.00  0.00     0.010 A 
ATOM     34  C   UNL A   1      39.518  29.034  27.354  1.00  0.00     0.010 A 
ATOM     35  C   UNL A   1      39.658  28.331  28.562  1.00  0.00    -0.014 A 
BRANCH  35  36
ATOM     36  C   UNL A   1      40.987  27.800  28.836  1.00  0.00     0.031 A 
ATOM     37  C   UNL A   1      41.282  26.385  28.504  1.00  0.00     0.074 A 
ATOM     38  C   UNL A   1      41.970  28.595  29.318  1.00  0.00     0.049 A 
ATOM     39  N   UNL A   1      42.275  25.715  28.982  1.00  0.00    -0.248 NA
ATOM     40  C   UNL A   1      40.423  25.586  27.634  1.00  0.00     0.031 C 
ATOM     41  C   UNL A   1      43.400  28.282  29.344  1.00  0.00     0.029 A 
ATOM     42  N   UNL A   1      41.912  29.798  30.020  1.00  0.00    -0.354 N 
ATOM     43  C   UNL A   1      42.387  24.559  28.243  1.00  0.00     0.074 A 
ATOM     44  C   UNL A   1      41.147  24.471  27.508  1.00  0.00     0.031 C 
ATOM     45  C   UNL A   1      43.989  29.052  30.271  1.00  0.00     0.029 A 
ATOM     46  C   UNL A   1      42.929  29.735  30.987  1.00  0.00     0.049 A 
ATOM     47  H   UNL A   1      41.285  30.542  29.868  1.00  0.00     0.167 HD
ATOM     48  C   UNL A   1      43.577  23.892  28.222  1.00  0.00     0.031 A 
ATOM     49  C   UNL A   1      42.720  29.641  32.337  1.00  0.00     0.031 A 
ATOM     50  C   UNL A   1      44.537  24.443  29.186  1.00  0.00     0.049 A 
ATOM     51  C   UNL A   1      43.343  28.403  32.984  1.00  0.00     0.074 A 
ATOM     52  C   UNL A   1      45.710  25.178  29.096  1.00  0.00     0.029 A 
ATOM     53  N   UNL A   1      44.181  24.472  30.526  1.00  0.00    -0.354 N 
ATOM     54  N   UNL A   1      44.000  27.481  32.334  1.00  0.00    -0.248 NA
ATOM     55  C   UNL A   1      43.193  28.057  34.402  1.00  0.00     0.031 C 
ATOM     56  C   UNL A   1      46.051  25.639  30.402  1.00  0.00     0.029 A 
ATOM     57  C   UNL A   1      45.094  25.176  31.285  1.00  0.00     0.049 A 
ATOM     58  H   UNL A   1      43.374  24.042  30.893  1.00  0.00     0.167 HD
ATOM     59  C   UNL A   1      44.289  26.432  33.165  1.00  0.00     0.074 A 
ATOM     60  C   UNL A   1      43.781  26.848  34.460  1.00  0.00     0.031 C 
ATOM     61  C   UNL A   1      44.870  25.279  32.720  1.00  0.00     0.031 A 
BRANCH  48  62
ATOM     62  C   UNL A   1      43.950  22.897  27.140  1.00  0.00    -0.014 A 
ATOM     63  C   UNL A   1      43.026  21.906  26.747  1.00  0.00     0.010 A 
ATOM     64  C   UNL A   1      45.212  22.832  26.521  1.00  0.00     0.010 A 
ATOM     65  C   UNL A   1      43.379  20.853  25.887  1.00  0.00     0.020 A 
ATOM     66  C   UNL A   1      45.594  21.770  25.689  1.00  0.00     0.020 A 
ATOM     67  C   UNL A   1      44.677  20.773  25.388  1.00  0.00     0.054 A 
BRANCH  67  68
ATOM     68  S   UNL A   1      45.155  19.361  24.362  1.00  0.00     0.124 S 
ATOM     69  O   UNL A   1      44.395  19.590  23.136  1.00  0.00    -0.237 OA
ATOM     70  O   UNL A   1      46.600  19.529  24.252  1.00  0.00    -0.237 OA
ATOM     71  O   UNL A   1      44.724  18.203  25.145  1.00  0.00    -0.744 OA
ENDBRANCH  67  68
ENDBRANCH  48  62
BRANCH  49  72
ATOM     72  C   UNL A   1      41.480  30.322  32.806  1.00  0.00    -0.014 A 
ATOM     73  C   UNL A   1      40.350  29.514  33.049  1.00  0.00     0.010 A 
ATOM     74  C   UNL A   1      41.540  31.601  33.386  1.00  0.00     0.010 A 
ATOM     75  C   UNL A   1      39.402  29.889  34.002  1.00  0.00     0.020 A 
ATOM     76  C   UNL A   1      40.578  31.986  34.332  1.00  0.00     0.020 A 
ATOM     77  C   UNL A   1      39.559  31.096  34.684  1.00  0.00     0.054 A 
BRANCH  77  78
ATOM     78  S   UNL A   1      38.544  31.369  36.167  1.00  0.00     0.124 S 
ATOM     79  O   UNL A   1      39.357  32.305  36.935  1.00  0.00    -0.237 OA
ATOM     80  O   UNL A   1      37.317  31.928  35.595  1.00  0.00    -0.237 OA
ATOM     81  O   UNL A   1      38.410  30.032  36.736  1.00  0.00    -0.744 OA
ENDBRANCH  77  78
ENDBRANCH  49  72
BRANCH  61  82
ATOM     82  C   UNL A   1      45.225  24.096  33.589  1.00  0.00    -0.014 A 
ATOM     83  C   UNL A   1      46.493  23.917  34.164  1.00  0.00     0.010 A 
ATOM     84  C   UNL A   1      44.294  23.041  33.748  1.00  0.00     0.010 A 
ATOM     85  C   UNL A   1      46.792  22.769  34.918  1.00  0.00     0.020 A 
ATOM     86  C   UNL A   1      44.587  21.887  34.479  1.00  0.00     0.020 A 
ATOM     87  C   UNL A   1      45.833  21.765  35.077  1.00  0.00     0.054 A 
BRANCH  87  88
ATOM     88  S   UNL A   1      46.248  20.281  36.028  1.00  0.00     0.124 S 
ATOM     89  O   UNL A   1      45.818  20.637  37.378  1.00  0.00    -0.237 OA
ATOM     90  O   UNL A   1      45.442  19.260  35.362  1.00  0.00    -0.237 OA
ATOM     91  O   UNL A   1      47.692  20.145  35.855  1.00  0.00    -0.744 OA
ENDBRANCH  87  88
ENDBRANCH  61  82
ENDBRANCH  35  36
ENDBRANCH  27  30
ENDBRANCH  25  26
ENDBRANCH   1  25
TORSDOF 16
ENDMDL
MODEL 3
REMARK VINA RESULT:     -12.7      1.638      2.095
REMARK SMILES Cc1ccc(Nc2c(F)cccc2I)c(CC(=O)NCCCNC(=O)c2ccc(-c3c4nc(c(-c5ccc(S(=O)(=O)[O-])cc5)c5ccc([nH]5)c(-c5ccc(S(=O)(=O)[O-])cc5)c5nc(c(-c6ccc(S(=O)(=O)[O-])cc6)c6ccc3[nH]6)C=C5)C=C4)cc2)c1
REMARK SMILES IDX 21 1 20 2 19 3 17 4 18 5 16 7 15 8 1 9 2 10 3 11 86 12 4 13
REMARK SMILES IDX 5 14 6 15 7 17 8 18 13 19 9 20 10 21 12 22 14 23 11 24 22 25
REMARK SMILES IDX 23 26 24 27 25 29 26 30 27 31 85 32 28 33 84 34 29 35 30 36
REMARK SMILES IDX 31 37 78 38 32 39 83 40 77 41 79 42 33 43 82 44 76 45 75 46
REMARK SMILES IDX 34 48 64 49 45 50 63 51 46 52 49 53 62 54 80 55 47 56 48 57
REMARK SMILES IDX 61 59 81 60 50 61 35 62 36 63 44 64 37 65 43 66 38 67 39 68
REMARK SMILES IDX 40 69 41 70 42 71 65 72 66 73 74 74 67 75 73 76 68 77 69 78
REMARK SMILES IDX 70 79 71 80 72 81 51 82 52 83 60 84 53 85 59 86 54 87 55 88
REMARK SMILES IDX 56 89 57 90 58 91
REMARK H PARENT 19 6 6 16 23 28 79 47 49 58
REMARK Flexibility Score: inf
ROOT
ATOM      1  C   UNL A   1      37.476  22.357  24.894  1.00  0.00     0.042 C 
ENDROOT
BRANCH   1   2
ATOM      2  C   UNL A   1      36.081  22.579  24.320  1.00  0.00     0.117 C 
BRANCH   2   3
ATOM      3  N   UNL A   1      35.118  21.586  24.777  1.00  0.00    -0.356 N 
ATOM      4  C   UNL A   1      34.211  21.668  25.792  1.00  0.00     0.224 C 
ATOM      5  O   UNL A   1      33.497  20.692  26.041  1.00  0.00    -0.275 OA
ATOM      6  H   UNL A   1      35.124  20.735  24.284  1.00  0.00     0.163 HD
BRANCH   4   7
ATOM      7  C   UNL A   1      34.077  22.927  26.629  1.00  0.00     0.137 C 
BRANCH   7   8
ATOM      8  C   UNL A   1      32.718  23.590  26.535  1.00  0.00    -0.015 A 
ATOM      9  C   UNL A   1      29.134  22.504  27.314  1.00  0.00     0.044 C 
ATOM     10  C   UNL A   1      30.307  23.342  26.903  1.00  0.00    -0.051 A 
ATOM     11  C   UNL A   1      30.107  24.586  26.313  1.00  0.00     0.005 A 
ATOM     12  C   UNL A   1      31.614  22.870  27.046  1.00  0.00     0.009 A 
ATOM     13  C   UNL A   1      31.196  25.331  25.848  1.00  0.00     0.026 A 
ATOM     14  C   UNL A   1      32.513  24.848  25.919  1.00  0.00     0.042 A 
BRANCH  14  15
ATOM     15  N   UNL A   1      33.590  25.600  25.401  1.00  0.00    -0.352 N 
ATOM     16  H   UNL A   1      34.466  25.404  25.804  1.00  0.00     0.167 HD
BRANCH  15  17
ATOM     17  C   UNL A   1      33.603  26.593  24.392  1.00  0.00     0.088 A 
ATOM     18  C   UNL A   1      33.637  26.261  23.026  1.00  0.00     0.147 A 
ATOM     19  C   UNL A   1      33.658  27.964  24.716  1.00  0.00     0.040 A 
ATOM     20  F   UNL A   1      33.584  24.976  22.637  1.00  0.00    -0.205 F 
ATOM     21  C   UNL A   1      33.704  27.233  22.027  1.00  0.00     0.041 A 
ATOM     22  C   UNL A   1      33.720  28.947  23.716  1.00  0.00     0.017 A 
ATOM     23  I   UNL A   1      33.733  28.640  26.707  1.00  0.00    -0.042 I 
ATOM     24  C   UNL A   1      33.743  28.581  22.372  1.00  0.00     0.004 A 
ENDBRANCH  15  17
ENDBRANCH  14  15
ENDBRANCH   7   8
ENDBRANCH   4   7
ENDBRANCH   2   3
ENDBRANCH   1   2
BRANCH   1  25
ATOM     25  C   UNL A   1      37.825  23.294  26.041  1.00  0.00     0.118 C 
BRANCH  25  26
ATOM     26  N   UNL A   1      39.102  22.953  26.661  1.00  0.00    -0.352 N 
ATOM     27  C   UNL A   1      40.046  23.812  27.193  1.00  0.00     0.251 C 
ATOM     28  H   UNL A   1      39.318  21.993  26.703  1.00  0.00     0.163 HD
ATOM     29  O   UNL A   1      41.156  23.452  27.531  1.00  0.00    -0.269 OA
BRANCH  27  30
ATOM     30  C   UNL A   1      39.588  25.191  27.448  1.00  0.00     0.039 A 
ATOM     31  C   UNL A   1      40.172  26.199  26.675  1.00  0.00     0.014 A 
ATOM     32  C   UNL A   1      38.889  25.476  28.617  1.00  0.00     0.014 A 
ATOM     33  C   UNL A   1      40.216  27.496  27.175  1.00  0.00     0.010 A 
ATOM     34  C   UNL A   1      39.004  26.746  29.147  1.00  0.00     0.010 A 
ATOM     35  C   UNL A   1      39.715  27.737  28.453  1.00  0.00    -0.014 A 
BRANCH  35  36
ATOM     36  C   UNL A   1      39.940  28.981  29.177  1.00  0.00     0.031 A 
ATOM     37  C   UNL A   1      38.939  30.070  29.069  1.00  0.00     0.074 A 
ATOM     38  C   UNL A   1      41.004  29.128  30.000  1.00  0.00     0.049 A 
ATOM     39  N   UNL A   1      39.164  31.303  29.377  1.00  0.00    -0.248 NA
ATOM     40  C   UNL A   1      37.595  29.854  28.536  1.00  0.00     0.031 C 
ATOM     41  C   UNL A   1      41.181  30.177  31.005  1.00  0.00     0.029 A 
ATOM     42  N   UNL A   1      42.230  28.466  30.035  1.00  0.00    -0.354 N 
ATOM     43  C   UNL A   1      37.948  31.947  29.419  1.00  0.00     0.074 A 
ATOM     44  C   UNL A   1      37.029  31.040  28.772  1.00  0.00     0.031 C 
ATOM     45  C   UNL A   1      42.489  30.283  31.285  1.00  0.00     0.029 A 
ATOM     46  C   UNL A   1      43.193  29.444  30.336  1.00  0.00     0.049 A 
ATOM     47  H   UNL A   1      42.389  27.506  29.880  1.00  0.00     0.167 HD
ATOM     48  C   UNL A   1      37.830  33.104  30.131  1.00  0.00     0.031 A 
ATOM     49  C   UNL A   1      44.151  29.892  29.465  1.00  0.00     0.031 A 
ATOM     50  C   UNL A   1      39.129  33.595  30.608  1.00  0.00     0.049 A 
ATOM     51  C   UNL A   1      44.098  31.396  29.194  1.00  0.00     0.074 A 
ATOM     52  C   UNL A   1      39.753  33.683  31.843  1.00  0.00     0.029 A 
ATOM     53  N   UNL A   1      40.114  33.866  29.671  1.00  0.00    -0.354 N 
ATOM     54  N   UNL A   1      43.214  32.208  29.707  1.00  0.00    -0.248 NA
ATOM     55  C   UNL A   1      44.978  32.089  28.246  1.00  0.00     0.031 C 
ATOM     56  C   UNL A   1      41.124  34.017  31.629  1.00  0.00     0.029 A 
ATOM     57  C   UNL A   1      41.328  34.142  30.268  1.00  0.00     0.049 A 
ATOM     58  H   UNL A   1      39.967  33.862  28.697  1.00  0.00     0.167 HD
ATOM     59  C   UNL A   1      43.335  33.453  29.147  1.00  0.00     0.074 A 
ATOM     60  C   UNL A   1      44.471  33.335  28.250  1.00  0.00     0.031 C 
ATOM     61  C   UNL A   1      42.461  34.468  29.414  1.00  0.00     0.031 A 
BRANCH  48  62
ATOM     62  C   UNL A   1      36.498  33.651  30.607  1.00  0.00    -0.014 A 
ATOM     63  C   UNL A   1      35.555  34.121  29.669  1.00  0.00     0.010 A 
ATOM     64  C   UNL A   1      36.138  33.799  31.960  1.00  0.00     0.010 A 
ATOM     65  C   UNL A   1      34.389  34.801  30.059  1.00  0.00     0.020 A 
ATOM     66  C   UNL A   1      34.997  34.507  32.367  1.00  0.00     0.020 A 
ATOM     67  C   UNL A   1      34.134  35.020  31.410  1.00  0.00     0.054 A 
BRANCH  67  68
ATOM     68  S   UNL A   1      32.683  35.983  31.902  1.00  0.00     0.124 S 
ATOM     69  O   UNL A   1      31.829  34.974  32.521  1.00  0.00    -0.237 OA
ATOM     70  O   UNL A   1      33.256  36.971  32.810  1.00  0.00    -0.237 OA
ATOM     71  O   UNL A   1      32.180  36.522  30.638  1.00  0.00    -0.744 OA
ENDBRANCH  67  68
ENDBRANCH  48  62
BRANCH  49  72
ATOM     72  C   UNL A   1      44.618  28.861  28.496  1.00  0.00    -0.014 A 
ATOM     73  C   UNL A   1      44.012  28.848  27.223  1.00  0.00     0.010 A 
ATOM     74  C   UNL A   1      45.863  28.230  28.664  1.00  0.00     0.010 A 
ATOM     75  C   UNL A   1      44.716  28.395  26.106  1.00  0.00     0.020 A 
ATOM     76  C   UNL A   1      46.565  27.760  27.544  1.00  0.00     0.020 A 
ATOM     77  C   UNL A   1      46.015  27.914  26.268  1.00  0.00     0.054 A 
BRANCH  77  78
ATOM     78  S   UNL A   1      47.032  27.700  24.775  1.00  0.00     0.124 S 
ATOM     79  O   UNL A   1      48.361  28.072  25.246  1.00  0.00    -0.237 OA
ATOM     80  O   UNL A   1      46.845  26.278  24.483  1.00  0.00    -0.237 OA
ATOM     81  O   UNL A   1      46.421  28.616  23.818  1.00  0.00    -0.744 OA
ENDBRANCH  77  78
ENDBRANCH  49  72
BRANCH  61  82
ATOM     82  C   UNL A   1      42.552  35.861  28.839  1.00  0.00    -0.014 A 
ATOM     83  C   UNL A   1      41.891  36.254  27.665  1.00  0.00     0.010 A 
ATOM     84  C   UNL A   1      43.437  36.802  29.421  1.00  0.00     0.010 A 
ATOM     85  C   UNL A   1      42.055  37.545  27.137  1.00  0.00     0.020 A 
ATOM     86  C   UNL A   1      43.622  38.082  28.895  1.00  0.00     0.020 A 
ATOM     87  C   UNL A   1      42.913  38.454  27.761  1.00  0.00     0.054 A 
BRANCH  87  88
ATOM     88  S   UNL A   1      43.133  40.105  27.049  1.00  0.00     0.124 S 
ATOM     89  O   UNL A   1      43.106  40.967  28.229  1.00  0.00    -0.237 OA
ATOM     90  O   UNL A   1      44.433  39.981  26.394  1.00  0.00    -0.237 OA
ATOM     91  O   UNL A   1      41.992  40.254  26.149  1.00  0.00    -0.744 OA
ENDBRANCH  87  88
ENDBRANCH  61  82
ENDBRANCH  35  36
ENDBRANCH  27  30
ENDBRANCH  25  26
ENDBRANCH   1  25
TORSDOF 16
ENDMDL
