MODEL 1
REMARK VINA RESULT:     -12.0      0.000      0.000
REMARK SMILES O=C(NCCCNC(=O)[C@@H]1c2ccccc2C[C@H]1P(O)(O)=S)c1ccc(-c2c3nc(c(-c4ccc(S(=O)(=O)[O-])cc4)c4ccc([nH]4)c(-c4ccc(S(=O)(=O)[O-])cc4)c4nc(c(-c5ccc(S(=O)(=O)[O-])cc5)c5ccc2[nH]5)C=C4)C=C3)cc1
REMARK SMILES IDX 4 1 3 2 1 3 2 4 23 6 24 7 82 8 25 9 81 10 26 11 27 12 28 13
REMARK SMILES IDX 75 14 29 15 80 16 74 17 76 18 30 19 79 20 73 21 72 22 31 24
REMARK SMILES IDX 61 25 42 26 60 27 43 28 46 29 59 30 77 31 44 32 45 33 58 35
REMARK SMILES IDX 78 36 47 37 32 38 33 39 41 40 34 41 40 42 35 43 36 44 37 45
REMARK SMILES IDX 38 46 39 47 62 48 63 49 71 50 64 51 70 52 65 53 66 54 67 55
REMARK SMILES IDX 68 56 69 57 48 58 49 59 57 60 50 61 56 62 51 63 52 64 53 65
REMARK SMILES IDX 54 66 55 67 5 68 6 69 7 70 8 71 9 73 10 74 11 75 18 76 12 77
REMARK SMILES IDX 16 78 17 79 13 80 15 81 14 82 19 83 22 84 20 85 21 87
REMARK H PARENT 3 5 76 23 46 34 7 72 20 86 21 88
REMARK Flexibility Score: inf
ROOT
ATOM      1  C   UNL A   1      34.013  28.127  26.324  1.00  0.00     0.118 C 
ENDROOT
BRANCH   1   2
ATOM      2  N   UNL A   1      33.705  29.471  26.794  1.00  0.00    -0.352 N 
ATOM      3  O   UNL A   1      33.869  31.305  28.085  1.00  0.00    -0.269 OA
ATOM      4  C   UNL A   1      34.412  30.297  27.633  1.00  0.00     0.251 C 
ATOM      5  H   UNL A   1      32.859  29.845  26.457  1.00  0.00     0.163 HD
BRANCH   4   6
ATOM      6  C   UNL A   1      35.804  29.971  28.011  1.00  0.00     0.039 A 
ATOM      7  C   UNL A   1      36.854  30.157  27.110  1.00  0.00     0.014 A 
ATOM      8  C   UNL A   1      36.070  29.500  29.300  1.00  0.00     0.014 A 
ATOM      9  C   UNL A   1      38.133  29.720  27.432  1.00  0.00     0.010 A 
ATOM     10  C   UNL A   1      37.377  29.160  29.660  1.00  0.00     0.010 A 
ATOM     11  C   UNL A   1      38.416  29.236  28.718  1.00  0.00    -0.014 A 
BRANCH  11  12
ATOM     12  C   UNL A   1      39.811  28.879  29.077  1.00  0.00     0.031 A 
ATOM     13  C   UNL A   1      40.704  29.857  29.791  1.00  0.00     0.074 A 
ATOM     14  C   UNL A   1      40.270  27.653  28.756  1.00  0.00     0.049 A 
ATOM     15  N   UNL A   1      41.953  29.716  30.154  1.00  0.00    -0.248 NA
ATOM     16  C   UNL A   1      40.123  31.165  30.134  1.00  0.00     0.031 C 
ATOM     17  C   UNL A   1      39.497  26.616  28.067  1.00  0.00     0.029 A 
ATOM     18  N   UNL A   1      41.491  27.065  28.973  1.00  0.00    -0.354 N 
ATOM     19  C   UNL A   1      42.317  30.920  30.746  1.00  0.00     0.074 A 
ATOM     20  C   UNL A   1      41.163  31.790  30.669  1.00  0.00     0.031 C 
ATOM     21  C   UNL A   1      40.246  25.511  27.952  1.00  0.00     0.029 A 
ATOM     22  C   UNL A   1      41.573  25.781  28.490  1.00  0.00     0.049 A 
ATOM     23  H   UNL A   1      42.235  27.520  29.429  1.00  0.00     0.167 HD
ATOM     24  C   UNL A   1      43.504  31.265  31.304  1.00  0.00     0.031 A 
ATOM     25  C   UNL A   1      42.608  24.921  28.456  1.00  0.00     0.031 A 
ATOM     26  C   UNL A   1      44.649  30.393  31.367  1.00  0.00     0.049 A 
ATOM     27  C   UNL A   1      43.924  25.342  29.039  1.00  0.00     0.074 A 
ATOM     28  C   UNL A   1      45.888  30.640  31.934  1.00  0.00     0.029 A 
ATOM     29  N   UNL A   1      44.701  29.110  30.840  1.00  0.00    -0.354 N 
ATOM     30  N   UNL A   1      44.241  26.476  29.618  1.00  0.00    -0.248 NA
ATOM     31  C   UNL A   1      45.021  24.370  28.969  1.00  0.00     0.031 C 
ATOM     32  C   UNL A   1      46.706  29.530  31.695  1.00  0.00     0.029 A 
ATOM     33  C   UNL A   1      45.957  28.563  31.043  1.00  0.00     0.049 A 
ATOM     34  H   UNL A   1      43.953  28.655  30.388  1.00  0.00     0.167 HD
ATOM     35  C   UNL A   1      45.569  26.344  30.004  1.00  0.00     0.074 A 
ATOM     36  C   UNL A   1      45.990  25.016  29.604  1.00  0.00     0.031 C 
ATOM     37  C   UNL A   1      46.365  27.241  30.637  1.00  0.00     0.031 A 
BRANCH  24  38
ATOM     38  C   UNL A   1      43.634  32.663  31.856  1.00  0.00    -0.014 A 
ATOM     39  C   UNL A   1      43.332  32.953  33.199  1.00  0.00     0.010 A 
ATOM     40  C   UNL A   1      44.097  33.699  31.023  1.00  0.00     0.010 A 
ATOM     41  C   UNL A   1      43.439  34.261  33.682  1.00  0.00     0.020 A 
ATOM     42  C   UNL A   1      44.234  35.003  31.510  1.00  0.00     0.020 A 
ATOM     43  C   UNL A   1      43.883  35.279  32.832  1.00  0.00     0.054 A 
BRANCH  43  44
ATOM     44  S   UNL A   1      44.007  36.967  33.486  1.00  0.00     0.124 S 
ATOM     45  O   UNL A   1      42.773  37.079  34.261  1.00  0.00    -0.237 OA
ATOM     46  O   UNL A   1      45.237  36.918  34.271  1.00  0.00    -0.237 OA
ATOM     47  O   UNL A   1      44.067  37.802  32.288  1.00  0.00    -0.744 OA
ENDBRANCH  43  44
ENDBRANCH  24  38
BRANCH  25  48
ATOM     48  C   UNL A   1      42.426  23.583  27.831  1.00  0.00    -0.014 A 
ATOM     49  C   UNL A   1      42.762  23.369  26.484  1.00  0.00     0.010 A 
ATOM     50  C   UNL A   1      41.960  22.499  28.601  1.00  0.00     0.010 A 
ATOM     51  C   UNL A   1      42.630  22.099  25.916  1.00  0.00     0.020 A 
ATOM     52  C   UNL A   1      41.858  21.223  28.046  1.00  0.00     0.020 A 
ATOM     53  C   UNL A   1      42.185  21.031  26.703  1.00  0.00     0.054 A 
BRANCH  53  54
ATOM     54  S   UNL A   1      42.088  19.379  25.962  1.00  0.00     0.124 S 
ATOM     55  O   UNL A   1      42.918  19.531  24.771  1.00  0.00    -0.237 OA
ATOM     56  O   UNL A   1      42.639  18.529  27.014  1.00  0.00    -0.237 OA
ATOM     57  O   UNL A   1      40.659  19.200  25.712  1.00  0.00    -0.744 OA
ENDBRANCH  53  54
ENDBRANCH  25  48
BRANCH  37  58
ATOM     58  C   UNL A   1      47.765  26.804  30.976  1.00  0.00    -0.014 A 
ATOM     59  C   UNL A   1      48.830  26.991  30.077  1.00  0.00     0.010 A 
ATOM     60  C   UNL A   1      48.025  26.247  32.241  1.00  0.00     0.010 A 
ATOM     61  C   UNL A   1      50.126  26.603  30.429  1.00  0.00     0.020 A 
ATOM     62  C   UNL A   1      49.323  25.885  32.608  1.00  0.00     0.020 A 
ATOM     63  C   UNL A   1      50.364  26.055  31.694  1.00  0.00     0.054 A 
BRANCH  63  64
ATOM     64  S   UNL A   1      52.063  25.610  32.146  1.00  0.00     0.124 S 
ATOM     65  O   UNL A   1      52.826  26.124  31.012  1.00  0.00    -0.237 OA
ATOM     66  O   UNL A   1      52.256  26.321  33.407  1.00  0.00    -0.237 OA
ATOM     67  O   UNL A   1      52.021  24.153  32.260  1.00  0.00    -0.744 OA
ENDBRANCH  63  64
ENDBRANCH  37  58
ENDBRANCH  11  12
ENDBRANCH   4   6
ENDBRANCH   1   2
BRANCH   1  68
ATOM     68  C   UNL A   1      32.763  27.283  26.139  1.00  0.00     0.042 C 
BRANCH  68  69
ATOM     69  C   UNL A   1      33.054  25.805  25.937  1.00  0.00     0.117 C 
BRANCH  69  70
ATOM     70  N   UNL A   1      33.704  25.510  24.667  1.00  0.00    -0.355 N 
ATOM     71  C   UNL A   1      34.310  24.394  24.183  1.00  0.00     0.228 C 
ATOM     72  H   UNL A   1      33.703  26.266  24.037  1.00  0.00     0.163 HD
ATOM     73  O   UNL A   1      34.685  24.425  23.006  1.00  0.00    -0.274 OA
BRANCH  71  74
ATOM     74  C   UNL A   1      34.607  23.164  25.018  1.00  0.00     0.122 C 
ATOM     75  C   UNL A   1      36.034  22.927  25.418  1.00  0.00    -0.031 A 
ATOM     76  C   UNL A   1      34.251  21.864  24.272  1.00  0.00     0.096 C 
ATOM     77  C   UNL A   1      36.974  23.843  25.867  1.00  0.00     0.005 A 
ATOM     78  C   UNL A   1      36.366  21.577  25.251  1.00  0.00    -0.043 A 
ATOM     79  C   UNL A   1      35.169  20.776  24.848  1.00  0.00     0.050 C 
ATOM     80  C   UNL A   1      38.282  23.402  26.069  1.00  0.00     0.000 A 
ATOM     81  C   UNL A   1      37.658  21.129  25.462  1.00  0.00     0.004 A 
ATOM     82  C   UNL A   1      38.625  22.057  25.854  1.00  0.00     0.000 A 
BRANCH  76  83
ATOM     83  P   UNL A   1      32.509  21.478  24.224  1.00  0.00     0.188 P 
ATOM     84  S   UNL A   1      31.324  22.222  25.541  1.00  0.00    -0.037 S 
BRANCH  83  85
ATOM     85  O   UNL A   1      32.058  21.902  22.736  1.00  0.00    -0.345 OA
ATOM     86  H   UNL A   1      32.687  21.542  22.092  1.00  0.00     0.219 HD
ENDBRANCH  83  85
BRANCH  83  87
ATOM     87  O   UNL A   1      32.391  19.890  24.015  1.00  0.00    -0.345 OA
ATOM     88  H   UNL A   1      31.482  19.607  24.199  1.00  0.00     0.219 HD
ENDBRANCH  83  87
ENDBRANCH  76  83
ENDBRANCH  71  74
ENDBRANCH  69  70
ENDBRANCH  68  69
ENDBRANCH   1  68
TORSDOF 16
ENDMDL
MODEL 2
REMARK VINA RESULT:     -12.0      4.442     10.200
REMARK SMILES O=C(NCCCNC(=O)[C@@H]1c2ccccc2C[C@H]1P(O)(O)=S)c1ccc(-c2c3nc(c(-c4ccc(S(=O)(=O)[O-])cc4)c4ccc([nH]4)c(-c4ccc(S(=O)(=O)[O-])cc4)c4nc(c(-c5ccc(S(=O)(=O)[O-])cc5)c5ccc2[nH]5)C=C4)C=C3)cc1
REMARK SMILES IDX 4 1 3 2 1 3 2 4 23 6 24 7 82 8 25 9 81 10 26 11 27 12 28 13
REMARK SMILES IDX 75 14 29 15 80 16 74 17 76 18 30 19 79 20 73 21 72 22 31 24
REMARK SMILES IDX 61 25 42 26 60 27 43 28 46 29 59 30 77 31 44 32 45 33 58 35
REMARK SMILES IDX 78 36 47 37 32 38 33 39 41 40 34 41 40 42 35 43 36 44 37 45
REMARK SMILES IDX 38 46 39 47 62 48 63 49 71 50 64 51 70 52 65 53 66 54 67 55
REMARK SMILES IDX 68 56 69 57 48 58 49 59 57 60 50 61 56 62 51 63 52 64 53 65
REMARK SMILES IDX 54 66 55 67 5 68 6 69 7 70 8 71 9 73 10 74 11 75 18 76 12 77
REMARK SMILES IDX 16 78 17 79 13 80 15 81 14 82 19 83 22 84 20 85 21 87
REMARK H PARENT 3 5 76 23 46 34 7 72 20 86 21 88
REMARK Flexibility Score: inf
ROOT
ATOM      1  C   UNL A   1      38.407  24.117  26.539  1.00  0.00     0.118 C 
ENDROOT
BRANCH   1   2
ATOM      2  N   UNL A   1      39.804  23.937  26.163  1.00  0.00    -0.352 N 
ATOM      3  O   UNL A   1      41.974  24.475  25.929  1.00  0.00    -0.269 OA
ATOM      4  C   UNL A   1      40.917  24.648  26.536  1.00  0.00     0.251 C 
ATOM      5  H   UNL A   1      39.974  23.189  25.546  1.00  0.00     0.163 HD
BRANCH   4   6
ATOM      6  C   UNL A   1      40.848  25.630  27.640  1.00  0.00     0.039 A 
ATOM      7  C   UNL A   1      39.792  25.608  28.553  1.00  0.00     0.014 A 
ATOM      8  C   UNL A   1      41.873  26.569  27.784  1.00  0.00     0.014 A 
ATOM      9  C   UNL A   1      39.670  26.618  29.499  1.00  0.00     0.010 A 
ATOM     10  C   UNL A   1      41.804  27.521  28.805  1.00  0.00     0.010 A 
ATOM     11  C   UNL A   1      40.685  27.575  29.652  1.00  0.00    -0.014 A 
BRANCH  11  12
ATOM     12  C   UNL A   1      40.589  28.578  30.742  1.00  0.00     0.031 A 
ATOM     13  C   UNL A   1      41.498  28.513  31.939  1.00  0.00     0.074 A 
ATOM     14  C   UNL A   1      39.671  29.561  30.641  1.00  0.00     0.049 A 
ATOM     15  N   UNL A   1      41.530  29.292  32.990  1.00  0.00    -0.248 NA
ATOM     16  C   UNL A   1      42.493  27.430  31.965  1.00  0.00     0.031 C 
ATOM     17  C   UNL A   1      38.737  29.730  29.525  1.00  0.00     0.029 A 
ATOM     18  N   UNL A   1      39.378  30.606  31.480  1.00  0.00    -0.354 N 
ATOM     19  C   UNL A   1      42.528  28.783  33.813  1.00  0.00     0.074 A 
ATOM     20  C   UNL A   1      43.060  27.612  33.150  1.00  0.00     0.031 C 
ATOM     21  C   UNL A   1      38.003  30.833  29.729  1.00  0.00     0.029 A 
ATOM     22  C   UNL A   1      38.360  31.406  31.021  1.00  0.00     0.049 A 
ATOM     23  H   UNL A   1      39.851  30.766  32.328  1.00  0.00     0.167 HD
ATOM     24  C   UNL A   1      42.961  29.252  35.009  1.00  0.00     0.031 A 
ATOM     25  C   UNL A   1      37.757  32.470  31.584  1.00  0.00     0.031 A 
ATOM     26  C   UNL A   1      42.418  30.415  35.664  1.00  0.00     0.049 A 
ATOM     27  C   UNL A   1      38.223  32.942  32.930  1.00  0.00     0.074 A 
ATOM     28  C   UNL A   1      42.805  30.986  36.864  1.00  0.00     0.029 A 
ATOM     29  N   UNL A   1      41.366  31.181  35.179  1.00  0.00    -0.354 N 
ATOM     30  N   UNL A   1      39.187  32.463  33.680  1.00  0.00    -0.248 NA
ATOM     31  C   UNL A   1      37.527  34.100  33.503  1.00  0.00     0.031 C 
ATOM     32  C   UNL A   1      41.949  32.059  37.134  1.00  0.00     0.029 A 
ATOM     33  C   UNL A   1      41.074  32.202  36.068  1.00  0.00     0.049 A 
ATOM     34  H   UNL A   1      40.898  31.022  34.328  1.00  0.00     0.167 HD
ATOM     35  C   UNL A   1      39.228  33.277  34.805  1.00  0.00     0.074 A 
ATOM     36  C   UNL A   1      38.202  34.285  34.629  1.00  0.00     0.031 C 
ATOM     37  C   UNL A   1      40.047  33.198  35.883  1.00  0.00     0.031 A 
BRANCH  24  38
ATOM     38  C   UNL A   1      44.053  28.480  35.707  1.00  0.00    -0.014 A 
ATOM     39  C   UNL A   1      43.758  27.446  36.613  1.00  0.00     0.010 A 
ATOM     40  C   UNL A   1      45.401  28.776  35.427  1.00  0.00     0.010 A 
ATOM     41  C   UNL A   1      44.788  26.760  37.265  1.00  0.00     0.020 A 
ATOM     42  C   UNL A   1      46.434  28.073  36.054  1.00  0.00     0.020 A 
ATOM     43  C   UNL A   1      46.119  27.083  36.986  1.00  0.00     0.054 A 
BRANCH  43  44
ATOM     44  S   UNL A   1      47.433  26.179  37.851  1.00  0.00     0.124 S 
ATOM     45  O   UNL A   1      47.109  24.793  37.525  1.00  0.00    -0.237 OA
ATOM     46  O   UNL A   1      48.646  26.702  37.228  1.00  0.00    -0.237 OA
ATOM     47  O   UNL A   1      47.247  26.548  39.253  1.00  0.00    -0.744 OA
ENDBRANCH  43  44
ENDBRANCH  24  38
BRANCH  25  48
ATOM     48  C   UNL A   1      36.636  33.139  30.869  1.00  0.00    -0.014 A 
ATOM     49  C   UNL A   1      35.305  32.925  31.263  1.00  0.00     0.010 A 
ATOM     50  C   UNL A   1      36.904  34.038  29.818  1.00  0.00     0.010 A 
ATOM     51  C   UNL A   1      34.261  33.592  30.615  1.00  0.00     0.020 A 
ATOM     52  C   UNL A   1      35.867  34.729  29.191  1.00  0.00     0.020 A 
ATOM     53  C   UNL A   1      34.549  34.495  29.587  1.00  0.00     0.054 A 
BRANCH  53  54
ATOM     54  S   UNL A   1      33.183  35.399  28.809  1.00  0.00     0.124 S 
ATOM     55  O   UNL A   1      33.893  36.374  27.986  1.00  0.00    -0.237 OA
ATOM     56  O   UNL A   1      32.483  34.345  28.080  1.00  0.00    -0.237 OA
ATOM     57  O   UNL A   1      32.449  35.954  29.944  1.00  0.00    -0.744 OA
ENDBRANCH  53  54
ENDBRANCH  25  48
BRANCH  37  58
ATOM     58  C   UNL A   1      39.896  34.255  36.944  1.00  0.00    -0.014 A 
ATOM     59  C   UNL A   1      40.513  35.513  36.820  1.00  0.00     0.010 A 
ATOM     60  C   UNL A   1      39.076  34.000  38.059  1.00  0.00     0.010 A 
ATOM     61  C   UNL A   1      40.333  36.487  37.806  1.00  0.00     0.020 A 
ATOM     62  C   UNL A   1      38.869  34.981  39.031  1.00  0.00     0.020 A 
ATOM     63  C   UNL A   1      39.509  36.215  38.904  1.00  0.00     0.054 A 
BRANCH  63  64
ATOM     64  S   UNL A   1      39.249  37.515  40.142  1.00  0.00     0.124 S 
ATOM     65  O   UNL A   1      38.866  36.742  41.320  1.00  0.00    -0.237 OA
ATOM     66  O   UNL A   1      40.559  38.158  40.212  1.00  0.00    -0.237 OA
ATOM     67  O   UNL A   1      38.188  38.338  39.564  1.00  0.00    -0.744 OA
ENDBRANCH  63  64
ENDBRANCH  37  58
ENDBRANCH  11  12
ENDBRANCH   4   6
ENDBRANCH   1   2
BRANCH   1  68
ATOM     68  C   UNL A   1      37.455  23.548  25.501  1.00  0.00     0.042 C 
BRANCH  68  69
ATOM     69  C   UNL A   1      37.117  22.084  25.727  1.00  0.00     0.117 C 
BRANCH  69  70
ATOM     70  N   UNL A   1      35.893  21.882  26.491  1.00  0.00    -0.355 N 
ATOM     71  C   UNL A   1      34.665  21.413  26.151  1.00  0.00     0.228 C 
ATOM     72  H   UNL A   1      35.972  22.135  27.439  1.00  0.00     0.163 HD
ATOM     73  O   UNL A   1      33.846  21.264  27.065  1.00  0.00    -0.274 OA
BRANCH  71  74
ATOM     74  C   UNL A   1      34.232  21.135  24.724  1.00  0.00     0.122 C 
ATOM     75  C   UNL A   1      33.882  22.316  23.865  1.00  0.00    -0.031 A 
ATOM     76  C   UNL A   1      32.944  20.292  24.669  1.00  0.00     0.096 C 
ATOM     77  C   UNL A   1      34.532  23.537  23.762  1.00  0.00     0.005 A 
ATOM     78  C   UNL A   1      32.718  22.054  23.134  1.00  0.00    -0.043 A 
ATOM     79  C   UNL A   1      32.258  20.646  23.342  1.00  0.00     0.050 C 
ATOM     80  C   UNL A   1      33.948  24.531  22.975  1.00  0.00     0.000 A 
ATOM     81  C   UNL A   1      32.140  23.029  22.341  1.00  0.00     0.004 A 
ATOM     82  C   UNL A   1      32.753  24.283  22.281  1.00  0.00     0.000 A 
BRANCH  76  83
ATOM     83  P   UNL A   1      33.171  18.552  24.997  1.00  0.00     0.188 P 
ATOM     84  S   UNL A   1      34.816  17.689  24.507  1.00  0.00    -0.037 S 
BRANCH  83  85
ATOM     85  O   UNL A   1      32.896  18.416  26.579  1.00  0.00    -0.345 OA
ATOM     86  H   UNL A   1      31.959  18.586  26.761  1.00  0.00     0.219 HD
ENDBRANCH  83  85
BRANCH  83  87
ATOM     87  O   UNL A   1      31.834  17.809  24.505  1.00  0.00    -0.345 OA
ATOM     88  H   UNL A   1      31.395  17.397  25.266  1.00  0.00     0.219 HD
ENDBRANCH  83  87
ENDBRANCH  76  83
ENDBRANCH  71  74
ENDBRANCH  69  70
ENDBRANCH  68  69
ENDBRANCH   1  68
TORSDOF 16
ENDMDL
MODEL 3
REMARK VINA RESULT:     -11.8      2.862      9.480
REMARK SMILES O=C(NCCCNC(=O)[C@@H]1c2ccccc2C[C@H]1P(O)(O)=S)c1ccc(-c2c3nc(c(-c4ccc(S(=O)(=O)[O-])cc4)c4ccc([nH]4)c(-c4ccc(S(=O)(=O)[O-])cc4)c4nc(c(-c5ccc(S(=O)(=O)[O-])cc5)c5ccc2[nH]5)C=C4)C=C3)cc1
REMARK SMILES IDX 4 1 3 2 1 3 2 4 23 6 24 7 82 8 25 9 81 10 26 11 27 12 28 13
REMARK SMILES IDX 75 14 29 15 80 16 74 17 76 18 30 19 79 20 73 21 72 22 31 24
REMARK SMILES IDX 61 25 42 26 60 27 43 28 46 29 59 30 77 31 44 32 45 33 58 35
REMARK SMILES IDX 78 36 47 37 32 38 33 39 41 40 34 41 40 42 35 43 36 44 37 45
REMARK SMILES IDX 38 46 39 47 62 48 63 49 71 50 64 51 70 52 65 53 66 54 67 55
REMARK SMILES IDX 68 56 69 57 48 58 49 59 57 60 50 61 56 62 51 63 52 64 53 65
REMARK SMILES IDX 54 66 55 67 5 68 6 69 7 70 8 71 9 73 10 74 11 75 18 76 12 77
REMARK SMILES IDX 16 78 17 79 13 80 15 81 14 82 19 83 22 84 20 85 21 87
REMARK H PARENT 3 5 76 23 46 34 7 72 20 86 21 88
REMARK Flexibility Score: inf
ROOT
ATOM      1  C   UNL A   1      36.482  24.005  25.395  1.00  0.00     0.118 C 
ENDROOT
BRANCH   1   2
ATOM      2  N   UNL A   1      37.432  22.929  25.650  1.00  0.00    -0.352 N 
ATOM      3  O   UNL A   1      39.420  21.982  26.106  1.00  0.00    -0.269 OA
ATOM      4  C   UNL A   1      38.695  22.974  26.186  1.00  0.00     0.251 C 
ATOM      5  H   UNL A   1      37.118  22.030  25.398  1.00  0.00     0.163 HD
BRANCH   4   6
ATOM      6  C   UNL A   1      39.194  24.208  26.833  1.00  0.00     0.039 A 
ATOM      7  C   UNL A   1      38.923  24.471  28.176  1.00  0.00     0.014 A 
ATOM      8  C   UNL A   1      39.971  25.102  26.092  1.00  0.00     0.014 A 
ATOM      9  C   UNL A   1      39.281  25.694  28.731  1.00  0.00     0.010 A 
ATOM     10  C   UNL A   1      40.423  26.285  26.683  1.00  0.00     0.010 A 
ATOM     11  C   UNL A   1      40.054  26.607  27.999  1.00  0.00    -0.014 A 
BRANCH  11  12
ATOM     12  C   UNL A   1      40.521  27.859  28.647  1.00  0.00     0.031 A 
ATOM     13  C   UNL A   1      41.925  27.985  29.170  1.00  0.00     0.074 A 
ATOM     14  C   UNL A   1      39.662  28.892  28.757  1.00  0.00     0.049 A 
ATOM     15  N   UNL A   1      42.486  28.996  29.784  1.00  0.00    -0.248 NA
ATOM     16  C   UNL A   1      42.814  26.827  28.988  1.00  0.00     0.031 C 
ATOM     17  C   UNL A   1      38.274  28.890  28.283  1.00  0.00     0.029 A 
ATOM     18  N   UNL A   1      39.827  30.145  29.290  1.00  0.00    -0.354 N 
ATOM     19  C   UNL A   1      43.782  28.590  30.084  1.00  0.00     0.074 A 
ATOM     20  C   UNL A   1      43.915  27.230  29.606  1.00  0.00     0.031 C 
ATOM     21  C   UNL A   1      37.729  30.092  28.512  1.00  0.00     0.029 A 
ATOM     22  C   UNL A   1      38.699  30.925  29.213  1.00  0.00     0.049 A 
ATOM     23  H   UNL A   1      40.671  30.454  29.690  1.00  0.00     0.167 HD
ATOM     24  C   UNL A   1      44.767  29.289  30.698  1.00  0.00     0.031 A 
ATOM     25  C   UNL A   1      38.455  32.165  29.677  1.00  0.00     0.031 A 
ATOM     26  C   UNL A   1      44.620  30.640  31.177  1.00  0.00     0.049 A 
ATOM     27  C   UNL A   1      39.548  32.901  30.394  1.00  0.00     0.074 A 
ATOM     28  C   UNL A   1      45.567  31.443  31.789  1.00  0.00     0.029 A 
ATOM     29  N   UNL A   1      43.451  31.385  31.106  1.00  0.00    -0.354 N 
ATOM     30  N   UNL A   1      40.775  32.510  30.645  1.00  0.00    -0.248 NA
ATOM     31  C   UNL A   1      39.227  34.246  30.887  1.00  0.00     0.031 C 
ATOM     32  C   UNL A   1      44.953  32.650  32.143  1.00  0.00     0.029 A 
ATOM     33  C   UNL A   1      43.644  32.627  31.687  1.00  0.00     0.049 A 
ATOM     34  H   UNL A   1      42.608  31.075  30.701  1.00  0.00     0.167 HD
ATOM     35  C   UNL A   1      41.381  33.572  31.304  1.00  0.00     0.074 A 
ATOM     36  C   UNL A   1      40.390  34.624  31.401  1.00  0.00     0.031 C 
ATOM     37  C   UNL A   1      42.647  33.666  31.781  1.00  0.00     0.031 A 
BRANCH  24  38
ATOM     38  C   UNL A   1      46.084  28.587  30.922  1.00  0.00    -0.014 A 
ATOM     39  C   UNL A   1      47.126  28.663  29.980  1.00  0.00     0.010 A 
ATOM     40  C   UNL A   1      46.293  27.864  32.112  1.00  0.00     0.010 A 
ATOM     41  C   UNL A   1      48.329  27.984  30.199  1.00  0.00     0.020 A 
ATOM     42  C   UNL A   1      47.506  27.209  32.348  1.00  0.00     0.020 A 
ATOM     43  C   UNL A   1      48.509  27.257  31.379  1.00  0.00     0.054 A 
BRANCH  43  44
ATOM     44  S   UNL A   1      50.078  26.384  31.633  1.00  0.00     0.124 S 
ATOM     45  O   UNL A   1      50.427  25.990  30.270  1.00  0.00    -0.237 OA
ATOM     46  O   UNL A   1      50.928  27.415  32.224  1.00  0.00    -0.237 OA
ATOM     47  O   UNL A   1      49.725  25.283  32.527  1.00  0.00    -0.744 OA
ENDBRANCH  43  44
ENDBRANCH  24  38
BRANCH  25  48
ATOM     48  C   UNL A   1      37.108  32.768  29.482  1.00  0.00    -0.014 A 
ATOM     49  C   UNL A   1      36.191  32.833  30.544  1.00  0.00     0.010 A 
ATOM     50  C   UNL A   1      36.757  33.327  28.238  1.00  0.00     0.010 A 
ATOM     51  C   UNL A   1      34.945  33.440  30.365  1.00  0.00     0.020 A 
ATOM     52  C   UNL A   1      35.526  33.963  28.065  1.00  0.00     0.020 A 
ATOM     53  C   UNL A   1      34.623  34.008  29.128  1.00  0.00     0.054 A 
BRANCH  53  54
ATOM     54  S   UNL A   1      33.028  34.851  28.941  1.00  0.00     0.124 S 
ATOM     55  O   UNL A   1      32.528  34.862  30.312  1.00  0.00    -0.237 OA
ATOM     56  O   UNL A   1      33.420  36.149  28.398  1.00  0.00    -0.237 OA
ATOM     57  O   UNL A   1      32.294  33.992  28.013  1.00  0.00    -0.744 OA
ENDBRANCH  53  54
ENDBRANCH  25  48
BRANCH  37  58
ATOM     58  C   UNL A   1      43.051  34.968  32.418  1.00  0.00    -0.014 A 
ATOM     59  C   UNL A   1      43.624  36.008  31.664  1.00  0.00     0.010 A 
ATOM     60  C   UNL A   1      42.798  35.173  33.787  1.00  0.00     0.010 A 
ATOM     61  C   UNL A   1      43.963  37.219  32.275  1.00  0.00     0.020 A 
ATOM     62  C   UNL A   1      43.107  36.392  34.395  1.00  0.00     0.020 A 
ATOM     63  C   UNL A   1      43.699  37.403  33.636  1.00  0.00     0.054 A 
BRANCH  63  64
ATOM     64  S   UNL A   1      44.098  39.002  34.393  1.00  0.00     0.124 S 
ATOM     65  O   UNL A   1      43.001  39.845  33.925  1.00  0.00    -0.237 OA
ATOM     66  O   UNL A   1      44.086  38.693  35.821  1.00  0.00    -0.237 OA
ATOM     67  O   UNL A   1      45.412  39.328  33.844  1.00  0.00    -0.744 OA
ENDBRANCH  63  64
ENDBRANCH  37  58
ENDBRANCH  11  12
ENDBRANCH   4   6
ENDBRANCH   1   2
BRANCH   1  68
ATOM     68  C   UNL A   1      35.041  23.532  25.481  1.00  0.00     0.042 C 
BRANCH  68  69
ATOM     69  C   UNL A   1      34.039  24.541  24.948  1.00  0.00     0.117 C 
BRANCH  69  70
ATOM     70  N   UNL A   1      32.970  24.849  25.888  1.00  0.00    -0.355 N 
ATOM     71  C   UNL A   1      32.160  25.930  26.038  1.00  0.00     0.228 C 
ATOM     72  H   UNL A   1      32.800  24.134  26.543  1.00  0.00     0.163 HD
ATOM     73  O   UNL A   1      31.265  25.849  26.885  1.00  0.00    -0.274 OA
BRANCH  71  74
ATOM     74  C   UNL A   1      32.343  27.232  25.282  1.00  0.00     0.122 C 
ATOM     75  C   UNL A   1      32.913  28.397  26.039  1.00  0.00    -0.031 A 
ATOM     76  C   UNL A   1      31.002  27.793  24.773  1.00  0.00     0.096 C 
ATOM     77  C   UNL A   1      33.963  28.413  26.946  1.00  0.00     0.005 A 
ATOM     78  C   UNL A   1      32.204  29.565  25.737  1.00  0.00    -0.043 A 
ATOM     79  C   UNL A   1      31.186  29.314  24.670  1.00  0.00     0.050 C 
ATOM     80  C   UNL A   1      34.239  29.607  27.615  1.00  0.00     0.000 A 
ATOM     81  C   UNL A   1      32.480  30.755  26.385  1.00  0.00     0.004 A 
ATOM     82  C   UNL A   1      33.494  30.766  27.346  1.00  0.00     0.000 A 
BRANCH  76  83
ATOM     83  P   UNL A   1      30.350  26.980  23.324  1.00  0.00     0.188 P 
ATOM     84  S   UNL A   1      31.498  25.888  22.237  1.00  0.00    -0.037 S 
BRANCH  83  85
ATOM     85  O   UNL A   1      29.103  26.128  23.884  1.00  0.00    -0.345 OA
ATOM     86  H   UNL A   1      29.213  25.195  23.643  1.00  0.00     0.219 HD
ENDBRANCH  83  85
BRANCH  83  87
ATOM     87  O   UNL A   1      29.489  28.077  22.524  1.00  0.00    -0.345 OA
ATOM     88  H   UNL A   1      29.242  28.795  23.128  1.00  0.00     0.219 HD
ENDBRANCH  83  87
ENDBRANCH  76  83
ENDBRANCH  71  74
ENDBRANCH  69  70
ENDBRANCH  68  69
ENDBRANCH   1  68
TORSDOF 16
ENDMDL
