MODEL 1
REMARK VINA RESULT:     -12.1      0.000      0.000
REMARK SMILES C[C@@H]1CN(C(=O)Nc2ccc(O)c(C(=O)NCCCNC(=O)c3ccc(-c4c5nc(c(-c6ccc(S(=O)(=O)[O-])cc6)c6ccc([nH]6)c(-c6ccc(S(=O)(=O)[O-])cc6)c6nc(c(-c7ccc(S(=O)(=O)[O-])cc7)c7ccc4[nH]7)C=C6)C=C5)cc3)c2)C[C@@H]1C
REMARK SMILES IDX 18 1 17 2 16 3 14 4 15 5 13 7 8 8 9 9 83 10 10 11 11 12 7 13
REMARK SMILES IDX 5 14 6 15 4 17 1 18 2 19 3 20 85 21 84 22 86 23 12 24 19 26
REMARK SMILES IDX 20 27 21 28 22 30 23 31 24 32 82 33 25 34 81 35 26 36 27 37
REMARK SMILES IDX 28 38 75 39 29 40 80 41 74 42 76 43 30 44 79 45 73 46 72 47
REMARK SMILES IDX 31 49 61 50 42 51 60 52 43 53 46 54 59 55 77 56 44 57 45 58
REMARK SMILES IDX 58 60 78 61 47 62 32 63 33 64 41 65 34 66 40 67 35 68 36 69
REMARK SMILES IDX 37 70 38 71 39 72 62 73 63 74 71 75 64 76 70 77 65 78 66 79
REMARK SMILES IDX 67 80 68 81 69 82 48 83 49 84 57 85 50 86 56 87 51 88 52 89
REMARK SMILES IDX 53 90 54 91 55 92
REMARK H PARENT 16 6 7 16 12 25 20 29 76 48 46 59
REMARK Flexibility Score: inf
ROOT
ATOM      1  C   UNL A   1      37.553  23.404  25.666  1.00  0.00     0.042 C 
ENDROOT
BRANCH   1   2
ATOM      2  C   UNL A   1      36.063  23.695  25.840  1.00  0.00     0.118 C 
BRANCH   2   3
ATOM      3  N   UNL A   1      35.382  22.606  26.510  1.00  0.00    -0.352 N 
ATOM      4  C   UNL A   1      34.086  22.166  26.474  1.00  0.00     0.255 C 
ATOM      5  O   UNL A   1      33.828  21.160  27.143  1.00  0.00    -0.269 OA
ATOM      6  H   UNL A   1      35.964  22.082  27.108  1.00  0.00     0.163 HD
BRANCH   4   7
ATOM      7  C   UNL A   1      32.997  22.738  25.632  1.00  0.00     0.083 A 
ATOM      8  C   UNL A   1      32.471  23.549  23.388  1.00  0.00     0.043 A 
ATOM      9  C   UNL A   1      31.130  23.676  23.737  1.00  0.00     0.030 A 
ATOM     10  C   UNL A   1      33.376  23.009  24.300  1.00  0.00     0.044 A 
ATOM     11  C   UNL A   1      30.729  23.405  25.041  1.00  0.00     0.049 A 
ATOM     12  C   UNL A   1      31.662  22.967  25.989  1.00  0.00     0.128 A 
BRANCH   8  13
ATOM     13  N   UNL A   1      32.946  23.946  22.135  1.00  0.00    -0.308 N 
ATOM     14  C   UNL A   1      32.850  25.140  21.483  1.00  0.00     0.321 C 
ATOM     15  O   UNL A   1      32.963  25.133  20.255  1.00  0.00    -0.248 OA
ATOM     16  H   UNL A   1      33.430  23.247  21.641  1.00  0.00     0.171 HD
BRANCH  14  17
ATOM     17  N   UNL A   1      32.797  26.316  22.196  1.00  0.00    -0.324 N 
ATOM     18  C   UNL A   1      31.116  28.566  24.634  1.00  0.00     0.010 C 
ATOM     19  C   UNL A   1      32.156  28.100  23.630  1.00  0.00     0.010 C 
ATOM     20  C   UNL A   1      31.620  27.036  22.679  1.00  0.00     0.125 C 
ATOM     21  C   UNL A   1      33.444  27.462  24.168  1.00  0.00     0.010 C 
ATOM     22  C   UNL A   1      33.989  26.797  22.891  1.00  0.00     0.125 C 
ATOM     23  C   UNL A   1      33.243  26.430  25.282  1.00  0.00     0.010 C 
ENDBRANCH  14  17
ENDBRANCH   8  13
BRANCH  12  24
ATOM     24  O   UNL A   1      31.192  22.747  27.245  1.00  0.00    -0.507 OA
ATOM     25  H   UNL A   1      31.771  22.441  27.915  1.00  0.00     0.293 HD
ENDBRANCH  12  24
ENDBRANCH   4   7
ENDBRANCH   2   3
ENDBRANCH   1   2
BRANCH   1  26
ATOM     26  C   UNL A   1      38.473  24.236  26.548  1.00  0.00     0.118 C 
BRANCH  26  27
ATOM     27  N   UNL A   1      39.851  24.204  26.096  1.00  0.00    -0.352 N 
ATOM     28  C   UNL A   1      40.909  25.017  26.423  1.00  0.00     0.251 C 
ATOM     29  H   UNL A   1      40.061  23.488  25.453  1.00  0.00     0.163 HD
ATOM     30  O   UNL A   1      41.940  24.940  25.758  1.00  0.00    -0.269 OA
BRANCH  28  31
ATOM     31  C   UNL A   1      40.828  25.986  27.546  1.00  0.00     0.039 A 
ATOM     32  C   UNL A   1      39.831  25.803  28.511  1.00  0.00     0.014 A 
ATOM     33  C   UNL A   1      41.662  27.105  27.627  1.00  0.00     0.014 A 
ATOM     34  C   UNL A   1      39.693  26.714  29.563  1.00  0.00     0.010 A 
ATOM     35  C   UNL A   1      41.576  27.970  28.718  1.00  0.00     0.010 A 
ATOM     36  C   UNL A   1      40.576  27.798  29.686  1.00  0.00    -0.014 A 
BRANCH  36  37
ATOM     37  C   UNL A   1      40.438  28.779  30.794  1.00  0.00     0.031 A 
ATOM     38  C   UNL A   1      41.321  28.675  32.012  1.00  0.00     0.074 A 
ATOM     39  C   UNL A   1      39.495  29.739  30.728  1.00  0.00     0.049 A 
ATOM     40  N   UNL A   1      41.329  29.413  33.091  1.00  0.00    -0.248 NA
ATOM     41  C   UNL A   1      42.309  27.583  32.026  1.00  0.00     0.031 C 
ATOM     42  C   UNL A   1      38.553  29.925  29.622  1.00  0.00     0.029 A 
ATOM     43  N   UNL A   1      39.174  30.740  31.610  1.00  0.00    -0.354 N 
ATOM     44  C   UNL A   1      42.302  28.865  33.920  1.00  0.00     0.074 A 
ATOM     45  C   UNL A   1      42.834  27.706  33.237  1.00  0.00     0.031 C 
ATOM     46  C   UNL A   1      37.777  30.990  29.882  1.00  0.00     0.029 A 
ATOM     47  C   UNL A   1      38.144  31.544  31.181  1.00  0.00     0.049 A 
ATOM     48  H   UNL A   1      39.638  30.870  32.469  1.00  0.00     0.167 HD
ATOM     49  C   UNL A   1      42.731  29.296  35.132  1.00  0.00     0.031 A 
ATOM     50  C   UNL A   1      37.560  32.609  31.766  1.00  0.00     0.031 A 
ATOM     51  C   UNL A   1      42.217  30.461  35.802  1.00  0.00     0.049 A 
ATOM     52  C   UNL A   1      38.069  33.084  33.099  1.00  0.00     0.074 A 
ATOM     53  C   UNL A   1      42.617  31.008  37.008  1.00  0.00     0.029 A 
ATOM     54  N   UNL A   1      41.194  31.262  35.319  1.00  0.00    -0.354 N 
ATOM     55  N   UNL A   1      39.025  32.581  33.842  1.00  0.00    -0.248 NA
ATOM     56  C   UNL A   1      37.431  34.281  33.664  1.00  0.00     0.031 C 
ATOM     57  C   UNL A   1      41.812  32.121  37.272  1.00  0.00     0.029 A 
ATOM     58  C   UNL A   1      40.943  32.295  36.206  1.00  0.00     0.049 A 
ATOM     59  H   UNL A   1      40.716  31.119  34.469  1.00  0.00     0.167 HD
ATOM     60  C   UNL A   1      39.124  33.417  34.949  1.00  0.00     0.074 A 
ATOM     61  C   UNL A   1      38.136  34.463  34.772  1.00  0.00     0.031 C 
ATOM     62  C   UNL A   1      39.960  33.330  36.012  1.00  0.00     0.031 A 
BRANCH  49  63
ATOM     63  C   UNL A   1      43.811  28.495  35.812  1.00  0.00    -0.014 A 
ATOM     64  C   UNL A   1      45.171  28.797  35.613  1.00  0.00     0.010 A 
ATOM     65  C   UNL A   1      43.463  27.446  36.682  1.00  0.00     0.010 A 
ATOM     66  C   UNL A   1      46.163  28.035  36.236  1.00  0.00     0.020 A 
ATOM     67  C   UNL A   1      44.453  26.699  37.328  1.00  0.00     0.020 A 
ATOM     68  C   UNL A   1      45.798  26.986  37.086  1.00  0.00     0.054 A 
BRANCH  68  69
ATOM     69  S   UNL A   1      47.105  26.021  37.891  1.00  0.00     0.124 S 
ATOM     70  O   UNL A   1      48.091  27.053  38.204  1.00  0.00    -0.237 OA
ATOM     71  O   UNL A   1      46.416  25.441  39.041  1.00  0.00    -0.237 OA
ATOM     72  O   UNL A   1      47.511  25.063  36.865  1.00  0.00    -0.744 OA
ENDBRANCH  68  69
ENDBRANCH  49  63
BRANCH  50  73
ATOM     73  C   UNL A   1      36.452  33.318  31.073  1.00  0.00    -0.014 A 
ATOM     74  C   UNL A   1      35.198  33.457  31.693  1.00  0.00     0.010 A 
ATOM     75  C   UNL A   1      36.652  33.880  29.799  1.00  0.00     0.010 A 
ATOM     76  C   UNL A   1      34.158  34.132  31.046  1.00  0.00     0.020 A 
ATOM     77  C   UNL A   1      35.623  34.578  29.160  1.00  0.00     0.020 A 
ATOM     78  C   UNL A   1      34.379  34.691  29.784  1.00  0.00     0.054 A 
BRANCH  78  79
ATOM     79  S   UNL A   1      33.037  35.619  28.989  1.00  0.00     0.124 S 
ATOM     80  O   UNL A   1      32.391  34.588  28.183  1.00  0.00    -0.237 OA
ATOM     81  O   UNL A   1      32.268  36.107  30.131  1.00  0.00    -0.237 OA
ATOM     82  O   UNL A   1      33.740  36.655  28.236  1.00  0.00    -0.744 OA
ENDBRANCH  78  79
ENDBRANCH  50  73
BRANCH  62  83
ATOM     83  C   UNL A   1      39.874  34.417  37.049  1.00  0.00    -0.014 A 
ATOM     84  C   UNL A   1      40.592  35.617  36.909  1.00  0.00     0.010 A 
ATOM     85  C   UNL A   1      39.024  34.248  38.157  1.00  0.00     0.010 A 
ATOM     86  C   UNL A   1      40.486  36.618  37.879  1.00  0.00     0.020 A 
ATOM     87  C   UNL A   1      38.898  35.257  39.116  1.00  0.00     0.020 A 
ATOM     88  C   UNL A   1      39.642  36.430  38.978  1.00  0.00     0.054 A 
BRANCH  88  89
ATOM     89  S   UNL A   1      39.493  37.756  40.206  1.00  0.00     0.124 S 
ATOM     90  O   UNL A   1      38.424  38.573  39.642  1.00  0.00    -0.237 OA
ATOM     91  O   UNL A   1      39.151  37.028  41.427  1.00  0.00    -0.237 OA
ATOM     92  O   UNL A   1      40.817  38.375  40.209  1.00  0.00    -0.744 OA
ENDBRANCH  88  89
ENDBRANCH  62  83
ENDBRANCH  36  37
ENDBRANCH  28  31
ENDBRANCH  26  27
ENDBRANCH   1  26
TORSDOF 16
ENDMDL
MODEL 2
REMARK VINA RESULT:     -12.0      6.225      8.267
REMARK SMILES C[C@@H]1CN(C(=O)Nc2ccc(O)c(C(=O)NCCCNC(=O)c3ccc(-c4c5nc(c(-c6ccc(S(=O)(=O)[O-])cc6)c6ccc([nH]6)c(-c6ccc(S(=O)(=O)[O-])cc6)c6nc(c(-c7ccc(S(=O)(=O)[O-])cc7)c7ccc4[nH]7)C=C6)C=C5)cc3)c2)C[C@@H]1C
REMARK SMILES IDX 18 1 17 2 16 3 14 4 15 5 13 7 8 8 9 9 83 10 10 11 11 12 7 13
REMARK SMILES IDX 5 14 6 15 4 17 1 18 2 19 3 20 85 21 84 22 86 23 12 24 19 26
REMARK SMILES IDX 20 27 21 28 22 30 23 31 24 32 82 33 25 34 81 35 26 36 27 37
REMARK SMILES IDX 28 38 75 39 29 40 80 41 74 42 76 43 30 44 79 45 73 46 72 47
REMARK SMILES IDX 31 49 61 50 42 51 60 52 43 53 46 54 59 55 77 56 44 57 45 58
REMARK SMILES IDX 58 60 78 61 47 62 32 63 33 64 41 65 34 66 40 67 35 68 36 69
REMARK SMILES IDX 37 70 38 71 39 72 62 73 63 74 71 75 64 76 70 77 65 78 66 79
REMARK SMILES IDX 67 80 68 81 69 82 48 83 49 84 57 85 50 86 56 87 51 88 52 89
REMARK SMILES IDX 53 90 54 91 55 92
REMARK H PARENT 16 6 7 16 12 25 20 29 76 48 46 59
REMARK Flexibility Score: inf
ROOT
ATOM      1  C   UNL A   1      38.063  19.691  25.219  1.00  0.00     0.042 C 
ENDROOT
BRANCH   1   2
ATOM      2  C   UNL A   1      36.943  20.647  24.811  1.00  0.00     0.118 C 
BRANCH   2   3
ATOM      3  N   UNL A   1      36.158  21.068  25.954  1.00  0.00    -0.352 N 
ATOM      4  C   UNL A   1      34.859  21.481  26.080  1.00  0.00     0.255 C 
ATOM      5  O   UNL A   1      34.470  21.732  27.226  1.00  0.00    -0.269 OA
ATOM      6  H   UNL A   1      36.656  21.053  26.804  1.00  0.00     0.163 HD
BRANCH   4   7
ATOM      7  C   UNL A   1      33.861  21.563  24.975  1.00  0.00     0.083 A 
ATOM      8  C   UNL A   1      33.371  22.667  22.851  1.00  0.00     0.043 A 
ATOM      9  C   UNL A   1      32.269  21.841  22.664  1.00  0.00     0.030 A 
ATOM     10  C   UNL A   1      34.203  22.473  23.952  1.00  0.00     0.044 A 
ATOM     11  C   UNL A   1      31.916  20.928  23.653  1.00  0.00     0.049 A 
ATOM     12  C   UNL A   1      32.691  20.811  24.813  1.00  0.00     0.128 A 
BRANCH   8  13
ATOM     13  N   UNL A   1      33.680  23.695  21.956  1.00  0.00    -0.308 N 
ATOM     14  C   UNL A   1      33.153  24.945  21.818  1.00  0.00     0.321 C 
ATOM     15  O   UNL A   1      33.278  25.502  20.725  1.00  0.00    -0.248 OA
ATOM     16  H   UNL A   1      34.399  23.480  21.319  1.00  0.00     0.171 HD
BRANCH  14  17
ATOM     17  N   UNL A   1      32.653  25.610  22.914  1.00  0.00    -0.324 N 
ATOM     18  C   UNL A   1      30.787  25.630  26.131  1.00  0.00     0.010 C 
ATOM     19  C   UNL A   1      31.563  26.181  24.947  1.00  0.00     0.010 C 
ATOM     20  C   UNL A   1      31.477  25.284  23.719  1.00  0.00     0.125 C 
ATOM     21  C   UNL A   1      33.074  26.395  25.111  1.00  0.00     0.010 C 
ATOM     22  C   UNL A   1      33.501  26.551  23.641  1.00  0.00     0.125 C 
ATOM     23  C   UNL A   1      33.826  25.241  25.781  1.00  0.00     0.010 C 
ENDBRANCH  14  17
ENDBRANCH   8  13
BRANCH  12  24
ATOM     24  O   UNL A   1      32.266  19.912  25.739  1.00  0.00    -0.507 OA
ATOM     25  H   UNL A   1      31.767  19.165  25.474  1.00  0.00     0.293 HD
ENDBRANCH  12  24
ENDBRANCH   4   7
ENDBRANCH   2   3
ENDBRANCH   1   2
BRANCH   1  26
ATOM     26  C   UNL A   1      39.278  20.361  25.843  1.00  0.00     0.118 C 
BRANCH  26  27
ATOM     27  N   UNL A   1      40.349  19.421  26.117  1.00  0.00    -0.352 N 
ATOM     28  C   UNL A   1      41.689  19.642  26.326  1.00  0.00     0.251 C 
ATOM     29  H   UNL A   1      40.073  18.478  26.158  1.00  0.00     0.163 HD
ATOM     30  O   UNL A   1      42.452  18.679  26.330  1.00  0.00    -0.269 OA
BRANCH  28  31
ATOM     31  C   UNL A   1      42.229  21.010  26.534  1.00  0.00     0.039 A 
ATOM     32  C   UNL A   1      42.514  21.421  27.842  1.00  0.00     0.014 A 
ATOM     33  C   UNL A   1      42.390  21.916  25.482  1.00  0.00     0.014 A 
ATOM     34  C   UNL A   1      42.986  22.714  28.087  1.00  0.00     0.010 A 
ATOM     35  C   UNL A   1      42.935  23.179  25.717  1.00  0.00     0.010 A 
ATOM     36  C   UNL A   1      43.217  23.601  27.023  1.00  0.00    -0.014 A 
BRANCH  36  37
ATOM     37  C   UNL A   1      43.712  24.981  27.269  1.00  0.00     0.031 A 
ATOM     38  C   UNL A   1      45.163  25.318  27.036  1.00  0.00     0.074 A 
ATOM     39  C   UNL A   1      42.869  25.923  27.736  1.00  0.00     0.049 A 
ATOM     40  N   UNL A   1      45.787  26.452  27.223  1.00  0.00    -0.248 NA
ATOM     41  C   UNL A   1      46.029  24.231  26.551  1.00  0.00     0.031 C 
ATOM     42  C   UNL A   1      41.451  25.717  28.038  1.00  0.00     0.029 A 
ATOM     43  N   UNL A   1      43.084  27.245  28.041  1.00  0.00    -0.354 N 
ATOM     44  C   UNL A   1      47.118  26.210  26.902  1.00  0.00     0.074 A 
ATOM     45  C   UNL A   1      47.220  24.811  26.550  1.00  0.00     0.031 C 
ATOM     46  C   UNL A   1      40.919  26.875  28.460  1.00  0.00     0.029 A 
ATOM     47  C   UNL A   1      41.960  27.897  28.488  1.00  0.00     0.049 A 
ATOM     48  H   UNL A   1      43.961  27.683  27.947  1.00  0.00     0.167 HD
ATOM     49  C   UNL A   1      48.161  27.076  26.883  1.00  0.00     0.031 A 
ATOM     50  C   UNL A   1      41.785  29.176  28.877  1.00  0.00     0.031 A 
ATOM     51  C   UNL A   1      48.056  28.473  27.213  1.00  0.00     0.049 A 
ATOM     52  C   UNL A   1      42.950  30.126  28.824  1.00  0.00     0.074 A 
ATOM     53  C   UNL A   1      49.041  29.443  27.178  1.00  0.00     0.029 A 
ATOM     54  N   UNL A   1      46.892  29.099  27.634  1.00  0.00    -0.354 N 
ATOM     55  N   UNL A   1      44.189  29.888  28.467  1.00  0.00    -0.248 NA
ATOM     56  C   UNL A   1      42.688  31.519  29.208  1.00  0.00     0.031 C 
ATOM     57  C   UNL A   1      48.482  30.651  27.611  1.00  0.00     0.029 A 
ATOM     58  C   UNL A   1      47.137  30.442  27.869  1.00  0.00     0.049 A 
ATOM     59  H   UNL A   1      46.021  28.655  27.748  1.00  0.00     0.167 HD
ATOM     60  C   UNL A   1      44.849  31.109  28.556  1.00  0.00     0.074 A 
ATOM     61  C   UNL A   1      43.867  32.084  28.990  1.00  0.00     0.031 C 
ATOM     62  C   UNL A   1      46.148  31.398  28.297  1.00  0.00     0.031 A 
BRANCH  49  63
ATOM     63  C   UNL A   1      49.510  26.531  26.492  1.00  0.00    -0.014 A 
ATOM     64  C   UNL A   1      49.921  26.509  25.147  1.00  0.00     0.010 A 
ATOM     65  C   UNL A   1      50.390  26.062  27.484  1.00  0.00     0.010 A 
ATOM     66  C   UNL A   1      51.168  25.984  24.796  1.00  0.00     0.020 A 
ATOM     67  C   UNL A   1      51.649  25.562  27.139  1.00  0.00     0.020 A 
ATOM     68  C   UNL A   1      52.023  25.508  25.795  1.00  0.00     0.054 A 
BRANCH  68  69
ATOM     69  S   UNL A   1      53.640  24.844  25.314  1.00  0.00     0.124 S 
ATOM     70  O   UNL A   1      53.982  25.683  24.169  1.00  0.00    -0.237 OA
ATOM     71  O   UNL A   1      54.447  25.058  26.513  1.00  0.00    -0.237 OA
ATOM     72  O   UNL A   1      53.361  23.444  24.999  1.00  0.00    -0.744 OA
ENDBRANCH  68  69
ENDBRANCH  49  63
BRANCH  50  73
ATOM     73  C   UNL A   1      40.441  29.638  29.317  1.00  0.00    -0.014 A 
ATOM     74  C   UNL A   1      40.131  29.728  30.685  1.00  0.00     0.010 A 
ATOM     75  C   UNL A   1      39.472  30.015  28.368  1.00  0.00     0.010 A 
ATOM     76  C   UNL A   1      38.872  30.171  31.098  1.00  0.00     0.020 A 
ATOM     77  C   UNL A   1      38.220  30.482  28.779  1.00  0.00     0.020 A 
ATOM     78  C   UNL A   1      37.925  30.549  30.142  1.00  0.00     0.054 A 
BRANCH  78  79
ATOM     79  S   UNL A   1      36.319  31.183  30.700  1.00  0.00     0.124 S 
ATOM     80  O   UNL A   1      36.669  32.516  31.179  1.00  0.00    -0.237 OA
ATOM     81  O   UNL A   1      35.516  31.137  29.481  1.00  0.00    -0.237 OA
ATOM     82  O   UNL A   1      35.918  30.230  31.734  1.00  0.00    -0.744 OA
ENDBRANCH  78  79
ENDBRANCH  50  73
BRANCH  62  83
ATOM     83  C   UNL A   1      46.576  32.834  28.433  1.00  0.00    -0.014 A 
ATOM     84  C   UNL A   1      47.076  33.334  29.648  1.00  0.00     0.010 A 
ATOM     85  C   UNL A   1      46.521  33.681  27.311  1.00  0.00     0.010 A 
ATOM     86  C   UNL A   1      47.480  34.668  29.747  1.00  0.00     0.020 A 
ATOM     87  C   UNL A   1      46.948  35.008  27.400  1.00  0.00     0.020 A 
ATOM     88  C   UNL A   1      47.411  35.497  28.623  1.00  0.00     0.054 A 
BRANCH  88  89
ATOM     89  S   UNL A   1      47.975  37.215  28.765  1.00  0.00     0.124 S 
ATOM     90  O   UNL A   1      48.880  37.144  29.907  1.00  0.00    -0.237 OA
ATOM     91  O   UNL A   1      48.612  37.453  27.471  1.00  0.00    -0.237 OA
ATOM     92  O   UNL A   1      46.742  37.966  28.991  1.00  0.00    -0.744 OA
ENDBRANCH  88  89
ENDBRANCH  62  83
ENDBRANCH  36  37
ENDBRANCH  28  31
ENDBRANCH  26  27
ENDBRANCH   1  26
TORSDOF 16
ENDMDL
MODEL 3
REMARK VINA RESULT:     -11.9      0.994      8.273
REMARK SMILES C[C@@H]1CN(C(=O)Nc2ccc(O)c(C(=O)NCCCNC(=O)c3ccc(-c4c5nc(c(-c6ccc(S(=O)(=O)[O-])cc6)c6ccc([nH]6)c(-c6ccc(S(=O)(=O)[O-])cc6)c6nc(c(-c7ccc(S(=O)(=O)[O-])cc7)c7ccc4[nH]7)C=C6)C=C5)cc3)c2)C[C@@H]1C
REMARK SMILES IDX 18 1 17 2 16 3 14 4 15 5 13 7 8 8 9 9 83 10 10 11 11 12 7 13
REMARK SMILES IDX 5 14 6 15 4 17 1 18 2 19 3 20 85 21 84 22 86 23 12 24 19 26
REMARK SMILES IDX 20 27 21 28 22 30 23 31 24 32 82 33 25 34 81 35 26 36 27 37
REMARK SMILES IDX 28 38 75 39 29 40 80 41 74 42 76 43 30 44 79 45 73 46 72 47
REMARK SMILES IDX 31 49 61 50 42 51 60 52 43 53 46 54 59 55 77 56 44 57 45 58
REMARK SMILES IDX 58 60 78 61 47 62 32 63 33 64 41 65 34 66 40 67 35 68 36 69
REMARK SMILES IDX 37 70 38 71 39 72 62 73 63 74 71 75 64 76 70 77 65 78 66 79
REMARK SMILES IDX 67 80 68 81 69 82 48 83 49 84 57 85 50 86 56 87 51 88 52 89
REMARK SMILES IDX 53 90 54 91 55 92
REMARK H PARENT 16 6 7 16 12 25 20 29 76 48 46 59
REMARK Flexibility Score: inf
ROOT
ATOM      1  C   UNL A   1      37.649  24.044  26.480  1.00  0.00     0.042 C 
ENDROOT
BRANCH   1   2
ATOM      2  C   UNL A   1      37.277  23.479  25.110  1.00  0.00     0.118 C 
BRANCH   2   3
ATOM      3  N   UNL A   1      37.128  22.038  25.150  1.00  0.00    -0.352 N 
ATOM      4  C   UNL A   1      36.038  21.220  25.024  1.00  0.00     0.255 C 
ATOM      5  O   UNL A   1      36.256  20.004  25.062  1.00  0.00    -0.269 OA
ATOM      6  H   UNL A   1      37.974  21.555  25.297  1.00  0.00     0.163 HD
BRANCH   4   7
ATOM      7  C   UNL A   1      34.641  21.666  24.755  1.00  0.00     0.083 A 
ATOM      8  C   UNL A   1      33.254  22.947  23.204  1.00  0.00     0.043 A 
ATOM      9  C   UNL A   1      32.107  22.538  23.876  1.00  0.00     0.030 A 
ATOM     10  C   UNL A   1      34.498  22.450  23.591  1.00  0.00     0.044 A 
ATOM     11  C   UNL A   1      32.221  21.756  25.021  1.00  0.00     0.049 A 
ATOM     12  C   UNL A   1      33.481  21.347  25.473  1.00  0.00     0.128 A 
BRANCH   8  13
ATOM     13  N   UNL A   1      33.200  23.848  22.138  1.00  0.00    -0.308 N 
ATOM     14  C   UNL A   1      32.667  25.101  22.056  1.00  0.00     0.321 C 
ATOM     15  O   UNL A   1      32.364  25.523  20.938  1.00  0.00    -0.248 OA
ATOM     16  H   UNL A   1      33.616  23.524  21.307  1.00  0.00     0.171 HD
BRANCH  14  17
ATOM     17  N   UNL A   1      32.633  25.913  23.167  1.00  0.00    -0.324 N 
ATOM     18  C   UNL A   1      31.382  26.699  26.580  1.00  0.00     0.010 C 
ATOM     19  C   UNL A   1      32.152  26.882  25.283  1.00  0.00     0.010 C 
ATOM     20  C   UNL A   1      31.544  26.101  24.124  1.00  0.00     0.125 C 
ATOM     21  C   UNL A   1      33.624  26.453  25.251  1.00  0.00     0.010 C 
ATOM     22  C   UNL A   1      33.880  26.420  23.734  1.00  0.00     0.125 C 
ATOM     23  C   UNL A   1      33.920  25.091  25.887  1.00  0.00     0.010 C 
ENDBRANCH  14  17
ENDBRANCH   8  13
BRANCH  12  24
ATOM     24  O   UNL A   1      33.506  20.605  26.611  1.00  0.00    -0.507 OA
ATOM     25  H   UNL A   1      33.360  19.681  26.573  1.00  0.00     0.293 HD
ENDBRANCH  12  24
ENDBRANCH   4   7
ENDBRANCH   2   3
ENDBRANCH   1   2
BRANCH   1  26
ATOM     26  C   UNL A   1      39.071  23.744  26.930  1.00  0.00     0.118 C 
BRANCH  26  27
ATOM     27  N   UNL A   1      40.065  24.333  26.053  1.00  0.00    -0.352 N 
ATOM     28  C   UNL A   1      40.679  25.561  26.110  1.00  0.00     0.251 C 
ATOM     29  H   UNL A   1      40.342  23.765  25.298  1.00  0.00     0.163 HD
ATOM     30  O   UNL A   1      41.335  25.938  25.141  1.00  0.00    -0.269 OA
BRANCH  28  31
ATOM     31  C   UNL A   1      40.558  26.437  27.303  1.00  0.00     0.039 A 
ATOM     32  C   UNL A   1      41.368  27.577  27.376  1.00  0.00     0.014 A 
ATOM     33  C   UNL A   1      39.721  26.122  28.377  1.00  0.00     0.014 A 
ATOM     34  C   UNL A   1      41.314  28.407  28.500  1.00  0.00     0.010 A 
ATOM     35  C   UNL A   1      39.610  26.992  29.463  1.00  0.00     0.010 A 
ATOM     36  C   UNL A   1      40.421  28.131  29.547  1.00  0.00    -0.014 A 
BRANCH  36  37
ATOM     37  C   UNL A   1      40.358  29.001  30.752  1.00  0.00     0.031 A 
ATOM     38  C   UNL A   1      39.332  30.102  30.838  1.00  0.00     0.074 A 
ATOM     39  C   UNL A   1      41.246  28.829  31.751  1.00  0.00     0.049 A 
ATOM     40  N   UNL A   1      39.142  30.981  31.787  1.00  0.00    -0.248 NA
ATOM     41  C   UNL A   1      38.414  30.247  29.695  1.00  0.00     0.031 C 
ATOM     42  C   UNL A   1      42.312  27.825  31.774  1.00  0.00     0.029 A 
ATOM     43  N   UNL A   1      41.393  29.497  32.942  1.00  0.00    -0.354 N 
ATOM     44  C   UNL A   1      38.102  31.794  31.350  1.00  0.00     0.074 A 
ATOM     45  C   UNL A   1      37.731  31.331  30.031  1.00  0.00     0.031 C 
ATOM     46  C   UNL A   1      42.986  27.927  32.931  1.00  0.00     0.029 A 
ATOM     47  C   UNL A   1      42.422  29.019  33.718  1.00  0.00     0.049 A 
ATOM     48  H   UNL A   1      40.815  30.246  33.214  1.00  0.00     0.167 HD
ATOM     49  C   UNL A   1      37.496  32.822  31.993  1.00  0.00     0.031 A 
ATOM     50  C   UNL A   1      42.863  29.414  34.929  1.00  0.00     0.031 A 
ATOM     51  C   UNL A   1      37.851  33.269  33.314  1.00  0.00     0.049 A 
ATOM     52  C   UNL A   1      42.160  30.540  35.635  1.00  0.00     0.074 A 
ATOM     53  C   UNL A   1      37.268  34.269  34.072  1.00  0.00     0.029 A 
ATOM     54  N   UNL A   1      38.881  32.739  34.076  1.00  0.00    -0.354 N 
ATOM     55  N   UNL A   1      41.145  31.262  35.224  1.00  0.00    -0.248 NA
ATOM     56  C   UNL A   1      42.650  30.893  36.974  1.00  0.00     0.031 C 
ATOM     57  C   UNL A   1      37.967  34.367  35.280  1.00  0.00     0.029 A 
ATOM     58  C   UNL A   1      38.955  33.396  35.293  1.00  0.00     0.049 A 
ATOM     59  H   UNL A   1      39.473  32.004  33.794  1.00  0.00     0.167 HD
ATOM     60  C   UNL A   1      40.856  32.136  36.267  1.00  0.00     0.074 A 
ATOM     61  C   UNL A   1      41.797  31.843  37.330  1.00  0.00     0.031 C 
ATOM     62  C   UNL A   1      39.896  33.089  36.341  1.00  0.00     0.031 A 
BRANCH  49  63
ATOM     63  C   UNL A   1      36.384  33.536  31.269  1.00  0.00    -0.014 A 
ATOM     64  C   UNL A   1      36.550  33.980  29.945  1.00  0.00     0.010 A 
ATOM     65  C   UNL A   1      35.148  33.740  31.909  1.00  0.00     0.010 A 
ATOM     66  C   UNL A   1      35.517  34.657  29.290  1.00  0.00     0.020 A 
ATOM     67  C   UNL A   1      34.104  34.392  31.248  1.00  0.00     0.020 A 
ATOM     68  C   UNL A   1      34.301  34.864  29.948  1.00  0.00     0.054 A 
BRANCH  68  69
ATOM     69  S   UNL A   1      32.973  35.734  29.072  1.00  0.00     0.124 S 
ATOM     70  O   UNL A   1      32.385  34.660  28.276  1.00  0.00    -0.237 OA
ATOM     71  O   UNL A   1      32.141  36.235  30.163  1.00  0.00    -0.237 OA
ATOM     72  O   UNL A   1      33.677  36.762  28.308  1.00  0.00    -0.744 OA
ENDBRANCH  68  69
ENDBRANCH  49  63
BRANCH  50  73
ATOM     73  C   UNL A   1      44.010  28.712  35.563  1.00  0.00    -0.014 A 
ATOM     74  C   UNL A   1      45.323  29.179  35.377  1.00  0.00     0.010 A 
ATOM     75  C   UNL A   1      43.793  27.585  36.378  1.00  0.00     0.010 A 
ATOM     76  C   UNL A   1      46.401  28.525  35.982  1.00  0.00     0.020 A 
ATOM     77  C   UNL A   1      44.866  26.943  37.004  1.00  0.00     0.020 A 
ATOM     78  C   UNL A   1      46.164  27.412  36.794  1.00  0.00     0.054 A 
BRANCH  78  79
ATOM     79  S   UNL A   1      47.570  26.616  37.621  1.00  0.00     0.124 S 
ATOM     80  O   UNL A   1      48.663  27.532  37.312  1.00  0.00    -0.237 OA
ATOM     81  O   UNL A   1      47.143  26.587  39.018  1.00  0.00    -0.237 OA
ATOM     82  O   UNL A   1      47.647  25.307  36.977  1.00  0.00    -0.744 OA
ENDBRANCH  78  79
ENDBRANCH  50  73
BRANCH  62  83
ATOM     83  C   UNL A   1      39.783  33.860  37.628  1.00  0.00    -0.014 A 
ATOM     84  C   UNL A   1      40.425  35.100  37.795  1.00  0.00     0.010 A 
ATOM     85  C   UNL A   1      38.983  33.353  38.669  1.00  0.00     0.010 A 
ATOM     86  C   UNL A   1      40.295  35.803  38.996  1.00  0.00     0.020 A 
ATOM     87  C   UNL A   1      38.832  34.066  39.860  1.00  0.00     0.020 A 
ATOM     88  C   UNL A   1      39.502  35.280  40.022  1.00  0.00     0.054 A 
BRANCH  88  89
ATOM     89  S   UNL A   1      39.319  36.227  41.557  1.00  0.00     0.124 S 
ATOM     90  O   UNL A   1      39.095  37.579  41.056  1.00  0.00    -0.237 OA
ATOM     91  O   UNL A   1      38.165  35.593  42.192  1.00  0.00    -0.237 OA
ATOM     92  O   UNL A   1      40.591  36.019  42.246  1.00  0.00    -0.744 OA
ENDBRANCH  88  89
ENDBRANCH  62  83
ENDBRANCH  36  37
ENDBRANCH  28  31
ENDBRANCH  26  27
ENDBRANCH   1  26
TORSDOF 16
ENDMDL
