MODEL 1
REMARK VINA RESULT:     -10.8      0.000      0.000
REMARK SMILES O=C(CCCN1C(=O)/C(=C/c2cc(Br)ccc2O)SC1=S)NCCCNC(=O)c1ccc(-c2c3nc(c(-c4ccc(S(=O)(=O)[O-])cc4)c4ccc([nH]4)c(-c4ccc(S(=O)(=O)[O-])cc4)c4nc(c(-c5ccc(S(=O)(=O)[O-])cc5)c5ccc2[nH]5)C=C4)C=C3)cc1
REMARK SMILES IDX 23 1 22 2 1 3 2 4 3 6 4 7 5 8 6 9 7 10 20 11 8 12 9 13 19 14
REMARK SMILES IDX 21 15 10 16 11 17 12 18 17 19 13 20 16 21 14 22 15 23 18 24
REMARK SMILES IDX 24 26 25 27 26 28 27 29 28 31 29 32 30 33 88 34 31 35 87 36
REMARK SMILES IDX 32 37 33 38 34 39 81 40 35 41 86 42 80 43 82 44 36 45 85 46
REMARK SMILES IDX 79 47 78 48 37 50 67 51 48 52 66 53 49 54 52 55 65 56 83 57
REMARK SMILES IDX 50 58 51 59 64 61 84 62 53 63 38 64 39 65 47 66 40 67 46 68
REMARK SMILES IDX 41 69 42 70 43 71 44 72 45 73 68 74 69 75 77 76 70 77 76 78
REMARK SMILES IDX 71 79 72 80 73 81 74 82 75 83 54 84 55 85 63 86 56 87 62 88
REMARK SMILES IDX 57 89 58 90 59 91 60 92 61 93
REMARK H PARENT 22 5 18 25 26 30 82 49 52 60
REMARK Flexibility Score: inf
ROOT
ATOM      1  C   UNL A   1      31.691  26.868  26.844  1.00  0.00     0.117 C 
ENDROOT
BRANCH   1   2
ATOM      2  N   UNL A   1      32.856  26.398  26.119  1.00  0.00    -0.356 N 
ATOM      3  O   UNL A   1      32.581  24.182  26.661  1.00  0.00    -0.275 OA
ATOM      4  C   UNL A   1      33.199  25.067  26.080  1.00  0.00     0.220 C 
ATOM      5  H   UNL A   1      33.416  27.051  25.640  1.00  0.00     0.163 HD
BRANCH   4   6
ATOM      6  C   UNL A   1      34.402  24.759  25.215  1.00  0.00     0.102 C 
BRANCH   6   7
ATOM      7  C   UNL A   1      34.057  23.799  24.077  1.00  0.00     0.032 C 
BRANCH   7   8
ATOM      8  C   UNL A   1      33.733  24.460  22.727  1.00  0.00     0.128 C 
BRANCH   8   9
ATOM      9  N   UNL A   1      32.647  25.448  22.750  1.00  0.00    -0.293 N 
ATOM     10  C   UNL A   1      32.859  26.725  22.262  1.00  0.00     0.266 C 
ATOM     11  C   UNL A   1      31.336  25.156  23.067  1.00  0.00     0.148 C 
ATOM     12  O   UNL A   1      33.873  27.125  21.697  1.00  0.00    -0.268 OA
ATOM     13  C   UNL A   1      31.662  27.574  22.484  1.00  0.00     0.081 C 
ATOM     14  S   UNL A   1      30.383  26.629  23.124  1.00  0.00    -0.054 SA
ATOM     15  S   UNL A   1      30.662  23.661  23.356  1.00  0.00    -0.052 S 
ATOM     16  C   UNL A   1      31.668  28.886  22.220  1.00  0.00     0.033 C 
BRANCH  16  17
ATOM     17  C   UNL A   1      30.571  29.812  22.525  1.00  0.00     0.019 A 
ATOM     18  C   UNL A   1      29.808  30.348  21.482  1.00  0.00     0.027 A 
ATOM     19  C   UNL A   1      30.282  30.184  23.847  1.00  0.00     0.122 A 
ATOM     20  C   UNL A   1      28.776  31.243  21.769  1.00  0.00     0.018 A 
ATOM     21  C   UNL A   1      29.248  31.076  24.130  1.00  0.00     0.048 A 
ATOM     22  Br  UNL A   1      27.757  31.978  20.355  1.00  0.00    -0.051 Br
ATOM     23  C   UNL A   1      28.493  31.609  23.085  1.00  0.00     0.019 A 
BRANCH  19  24
ATOM     24  O   UNL A   1      31.035  29.668  24.867  1.00  0.00    -0.507 OA
ATOM     25  H   UNL A   1      30.828  28.826  25.223  1.00  0.00     0.293 HD
ENDBRANCH  19  24
ENDBRANCH  16  17
ENDBRANCH   8   9
ENDBRANCH   7   8
ENDBRANCH   6   7
ENDBRANCH   4   6
ENDBRANCH   1   2
BRANCH   1  26
ATOM     26  C   UNL A   1      31.956  28.147  27.632  1.00  0.00     0.042 C 
BRANCH  26  27
ATOM     27  C   UNL A   1      33.322  28.784  27.400  1.00  0.00     0.118 C 
BRANCH  27  28
ATOM     28  N   UNL A   1      33.368  30.201  27.725  1.00  0.00    -0.352 N 
ATOM     29  C   UNL A   1      34.408  30.949  28.223  1.00  0.00     0.251 C 
ATOM     30  H   UNL A   1      32.531  30.696  27.565  1.00  0.00     0.163 HD
ATOM     31  O   UNL A   1      34.238  32.132  28.505  1.00  0.00    -0.269 OA
BRANCH  29  32
ATOM     32  C   UNL A   1      35.715  30.309  28.467  1.00  0.00     0.039 A 
ATOM     33  C   UNL A   1      36.651  30.293  27.431  1.00  0.00     0.014 A 
ATOM     34  C   UNL A   1      36.034  29.771  29.717  1.00  0.00     0.014 A 
ATOM     35  C   UNL A   1      37.943  29.827  27.675  1.00  0.00     0.010 A 
ATOM     36  C   UNL A   1      37.341  29.362  29.976  1.00  0.00     0.010 A 
ATOM     37  C   UNL A   1      38.313  29.410  28.965  1.00  0.00    -0.014 A 
BRANCH  37  38
ATOM     38  C   UNL A   1      39.728  29.090  29.284  1.00  0.00     0.031 A 
ATOM     39  C   UNL A   1      40.628  30.123  29.898  1.00  0.00     0.074 A 
ATOM     40  C   UNL A   1      40.217  27.879  28.952  1.00  0.00     0.049 A 
ATOM     41  N   UNL A   1      41.902  30.037  30.187  1.00  0.00    -0.248 NA
ATOM     42  C   UNL A   1      40.028  31.429  30.211  1.00  0.00     0.031 C 
ATOM     43  C   UNL A   1      39.452  26.800  28.321  1.00  0.00     0.029 A 
ATOM     44  N   UNL A   1      41.477  27.350  29.090  1.00  0.00    -0.354 N 
ATOM     45  C   UNL A   1      42.258  31.274  30.708  1.00  0.00     0.074 A 
ATOM     46  C   UNL A   1      41.077  32.110  30.653  1.00  0.00     0.031 C 
ATOM     47  C   UNL A   1      40.250  25.735  28.148  1.00  0.00     0.029 A 
ATOM     48  C   UNL A   1      41.593  26.066  28.610  1.00  0.00     0.049 A 
ATOM     49  H   UNL A   1      42.227  27.843  29.494  1.00  0.00     0.167 HD
ATOM     50  C   UNL A   1      43.456  31.675  31.199  1.00  0.00     0.031 A 
ATOM     51  C   UNL A   1      42.663  25.249  28.534  1.00  0.00     0.031 A 
ATOM     52  C   UNL A   1      44.630  30.841  31.245  1.00  0.00     0.049 A 
ATOM     53  C   UNL A   1      43.991  25.732  29.049  1.00  0.00     0.074 A 
ATOM     54  C   UNL A   1      45.876  31.141  31.768  1.00  0.00     0.029 A 
ATOM     55  N   UNL A   1      44.710  29.552  30.741  1.00  0.00    -0.354 N 
ATOM     56  N   UNL A   1      44.291  26.883  29.601  1.00  0.00    -0.248 NA
ATOM     57  C   UNL A   1      45.123  24.802  28.938  1.00  0.00     0.031 C 
ATOM     58  C   UNL A   1      46.726  30.057  31.524  1.00  0.00     0.029 A 
ATOM     59  C   UNL A   1      45.993  29.055  30.909  1.00  0.00     0.049 A 
ATOM     60  H   UNL A   1      43.965  29.060  30.326  1.00  0.00     0.167 HD
ATOM     61  C   UNL A   1      45.641  26.809  29.923  1.00  0.00     0.074 A 
ATOM     62  C   UNL A   1      46.093  25.491  29.524  1.00  0.00     0.031 C 
ATOM     63  C   UNL A   1      46.434  27.745  30.499  1.00  0.00     0.031 A 
BRANCH  50  64
ATOM     64  C   UNL A   1      43.561  33.086  31.714  1.00  0.00    -0.014 A 
ATOM     65  C   UNL A   1      43.770  34.167  30.840  1.00  0.00     0.010 A 
ATOM     66  C   UNL A   1      43.402  33.340  33.089  1.00  0.00     0.010 A 
ATOM     67  C   UNL A   1      43.861  35.472  31.335  1.00  0.00     0.020 A 
ATOM     68  C   UNL A   1      43.461  34.647  33.585  1.00  0.00     0.020 A 
ATOM     69  C   UNL A   1      43.708  35.703  32.705  1.00  0.00     0.054 A 
BRANCH  69  70
ATOM     70  S   UNL A   1      43.808  37.407  33.316  1.00  0.00     0.124 S 
ATOM     71  O   UNL A   1      43.934  38.164  32.072  1.00  0.00    -0.237 OA
ATOM     72  O   UNL A   1      42.540  37.568  34.023  1.00  0.00    -0.237 OA
ATOM     73  O   UNL A   1      44.997  37.403  34.164  1.00  0.00    -0.744 OA
ENDBRANCH  69  70
ENDBRANCH  50  64
BRANCH  51  74
ATOM     74  C   UNL A   1      42.521  23.891  27.941  1.00  0.00    -0.014 A 
ATOM     75  C   UNL A   1      42.573  23.710  26.547  1.00  0.00     0.010 A 
ATOM     76  C   UNL A   1      42.339  22.768  28.769  1.00  0.00     0.010 A 
ATOM     77  C   UNL A   1      42.429  22.435  25.993  1.00  0.00     0.020 A 
ATOM     78  C   UNL A   1      42.226  21.488  28.220  1.00  0.00     0.020 A 
ATOM     79  C   UNL A   1      42.259  21.331  26.833  1.00  0.00     0.054 A 
BRANCH  79  80
ATOM     80  S   UNL A   1      42.124  19.680  26.093  1.00  0.00     0.124 S 
ATOM     81  O   UNL A   1      43.142  19.733  25.048  1.00  0.00    -0.237 OA
ATOM     82  O   UNL A   1      42.422  18.804  27.223  1.00  0.00    -0.237 OA
ATOM     83  O   UNL A   1      40.743  19.629  25.621  1.00  0.00    -0.744 OA
ENDBRANCH  79  80
ENDBRANCH  51  74
BRANCH  63  84
ATOM     84  C   UNL A   1      47.872  27.376  30.751  1.00  0.00    -0.014 A 
ATOM     85  C   UNL A   1      48.261  26.726  31.936  1.00  0.00     0.010 A 
ATOM     86  C   UNL A   1      48.841  27.635  29.763  1.00  0.00     0.010 A 
ATOM     87  C   UNL A   1      49.597  26.368  32.141  1.00  0.00     0.020 A 
ATOM     88  C   UNL A   1      50.171  27.251  29.951  1.00  0.00     0.020 A 
ATOM     89  C   UNL A   1      50.543  26.632  31.146  1.00  0.00     0.054 A 
BRANCH  89  90
ATOM     90  S   UNL A   1      52.260  26.111  31.416  1.00  0.00     0.124 S 
ATOM     91  O   UNL A   1      52.090  24.740  31.889  1.00  0.00    -0.237 OA
ATOM     92  O   UNL A   1      52.849  26.250  30.086  1.00  0.00    -0.237 OA
ATOM     93  O   UNL A   1      52.757  27.057  32.413  1.00  0.00    -0.744 OA
ENDBRANCH  89  90
ENDBRANCH  63  84
ENDBRANCH  37  38
ENDBRANCH  29  32
ENDBRANCH  27  28
ENDBRANCH  26  27
ENDBRANCH   1  26
TORSDOF 18
ENDMDL
MODEL 2
REMARK VINA RESULT:     -10.7      4.628     10.063
REMARK SMILES O=C(CCCN1C(=O)/C(=C/c2cc(Br)ccc2O)SC1=S)NCCCNC(=O)c1ccc(-c2c3nc(c(-c4ccc(S(=O)(=O)[O-])cc4)c4ccc([nH]4)c(-c4ccc(S(=O)(=O)[O-])cc4)c4nc(c(-c5ccc(S(=O)(=O)[O-])cc5)c5ccc2[nH]5)C=C4)C=C3)cc1
REMARK SMILES IDX 23 1 22 2 1 3 2 4 3 6 4 7 5 8 6 9 7 10 20 11 8 12 9 13 19 14
REMARK SMILES IDX 21 15 10 16 11 17 12 18 17 19 13 20 16 21 14 22 15 23 18 24
REMARK SMILES IDX 24 26 25 27 26 28 27 29 28 31 29 32 30 33 88 34 31 35 87 36
REMARK SMILES IDX 32 37 33 38 34 39 81 40 35 41 86 42 80 43 82 44 36 45 85 46
REMARK SMILES IDX 79 47 78 48 37 50 67 51 48 52 66 53 49 54 52 55 65 56 83 57
REMARK SMILES IDX 50 58 51 59 64 61 84 62 53 63 38 64 39 65 47 66 40 67 46 68
REMARK SMILES IDX 41 69 42 70 43 71 44 72 45 73 68 74 69 75 77 76 70 77 76 78
REMARK SMILES IDX 71 79 72 80 73 81 74 82 75 83 54 84 55 85 63 86 56 87 62 88
REMARK SMILES IDX 57 89 58 90 59 91 60 92 61 93
REMARK H PARENT 22 5 18 25 26 30 82 49 52 60
REMARK Flexibility Score: inf
ROOT
ATOM      1  C   UNL A   1      40.349  21.087  25.966  1.00  0.00     0.117 C 
ENDROOT
BRANCH   1   2
ATOM      2  N   UNL A   1      39.015  20.626  25.629  1.00  0.00    -0.356 N 
ATOM      3  O   UNL A   1      38.078  22.721  25.499  1.00  0.00    -0.275 OA
ATOM      4  C   UNL A   1      37.978  21.502  25.408  1.00  0.00     0.220 C 
ATOM      5  H   UNL A   1      38.849  19.659  25.555  1.00  0.00     0.163 HD
BRANCH   4   6
ATOM      6  C   UNL A   1      36.682  20.841  24.997  1.00  0.00     0.102 C 
BRANCH   6   7
ATOM      7  C   UNL A   1      35.464  21.679  25.385  1.00  0.00     0.032 C 
BRANCH   7   8
ATOM      8  C   UNL A   1      34.413  21.872  24.278  1.00  0.00     0.128 C 
BRANCH   8   9
ATOM      9  N   UNL A   1      33.593  23.085  24.388  1.00  0.00    -0.293 N 
ATOM     10  C   UNL A   1      33.914  24.210  23.650  1.00  0.00     0.266 C 
ATOM     11  C   UNL A   1      32.386  23.150  25.055  1.00  0.00     0.148 C 
ATOM     12  O   UNL A   1      34.794  24.290  22.799  1.00  0.00    -0.268 OA
ATOM     13  C   UNL A   1      33.015  25.338  24.001  1.00  0.00     0.081 C 
ATOM     14  S   UNL A   1      31.796  24.803  25.081  1.00  0.00    -0.054 SA
ATOM     15  S   UNL A   1      31.532  21.902  25.751  1.00  0.00    -0.052 S 
ATOM     16  C   UNL A   1      33.210  26.572  23.519  1.00  0.00     0.033 C 
BRANCH  16  17
ATOM     17  C   UNL A   1      32.444  27.760  23.913  1.00  0.00     0.019 A 
ATOM     18  C   UNL A   1      31.292  28.108  23.198  1.00  0.00     0.027 A 
ATOM     19  C   UNL A   1      32.854  28.566  24.986  1.00  0.00     0.122 A 
ATOM     20  C   UNL A   1      30.573  29.248  23.558  1.00  0.00     0.018 A 
ATOM     21  C   UNL A   1      32.130  29.702  25.345  1.00  0.00     0.048 A 
ATOM     22  Br  UNL A   1      29.026  29.724  22.579  1.00  0.00    -0.051 Br
ATOM     23  C   UNL A   1      30.984  30.045  24.626  1.00  0.00     0.019 A 
BRANCH  19  24
ATOM     24  O   UNL A   1      33.986  28.231  25.679  1.00  0.00    -0.507 OA
ATOM     25  H   UNL A   1      34.483  27.477  25.429  1.00  0.00     0.293 HD
ENDBRANCH  19  24
ENDBRANCH  16  17
ENDBRANCH   8   9
ENDBRANCH   7   8
ENDBRANCH   6   7
ENDBRANCH   4   6
ENDBRANCH   1   2
BRANCH   1  26
ATOM     26  C   UNL A   1      40.474  21.536  27.418  1.00  0.00     0.042 C 
BRANCH  26  27
ATOM     27  C   UNL A   1      41.151  22.887  27.626  1.00  0.00     0.118 C 
BRANCH  27  28
ATOM     28  N   UNL A   1      41.042  23.777  26.480  1.00  0.00    -0.352 N 
ATOM     29  C   UNL A   1      40.907  25.145  26.447  1.00  0.00     0.251 C 
ATOM     30  H   UNL A   1      41.068  23.335  25.600  1.00  0.00     0.163 HD
ATOM     31  O   UNL A   1      40.757  25.724  25.376  1.00  0.00    -0.269 OA
BRANCH  29  32
ATOM     32  C   UNL A   1      40.890  25.906  27.712  1.00  0.00     0.039 A 
ATOM     33  C   UNL A   1      42.022  26.648  28.055  1.00  0.00     0.014 A 
ATOM     34  C   UNL A   1      39.755  25.927  28.527  1.00  0.00     0.014 A 
ATOM     35  C   UNL A   1      41.983  27.490  29.167  1.00  0.00     0.010 A 
ATOM     36  C   UNL A   1      39.696  26.814  29.601  1.00  0.00     0.010 A 
ATOM     37  C   UNL A   1      40.801  27.622  29.915  1.00  0.00    -0.014 A 
BRANCH  37  38
ATOM     38  C   UNL A   1      40.685  28.650  30.981  1.00  0.00     0.031 A 
ATOM     39  C   UNL A   1      41.522  28.563  32.225  1.00  0.00     0.074 A 
ATOM     40  C   UNL A   1      39.765  29.627  30.852  1.00  0.00     0.049 A 
ATOM     41  N   UNL A   1      41.508  29.336  33.281  1.00  0.00    -0.248 NA
ATOM     42  C   UNL A   1      42.487  27.455  32.303  1.00  0.00     0.031 C 
ATOM     43  C   UNL A   1      38.868  29.800  29.706  1.00  0.00     0.029 A 
ATOM     44  N   UNL A   1      39.424  30.657  31.694  1.00  0.00    -0.354 N 
ATOM     45  C   UNL A   1      42.453  28.807  34.151  1.00  0.00     0.074 A 
ATOM     46  C   UNL A   1      42.989  27.620  33.519  1.00  0.00     0.031 C 
ATOM     47  C   UNL A   1      38.098  30.881  29.907  1.00  0.00     0.029 A 
ATOM     48  C   UNL A   1      38.411  31.452  31.213  1.00  0.00     0.049 A 
ATOM     49  H   UNL A   1      39.864  30.811  32.561  1.00  0.00     0.167 HD
ATOM     50  C   UNL A   1      42.847  29.274  35.360  1.00  0.00     0.031 A 
ATOM     51  C   UNL A   1      37.787  32.512  31.764  1.00  0.00     0.031 A 
ATOM     52  C   UNL A   1      42.305  30.452  35.987  1.00  0.00     0.049 A 
ATOM     53  C   UNL A   1      38.217  32.987  33.125  1.00  0.00     0.074 A 
ATOM     54  C   UNL A   1      42.674  31.033  37.189  1.00  0.00     0.029 A 
ATOM     55  N   UNL A   1      41.274  31.224  35.473  1.00  0.00    -0.354 N 
ATOM     56  N   UNL A   1      39.160  32.513  33.903  1.00  0.00    -0.248 NA
ATOM     57  C   UNL A   1      37.501  34.144  33.680  1.00  0.00     0.031 C 
ATOM     58  C   UNL A   1      41.824  32.116  37.431  1.00  0.00     0.029 A 
ATOM     59  C   UNL A   1      40.969  32.254  36.349  1.00  0.00     0.049 A 
ATOM     60  H   UNL A   1      40.824  31.064  34.612  1.00  0.00     0.167 HD
ATOM     61  C   UNL A   1      39.167  33.327  35.030  1.00  0.00     0.074 A 
ATOM     62  C   UNL A   1      38.148  34.336  34.822  1.00  0.00     0.031 C 
ATOM     63  C   UNL A   1      39.946  33.247  36.136  1.00  0.00     0.031 A 
BRANCH  50  64
ATOM     64  C   UNL A   1      43.910  28.499  36.094  1.00  0.00    -0.014 A 
ATOM     65  C   UNL A   1      45.271  28.828  35.965  1.00  0.00     0.010 A 
ATOM     66  C   UNL A   1      43.538  27.456  36.963  1.00  0.00     0.010 A 
ATOM     67  C   UNL A   1      46.244  28.101  36.658  1.00  0.00     0.020 A 
ATOM     68  C   UNL A   1      44.506  26.747  37.681  1.00  0.00     0.020 A 
ATOM     69  C   UNL A   1      45.855  27.063  37.510  1.00  0.00     0.054 A 
BRANCH  69  70
ATOM     70  S   UNL A   1      47.138  26.152  38.412  1.00  0.00     0.124 S 
ATOM     71  O   UNL A   1      48.064  27.222  38.777  1.00  0.00    -0.237 OA
ATOM     72  O   UNL A   1      46.391  25.563  39.520  1.00  0.00    -0.237 OA
ATOM     73  O   UNL A   1      47.645  25.200  37.428  1.00  0.00    -0.744 OA
ENDBRANCH  69  70
ENDBRANCH  50  64
BRANCH  51  74
ATOM     74  C   UNL A   1      36.687  33.194  31.028  1.00  0.00    -0.014 A 
ATOM     75  C   UNL A   1      35.383  33.222  31.555  1.00  0.00     0.010 A 
ATOM     76  C   UNL A   1      36.939  33.828  29.798  1.00  0.00     0.010 A 
ATOM     77  C   UNL A   1      34.351  33.853  30.858  1.00  0.00     0.020 A 
ATOM     78  C   UNL A   1      35.916  34.487  29.112  1.00  0.00     0.020 A 
ATOM     79  C   UNL A   1      34.624  34.485  29.641  1.00  0.00     0.054 A 
BRANCH  79  80
ATOM     80  S   UNL A   1      33.278  35.342  28.778  1.00  0.00     0.124 S 
ATOM     81  O   UNL A   1      32.680  34.259  28.001  1.00  0.00    -0.237 OA
ATOM     82  O   UNL A   1      32.470  35.851  29.882  1.00  0.00    -0.237 OA
ATOM     83  O   UNL A   1      33.969  36.365  27.997  1.00  0.00    -0.744 OA
ENDBRANCH  79  80
ENDBRANCH  51  74
BRANCH  63  84
ATOM     84  C   UNL A   1      39.745  34.290  37.203  1.00  0.00    -0.014 A 
ATOM     85  C   UNL A   1      38.999  34.012  38.363  1.00  0.00     0.010 A 
ATOM     86  C   UNL A   1      40.358  35.550  37.070  1.00  0.00     0.010 A 
ATOM     87  C   UNL A   1      38.845  34.984  39.355  1.00  0.00     0.020 A 
ATOM     88  C   UNL A   1      40.232  36.514  38.074  1.00  0.00     0.020 A 
ATOM     89  C   UNL A   1      39.464  36.229  39.205  1.00  0.00     0.054 A 
BRANCH  89  90
ATOM     90  S   UNL A   1      39.290  37.455  40.531  1.00  0.00     0.124 S 
ATOM     91  O   UNL A   1      38.246  38.328  40.001  1.00  0.00    -0.237 OA
ATOM     92  O   UNL A   1      38.903  36.634  41.676  1.00  0.00    -0.237 OA
ATOM     93  O   UNL A   1      40.619  38.057  40.624  1.00  0.00    -0.744 OA
ENDBRANCH  89  90
ENDBRANCH  63  84
ENDBRANCH  37  38
ENDBRANCH  29  32
ENDBRANCH  27  28
ENDBRANCH  26  27
ENDBRANCH   1  26
TORSDOF 18
ENDMDL
MODEL 3
REMARK VINA RESULT:     -10.5      4.372      9.894
REMARK SMILES O=C(CCCN1C(=O)/C(=C/c2cc(Br)ccc2O)SC1=S)NCCCNC(=O)c1ccc(-c2c3nc(c(-c4ccc(S(=O)(=O)[O-])cc4)c4ccc([nH]4)c(-c4ccc(S(=O)(=O)[O-])cc4)c4nc(c(-c5ccc(S(=O)(=O)[O-])cc5)c5ccc2[nH]5)C=C4)C=C3)cc1
REMARK SMILES IDX 23 1 22 2 1 3 2 4 3 6 4 7 5 8 6 9 7 10 20 11 8 12 9 13 19 14
REMARK SMILES IDX 21 15 10 16 11 17 12 18 17 19 13 20 16 21 14 22 15 23 18 24
REMARK SMILES IDX 24 26 25 27 26 28 27 29 28 31 29 32 30 33 88 34 31 35 87 36
REMARK SMILES IDX 32 37 33 38 34 39 81 40 35 41 86 42 80 43 82 44 36 45 85 46
REMARK SMILES IDX 79 47 78 48 37 50 67 51 48 52 66 53 49 54 52 55 65 56 83 57
REMARK SMILES IDX 50 58 51 59 64 61 84 62 53 63 38 64 39 65 47 66 40 67 46 68
REMARK SMILES IDX 41 69 42 70 43 71 44 72 45 73 68 74 69 75 77 76 70 77 76 78
REMARK SMILES IDX 71 79 72 80 73 81 74 82 75 83 54 84 55 85 63 86 56 87 62 88
REMARK SMILES IDX 57 89 58 90 59 91 60 92 61 93
REMARK H PARENT 22 5 18 25 26 30 82 49 52 60
REMARK Flexibility Score: inf
ROOT
ATOM      1  C   UNL A   1      38.327  22.437  25.750  1.00  0.00     0.117 C 
ENDROOT
BRANCH   1   2
ATOM      2  N   UNL A   1      37.116  21.641  25.809  1.00  0.00    -0.356 N 
ATOM      3  O   UNL A   1      36.340  22.257  23.735  1.00  0.00    -0.275 OA
ATOM      4  C   UNL A   1      36.216  21.611  24.769  1.00  0.00     0.220 C 
ATOM      5  H   UNL A   1      36.934  21.108  26.615  1.00  0.00     0.163 HD
BRANCH   4   6
ATOM      6  C   UNL A   1      35.051  20.670  24.982  1.00  0.00     0.102 C 
BRANCH   6   7
ATOM      7  C   UNL A   1      33.843  21.383  25.588  1.00  0.00     0.032 C 
BRANCH   7   8
ATOM      8  C   UNL A   1      32.985  22.191  24.599  1.00  0.00     0.128 C 
BRANCH   8   9
ATOM      9  N   UNL A   1      32.656  23.559  25.018  1.00  0.00    -0.293 N 
ATOM     10  C   UNL A   1      33.238  24.640  24.379  1.00  0.00     0.266 C 
ATOM     11  C   UNL A   1      31.650  23.880  25.907  1.00  0.00     0.148 C 
ATOM     12  O   UNL A   1      33.964  24.591  23.391  1.00  0.00    -0.268 OA
ATOM     13  C   UNL A   1      32.840  25.910  25.037  1.00  0.00     0.081 C 
ATOM     14  S   UNL A   1      31.674  25.600  26.255  1.00  0.00    -0.054 SA
ATOM     15  S   UNL A   1      30.526  22.861  26.592  1.00  0.00    -0.052 S 
ATOM     16  C   UNL A   1      33.377  27.084  24.686  1.00  0.00     0.033 C 
BRANCH  16  17
ATOM     17  C   UNL A   1      33.129  28.361  25.367  1.00  0.00     0.019 A 
ATOM     18  C   UNL A   1      34.077  28.860  26.267  1.00  0.00     0.027 A 
ATOM     19  C   UNL A   1      31.947  29.084  25.145  1.00  0.00     0.122 A 
ATOM     20  C   UNL A   1      33.835  30.063  26.930  1.00  0.00     0.018 A 
ATOM     21  C   UNL A   1      31.710  30.288  25.807  1.00  0.00     0.048 A 
ATOM     22  Br  UNL A   1      35.111  30.728  28.158  1.00  0.00    -0.051 Br
ATOM     23  C   UNL A   1      32.658  30.779  26.705  1.00  0.00     0.019 A 
BRANCH  19  24
ATOM     24  O   UNL A   1      31.015  28.590  24.273  1.00  0.00    -0.507 OA
ATOM     25  H   UNL A   1      30.449  27.891  24.537  1.00  0.00     0.293 HD
ENDBRANCH  19  24
ENDBRANCH  16  17
ENDBRANCH   8   9
ENDBRANCH   7   8
ENDBRANCH   6   7
ENDBRANCH   4   6
ENDBRANCH   1   2
BRANCH   1  26
ATOM     26  C   UNL A   1      38.115  23.879  26.198  1.00  0.00     0.042 C 
BRANCH  26  27
ATOM     27  C   UNL A   1      39.334  24.555  26.818  1.00  0.00     0.118 C 
BRANCH  27  28
ATOM     28  N   UNL A   1      40.395  24.835  25.862  1.00  0.00    -0.352 N 
ATOM     29  C   UNL A   1      41.425  25.741  25.943  1.00  0.00     0.251 C 
ATOM     30  H   UNL A   1      40.371  24.296  25.038  1.00  0.00     0.163 HD
ATOM     31  O   UNL A   1      42.193  25.888  24.996  1.00  0.00    -0.269 OA
BRANCH  29  32
ATOM     32  C   UNL A   1      41.570  26.575  27.152  1.00  0.00     0.039 A 
ATOM     33  C   UNL A   1      42.084  27.865  27.011  1.00  0.00     0.014 A 
ATOM     34  C   UNL A   1      41.161  26.108  28.404  1.00  0.00     0.014 A 
ATOM     35  C   UNL A   1      42.097  28.726  28.109  1.00  0.00     0.010 A 
ATOM     36  C   UNL A   1      41.119  26.987  29.485  1.00  0.00     0.010 A 
ATOM     37  C   UNL A   1      41.563  28.311  29.341  1.00  0.00    -0.014 A 
BRANCH  37  38
ATOM     38  C   UNL A   1      41.398  29.272  30.462  1.00  0.00     0.031 A 
ATOM     39  C   UNL A   1      42.320  29.233  31.647  1.00  0.00     0.074 A 
ATOM     40  C   UNL A   1      40.364  30.136  30.437  1.00  0.00     0.049 A 
ATOM     41  N   UNL A   1      42.285  29.954  32.739  1.00  0.00    -0.248 NA
ATOM     42  C   UNL A   1      43.410  28.247  31.611  1.00  0.00     0.031 C 
ATOM     43  C   UNL A   1      39.380  30.249  29.357  1.00  0.00     0.029 A 
ATOM     44  N   UNL A   1      39.962  31.082  31.348  1.00  0.00    -0.354 N 
ATOM     45  C   UNL A   1      43.341  29.506  33.523  1.00  0.00     0.074 A 
ATOM     46  C   UNL A   1      43.969  28.419  32.801  1.00  0.00     0.031 C 
ATOM     47  C   UNL A   1      38.504  31.220  29.658  1.00  0.00     0.029 A 
ATOM     48  C   UNL A   1      38.833  31.769  30.970  1.00  0.00     0.049 A 
ATOM     49  H   UNL A   1      40.436  31.251  32.193  1.00  0.00     0.167 HD
ATOM     50  C   UNL A   1      43.756  29.965  34.728  1.00  0.00     0.031 A 
ATOM     51  C   UNL A   1      38.128  32.723  31.609  1.00  0.00     0.031 A 
ATOM     52  C   UNL A   1      43.123  31.043  35.444  1.00  0.00     0.049 A 
ATOM     53  C   UNL A   1      38.587  33.188  32.964  1.00  0.00     0.074 A 
ATOM     54  C   UNL A   1      43.500  31.612  36.649  1.00  0.00     0.029 A 
ATOM     55  N   UNL A   1      41.977  31.706  35.032  1.00  0.00    -0.354 N 
ATOM     56  N   UNL A   1      39.629  32.798  33.659  1.00  0.00    -0.248 NA
ATOM     57  C   UNL A   1      37.779  34.227  33.617  1.00  0.00     0.031 C 
ATOM     58  C   UNL A   1      42.547  32.575  36.995  1.00  0.00     0.029 A 
ATOM     59  C   UNL A   1      41.613  32.655  35.975  1.00  0.00     0.049 A 
ATOM     60  H   UNL A   1      41.494  31.531  34.193  1.00  0.00     0.167 HD
ATOM     61  C   UNL A   1      39.614  33.559  34.822  1.00  0.00     0.074 A 
ATOM     62  C   UNL A   1      38.473  34.447  34.726  1.00  0.00     0.031 C 
ATOM     63  C   UNL A   1      40.469  33.527  35.873  1.00  0.00     0.031 A 
BRANCH  50  64
ATOM     64  C   UNL A   1      44.948  29.293  35.357  1.00  0.00    -0.014 A 
ATOM     65  C   UNL A   1      44.794  28.181  36.204  1.00  0.00     0.010 A 
ATOM     66  C   UNL A   1      46.246  29.750  35.059  1.00  0.00     0.010 A 
ATOM     67  C   UNL A   1      45.912  27.565  36.776  1.00  0.00     0.020 A 
ATOM     68  C   UNL A   1      47.367  29.118  35.604  1.00  0.00     0.020 A 
ATOM     69  C   UNL A   1      47.191  28.039  36.474  1.00  0.00     0.054 A 
BRANCH  69  70
ATOM     70  S   UNL A   1      48.624  27.207  37.212  1.00  0.00     0.124 S 
ATOM     71  O   UNL A   1      48.933  26.194  36.206  1.00  0.00    -0.237 OA
ATOM     72  O   UNL A   1      49.596  28.291  37.332  1.00  0.00    -0.237 OA
ATOM     73  O   UNL A   1      48.111  26.690  38.478  1.00  0.00    -0.744 OA
ENDBRANCH  69  70
ENDBRANCH  50  64
BRANCH  51  74
ATOM     74  C   UNL A   1      36.909  33.299  30.976  1.00  0.00    -0.014 A 
ATOM     75  C   UNL A   1      36.996  33.988  29.753  1.00  0.00     0.010 A 
ATOM     76  C   UNL A   1      35.651  33.153  31.589  1.00  0.00     0.010 A 
ATOM     77  C   UNL A   1      35.853  34.537  29.166  1.00  0.00     0.020 A 
ATOM     78  C   UNL A   1      34.501  33.673  30.990  1.00  0.00     0.020 A 
ATOM     79  C   UNL A   1      34.611  34.373  29.786  1.00  0.00     0.054 A 
BRANCH  79  80
ATOM     80  S   UNL A   1      33.134  35.050  28.981  1.00  0.00     0.124 S 
ATOM     81  O   UNL A   1      32.227  35.227  30.111  1.00  0.00    -0.237 OA
ATOM     82  O   UNL A   1      33.641  36.279  28.377  1.00  0.00    -0.237 OA
ATOM     83  O   UNL A   1      32.754  34.007  28.031  1.00  0.00    -0.744 OA
ENDBRANCH  79  80
ENDBRANCH  51  74
BRANCH  63  84
ATOM     84  C   UNL A   1      40.218  34.492  37.002  1.00  0.00    -0.014 A 
ATOM     85  C   UNL A   1      40.760  35.791  36.984  1.00  0.00     0.010 A 
ATOM     86  C   UNL A   1      39.383  34.114  38.069  1.00  0.00     0.010 A 
ATOM     87  C   UNL A   1      40.494  36.681  38.028  1.00  0.00     0.020 A 
ATOM     88  C   UNL A   1      39.090  35.011  39.099  1.00  0.00     0.020 A 
ATOM     89  C   UNL A   1      39.659  36.286  39.078  1.00  0.00     0.054 A 
BRANCH  89  90
ATOM     90  S   UNL A   1      39.290  37.479  40.394  1.00  0.00     0.124 S 
ATOM     91  O   UNL A   1      40.599  38.083  40.631  1.00  0.00    -0.237 OA
ATOM     92  O   UNL A   1      38.300  38.351  39.767  1.00  0.00    -0.237 OA
ATOM     93  O   UNL A   1      38.781  36.649  41.483  1.00  0.00    -0.744 OA
ENDBRANCH  89  90
ENDBRANCH  63  84
ENDBRANCH  37  38
ENDBRANCH  29  32
ENDBRANCH  27  28
ENDBRANCH  26  27
ENDBRANCH   1  26
TORSDOF 18
ENDMDL
