MODEL 1
REMARK VINA RESULT:     -10.4      0.000      0.000
REMARK SMILES O=C(CSc1nc(-c2cccc(Br)c2)c[nH]1)NCCCNC(=O)c1ccc(-c2c3nc(c(-c4ccc(S(=O)(=O)[O-])cc4)c4ccc([nH]4)c(-c4ccc(S(=O)(=O)[O-])cc4)c4nc(c(-c5ccc(S(=O)(=O)[O-])cc5)c5ccc2[nH]5)C=C4)C=C3)cc1
REMARK SMILES IDX 19 1 18 2 17 3 1 4 2 5 3 7 4 8 5 9 6 10 16 11 7 12 15 13
REMARK SMILES IDX 8 15 9 16 14 17 10 18 12 19 11 20 13 21 20 22 21 23 22 24
REMARK SMILES IDX 23 26 24 27 25 28 83 29 26 30 82 31 27 32 28 33 29 34 76 35
REMARK SMILES IDX 30 36 81 37 75 38 77 39 31 40 80 41 74 42 73 43 32 45 62 46
REMARK SMILES IDX 43 47 61 48 44 49 47 50 60 51 78 52 45 53 46 54 59 56 79 57
REMARK SMILES IDX 48 58 33 59 34 60 42 61 35 62 41 63 36 64 37 65 38 66 39 67
REMARK SMILES IDX 40 68 63 69 64 70 72 71 65 72 71 73 66 74 67 75 68 76 69 77
REMARK SMILES IDX 70 78 49 79 50 80 58 81 51 82 57 83 52 84 53 85 54 86 55 87
REMARK SMILES IDX 56 88
REMARK H PARENT 17 6 16 14 21 25 77 44 47 55
REMARK Flexibility Score: inf
ROOT
ATOM      1  C   UNL A   1      35.046  33.783  28.172  1.00  0.00     0.042 C 
ENDROOT
BRANCH   1   2
ATOM      2  C   UNL A   1      34.355  35.127  28.387  1.00  0.00     0.117 C 
BRANCH   2   3
ATOM      3  N   UNL A   1      33.654  35.202  29.654  1.00  0.00    -0.355 N 
ATOM      4  O   UNL A   1      33.234  37.462  29.585  1.00  0.00    -0.274 OA
ATOM      5  C   UNL A   1      33.107  36.371  30.137  1.00  0.00     0.230 C 
ATOM      6  H   UNL A   1      33.564  34.382  30.192  1.00  0.00     0.163 HD
BRANCH   5   7
ATOM      7  C   UNL A   1      32.413  36.253  31.483  1.00  0.00     0.178 C 
BRANCH   7   8
ATOM      8  S   UNL A   1      33.439  36.805  32.874  1.00  0.00    -0.078 SA
BRANCH   8   9
ATOM      9  C   UNL A   1      34.443  35.426  33.111  1.00  0.00     0.166 A 
ATOM     10  N   UNL A   1      35.747  35.429  33.216  1.00  0.00    -0.223 NA
ATOM     11  N   UNL A   1      33.916  34.174  33.234  1.00  0.00    -0.339 N 
ATOM     12  C   UNL A   1      36.089  34.104  33.350  1.00  0.00     0.089 A 
ATOM     13  C   UNL A   1      34.965  33.305  33.375  1.00  0.00     0.113 A 
ATOM     14  H   UNL A   1      32.960  33.938  33.223  1.00  0.00     0.168 HD
BRANCH  12  15
ATOM     15  C   UNL A   1      37.453  33.643  33.467  1.00  0.00     0.003 A 
ATOM     16  C   UNL A   1      38.500  34.573  33.502  1.00  0.00     0.010 A 
ATOM     17  C   UNL A   1      37.745  32.273  33.515  1.00  0.00     0.026 A 
ATOM     18  C   UNL A   1      39.825  34.142  33.600  1.00  0.00     0.002 A 
ATOM     19  C   UNL A   1      39.071  31.851  33.597  1.00  0.00     0.018 A 
ATOM     20  C   UNL A   1      40.112  32.778  33.646  1.00  0.00     0.016 A 
ATOM     21  Br  UNL A   1      39.464  30.002  33.632  1.00  0.00    -0.051 Br
ENDBRANCH  12  15
ENDBRANCH   8   9
ENDBRANCH   7   8
ENDBRANCH   5   7
ENDBRANCH   2   3
ENDBRANCH   1   2
BRANCH   1  22
ATOM     22  C   UNL A   1      34.610  32.671  29.124  1.00  0.00     0.118 C 
BRANCH  22  23
ATOM     23  N   UNL A   1      33.956  31.559  28.452  1.00  0.00    -0.352 N 
ATOM     24  C   UNL A   1      34.451  30.350  28.030  1.00  0.00     0.251 C 
ATOM     25  H   UNL A   1      32.997  31.695  28.271  1.00  0.00     0.163 HD
ATOM     26  O   UNL A   1      33.723  29.610  27.366  1.00  0.00    -0.269 OA
BRANCH  24  27
ATOM     27  C   UNL A   1      35.839  29.927  28.330  1.00  0.00     0.039 A 
ATOM     28  C   UNL A   1      36.804  30.049  27.324  1.00  0.00     0.014 A 
ATOM     29  C   UNL A   1      36.196  29.366  29.560  1.00  0.00     0.014 A 
ATOM     30  C   UNL A   1      38.128  29.669  27.568  1.00  0.00     0.010 A 
ATOM     31  C   UNL A   1      37.532  29.051  29.824  1.00  0.00     0.010 A 
ATOM     32  C   UNL A   1      38.513  29.196  28.832  1.00  0.00    -0.014 A 
BRANCH  32  33
ATOM     33  C   UNL A   1      39.932  28.863  29.127  1.00  0.00     0.031 A 
ATOM     34  C   UNL A   1      40.846  29.880  29.760  1.00  0.00     0.074 A 
ATOM     35  C   UNL A   1      40.419  27.654  28.781  1.00  0.00     0.049 A 
ATOM     36  N   UNL A   1      42.118  29.777  30.053  1.00  0.00    -0.248 NA
ATOM     37  C   UNL A   1      40.260  31.190  30.086  1.00  0.00     0.031 C 
ATOM     38  C   UNL A   1      39.655  26.588  28.129  1.00  0.00     0.029 A 
ATOM     39  N   UNL A   1      41.675  27.116  28.926  1.00  0.00    -0.354 N 
ATOM     40  C   UNL A   1      42.488  31.010  30.582  1.00  0.00     0.074 A 
ATOM     41  C   UNL A   1      41.317  31.858  30.527  1.00  0.00     0.031 C 
ATOM     42  C   UNL A   1      40.448  25.519  27.955  1.00  0.00     0.029 A 
ATOM     43  C   UNL A   1      41.787  25.833  28.447  1.00  0.00     0.049 A 
ATOM     44  H   UNL A   1      42.425  27.606  29.336  1.00  0.00     0.167 HD
ATOM     45  C   UNL A   1      43.686  31.396  31.083  1.00  0.00     0.031 A 
ATOM     46  C   UNL A   1      42.844  24.999  28.403  1.00  0.00     0.031 A 
ATOM     47  C   UNL A   1      44.850  30.551  31.148  1.00  0.00     0.049 A 
ATOM     48  C   UNL A   1      44.163  25.451  28.966  1.00  0.00     0.074 A 
ATOM     49  C   UNL A   1      46.095  30.839  31.683  1.00  0.00     0.029 A 
ATOM     50  N   UNL A   1      44.917  29.254  30.663  1.00  0.00    -0.354 N 
ATOM     51  N   UNL A   1      44.475  26.601  29.512  1.00  0.00    -0.248 NA
ATOM     52  C   UNL A   1      45.268  24.483  28.920  1.00  0.00     0.031 C 
ATOM     53  C   UNL A   1      46.927  29.731  31.482  1.00  0.00     0.029 A 
ATOM     54  C   UNL A   1      46.185  28.733  30.871  1.00  0.00     0.049 A 
ATOM     55  H   UNL A   1      44.173  28.772  30.234  1.00  0.00     0.167 HD
ATOM     56  C   UNL A   1      45.806  26.486  29.901  1.00  0.00     0.074 A 
ATOM     57  C   UNL A   1      46.233  25.149  29.541  1.00  0.00     0.031 C 
ATOM     58  C   UNL A   1      46.601  27.403  30.505  1.00  0.00     0.031 A 
BRANCH  45  59
ATOM     59  C   UNL A   1      43.801  32.808  31.598  1.00  0.00    -0.014 A 
ATOM     60  C   UNL A   1      43.600  33.103  32.959  1.00  0.00     0.010 A 
ATOM     61  C   UNL A   1      44.153  33.848  30.718  1.00  0.00     0.010 A 
ATOM     62  C   UNL A   1      43.703  34.418  33.421  1.00  0.00     0.020 A 
ATOM     63  C   UNL A   1      44.285  35.161  31.182  1.00  0.00     0.020 A 
ATOM     64  C   UNL A   1      44.041  35.440  32.527  1.00  0.00     0.054 A 
BRANCH  64  65
ATOM     65  S   UNL A   1      44.182  37.136  33.157  1.00  0.00     0.124 S 
ATOM     66  O   UNL A   1      43.005  37.235  34.016  1.00  0.00    -0.237 OA
ATOM     67  O   UNL A   1      45.466  37.115  33.852  1.00  0.00    -0.237 OA
ATOM     68  O   UNL A   1      44.143  37.958  31.951  1.00  0.00    -0.744 OA
ENDBRANCH  64  65
ENDBRANCH  45  59
BRANCH  46  69
ATOM     69  C   UNL A   1      42.691  23.638  27.820  1.00  0.00    -0.014 A 
ATOM     70  C   UNL A   1      42.226  22.572  28.610  1.00  0.00     0.010 A 
ATOM     71  C   UNL A   1      43.003  23.403  26.469  1.00  0.00     0.010 A 
ATOM     72  C   UNL A   1      42.092  21.292  28.065  1.00  0.00     0.020 A 
ATOM     73  C   UNL A   1      42.845  22.131  25.912  1.00  0.00     0.020 A 
ATOM     74  C   UNL A   1      42.401  21.079  26.719  1.00  0.00     0.054 A 
BRANCH  74  75
ATOM     75  S   UNL A   1      42.171  19.421  26.018  1.00  0.00     0.124 S 
ATOM     76  O   UNL A   1      40.727  19.379  25.807  1.00  0.00    -0.237 OA
ATOM     77  O   UNL A   1      42.986  19.473  24.807  1.00  0.00    -0.237 OA
ATOM     78  O   UNL A   1      42.678  18.536  27.064  1.00  0.00    -0.744 OA
ENDBRANCH  74  75
ENDBRANCH  46  69
BRANCH  58  79
ATOM     79  C   UNL A   1      48.005  26.981  30.851  1.00  0.00    -0.014 A 
ATOM     80  C   UNL A   1      48.285  26.268  32.029  1.00  0.00     0.010 A 
ATOM     81  C   UNL A   1      49.056  27.279  29.964  1.00  0.00     0.010 A 
ATOM     82  C   UNL A   1      49.598  25.896  32.335  1.00  0.00     0.020 A 
ATOM     83  C   UNL A   1      50.365  26.886  30.252  1.00  0.00     0.020 A 
ATOM     84  C   UNL A   1      50.631  26.213  31.447  1.00  0.00     0.054 A 
BRANCH  84  85
ATOM     85  S   UNL A   1      52.323  25.700  31.853  1.00  0.00     0.124 S 
ATOM     86  O   UNL A   1      52.130  24.307  32.251  1.00  0.00    -0.237 OA
ATOM     87  O   UNL A   1      53.032  25.899  30.592  1.00  0.00    -0.237 OA
ATOM     88  O   UNL A   1      52.711  26.608  32.930  1.00  0.00    -0.744 OA
ENDBRANCH  84  85
ENDBRANCH  58  79
ENDBRANCH  32  33
ENDBRANCH  24  27
ENDBRANCH  22  23
ENDBRANCH   1  22
TORSDOF 16
ENDMDL
MODEL 2
REMARK VINA RESULT:     -10.2      4.099     12.760
REMARK SMILES O=C(CSc1nc(-c2cccc(Br)c2)c[nH]1)NCCCNC(=O)c1ccc(-c2c3nc(c(-c4ccc(S(=O)(=O)[O-])cc4)c4ccc([nH]4)c(-c4ccc(S(=O)(=O)[O-])cc4)c4nc(c(-c5ccc(S(=O)(=O)[O-])cc5)c5ccc2[nH]5)C=C4)C=C3)cc1
REMARK SMILES IDX 19 1 18 2 17 3 1 4 2 5 3 7 4 8 5 9 6 10 16 11 7 12 15 13
REMARK SMILES IDX 8 15 9 16 14 17 10 18 12 19 11 20 13 21 20 22 21 23 22 24
REMARK SMILES IDX 23 26 24 27 25 28 83 29 26 30 82 31 27 32 28 33 29 34 76 35
REMARK SMILES IDX 30 36 81 37 75 38 77 39 31 40 80 41 74 42 73 43 32 45 62 46
REMARK SMILES IDX 43 47 61 48 44 49 47 50 60 51 78 52 45 53 46 54 59 56 79 57
REMARK SMILES IDX 48 58 33 59 34 60 42 61 35 62 41 63 36 64 37 65 38 66 39 67
REMARK SMILES IDX 40 68 63 69 64 70 72 71 65 72 71 73 66 74 67 75 68 76 69 77
REMARK SMILES IDX 70 78 49 79 50 80 58 81 51 82 57 83 52 84 53 85 54 86 55 87
REMARK SMILES IDX 56 88
REMARK H PARENT 17 6 16 14 21 25 77 44 47 55
REMARK Flexibility Score: inf
ROOT
ATOM      1  C   UNL A   1      42.285  21.777  27.310  1.00  0.00     0.042 C 
ENDROOT
BRANCH   1   2
ATOM      2  C   UNL A   1      41.975  20.538  26.473  1.00  0.00     0.117 C 
BRANCH   2   3
ATOM      3  N   UNL A   1      42.918  20.342  25.390  1.00  0.00    -0.355 N 
ATOM      4  O   UNL A   1      43.551  18.211  25.981  1.00  0.00    -0.274 OA
ATOM      5  C   UNL A   1      43.608  19.163  25.205  1.00  0.00     0.230 C 
ATOM      6  H   UNL A   1      43.072  21.081  24.759  1.00  0.00     0.163 HD
BRANCH   5   7
ATOM      7  C   UNL A   1      44.553  19.146  24.016  1.00  0.00     0.178 C 
BRANCH   7   8
ATOM      8  S   UNL A   1      46.241  19.671  24.429  1.00  0.00    -0.078 SA
BRANCH   8   9
ATOM      9  C   UNL A   1      45.984  21.328  24.819  1.00  0.00     0.166 A 
ATOM     10  N   UNL A   1      45.928  21.839  26.022  1.00  0.00    -0.223 NA
ATOM     11  N   UNL A   1      45.838  22.274  23.848  1.00  0.00    -0.339 N 
ATOM     12  C   UNL A   1      45.667  23.174  25.823  1.00  0.00     0.089 A 
ATOM     13  C   UNL A   1      45.617  23.471  24.476  1.00  0.00     0.113 A 
ATOM     14  H   UNL A   1      45.881  22.126  22.875  1.00  0.00     0.168 HD
BRANCH  12  15
ATOM     15  C   UNL A   1      45.493  24.120  26.901  1.00  0.00     0.003 A 
ATOM     16  C   UNL A   1      45.818  25.468  26.700  1.00  0.00     0.010 A 
ATOM     17  C   UNL A   1      45.030  23.701  28.155  1.00  0.00     0.026 A 
ATOM     18  C   UNL A   1      45.669  26.393  27.736  1.00  0.00     0.002 A 
ATOM     19  C   UNL A   1      44.899  24.628  29.188  1.00  0.00     0.018 A 
ATOM     20  C   UNL A   1      45.211  25.972  28.984  1.00  0.00     0.016 A 
ATOM     21  Br  UNL A   1      44.303  24.055  30.889  1.00  0.00    -0.051 Br
ENDBRANCH  12  15
ENDBRANCH   8   9
ENDBRANCH   7   8
ENDBRANCH   5   7
ENDBRANCH   2   3
ENDBRANCH   1   2
BRANCH   1  22
ATOM     22  C   UNL A   1      41.456  23.013  26.967  1.00  0.00     0.118 C 
BRANCH  22  23
ATOM     23  N   UNL A   1      42.020  23.804  25.884  1.00  0.00    -0.352 N 
ATOM     24  C   UNL A   1      42.205  25.159  25.765  1.00  0.00     0.251 C 
ATOM     25  H   UNL A   1      42.321  23.279  25.106  1.00  0.00     0.163 HD
ATOM     26  O   UNL A   1      42.594  25.612  24.687  1.00  0.00    -0.269 OA
BRANCH  24  27
ATOM     27  C   UNL A   1      41.925  26.087  26.886  1.00  0.00     0.039 A 
ATOM     28  C   UNL A   1      41.089  25.649  27.919  1.00  0.00     0.014 A 
ATOM     29  C   UNL A   1      42.425  27.391  26.914  1.00  0.00     0.014 A 
ATOM     30  C   UNL A   1      40.805  26.489  29.000  1.00  0.00     0.010 A 
ATOM     31  C   UNL A   1      42.197  28.206  28.027  1.00  0.00     0.010 A 
ATOM     32  C   UNL A   1      41.383  27.766  29.082  1.00  0.00    -0.014 A 
BRANCH  32  33
ATOM     33  C   UNL A   1      41.152  28.638  30.264  1.00  0.00     0.031 A 
ATOM     34  C   UNL A   1      41.999  28.498  31.501  1.00  0.00     0.074 A 
ATOM     35  C   UNL A   1      40.142  29.533  30.246  1.00  0.00     0.049 A 
ATOM     36  N   UNL A   1      41.916  29.146  32.637  1.00  0.00    -0.248 NA
ATOM     37  C   UNL A   1      43.065  27.483  31.468  1.00  0.00     0.031 C 
ATOM     38  C   UNL A   1      39.222  29.748  29.127  1.00  0.00     0.029 A 
ATOM     39  N   UNL A   1      39.718  30.427  31.198  1.00  0.00    -0.354 N 
ATOM     40  C   UNL A   1      42.904  28.608  33.456  1.00  0.00     0.074 A 
ATOM     41  C   UNL A   1      43.544  27.551  32.702  1.00  0.00     0.031 C 
ATOM     42  C   UNL A   1      38.360  30.727  29.446  1.00  0.00     0.029 A 
ATOM     43  C   UNL A   1      38.641  31.185  30.804  1.00  0.00     0.049 A 
ATOM     44  H   UNL A   1      40.146  30.516  32.080  1.00  0.00     0.167 HD
ATOM     45  C   UNL A   1      43.259  28.971  34.712  1.00  0.00     0.031 A 
ATOM     46  C   UNL A   1      37.951  32.140  31.458  1.00  0.00     0.031 A 
ATOM     47  C   UNL A   1      42.631  30.028  35.460  1.00  0.00     0.049 A 
ATOM     48  C   UNL A   1      38.364  32.525  32.852  1.00  0.00     0.074 A 
ATOM     49  C   UNL A   1      42.955  30.501  36.721  1.00  0.00     0.029 A 
ATOM     50  N   UNL A   1      41.552  30.780  35.020  1.00  0.00    -0.354 N 
ATOM     51  N   UNL A   1      39.337  32.041  33.585  1.00  0.00    -0.248 NA
ATOM     52  C   UNL A   1      37.594  33.596  33.498  1.00  0.00     0.031 C 
ATOM     53  C   UNL A   1      42.042  31.507  37.062  1.00  0.00     0.029 A 
ATOM     54  C   UNL A   1      41.186  31.699  35.989  1.00  0.00     0.049 A 
ATOM     55  H   UNL A   1      41.111  30.675  34.146  1.00  0.00     0.167 HD
ATOM     56  C   UNL A   1      39.315  32.770  34.770  1.00  0.00     0.074 A 
ATOM     57  C   UNL A   1      38.242  33.736  34.647  1.00  0.00     0.031 C 
ATOM     58  C   UNL A   1      40.114  32.653  35.859  1.00  0.00     0.031 A 
BRANCH  45  59
ATOM     59  C   UNL A   1      44.383  28.207  35.364  1.00  0.00    -0.014 A 
ATOM     60  C   UNL A   1      44.137  27.012  36.066  1.00  0.00     0.010 A 
ATOM     61  C   UNL A   1      45.707  28.666  35.241  1.00  0.00     0.010 A 
ATOM     62  C   UNL A   1      45.188  26.318  36.672  1.00  0.00     0.020 A 
ATOM     63  C   UNL A   1      46.764  27.959  35.821  1.00  0.00     0.020 A 
ATOM     64  C   UNL A   1      46.495  26.799  36.549  1.00  0.00     0.054 A 
BRANCH  64  65
ATOM     65  S   UNL A   1      47.842  25.869  37.333  1.00  0.00     0.124 S 
ATOM     66  O   UNL A   1      48.941  26.085  36.396  1.00  0.00    -0.237 OA
ATOM     67  O   UNL A   1      47.981  26.534  38.626  1.00  0.00    -0.237 OA
ATOM     68  O   UNL A   1      47.332  24.502  37.391  1.00  0.00    -0.744 OA
ENDBRANCH  64  65
ENDBRANCH  45  59
BRANCH  46  69
ATOM     69  C   UNL A   1      36.805  32.815  30.790  1.00  0.00    -0.014 A 
ATOM     70  C   UNL A   1      35.484  32.433  31.082  1.00  0.00     0.010 A 
ATOM     71  C   UNL A   1      37.029  33.851  29.865  1.00  0.00     0.010 A 
ATOM     72  C   UNL A   1      34.408  33.061  30.448  1.00  0.00     0.020 A 
ATOM     73  C   UNL A   1      35.955  34.500  29.250  1.00  0.00     0.020 A 
ATOM     74  C   UNL A   1      34.650  34.092  29.536  1.00  0.00     0.054 A 
BRANCH  74  75
ATOM     75  S   UNL A   1      33.237  34.928  28.763  1.00  0.00     0.124 S 
ATOM     76  O   UNL A   1      33.885  36.037  28.069  1.00  0.00    -0.237 OA
ATOM     77  O   UNL A   1      32.681  33.884  27.907  1.00  0.00    -0.237 OA
ATOM     78  O   UNL A   1      32.400  35.303  29.901  1.00  0.00    -0.744 OA
ENDBRANCH  74  75
ENDBRANCH  46  69
BRANCH  58  79
ATOM     79  C   UNL A   1      39.883  33.617  36.993  1.00  0.00    -0.014 A 
ATOM     80  C   UNL A   1      38.933  33.354  37.996  1.00  0.00     0.010 A 
ATOM     81  C   UNL A   1      40.653  34.792  37.070  1.00  0.00     0.010 A 
ATOM     82  C   UNL A   1      38.728  34.270  39.033  1.00  0.00     0.020 A 
ATOM     83  C   UNL A   1      40.471  35.697  38.119  1.00  0.00     0.020 A 
ATOM     84  C   UNL A   1      39.495  35.438  39.084  1.00  0.00     0.054 A 
BRANCH  84  85
ATOM     85  S   UNL A   1      39.229  36.600  40.452  1.00  0.00     0.124 S 
ATOM     86  O   UNL A   1      38.427  35.801  41.376  1.00  0.00    -0.237 OA
ATOM     87  O   UNL A   1      40.588  36.895  40.895  1.00  0.00    -0.237 OA
ATOM     88  O   UNL A   1      38.528  37.719  39.825  1.00  0.00    -0.744 OA
ENDBRANCH  84  85
ENDBRANCH  58  79
ENDBRANCH  32  33
ENDBRANCH  24  27
ENDBRANCH  22  23
ENDBRANCH   1  22
TORSDOF 16
ENDMDL
MODEL 3
REMARK VINA RESULT:     -10.1      0.547      8.337
REMARK SMILES O=C(CSc1nc(-c2cccc(Br)c2)c[nH]1)NCCCNC(=O)c1ccc(-c2c3nc(c(-c4ccc(S(=O)(=O)[O-])cc4)c4ccc([nH]4)c(-c4ccc(S(=O)(=O)[O-])cc4)c4nc(c(-c5ccc(S(=O)(=O)[O-])cc5)c5ccc2[nH]5)C=C4)C=C3)cc1
REMARK SMILES IDX 19 1 18 2 17 3 1 4 2 5 3 7 4 8 5 9 6 10 16 11 7 12 15 13
REMARK SMILES IDX 8 15 9 16 14 17 10 18 12 19 11 20 13 21 20 22 21 23 22 24
REMARK SMILES IDX 23 26 24 27 25 28 83 29 26 30 82 31 27 32 28 33 29 34 76 35
REMARK SMILES IDX 30 36 81 37 75 38 77 39 31 40 80 41 74 42 73 43 32 45 62 46
REMARK SMILES IDX 43 47 61 48 44 49 47 50 60 51 78 52 45 53 46 54 59 56 79 57
REMARK SMILES IDX 48 58 33 59 34 60 42 61 35 62 41 63 36 64 37 65 38 66 39 67
REMARK SMILES IDX 40 68 63 69 64 70 72 71 65 72 71 73 66 74 67 75 68 76 69 77
REMARK SMILES IDX 70 78 49 79 50 80 58 81 51 82 57 83 52 84 53 85 54 86 55 87
REMARK SMILES IDX 56 88
REMARK H PARENT 17 6 16 14 21 25 77 44 47 55
REMARK Flexibility Score: inf
ROOT
ATOM      1  C   UNL A   1      35.015  33.607  28.023  1.00  0.00     0.042 C 
ENDROOT
BRANCH   1   2
ATOM      2  C   UNL A   1      34.691  35.071  28.312  1.00  0.00     0.117 C 
BRANCH   2   3
ATOM      3  N   UNL A   1      34.127  35.271  29.632  1.00  0.00    -0.355 N 
ATOM      4  O   UNL A   1      32.276  36.451  28.946  1.00  0.00    -0.274 OA
ATOM      5  C   UNL A   1      32.928  35.917  29.842  1.00  0.00     0.230 C 
ATOM      6  H   UNL A   1      34.620  34.930  30.413  1.00  0.00     0.163 HD
BRANCH   5   7
ATOM      7  C   UNL A   1      32.499  36.032  31.294  1.00  0.00     0.178 C 
BRANCH   7   8
ATOM      8  S   UNL A   1      33.739  36.831  32.352  1.00  0.00    -0.078 SA
BRANCH   8   9
ATOM      9  C   UNL A   1      34.615  35.463  32.924  1.00  0.00     0.166 A 
ATOM     10  N   UNL A   1      35.916  35.359  33.008  1.00  0.00    -0.223 NA
ATOM     11  N   UNL A   1      33.976  34.346  33.373  1.00  0.00    -0.339 N 
ATOM     12  C   UNL A   1      36.135  34.086  33.475  1.00  0.00     0.089 A 
ATOM     13  C   UNL A   1      34.942  33.439  33.721  1.00  0.00     0.113 A 
ATOM     14  H   UNL A   1      33.002  34.214  33.436  1.00  0.00     0.168 HD
BRANCH  12  15
ATOM     15  C   UNL A   1      37.452  33.532  33.690  1.00  0.00     0.003 A 
ATOM     16  C   UNL A   1      38.513  34.379  34.035  1.00  0.00     0.010 A 
ATOM     17  C   UNL A   1      37.688  32.161  33.529  1.00  0.00     0.026 A 
ATOM     18  C   UNL A   1      39.796  33.861  34.232  1.00  0.00     0.002 A 
ATOM     19  C   UNL A   1      38.975  31.654  33.712  1.00  0.00     0.018 A 
ATOM     20  C   UNL A   1      40.028  32.496  34.069  1.00  0.00     0.016 A 
ATOM     21  Br  UNL A   1      39.297  29.807  33.465  1.00  0.00    -0.051 Br
ENDBRANCH  12  15
ENDBRANCH   8   9
ENDBRANCH   7   8
ENDBRANCH   5   7
ENDBRANCH   2   3
ENDBRANCH   1   2
BRANCH   1  22
ATOM     22  C   UNL A   1      34.442  32.608  29.026  1.00  0.00     0.118 C 
BRANCH  22  23
ATOM     23  N   UNL A   1      33.838  31.442  28.400  1.00  0.00    -0.352 N 
ATOM     24  C   UNL A   1      34.389  30.248  28.009  1.00  0.00     0.251 C 
ATOM     25  H   UNL A   1      32.871  31.524  28.228  1.00  0.00     0.163 HD
ATOM     26  O   UNL A   1      33.692  29.450  27.379  1.00  0.00    -0.269 OA
BRANCH  24  27
ATOM     27  C   UNL A   1      35.801  29.905  28.302  1.00  0.00     0.039 A 
ATOM     28  C   UNL A   1      36.749  30.066  27.286  1.00  0.00     0.014 A 
ATOM     29  C   UNL A   1      36.198  29.383  29.536  1.00  0.00     0.014 A 
ATOM     30  C   UNL A   1      38.094  29.764  27.523  1.00  0.00     0.010 A 
ATOM     31  C   UNL A   1      37.551  29.145  29.793  1.00  0.00     0.010 A 
ATOM     32  C   UNL A   1      38.515  29.330  28.790  1.00  0.00    -0.014 A 
BRANCH  32  33
ATOM     33  C   UNL A   1      39.953  29.080  29.076  1.00  0.00     0.031 A 
ATOM     34  C   UNL A   1      40.585  27.755  28.736  1.00  0.00     0.074 A 
ATOM     35  C   UNL A   1      40.687  30.030  29.690  1.00  0.00     0.049 A 
ATOM     36  N   UNL A   1      41.811  27.347  28.947  1.00  0.00    -0.248 NA
ATOM     37  C   UNL A   1      39.722  26.750  28.094  1.00  0.00     0.031 C 
ATOM     38  C   UNL A   1      40.192  31.344  30.107  1.00  0.00     0.029 A 
ATOM     39  N   UNL A   1      42.006  30.038  30.072  1.00  0.00    -0.354 N 
ATOM     40  C   UNL A   1      41.863  26.037  28.481  1.00  0.00     0.074 A 
ATOM     41  C   UNL A   1      40.533  25.704  28.017  1.00  0.00     0.031 C 
ATOM     42  C   UNL A   1      41.198  32.038  30.663  1.00  0.00     0.029 A 
ATOM     43  C   UNL A   1      42.400  31.209  30.676  1.00  0.00     0.049 A 
ATOM     44  H   UNL A   1      42.612  29.276  29.927  1.00  0.00     0.167 HD
ATOM     45  C   UNL A   1      42.923  25.194  28.427  1.00  0.00     0.031 A 
ATOM     46  C   UNL A   1      43.590  31.577  31.188  1.00  0.00     0.031 A 
ATOM     47  C   UNL A   1      44.249  25.526  28.879  1.00  0.00     0.049 A 
ATOM     48  C   UNL A   1      44.751  30.624  31.116  1.00  0.00     0.074 A 
ATOM     49  C   UNL A   1      45.397  24.754  28.819  1.00  0.00     0.029 A 
ATOM     50  N   UNL A   1      44.607  26.727  29.472  1.00  0.00    -0.354 N 
ATOM     51  N   UNL A   1      44.791  29.411  30.620  1.00  0.00    -0.248 NA
ATOM     52  C   UNL A   1      46.031  31.098  31.660  1.00  0.00     0.031 C 
ATOM     53  C   UNL A   1      46.440  25.470  29.418  1.00  0.00     0.029 A 
ATOM     54  C   UNL A   1      45.954  26.711  29.800  1.00  0.00     0.049 A 
ATOM     55  H   UNL A   1      43.995  27.480  29.637  1.00  0.00     0.167 HD
ATOM     56  C   UNL A   1      46.108  28.986  30.765  1.00  0.00     0.074 A 
ATOM     57  C   UNL A   1      46.833  30.079  31.382  1.00  0.00     0.031 C 
ATOM     58  C   UNL A   1      46.666  27.801  30.417  1.00  0.00     0.031 A 
BRANCH  45  59
ATOM     59  C   UNL A   1      42.686  23.817  27.862  1.00  0.00    -0.014 A 
ATOM     60  C   UNL A   1      42.516  22.704  28.706  1.00  0.00     0.010 A 
ATOM     61  C   UNL A   1      42.593  23.638  26.469  1.00  0.00     0.010 A 
ATOM     62  C   UNL A   1      42.305  21.432  28.168  1.00  0.00     0.020 A 
ATOM     63  C   UNL A   1      42.353  22.371  25.928  1.00  0.00     0.020 A 
ATOM     64  C   UNL A   1      42.229  21.274  26.780  1.00  0.00     0.054 A 
BRANCH  64  65
ATOM     65  S   UNL A   1      41.939  19.613  26.109  1.00  0.00     0.124 S 
ATOM     66  O   UNL A   1      42.858  19.583  24.974  1.00  0.00    -0.237 OA
ATOM     67  O   UNL A   1      42.297  18.746  27.229  1.00  0.00    -0.237 OA
ATOM     68  O   UNL A   1      40.520  19.622  25.761  1.00  0.00    -0.744 OA
ENDBRANCH  64  65
ENDBRANCH  45  59
BRANCH  46  69
ATOM     69  C   UNL A   1      43.750  32.926  31.797  1.00  0.00    -0.014 A 
ATOM     70  C   UNL A   1      44.154  34.020  31.011  1.00  0.00     0.010 A 
ATOM     71  C   UNL A   1      43.491  33.125  33.165  1.00  0.00     0.010 A 
ATOM     72  C   UNL A   1      44.313  35.284  31.586  1.00  0.00     0.020 A 
ATOM     73  C   UNL A   1      43.622  34.393  33.738  1.00  0.00     0.020 A 
ATOM     74  C   UNL A   1      44.045  35.463  32.946  1.00  0.00     0.054 A 
BRANCH  74  75
ATOM     75  S   UNL A   1      44.209  37.123  33.660  1.00  0.00     0.124 S 
ATOM     76  O   UNL A   1      45.414  36.986  34.472  1.00  0.00    -0.237 OA
ATOM     77  O   UNL A   1      44.336  37.967  32.475  1.00  0.00    -0.237 OA
ATOM     78  O   UNL A   1      42.965  37.296  34.408  1.00  0.00    -0.744 OA
ENDBRANCH  74  75
ENDBRANCH  46  69
BRANCH  58  79
ATOM     79  C   UNL A   1      48.144  27.634  30.659  1.00  0.00    -0.014 A 
ATOM     80  C   UNL A   1      48.637  27.181  31.895  1.00  0.00     0.010 A 
ATOM     81  C   UNL A   1      49.050  27.909  29.618  1.00  0.00     0.010 A 
ATOM     82  C   UNL A   1      50.012  27.045  32.100  1.00  0.00     0.020 A 
ATOM     83  C   UNL A   1      50.425  27.748  29.810  1.00  0.00     0.020 A 
ATOM     84  C   UNL A   1      50.899  27.335  31.057  1.00  0.00     0.054 A 
BRANCH  84  85
ATOM     85  S   UNL A   1      52.679  27.128  31.338  1.00  0.00     0.124 S 
ATOM     86  O   UNL A   1      53.074  26.314  30.192  1.00  0.00    -0.237 OA
ATOM     87  O   UNL A   1      53.169  28.504  31.330  1.00  0.00    -0.237 OA
ATOM     88  O   UNL A   1      52.749  26.456  32.634  1.00  0.00    -0.744 OA
ENDBRANCH  84  85
ENDBRANCH  58  79
ENDBRANCH  32  33
ENDBRANCH  24  27
ENDBRANCH  22  23
ENDBRANCH   1  22
TORSDOF 16
ENDMDL
