MODEL 1
REMARK VINA RESULT:     -13.0      0.000      0.000
REMARK SMILES Cc1cc(C)c2c(CCCC(=O)NCCCNC(=O)c3ccc(-c4c5nc(c(-c6ccc(S(=O)(=O)[O-])cc6)c6ccc([nH]6)c(-c6ccc(S(=O)(=O)[O-])cc6)c6nc(c(-c7ccc(S(=O)(=O)[O-])cc7)c7ccc4[nH]7)C=C6)C=C5)cc3)c(-c3ccccn3)[nH]c2c1
REMARK SMILES IDX 14 1 13 2 11 3 12 4 10 6 9 7 8 8 7 9 1 10 2 11 3 12 89 13
REMARK SMILES IDX 4 14 88 15 5 16 6 17 87 18 80 19 81 21 82 22 86 23 83 24
REMARK SMILES IDX 85 25 84 26 15 27 16 28 17 29 18 30 19 32 20 33 21 34 79 35
REMARK SMILES IDX 22 36 78 37 23 38 24 39 25 40 72 41 26 42 77 43 71 44 73 45
REMARK SMILES IDX 27 46 76 47 70 48 69 49 28 51 58 52 39 53 57 54 40 55 43 56
REMARK SMILES IDX 56 57 74 58 41 59 42 60 55 62 75 63 44 64 29 65 30 66 38 67
REMARK SMILES IDX 31 68 37 69 32 70 33 71 34 72 35 73 36 74 59 75 60 76 68 77
REMARK SMILES IDX 61 78 67 79 62 80 63 81 64 82 65 83 66 84 45 85 46 86 54 87
REMARK SMILES IDX 47 88 53 89 48 90 49 91 50 92 51 93 52 94
REMARK H PARENT 13 5 87 20 17 31 73 50 43 61
REMARK Flexibility Score: inf
ROOT
ATOM      1  C   UNL A   1      35.869  21.473  25.045  1.00  0.00     0.117 C 
ENDROOT
BRANCH   1   2
ATOM      2  N   UNL A   1      35.239  22.022  26.226  1.00  0.00    -0.356 N 
ATOM      3  C   UNL A   1      34.412  23.088  26.385  1.00  0.00     0.220 C 
ATOM      4  O   UNL A   1      33.842  23.180  27.477  1.00  0.00    -0.275 OA
ATOM      5  H   UNL A   1      35.447  21.541  27.060  1.00  0.00     0.163 HD
BRANCH   3   6
ATOM      6  C   UNL A   1      34.049  24.066  25.282  1.00  0.00     0.100 C 
BRANCH   6   7
ATOM      7  C   UNL A   1      34.140  25.569  25.418  1.00  0.00     0.015 C 
BRANCH   7   8
ATOM      8  C   UNL A   1      32.999  26.402  25.963  1.00  0.00     0.039 C 
BRANCH   8   9
ATOM      9  C   UNL A   1      32.550  27.787  25.524  1.00  0.00    -0.013 A 
ATOM     10  C   UNL A   1      28.051  29.316  22.259  1.00  0.00     0.044 C 
ATOM     11  C   UNL A   1      29.172  28.836  23.131  1.00  0.00    -0.049 A 
ATOM     12  C   UNL A   1      29.288  27.483  23.443  1.00  0.00     0.007 A 
ATOM     13  C   UNL A   1      30.074  29.750  23.678  1.00  0.00     0.030 A 
ATOM     14  C   UNL A   1      30.330  26.982  24.255  1.00  0.00    -0.041 A 
ATOM     15  C   UNL A   1      31.128  29.254  24.454  1.00  0.00     0.047 A 
ATOM     16  C   UNL A   1      30.289  25.506  24.576  1.00  0.00     0.045 C 
ATOM     17  C   UNL A   1      31.318  27.903  24.728  1.00  0.00     0.006 A 
ATOM     18  N   UNL A   1      32.123  29.939  25.094  1.00  0.00    -0.353 N 
ATOM     19  C   UNL A   1      32.937  29.107  25.828  1.00  0.00     0.068 A 
ATOM     20  H   UNL A   1      32.242  30.915  25.037  1.00  0.00     0.167 HD
BRANCH  19  21
ATOM     21  C   UNL A   1      33.825  29.750  26.809  1.00  0.00     0.087 A 
ATOM     22  C   UNL A   1      35.032  29.138  27.169  1.00  0.00     0.030 A 
ATOM     23  N   UNL A   1      33.456  30.956  27.277  1.00  0.00    -0.255 NA
ATOM     24  C   UNL A   1      35.974  29.866  27.892  1.00  0.00     0.004 A 
ATOM     25  C   UNL A   1      34.398  31.645  27.979  1.00  0.00     0.112 A 
ATOM     26  C   UNL A   1      35.666  31.163  28.274  1.00  0.00     0.020 A 
ENDBRANCH  19  21
ENDBRANCH   8   9
ENDBRANCH   7   8
ENDBRANCH   6   7
ENDBRANCH   3   6
ENDBRANCH   1   2
BRANCH   1  27
ATOM     27  C   UNL A   1      37.238  22.066  24.713  1.00  0.00     0.042 C 
BRANCH  27  28
ATOM     28  C   UNL A   1      38.107  22.270  25.928  1.00  0.00     0.118 C 
BRANCH  28  29
ATOM     29  N   UNL A   1      39.449  21.681  25.805  1.00  0.00    -0.352 N 
ATOM     30  C   UNL A   1      40.660  22.311  26.095  1.00  0.00     0.251 C 
ATOM     31  H   UNL A   1      39.497  20.751  25.486  1.00  0.00     0.163 HD
ATOM     32  O   UNL A   1      41.710  21.936  25.621  1.00  0.00    -0.269 OA
BRANCH  30  33
ATOM     33  C   UNL A   1      40.589  23.455  27.028  1.00  0.00     0.039 A 
ATOM     34  C   UNL A   1      41.447  23.603  28.118  1.00  0.00     0.014 A 
ATOM     35  C   UNL A   1      39.758  24.486  26.617  1.00  0.00     0.014 A 
ATOM     36  C   UNL A   1      41.530  24.861  28.717  1.00  0.00     0.010 A 
ATOM     37  C   UNL A   1      40.081  25.754  26.999  1.00  0.00     0.010 A 
ATOM     38  C   UNL A   1      40.872  25.949  28.117  1.00  0.00    -0.014 A 
BRANCH  38  39
ATOM     39  C   UNL A   1      41.015  27.322  28.580  1.00  0.00     0.031 A 
ATOM     40  C   UNL A   1      42.098  28.098  27.930  1.00  0.00     0.074 A 
ATOM     41  C   UNL A   1      40.144  27.909  29.434  1.00  0.00     0.049 A 
ATOM     42  N   UNL A   1      43.286  28.285  28.394  1.00  0.00    -0.248 NA
ATOM     43  C   UNL A   1      41.918  28.576  26.551  1.00  0.00     0.031 C 
ATOM     44  C   UNL A   1      38.866  27.410  29.968  1.00  0.00     0.029 A 
ATOM     45  N   UNL A   1      40.205  29.155  29.964  1.00  0.00    -0.354 N 
ATOM     46  C   UNL A   1      43.932  29.114  27.489  1.00  0.00     0.074 A 
ATOM     47  C   UNL A   1      43.123  29.095  26.294  1.00  0.00     0.031 C 
ATOM     48  C   UNL A   1      38.179  28.420  30.547  1.00  0.00     0.029 A 
ATOM     49  C   UNL A   1      39.053  29.572  30.620  1.00  0.00     0.049 A 
ATOM     50  H   UNL A   1      41.005  29.723  29.889  1.00  0.00     0.167 HD
ATOM     51  C   UNL A   1      44.946  29.932  27.892  1.00  0.00     0.031 A 
ATOM     52  C   UNL A   1      38.850  30.770  31.222  1.00  0.00     0.031 A 
ATOM     53  C   UNL A   1      45.343  29.632  29.249  1.00  0.00     0.049 A 
ATOM     54  C   UNL A   1      40.197  31.300  31.546  1.00  0.00     0.074 A 
ATOM     55  C   UNL A   1      45.875  28.532  29.891  1.00  0.00     0.029 A 
ATOM     56  N   UNL A   1      44.797  30.423  30.237  1.00  0.00    -0.354 N 
ATOM     57  N   UNL A   1      40.997  30.727  32.404  1.00  0.00    -0.248 NA
ATOM     58  C   UNL A   1      40.842  32.166  30.573  1.00  0.00     0.031 C 
ATOM     59  C   UNL A   1      45.208  28.487  31.152  1.00  0.00     0.029 A 
ATOM     60  C   UNL A   1      44.369  29.601  31.246  1.00  0.00     0.049 A 
ATOM     61  H   UNL A   1      44.727  31.405  30.220  1.00  0.00     0.167 HD
ATOM     62  C   UNL A   1      42.256  30.804  31.823  1.00  0.00     0.074 A 
ATOM     63  C   UNL A   1      42.111  31.781  30.743  1.00  0.00     0.031 C 
ATOM     64  C   UNL A   1      43.221  29.874  32.090  1.00  0.00     0.031 A 
BRANCH  51  65
ATOM     65  C   UNL A   1      45.299  31.253  27.257  1.00  0.00    -0.014 A 
ATOM     66  C   UNL A   1      46.659  31.509  26.973  1.00  0.00     0.010 A 
ATOM     67  C   UNL A   1      44.415  32.347  27.190  1.00  0.00     0.010 A 
ATOM     68  C   UNL A   1      47.125  32.807  26.745  1.00  0.00     0.020 A 
ATOM     69  C   UNL A   1      44.865  33.643  26.923  1.00  0.00     0.020 A 
ATOM     70  C   UNL A   1      46.225  33.870  26.745  1.00  0.00     0.054 A 
BRANCH  70  71
ATOM     71  S   UNL A   1      46.858  35.556  26.589  1.00  0.00     0.124 S 
ATOM     72  O   UNL A   1      45.625  36.331  26.494  1.00  0.00    -0.237 OA
ATOM     73  O   UNL A   1      47.614  35.716  27.828  1.00  0.00    -0.237 OA
ATOM     74  O   UNL A   1      47.665  35.507  25.373  1.00  0.00    -0.744 OA
ENDBRANCH  70  71
ENDBRANCH  51  65
BRANCH  52  75
ATOM     75  C   UNL A   1      37.627  31.609  31.197  1.00  0.00    -0.014 A 
ATOM     76  C   UNL A   1      36.490  31.245  31.943  1.00  0.00     0.010 A 
ATOM     77  C   UNL A   1      37.683  32.925  30.691  1.00  0.00     0.010 A 
ATOM     78  C   UNL A   1      35.488  32.184  32.244  1.00  0.00     0.020 A 
ATOM     79  C   UNL A   1      36.687  33.866  30.985  1.00  0.00     0.020 A 
ATOM     80  C   UNL A   1      35.607  33.498  31.785  1.00  0.00     0.054 A 
BRANCH  80  81
ATOM     81  S   UNL A   1      34.412  34.750  32.347  1.00  0.00     0.124 S 
ATOM     82  O   UNL A   1      33.928  35.306  31.086  1.00  0.00    -0.237 OA
ATOM     83  O   UNL A   1      33.446  33.952  33.096  1.00  0.00    -0.237 OA
ATOM     84  O   UNL A   1      35.219  35.661  33.156  1.00  0.00    -0.744 OA
ENDBRANCH  80  81
ENDBRANCH  52  75
BRANCH  64  85
ATOM     85  C   UNL A   1      42.994  28.905  33.233  1.00  0.00    -0.014 A 
ATOM     86  C   UNL A   1      43.528  29.071  34.526  1.00  0.00     0.010 A 
ATOM     87  C   UNL A   1      42.058  27.876  33.026  1.00  0.00     0.010 A 
ATOM     88  C   UNL A   1      43.144  28.220  35.577  1.00  0.00     0.020 A 
ATOM     89  C   UNL A   1      41.658  27.039  34.070  1.00  0.00     0.020 A 
ATOM     90  C   UNL A   1      42.207  27.210  35.341  1.00  0.00     0.054 A 
BRANCH  90  91
ATOM     91  S   UNL A   1      41.671  26.142  36.709  1.00  0.00     0.124 S 
ATOM     92  O   UNL A   1      40.669  26.963  37.381  1.00  0.00    -0.237 OA
ATOM     93  O   UNL A   1      41.157  24.962  36.017  1.00  0.00    -0.237 OA
ATOM     94  O   UNL A   1      42.897  25.914  37.474  1.00  0.00    -0.744 OA
ENDBRANCH  90  91
ENDBRANCH  64  85
ENDBRANCH  38  39
ENDBRANCH  30  33
ENDBRANCH  28  29
ENDBRANCH  27  28
ENDBRANCH   1  27
TORSDOF 17
ENDMDL
MODEL 2
REMARK VINA RESULT:     -12.6      2.578      9.655
REMARK SMILES Cc1cc(C)c2c(CCCC(=O)NCCCNC(=O)c3ccc(-c4c5nc(c(-c6ccc(S(=O)(=O)[O-])cc6)c6ccc([nH]6)c(-c6ccc(S(=O)(=O)[O-])cc6)c6nc(c(-c7ccc(S(=O)(=O)[O-])cc7)c7ccc4[nH]7)C=C6)C=C5)cc3)c(-c3ccccn3)[nH]c2c1
REMARK SMILES IDX 14 1 13 2 11 3 12 4 10 6 9 7 8 8 7 9 1 10 2 11 3 12 89 13
REMARK SMILES IDX 4 14 88 15 5 16 6 17 87 18 80 19 81 21 82 22 86 23 83 24
REMARK SMILES IDX 85 25 84 26 15 27 16 28 17 29 18 30 19 32 20 33 21 34 79 35
REMARK SMILES IDX 22 36 78 37 23 38 24 39 25 40 72 41 26 42 77 43 71 44 73 45
REMARK SMILES IDX 27 46 76 47 70 48 69 49 28 51 58 52 39 53 57 54 40 55 43 56
REMARK SMILES IDX 56 57 74 58 41 59 42 60 55 62 75 63 44 64 29 65 30 66 38 67
REMARK SMILES IDX 31 68 37 69 32 70 33 71 34 72 35 73 36 74 59 75 60 76 68 77
REMARK SMILES IDX 61 78 67 79 62 80 63 81 64 82 65 83 66 84 45 85 46 86 54 87
REMARK SMILES IDX 47 88 53 89 48 90 49 91 50 92 51 93 52 94
REMARK H PARENT 13 5 87 20 17 31 73 50 43 61
REMARK Flexibility Score: inf
ROOT
ATOM      1  C   UNL A   1      32.361  29.470  26.318  1.00  0.00     0.117 C 
ENDROOT
BRANCH   1   2
ATOM      2  N   UNL A   1      31.583  28.263  26.497  1.00  0.00    -0.356 N 
ATOM      3  C   UNL A   1      31.867  26.965  26.212  1.00  0.00     0.220 C 
ATOM      4  O   UNL A   1      31.102  26.121  26.690  1.00  0.00    -0.275 OA
ATOM      5  H   UNL A   1      30.693  28.407  26.892  1.00  0.00     0.163 HD
BRANCH   3   6
ATOM      6  C   UNL A   1      33.112  26.498  25.480  1.00  0.00     0.100 C 
BRANCH   6   7
ATOM      7  C   UNL A   1      33.944  25.307  25.897  1.00  0.00     0.015 C 
BRANCH   7   8
ATOM      8  C   UNL A   1      34.542  24.347  24.890  1.00  0.00     0.039 C 
BRANCH   8   9
ATOM      9  C   UNL A   1      34.977  22.906  25.106  1.00  0.00    -0.013 A 
ATOM     10  C   UNL A   1      32.292  18.013  23.656  1.00  0.00     0.044 C 
ATOM     11  C   UNL A   1      32.940  19.330  23.962  1.00  0.00    -0.049 A 
ATOM     12  C   UNL A   1      32.338  20.520  23.555  1.00  0.00     0.007 A 
ATOM     13  C   UNL A   1      34.178  19.369  24.608  1.00  0.00     0.030 A 
ATOM     14  C   UNL A   1      32.906  21.785  23.825  1.00  0.00    -0.041 A 
ATOM     15  C   UNL A   1      34.726  20.621  24.908  1.00  0.00     0.047 A 
ATOM     16  C   UNL A   1      32.186  22.986  23.258  1.00  0.00     0.045 C 
ATOM     17  C   UNL A   1      34.119  21.830  24.583  1.00  0.00     0.006 A 
ATOM     18  N   UNL A   1      35.911  20.917  25.522  1.00  0.00    -0.353 N 
ATOM     19  C   UNL A   1      36.146  22.272  25.571  1.00  0.00     0.068 A 
ATOM     20  H   UNL A   1      36.525  20.239  25.885  1.00  0.00     0.167 HD
BRANCH  19  21
ATOM     21  C   UNL A   1      37.517  22.693  25.903  1.00  0.00     0.087 A 
ATOM     22  C   UNL A   1      37.767  24.009  26.310  1.00  0.00     0.030 A 
ATOM     23  N   UNL A   1      38.477  21.752  25.861  1.00  0.00    -0.255 NA
ATOM     24  C   UNL A   1      39.006  24.326  26.862  1.00  0.00     0.004 A 
ATOM     25  C   UNL A   1      39.677  22.089  26.410  1.00  0.00     0.112 A 
ATOM     26  C   UNL A   1      39.971  23.333  26.949  1.00  0.00     0.020 A 
ENDBRANCH  19  21
ENDBRANCH   8   9
ENDBRANCH   7   8
ENDBRANCH   6   7
ENDBRANCH   3   6
ENDBRANCH   1   2
BRANCH   1  27
ATOM     27  C   UNL A   1      33.331  29.781  27.457  1.00  0.00     0.042 C 
BRANCH  27  28
ATOM     28  C   UNL A   1      34.043  31.099  27.286  1.00  0.00     0.118 C 
BRANCH  28  29
ATOM     29  N   UNL A   1      34.065  31.926  28.502  1.00  0.00    -0.352 N 
ATOM     30  C   UNL A   1      34.984  31.836  29.548  1.00  0.00     0.251 C 
ATOM     31  H   UNL A   1      33.362  32.609  28.586  1.00  0.00     0.163 HD
ATOM     32  O   UNL A   1      34.737  32.250  30.660  1.00  0.00    -0.269 OA
BRANCH  30  33
ATOM     33  C   UNL A   1      36.286  31.219  29.218  1.00  0.00     0.039 A 
ATOM     34  C   UNL A   1      37.457  31.957  29.046  1.00  0.00     0.014 A 
ATOM     35  C   UNL A   1      36.310  29.836  29.309  1.00  0.00     0.014 A 
ATOM     36  C   UNL A   1      38.672  31.271  29.084  1.00  0.00     0.010 A 
ATOM     37  C   UNL A   1      37.487  29.242  29.655  1.00  0.00     0.010 A 
ATOM     38  C   UNL A   1      38.679  29.910  29.437  1.00  0.00    -0.014 A 
BRANCH  38  39
ATOM     39  C   UNL A   1      39.900  29.146  29.646  1.00  0.00     0.031 A 
ATOM     40  C   UNL A   1      40.310  28.984  31.061  1.00  0.00     0.074 A 
ATOM     41  C   UNL A   1      40.549  28.502  28.647  1.00  0.00     0.049 A 
ATOM     42  N   UNL A   1      41.177  29.702  31.690  1.00  0.00    -0.248 NA
ATOM     43  C   UNL A   1      39.573  28.052  31.926  1.00  0.00     0.031 C 
ATOM     44  C   UNL A   1      40.157  28.305  27.241  1.00  0.00     0.029 A 
ATOM     45  N   UNL A   1      41.709  27.805  28.718  1.00  0.00    -0.354 N 
ATOM     46  C   UNL A   1      41.284  29.157  32.961  1.00  0.00     0.074 A 
ATOM     47  C   UNL A   1      40.144  28.286  33.111  1.00  0.00     0.031 C 
ATOM     48  C   UNL A   1      40.939  27.363  26.669  1.00  0.00     0.029 A 
ATOM     49  C   UNL A   1      42.013  27.053  27.589  1.00  0.00     0.049 A 
ATOM     50  H   UNL A   1      42.293  27.830  29.509  1.00  0.00     0.167 HD
ATOM     51  C   UNL A   1      42.434  29.290  33.682  1.00  0.00     0.031 A 
ATOM     52  C   UNL A   1      43.100  26.263  27.409  1.00  0.00     0.031 A 
ATOM     53  C   UNL A   1      43.344  30.210  33.040  1.00  0.00     0.049 A 
ATOM     54  C   UNL A   1      44.137  26.772  28.339  1.00  0.00     0.074 A 
ATOM     55  C   UNL A   1      43.308  31.550  32.712  1.00  0.00     0.029 A 
ATOM     56  N   UNL A   1      44.329  29.652  32.253  1.00  0.00    -0.354 N 
ATOM     57  N   UNL A   1      44.673  27.957  28.224  1.00  0.00    -0.248 NA
ATOM     58  C   UNL A   1      44.219  26.177  29.663  1.00  0.00     0.031 C 
ATOM     59  C   UNL A   1      43.926  31.629  31.428  1.00  0.00     0.029 A 
ATOM     60  C   UNL A   1      44.377  30.355  31.078  1.00  0.00     0.049 A 
ATOM     61  H   UNL A   1      44.896  28.884  32.494  1.00  0.00     0.167 HD
ATOM     62  C   UNL A   1      44.764  28.435  29.524  1.00  0.00     0.074 A 
ATOM     63  C   UNL A   1      44.556  27.260  30.371  1.00  0.00     0.031 C 
ATOM     64  C   UNL A   1      44.725  29.775  29.793  1.00  0.00     0.031 A 
BRANCH  51  65
ATOM     65  C   UNL A   1      42.929  28.306  34.713  1.00  0.00    -0.014 A 
ATOM     66  C   UNL A   1      43.321  28.809  35.973  1.00  0.00     0.010 A 
ATOM     67  C   UNL A   1      43.289  26.978  34.414  1.00  0.00     0.010 A 
ATOM     68  C   UNL A   1      44.126  28.062  36.838  1.00  0.00     0.020 A 
ATOM     69  C   UNL A   1      44.059  26.207  35.290  1.00  0.00     0.020 A 
ATOM     70  C   UNL A   1      44.508  26.772  36.478  1.00  0.00     0.054 A 
BRANCH  70  71
ATOM     71  S   UNL A   1      45.662  25.870  37.540  1.00  0.00     0.124 S 
ATOM     72  O   UNL A   1      44.751  25.129  38.408  1.00  0.00    -0.237 OA
ATOM     73  O   UNL A   1      46.408  25.071  36.573  1.00  0.00    -0.237 OA
ATOM     74  O   UNL A   1      46.427  26.930  38.191  1.00  0.00    -0.744 OA
ENDBRANCH  70  71
ENDBRANCH  51  65
BRANCH  52  75
ATOM     75  C   UNL A   1      43.161  24.923  26.774  1.00  0.00    -0.014 A 
ATOM     76  C   UNL A   1      43.275  24.795  25.377  1.00  0.00     0.010 A 
ATOM     77  C   UNL A   1      43.420  23.780  27.559  1.00  0.00     0.010 A 
ATOM     78  C   UNL A   1      43.714  23.594  24.793  1.00  0.00     0.020 A 
ATOM     79  C   UNL A   1      43.856  22.579  26.983  1.00  0.00     0.020 A 
ATOM     80  C   UNL A   1      44.029  22.501  25.603  1.00  0.00     0.054 A 
BRANCH  80  81
ATOM     81  S   UNL A   1      44.785  21.024  24.855  1.00  0.00     0.124 S 
ATOM     82  O   UNL A   1      46.135  21.050  25.410  1.00  0.00    -0.237 OA
ATOM     83  O   UNL A   1      43.924  19.948  25.339  1.00  0.00    -0.237 OA
ATOM     84  O   UNL A   1      44.700  21.282  23.419  1.00  0.00    -0.744 OA
ENDBRANCH  80  81
ENDBRANCH  52  75
BRANCH  64  85
ATOM     85  C   UNL A   1      44.849  30.749  28.639  1.00  0.00    -0.014 A 
ATOM     86  C   UNL A   1      43.756  31.217  27.883  1.00  0.00     0.010 A 
ATOM     87  C   UNL A   1      46.107  31.341  28.432  1.00  0.00     0.010 A 
ATOM     88  C   UNL A   1      43.926  32.241  26.934  1.00  0.00     0.020 A 
ATOM     89  C   UNL A   1      46.279  32.372  27.504  1.00  0.00     0.020 A 
ATOM     90  C   UNL A   1      45.189  32.815  26.755  1.00  0.00     0.054 A 
BRANCH  90  91
ATOM     91  S   UNL A   1      45.400  34.172  25.567  1.00  0.00     0.124 S 
ATOM     92  O   UNL A   1      44.650  35.260  26.188  1.00  0.00    -0.237 OA
ATOM     93  O   UNL A   1      46.850  34.348  25.530  1.00  0.00    -0.237 OA
ATOM     94  O   UNL A   1      44.817  33.648  24.331  1.00  0.00    -0.744 OA
ENDBRANCH  90  91
ENDBRANCH  64  85
ENDBRANCH  38  39
ENDBRANCH  30  33
ENDBRANCH  28  29
ENDBRANCH  27  28
ENDBRANCH   1  27
TORSDOF 17
ENDMDL
MODEL 3
REMARK VINA RESULT:     -12.2      3.014      5.460
REMARK SMILES Cc1cc(C)c2c(CCCC(=O)NCCCNC(=O)c3ccc(-c4c5nc(c(-c6ccc(S(=O)(=O)[O-])cc6)c6ccc([nH]6)c(-c6ccc(S(=O)(=O)[O-])cc6)c6nc(c(-c7ccc(S(=O)(=O)[O-])cc7)c7ccc4[nH]7)C=C6)C=C5)cc3)c(-c3ccccn3)[nH]c2c1
REMARK SMILES IDX 14 1 13 2 11 3 12 4 10 6 9 7 8 8 7 9 1 10 2 11 3 12 89 13
REMARK SMILES IDX 4 14 88 15 5 16 6 17 87 18 80 19 81 21 82 22 86 23 83 24
REMARK SMILES IDX 85 25 84 26 15 27 16 28 17 29 18 30 19 32 20 33 21 34 79 35
REMARK SMILES IDX 22 36 78 37 23 38 24 39 25 40 72 41 26 42 77 43 71 44 73 45
REMARK SMILES IDX 27 46 76 47 70 48 69 49 28 51 58 52 39 53 57 54 40 55 43 56
REMARK SMILES IDX 56 57 74 58 41 59 42 60 55 62 75 63 44 64 29 65 30 66 38 67
REMARK SMILES IDX 31 68 37 69 32 70 33 71 34 72 35 73 36 74 59 75 60 76 68 77
REMARK SMILES IDX 61 78 67 79 62 80 63 81 64 82 65 83 66 84 45 85 46 86 54 87
REMARK SMILES IDX 47 88 53 89 48 90 49 91 50 92 51 93 52 94
REMARK H PARENT 13 5 87 20 17 31 73 50 43 61
REMARK Flexibility Score: inf
ROOT
ATOM      1  C   UNL A   1      40.266  20.197  26.728  1.00  0.00     0.117 C 
ENDROOT
BRANCH   1   2
ATOM      2  N   UNL A   1      39.756  21.546  26.611  1.00  0.00    -0.356 N 
ATOM      3  C   UNL A   1      38.746  22.058  25.860  1.00  0.00     0.220 C 
ATOM      4  O   UNL A   1      38.384  23.206  26.142  1.00  0.00    -0.275 OA
ATOM      5  H   UNL A   1      40.222  22.207  27.172  1.00  0.00     0.163 HD
BRANCH   3   6
ATOM      6  C   UNL A   1      37.966  21.275  24.819  1.00  0.00     0.100 C 
BRANCH   6   7
ATOM      7  C   UNL A   1      36.747  20.435  25.128  1.00  0.00     0.015 C 
BRANCH   7   8
ATOM      8  C   UNL A   1      35.467  21.037  25.668  1.00  0.00     0.039 C 
BRANCH   8   9
ATOM      9  C   UNL A   1      34.093  21.066  25.019  1.00  0.00    -0.013 A 
ATOM     10  C   UNL A   1      31.263  25.486  22.630  1.00  0.00     0.044 C 
ATOM     11  C   UNL A   1      32.082  24.384  23.233  1.00  0.00    -0.049 A 
ATOM     12  C   UNL A   1      33.379  24.637  23.678  1.00  0.00     0.007 A 
ATOM     13  C   UNL A   1      31.570  23.087  23.303  1.00  0.00     0.030 A 
ATOM     14  C   UNL A   1      34.188  23.635  24.259  1.00  0.00    -0.041 A 
ATOM     15  C   UNL A   1      32.354  22.100  23.909  1.00  0.00     0.047 A 
ATOM     16  C   UNL A   1      35.599  24.030  24.624  1.00  0.00     0.045 C 
ATOM     17  C   UNL A   1      33.624  22.331  24.430  1.00  0.00     0.006 A 
ATOM     18  N   UNL A   1      32.079  20.773  24.090  1.00  0.00    -0.353 N 
ATOM     19  C   UNL A   1      33.134  20.097  24.661  1.00  0.00     0.068 A 
ATOM     20  H   UNL A   1      31.226  20.350  23.840  1.00  0.00     0.167 HD
BRANCH  19  21
ATOM     21  C   UNL A   1      33.086  18.628  24.602  1.00  0.00     0.087 A 
ATOM     22  C   UNL A   1      33.708  17.947  23.548  1.00  0.00     0.030 A 
ATOM     23  N   UNL A   1      32.488  17.989  25.625  1.00  0.00    -0.255 NA
ATOM     24  C   UNL A   1      33.877  16.568  23.635  1.00  0.00     0.004 A 
ATOM     25  C   UNL A   1      32.673  16.642  25.685  1.00  0.00     0.112 A 
ATOM     26  C   UNL A   1      33.381  15.903  24.747  1.00  0.00     0.020 A 
ENDBRANCH  19  21
ENDBRANCH   8   9
ENDBRANCH   7   8
ENDBRANCH   6   7
ENDBRANCH   3   6
ENDBRANCH   1   2
BRANCH   1  27
ATOM     27  C   UNL A   1      41.510  19.906  25.889  1.00  0.00     0.042 C 
BRANCH  27  28
ATOM     28  C   UNL A   1      42.790  20.341  26.558  1.00  0.00     0.118 C 
BRANCH  28  29
ATOM     29  N   UNL A   1      44.005  19.827  25.907  1.00  0.00    -0.352 N 
ATOM     30  C   UNL A   1      44.883  20.553  25.101  1.00  0.00     0.251 C 
ATOM     31  H   UNL A   1      44.219  18.878  26.054  1.00  0.00     0.163 HD
ATOM     32  O   UNL A   1      45.617  20.016  24.301  1.00  0.00    -0.269 OA
BRANCH  30  33
ATOM     33  C   UNL A   1      44.877  22.019  25.291  1.00  0.00     0.039 A 
ATOM     34  C   UNL A   1      44.146  22.889  24.484  1.00  0.00     0.014 A 
ATOM     35  C   UNL A   1      45.473  22.452  26.466  1.00  0.00     0.014 A 
ATOM     36  C   UNL A   1      43.931  24.188  24.950  1.00  0.00     0.010 A 
ATOM     37  C   UNL A   1      44.996  23.594  27.038  1.00  0.00     0.010 A 
ATOM     38  C   UNL A   1      44.325  24.518  26.259  1.00  0.00    -0.014 A 
BRANCH  38  39
ATOM     39  C   UNL A   1      44.016  25.795  26.885  1.00  0.00     0.031 A 
ATOM     40  C   UNL A   1      44.942  26.904  26.551  1.00  0.00     0.074 A 
ATOM     41  C   UNL A   1      42.891  26.012  27.606  1.00  0.00     0.049 A 
ATOM     42  N   UNL A   1      45.942  27.301  27.260  1.00  0.00    -0.248 NA
ATOM     43  C   UNL A   1      44.870  27.531  25.224  1.00  0.00     0.031 C 
ATOM     44  C   UNL A   1      41.724  25.139  27.817  1.00  0.00     0.029 A 
ATOM     45  N   UNL A   1      42.526  27.137  28.267  1.00  0.00    -0.354 N 
ATOM     46  C   UNL A   1      46.482  28.393  26.596  1.00  0.00     0.074 A 
ATOM     47  C   UNL A   1      45.916  28.362  25.269  1.00  0.00     0.031 C 
ATOM     48  C   UNL A   1      40.705  25.848  28.352  1.00  0.00     0.029 A 
ATOM     49  C   UNL A   1      41.212  27.153  28.721  1.00  0.00     0.049 A 
ATOM     50  H   UNL A   1      43.145  27.888  28.415  1.00  0.00     0.167 HD
ATOM     51  C   UNL A   1      47.157  29.361  27.280  1.00  0.00     0.031 A 
ATOM     52  C   UNL A   1      40.598  28.156  29.395  1.00  0.00     0.031 A 
ATOM     53  C   UNL A   1      47.391  28.961  28.648  1.00  0.00     0.049 A 
ATOM     54  C   UNL A   1      41.680  28.943  30.036  1.00  0.00     0.074 A 
ATOM     55  C   UNL A   1      48.085  27.938  29.262  1.00  0.00     0.029 A 
ATOM     56  N   UNL A   1      46.497  29.431  29.586  1.00  0.00    -0.354 N 
ATOM     57  N   UNL A   1      42.452  28.457  30.970  1.00  0.00    -0.248 NA
ATOM     58  C   UNL A   1      42.220  30.081  29.310  1.00  0.00     0.031 C 
ATOM     59  C   UNL A   1      47.256  27.537  30.352  1.00  0.00     0.029 A 
ATOM     60  C   UNL A   1      46.146  28.383  30.396  1.00  0.00     0.049 A 
ATOM     61  H   UNL A   1      46.169  30.357  29.660  1.00  0.00     0.167 HD
ATOM     62  C   UNL A   1      43.721  28.929  30.664  1.00  0.00     0.074 A 
ATOM     63  C   UNL A   1      43.499  29.996  29.687  1.00  0.00     0.031 C 
ATOM     64  C   UNL A   1      44.843  28.232  31.018  1.00  0.00     0.031 A 
BRANCH  51  65
ATOM     65  C   UNL A   1      47.242  30.810  26.872  1.00  0.00    -0.014 A 
ATOM     66  C   UNL A   1      48.473  31.478  27.054  1.00  0.00     0.010 A 
ATOM     67  C   UNL A   1      46.116  31.609  26.593  1.00  0.00     0.010 A 
ATOM     68  C   UNL A   1      48.550  32.874  27.067  1.00  0.00     0.020 A 
ATOM     69  C   UNL A   1      46.190  33.004  26.563  1.00  0.00     0.020 A 
ATOM     70  C   UNL A   1      47.401  33.628  26.844  1.00  0.00     0.054 A 
BRANCH  70  71
ATOM     71  S   UNL A   1      47.487  35.428  27.002  1.00  0.00     0.124 S 
ATOM     72  O   UNL A   1      46.976  35.633  28.355  1.00  0.00    -0.237 OA
ATOM     73  O   UNL A   1      48.913  35.684  26.817  1.00  0.00    -0.237 OA
ATOM     74  O   UNL A   1      46.625  35.907  25.925  1.00  0.00    -0.744 OA
ENDBRANCH  70  71
ENDBRANCH  51  65
BRANCH  52  75
ATOM     75  C   UNL A   1      39.216  28.665  29.216  1.00  0.00    -0.014 A 
ATOM     76  C   UNL A   1      38.388  28.902  30.330  1.00  0.00     0.010 A 
ATOM     77  C   UNL A   1      38.818  29.211  27.978  1.00  0.00     0.010 A 
ATOM     78  C   UNL A   1      37.252  29.724  30.228  1.00  0.00     0.020 A 
ATOM     79  C   UNL A   1      37.685  30.029  27.868  1.00  0.00     0.020 A 
ATOM     80  C   UNL A   1      36.924  30.306  29.001  1.00  0.00     0.054 A 
BRANCH  80  81
ATOM     81  S   UNL A   1      35.573  31.524  28.925  1.00  0.00     0.124 S 
ATOM     82  O   UNL A   1      34.518  30.777  28.246  1.00  0.00    -0.237 OA
ATOM     83  O   UNL A   1      35.332  31.817  30.335  1.00  0.00    -0.237 OA
ATOM     84  O   UNL A   1      36.145  32.626  28.156  1.00  0.00    -0.744 OA
ENDBRANCH  80  81
ENDBRANCH  52  75
BRANCH  64  85
ATOM     85  C   UNL A   1      44.700  27.072  31.982  1.00  0.00    -0.014 A 
ATOM     86  C   UNL A   1      44.577  27.217  33.378  1.00  0.00     0.010 A 
ATOM     87  C   UNL A   1      44.509  25.795  31.425  1.00  0.00     0.010 A 
ATOM     88  C   UNL A   1      44.286  26.109  34.193  1.00  0.00     0.020 A 
ATOM     89  C   UNL A   1      44.201  24.693  32.226  1.00  0.00     0.020 A 
ATOM     90  C   UNL A   1      44.096  24.853  33.608  1.00  0.00     0.054 A 
BRANCH  90  91
ATOM     91  S   UNL A   1      43.670  23.430  34.653  1.00  0.00     0.124 S 
ATOM     92  O   UNL A   1      42.232  23.595  34.846  1.00  0.00    -0.237 OA
ATOM     93  O   UNL A   1      44.067  22.292  33.828  1.00  0.00    -0.237 OA
ATOM     94  O   UNL A   1      44.480  23.625  35.856  1.00  0.00    -0.744 OA
ENDBRANCH  90  91
ENDBRANCH  64  85
ENDBRANCH  38  39
ENDBRANCH  30  33
ENDBRANCH  28  29
ENDBRANCH  27  28
ENDBRANCH   1  27
TORSDOF 17
ENDMDL
