MODEL 1
REMARK VINA RESULT:     -12.6      0.000      0.000
REMARK SMILES O=C(NCCCNC(=O)c1[nH]nc2ncc(F)cc12)c1ccc(-c2c3nc(c(-c4ccc(S(=O)(=O)[O-])cc4)c4ccc([nH]4)c(-c4ccc(S(=O)(=O)[O-])cc4)c4nc(c(-c5ccc(S(=O)(=O)[O-])cc5)c5ccc2[nH]5)C=C4)C=C3)cc1
REMARK SMILES IDX 1 1 2 2 3 3 20 5 21 6 79 7 22 8 78 9 23 10 24 11 25 12 72 13
REMARK SMILES IDX 26 14 77 15 71 16 73 17 27 18 76 19 70 20 69 21 28 23 58 24
REMARK SMILES IDX 39 25 57 26 40 27 43 28 56 29 74 30 41 31 42 32 55 34 75 35
REMARK SMILES IDX 44 36 29 37 30 38 38 39 31 40 37 41 32 42 33 43 34 44 35 45
REMARK SMILES IDX 36 46 59 47 60 48 68 49 61 50 67 51 62 52 63 53 64 54 65 55
REMARK SMILES IDX 66 56 45 57 46 58 54 59 47 60 53 61 48 62 49 63 50 64 51 65
REMARK SMILES IDX 52 66 4 67 5 68 6 69 7 70 8 71 9 73 10 74 11 75 19 76 12 77
REMARK SMILES IDX 13 79 18 80 14 81 16 82 15 83 17 84
REMARK H PARENT 3 4 73 22 43 33 7 72 11 78
REMARK Flexibility Score: inf
ROOT
ATOM      1  O   UNL A   1      38.965  21.304  25.828  1.00  0.00    -0.269 OA
ATOM      2  C   UNL A   1      39.995  21.466  26.489  1.00  0.00     0.251 C 
ATOM      3  N   UNL A   1      40.763  20.346  26.660  1.00  0.00    -0.352 N 
ATOM      4  H   UNL A   1      40.332  19.538  26.298  1.00  0.00     0.163 HD
ENDROOT
BRANCH   2   5
ATOM      5  C   UNL A   1      40.285  22.819  27.049  1.00  0.00     0.039 A 
ATOM      6  C   UNL A   1      41.395  23.158  27.819  1.00  0.00     0.014 A 
ATOM      7  C   UNL A   1      39.336  23.826  26.777  1.00  0.00     0.014 A 
ATOM      8  C   UNL A   1      41.528  24.443  28.346  1.00  0.00     0.010 A 
ATOM      9  C   UNL A   1      39.475  25.119  27.284  1.00  0.00     0.010 A 
ATOM     10  C   UNL A   1      40.566  25.425  28.092  1.00  0.00    -0.014 A 
BRANCH  10  11
ATOM     11  C   UNL A   1      40.806  26.761  28.642  1.00  0.00     0.031 A 
ATOM     12  C   UNL A   1      41.959  27.522  28.079  1.00  0.00     0.074 A 
ATOM     13  C   UNL A   1      40.014  27.397  29.525  1.00  0.00     0.049 A 
ATOM     14  N   UNL A   1      43.048  27.892  28.674  1.00  0.00    -0.248 NA
ATOM     15  C   UNL A   1      41.894  27.891  26.658  1.00  0.00     0.031 C 
ATOM     16  C   UNL A   1      38.664  27.034  29.957  1.00  0.00     0.029 A 
ATOM     17  N   UNL A   1      40.242  28.586  30.159  1.00  0.00    -0.354 N 
ATOM     18  C   UNL A   1      43.735  28.693  27.761  1.00  0.00     0.074 A 
ATOM     19  C   UNL A   1      43.030  28.572  26.508  1.00  0.00     0.031 C 
ATOM     20  C   UNL A   1      38.115  28.083  30.611  1.00  0.00     0.029 A 
ATOM     21  C   UNL A   1      39.122  29.123  30.769  1.00  0.00     0.049 A 
ATOM     22  H   UNL A   1      41.124  29.023  30.180  1.00  0.00     0.167 HD
ATOM     23  C   UNL A   1      44.738  29.541  28.128  1.00  0.00     0.031 A 
ATOM     24  C   UNL A   1      39.009  30.354  31.320  1.00  0.00     0.031 A 
ATOM     25  C   UNL A   1      45.225  29.284  29.455  1.00  0.00     0.049 A 
ATOM     26  C   UNL A   1      40.368  30.855  31.636  1.00  0.00     0.074 A 
ATOM     27  C   UNL A   1      45.822  28.222  30.102  1.00  0.00     0.029 A 
ATOM     28  N   UNL A   1      44.862  30.169  30.441  1.00  0.00    -0.354 N 
ATOM     29  N   UNL A   1      41.136  30.347  32.558  1.00  0.00    -0.248 NA
ATOM     30  C   UNL A   1      41.022  31.772  30.717  1.00  0.00     0.031 C 
ATOM     31  C   UNL A   1      45.393  28.316  31.458  1.00  0.00     0.029 A 
ATOM     32  C   UNL A   1      44.560  29.433  31.557  1.00  0.00     0.049 A 
ATOM     33  H   UNL A   1      44.824  31.149  30.361  1.00  0.00     0.167 HD
ATOM     34  C   UNL A   1      42.428  30.568  32.110  1.00  0.00     0.074 A 
ATOM     35  C   UNL A   1      42.296  31.569  31.060  1.00  0.00     0.031 C 
ATOM     36  C   UNL A   1      43.446  29.718  32.439  1.00  0.00     0.031 A 
BRANCH  23  37
ATOM     37  C   UNL A   1      45.059  30.836  27.415  1.00  0.00    -0.014 A 
ATOM     38  C   UNL A   1      46.364  31.037  26.913  1.00  0.00     0.010 A 
ATOM     39  C   UNL A   1      44.219  31.966  27.477  1.00  0.00     0.010 A 
ATOM     40  C   UNL A   1      46.828  32.315  26.572  1.00  0.00     0.020 A 
ATOM     41  C   UNL A   1      44.656  33.238  27.094  1.00  0.00     0.020 A 
ATOM     42  C   UNL A   1      45.974  33.411  26.687  1.00  0.00     0.054 A 
BRANCH  42  43
ATOM     43  S   UNL A   1      46.623  35.076  26.394  1.00  0.00     0.124 S 
ATOM     44  O   UNL A   1      47.451  35.284  27.578  1.00  0.00    -0.237 OA
ATOM     45  O   UNL A   1      47.348  34.913  25.137  1.00  0.00    -0.237 OA
ATOM     46  O   UNL A   1      45.421  35.902  26.313  1.00  0.00    -0.744 OA
ENDBRANCH  42  43
ENDBRANCH  23  37
BRANCH  24  47
ATOM     47  C   UNL A   1      37.809  31.223  31.369  1.00  0.00    -0.014 A 
ATOM     48  C   UNL A   1      36.838  31.061  32.375  1.00  0.00     0.010 A 
ATOM     49  C   UNL A   1      37.754  32.392  30.583  1.00  0.00     0.010 A 
ATOM     50  C   UNL A   1      35.887  32.062  32.625  1.00  0.00     0.020 A 
ATOM     51  C   UNL A   1      36.801  33.387  30.817  1.00  0.00     0.020 A 
ATOM     52  C   UNL A   1      35.888  33.229  31.856  1.00  0.00     0.054 A 
BRANCH  52  53
ATOM     53  S   UNL A   1      34.774  34.592  32.303  1.00  0.00     0.124 S 
ATOM     54  O   UNL A   1      35.638  35.451  33.106  1.00  0.00    -0.237 OA
ATOM     55  O   UNL A   1      34.388  35.123  30.998  1.00  0.00    -0.237 OA
ATOM     56  O   UNL A   1      33.699  33.929  33.040  1.00  0.00    -0.744 OA
ENDBRANCH  52  53
ENDBRANCH  24  47
BRANCH  36  57
ATOM     57  C   UNL A   1      43.251  28.777  33.604  1.00  0.00    -0.014 A 
ATOM     58  C   UNL A   1      43.659  29.088  34.915  1.00  0.00     0.010 A 
ATOM     59  C   UNL A   1      42.496  27.609  33.395  1.00  0.00     0.010 A 
ATOM     60  C   UNL A   1      43.338  28.242  35.985  1.00  0.00     0.020 A 
ATOM     61  C   UNL A   1      42.155  26.770  34.461  1.00  0.00     0.020 A 
ATOM     62  C   UNL A   1      42.582  27.090  35.750  1.00  0.00     0.054 A 
BRANCH  62  63
ATOM     63  S   UNL A   1      42.097  26.053  37.159  1.00  0.00     0.124 S 
ATOM     64  O   UNL A   1      42.324  24.703  36.651  1.00  0.00    -0.237 OA
ATOM     65  O   UNL A   1      43.012  26.492  38.211  1.00  0.00    -0.237 OA
ATOM     66  O   UNL A   1      40.695  26.403  37.383  1.00  0.00    -0.744 OA
ENDBRANCH  62  63
ENDBRANCH  36  57
ENDBRANCH  10  11
ENDBRANCH   2   5
BRANCH   3  67
ATOM     67  C   UNL A   1      42.059  20.063  27.247  1.00  0.00     0.118 C 
BRANCH  67  68
ATOM     68  C   UNL A   1      42.658  18.710  26.856  1.00  0.00     0.042 C 
BRANCH  68  69
ATOM     69  C   UNL A   1      43.408  18.697  25.523  1.00  0.00     0.118 C 
BRANCH  69  70
ATOM     70  N   UNL A   1      44.850  18.793  25.690  1.00  0.00    -0.351 N 
ATOM     71  C   UNL A   1      45.753  19.711  25.219  1.00  0.00     0.270 C 
ATOM     72  H   UNL A   1      45.246  18.076  26.236  1.00  0.00     0.163 HD
ATOM     73  O   UNL A   1      46.942  19.412  25.274  1.00  0.00    -0.268 OA
BRANCH  71  74
ATOM     74  C   UNL A   1      45.291  20.963  24.692  1.00  0.00     0.132 A 
ATOM     75  N   UNL A   1      44.836  21.164  23.411  1.00  0.00    -0.270 N 
ATOM     76  C   UNL A   1      45.067  22.174  25.311  1.00  0.00     0.055 A 
ATOM     77  N   UNL A   1      44.383  22.403  23.149  1.00  0.00    -0.154 NA
ATOM     78  H   UNL A   1      44.840  20.450  22.732  1.00  0.00     0.190 HD
ATOM     79  C   UNL A   1      44.532  23.044  24.307  1.00  0.00     0.181 A 
ATOM     80  C   UNL A   1      45.327  22.482  26.643  1.00  0.00     0.055 A 
ATOM     81  N   UNL A   1      44.215  24.338  24.575  1.00  0.00    -0.232 NA
ATOM     82  C   UNL A   1      45.001  23.817  26.888  1.00  0.00     0.142 A 
ATOM     83  C   UNL A   1      44.486  24.662  25.879  1.00  0.00     0.152 A 
ATOM     84  F   UNL A   1      45.182  24.313  28.121  1.00  0.00    -0.205 F 
ENDBRANCH  71  74
ENDBRANCH  69  70
ENDBRANCH  68  69
ENDBRANCH  67  68
ENDBRANCH   3  67
TORSDOF 13
ENDMDL
MODEL 2
REMARK VINA RESULT:     -12.3      3.630     12.247
REMARK SMILES O=C(NCCCNC(=O)c1[nH]nc2ncc(F)cc12)c1ccc(-c2c3nc(c(-c4ccc(S(=O)(=O)[O-])cc4)c4ccc([nH]4)c(-c4ccc(S(=O)(=O)[O-])cc4)c4nc(c(-c5ccc(S(=O)(=O)[O-])cc5)c5ccc2[nH]5)C=C4)C=C3)cc1
REMARK SMILES IDX 1 1 2 2 3 3 20 5 21 6 79 7 22 8 78 9 23 10 24 11 25 12 72 13
REMARK SMILES IDX 26 14 77 15 71 16 73 17 27 18 76 19 70 20 69 21 28 23 58 24
REMARK SMILES IDX 39 25 57 26 40 27 43 28 56 29 74 30 41 31 42 32 55 34 75 35
REMARK SMILES IDX 44 36 29 37 30 38 38 39 31 40 37 41 32 42 33 43 34 44 35 45
REMARK SMILES IDX 36 46 59 47 60 48 68 49 61 50 67 51 62 52 63 53 64 54 65 55
REMARK SMILES IDX 66 56 45 57 46 58 54 59 47 60 53 61 48 62 49 63 50 64 51 65
REMARK SMILES IDX 52 66 4 67 5 68 6 69 7 70 8 71 9 73 10 74 11 75 19 76 12 77
REMARK SMILES IDX 13 79 18 80 14 81 16 82 15 83 17 84
REMARK H PARENT 3 4 73 22 43 33 7 72 11 78
REMARK Flexibility Score: inf
ROOT
ATOM      1  O   UNL A   1      33.556  31.484  27.618  1.00  0.00    -0.269 OA
ATOM      2  C   UNL A   1      34.461  32.211  28.037  1.00  0.00     0.251 C 
ATOM      3  N   UNL A   1      34.141  33.537  28.154  1.00  0.00    -0.352 N 
ATOM      4  H   UNL A   1      33.245  33.738  27.799  1.00  0.00     0.163 HD
ENDROOT
BRANCH   2   5
ATOM      5  C   UNL A   1      35.790  31.603  28.340  1.00  0.00     0.039 A 
ATOM      6  C   UNL A   1      36.867  32.257  28.933  1.00  0.00     0.014 A 
ATOM      7  C   UNL A   1      35.957  30.250  27.975  1.00  0.00     0.014 A 
ATOM      8  C   UNL A   1      38.087  31.603  29.107  1.00  0.00     0.010 A 
ATOM      9  C   UNL A   1      37.170  29.586  28.166  1.00  0.00     0.010 A 
ATOM     10  C   UNL A   1      38.249  30.271  28.715  1.00  0.00    -0.014 A 
BRANCH  10  11
ATOM     11  C   UNL A   1      39.546  29.645  28.978  1.00  0.00     0.031 A 
ATOM     12  C   UNL A   1      39.899  29.403  30.407  1.00  0.00     0.074 A 
ATOM     13  C   UNL A   1      40.390  29.172  28.042  1.00  0.00     0.049 A 
ATOM     14  N   UNL A   1      40.850  29.938  31.104  1.00  0.00    -0.248 NA
ATOM     15  C   UNL A   1      39.058  28.461  31.159  1.00  0.00     0.031 C 
ATOM     16  C   UNL A   1      40.137  28.961  26.617  1.00  0.00     0.029 A 
ATOM     17  N   UNL A   1      41.656  28.686  28.216  1.00  0.00    -0.354 N 
ATOM     18  C   UNL A   1      40.848  29.278  32.334  1.00  0.00     0.074 A 
ATOM     19  C   UNL A   1      39.662  28.455  32.347  1.00  0.00     0.031 C 
ATOM     20  C   UNL A   1      41.130  28.201  26.102  1.00  0.00     0.029 A 
ATOM     21  C   UNL A   1      42.151  28.002  27.119  1.00  0.00     0.049 A 
ATOM     22  H   UNL A   1      42.170  28.812  29.046  1.00  0.00     0.167 HD
ATOM     23  C   UNL A   1      41.904  29.312  33.195  1.00  0.00     0.031 A 
ATOM     24  C   UNL A   1      43.294  27.277  27.063  1.00  0.00     0.031 A 
ATOM     25  C   UNL A   1      42.854  30.340  32.868  1.00  0.00     0.049 A 
ATOM     26  C   UNL A   1      44.189  27.724  28.157  1.00  0.00     0.074 A 
ATOM     27  C   UNL A   1      42.829  31.715  32.768  1.00  0.00     0.029 A 
ATOM     28  N   UNL A   1      44.039  29.941  32.299  1.00  0.00    -0.354 N 
ATOM     29  N   UNL A   1      44.756  28.897  28.201  1.00  0.00    -0.248 NA
ATOM     30  C   UNL A   1      44.246  26.959  29.392  1.00  0.00     0.031 C 
ATOM     31  C   UNL A   1      43.782  32.037  31.757  1.00  0.00     0.029 A 
ATOM     32  C   UNL A   1      44.332  30.837  31.303  1.00  0.00     0.049 A 
ATOM     33  H   UNL A   1      44.578  29.159  32.557  1.00  0.00     0.167 HD
ATOM     34  C   UNL A   1      44.895  29.177  29.551  1.00  0.00     0.074 A 
ATOM     35  C   UNL A   1      44.703  27.899  30.222  1.00  0.00     0.031 C 
ATOM     36  C   UNL A   1      44.875  30.463  30.012  1.00  0.00     0.031 A 
BRANCH  23  37
ATOM     37  C   UNL A   1      42.261  28.192  34.147  1.00  0.00    -0.014 A 
ATOM     38  C   UNL A   1      42.328  28.464  35.531  1.00  0.00     0.010 A 
ATOM     39  C   UNL A   1      42.810  26.970  33.711  1.00  0.00     0.010 A 
ATOM     40  C   UNL A   1      42.986  27.599  36.416  1.00  0.00     0.020 A 
ATOM     41  C   UNL A   1      43.426  26.076  34.592  1.00  0.00     0.020 A 
ATOM     42  C   UNL A   1      43.550  26.419  35.933  1.00  0.00     0.054 A 
BRANCH  42  43
ATOM     43  S   UNL A   1      44.530  25.382  37.050  1.00  0.00     0.124 S 
ATOM     44  O   UNL A   1      44.001  25.768  38.354  1.00  0.00    -0.237 OA
ATOM     45  O   UNL A   1      44.191  24.033  36.603  1.00  0.00    -0.237 OA
ATOM     46  O   UNL A   1      45.905  25.795  36.780  1.00  0.00    -0.744 OA
ENDBRANCH  42  43
ENDBRANCH  23  37
BRANCH  24  47
ATOM     47  C   UNL A   1      43.558  26.055  26.267  1.00  0.00    -0.014 A 
ATOM     48  C   UNL A   1      44.805  25.852  25.647  1.00  0.00     0.010 A 
ATOM     49  C   UNL A   1      42.674  24.960  26.343  1.00  0.00     0.010 A 
ATOM     50  C   UNL A   1      45.176  24.582  25.178  1.00  0.00     0.020 A 
ATOM     51  C   UNL A   1      43.031  23.697  25.865  1.00  0.00     0.020 A 
ATOM     52  C   UNL A   1      44.293  23.507  25.308  1.00  0.00     0.054 A 
BRANCH  52  53
ATOM     53  S   UNL A   1      44.849  21.837  24.863  1.00  0.00     0.124 S 
ATOM     54  O   UNL A   1      46.252  21.858  25.265  1.00  0.00    -0.237 OA
ATOM     55  O   UNL A   1      43.972  20.988  25.666  1.00  0.00    -0.237 OA
ATOM     56  O   UNL A   1      44.617  21.770  23.421  1.00  0.00    -0.744 OA
ENDBRANCH  52  53
ENDBRANCH  24  47
BRANCH  36  57
ATOM     57  C   UNL A   1      45.105  31.585  29.028  1.00  0.00    -0.014 A 
ATOM     58  C   UNL A   1      46.359  32.200  28.847  1.00  0.00     0.010 A 
ATOM     59  C   UNL A   1      44.058  31.925  28.151  1.00  0.00     0.010 A 
ATOM     60  C   UNL A   1      46.554  33.143  27.830  1.00  0.00     0.020 A 
ATOM     61  C   UNL A   1      44.252  32.851  27.122  1.00  0.00     0.020 A 
ATOM     62  C   UNL A   1      45.499  33.459  26.970  1.00  0.00     0.054 A 
BRANCH  62  63
ATOM     63  S   UNL A   1      45.793  34.615  25.603  1.00  0.00     0.124 S 
ATOM     64  O   UNL A   1      45.429  35.901  26.190  1.00  0.00    -0.237 OA
ATOM     65  O   UNL A   1      47.216  34.430  25.326  1.00  0.00    -0.237 OA
ATOM     66  O   UNL A   1      44.898  34.141  24.547  1.00  0.00    -0.744 OA
ENDBRANCH  62  63
ENDBRANCH  36  57
ENDBRANCH  10  11
ENDBRANCH   2   5
BRANCH   3  67
ATOM     67  C   UNL A   1      34.806  34.717  28.675  1.00  0.00     0.118 C 
BRANCH  67  68
ATOM     68  C   UNL A   1      33.955  35.989  28.663  1.00  0.00     0.042 C 
BRANCH  68  69
ATOM     69  C   UNL A   1      32.941  36.098  29.802  1.00  0.00     0.118 C 
BRANCH  69  70
ATOM     70  N   UNL A   1      33.417  36.929  30.898  1.00  0.00    -0.351 N 
ATOM     71  C   UNL A   1      33.757  36.612  32.188  1.00  0.00     0.270 C 
ATOM     72  H   UNL A   1      33.512  37.883  30.675  1.00  0.00     0.163 HD
ATOM     73  O   UNL A   1      33.864  37.537  32.987  1.00  0.00    -0.268 OA
BRANCH  71  74
ATOM     74  C   UNL A   1      33.974  35.241  32.554  1.00  0.00     0.132 A 
ATOM     75  N   UNL A   1      32.991  34.356  32.928  1.00  0.00    -0.270 N 
ATOM     76  C   UNL A   1      35.111  34.464  32.504  1.00  0.00     0.055 A 
ATOM     77  N   UNL A   1      33.408  33.099  33.160  1.00  0.00    -0.154 NA
ATOM     78  H   UNL A   1      32.047  34.624  33.019  1.00  0.00     0.190 HD
ATOM     79  C   UNL A   1      34.716  33.151  32.917  1.00  0.00     0.181 A 
ATOM     80  C   UNL A   1      36.385  34.886  32.136  1.00  0.00     0.055 A 
ATOM     81  N   UNL A   1      35.609  32.130  33.004  1.00  0.00    -0.232 NA
ATOM     82  C   UNL A   1      37.281  33.821  32.243  1.00  0.00     0.142 A 
ATOM     83  C   UNL A   1      36.873  32.536  32.666  1.00  0.00     0.152 A 
ATOM     84  F   UNL A   1      38.570  34.025  31.933  1.00  0.00    -0.205 F 
ENDBRANCH  71  74
ENDBRANCH  69  70
ENDBRANCH  68  69
ENDBRANCH  67  68
ENDBRANCH   3  67
TORSDOF 13
ENDMDL
MODEL 3
REMARK VINA RESULT:     -11.9      3.686      5.622
REMARK SMILES O=C(NCCCNC(=O)c1[nH]nc2ncc(F)cc12)c1ccc(-c2c3nc(c(-c4ccc(S(=O)(=O)[O-])cc4)c4ccc([nH]4)c(-c4ccc(S(=O)(=O)[O-])cc4)c4nc(c(-c5ccc(S(=O)(=O)[O-])cc5)c5ccc2[nH]5)C=C4)C=C3)cc1
REMARK SMILES IDX 1 1 2 2 3 3 20 5 21 6 79 7 22 8 78 9 23 10 24 11 25 12 72 13
REMARK SMILES IDX 26 14 77 15 71 16 73 17 27 18 76 19 70 20 69 21 28 23 58 24
REMARK SMILES IDX 39 25 57 26 40 27 43 28 56 29 74 30 41 31 42 32 55 34 75 35
REMARK SMILES IDX 44 36 29 37 30 38 38 39 31 40 37 41 32 42 33 43 34 44 35 45
REMARK SMILES IDX 36 46 59 47 60 48 68 49 61 50 67 51 62 52 63 53 64 54 65 55
REMARK SMILES IDX 66 56 45 57 46 58 54 59 47 60 53 61 48 62 49 63 50 64 51 65
REMARK SMILES IDX 52 66 4 67 5 68 6 69 7 70 8 71 9 73 10 74 11 75 19 76 12 77
REMARK SMILES IDX 13 79 18 80 14 81 16 82 15 83 17 84
REMARK H PARENT 3 4 73 22 43 33 7 72 11 78
REMARK Flexibility Score: inf
ROOT
ATOM      1  O   UNL A   1      39.766  20.991  26.796  1.00  0.00    -0.269 OA
ATOM      2  C   UNL A   1      39.190  21.986  26.345  1.00  0.00     0.251 C 
ATOM      3  N   UNL A   1      38.298  21.739  25.337  1.00  0.00    -0.352 N 
ATOM      4  H   UNL A   1      38.306  20.796  25.053  1.00  0.00     0.163 HD
ENDROOT
BRANCH   2   5
ATOM      5  C   UNL A   1      39.531  23.328  26.901  1.00  0.00     0.039 A 
ATOM      6  C   UNL A   1      38.789  24.494  26.724  1.00  0.00     0.014 A 
ATOM      7  C   UNL A   1      40.718  23.409  27.658  1.00  0.00     0.014 A 
ATOM      8  C   UNL A   1      39.242  25.709  27.237  1.00  0.00     0.010 A 
ATOM      9  C   UNL A   1      41.165  24.620  28.192  1.00  0.00     0.010 A 
ATOM     10  C   UNL A   1      40.434  25.781  27.962  1.00  0.00    -0.014 A 
BRANCH  10  11
ATOM     11  C   UNL A   1      40.813  27.086  28.508  1.00  0.00     0.031 A 
ATOM     12  C   UNL A   1      42.039  27.721  27.944  1.00  0.00     0.074 A 
ATOM     13  C   UNL A   1      40.090  27.805  29.388  1.00  0.00     0.049 A 
ATOM     14  N   UNL A   1      43.161  27.977  28.539  1.00  0.00    -0.248 NA
ATOM     15  C   UNL A   1      42.014  28.090  26.522  1.00  0.00     0.031 C 
ATOM     16  C   UNL A   1      38.710  27.587  29.820  1.00  0.00     0.029 A 
ATOM     17  N   UNL A   1      40.442  28.966  30.019  1.00  0.00    -0.354 N 
ATOM     18  C   UNL A   1      43.928  28.698  27.625  1.00  0.00     0.074 A 
ATOM     19  C   UNL A   1      43.215  28.648  26.371  1.00  0.00     0.031 C 
ATOM     20  C   UNL A   1      38.274  28.690  30.470  1.00  0.00     0.029 A 
ATOM     21  C   UNL A   1      39.383  29.619  30.626  1.00  0.00     0.049 A 
ATOM     22  H   UNL A   1      41.365  29.308  30.039  1.00  0.00     0.167 HD
ATOM     23  C   UNL A   1      45.014  29.439  27.989  1.00  0.00     0.031 A 
ATOM     24  C   UNL A   1      39.399  30.857  31.173  1.00  0.00     0.031 A 
ATOM     25  C   UNL A   1      45.471  29.136  29.318  1.00  0.00     0.049 A 
ATOM     26  C   UNL A   1      40.803  31.214  31.488  1.00  0.00     0.074 A 
ATOM     27  C   UNL A   1      45.953  28.019  29.969  1.00  0.00     0.029 A 
ATOM     28  N   UNL A   1      45.201  30.058  30.301  1.00  0.00    -0.354 N 
ATOM     29  N   UNL A   1      41.513  30.632  32.413  1.00  0.00    -0.248 NA
ATOM     30  C   UNL A   1      41.551  32.055  30.567  1.00  0.00     0.031 C 
ATOM     31  C   UNL A   1      45.535  28.162  31.325  1.00  0.00     0.029 A 
ATOM     32  C   UNL A   1      44.823  29.361  31.419  1.00  0.00     0.049 A 
ATOM     33  H   UNL A   1      45.267  31.036  30.218  1.00  0.00     0.167 HD
ATOM     34  C   UNL A   1      42.822  30.714  31.966  1.00  0.00     0.074 A 
ATOM     35  C   UNL A   1      42.796  31.720  30.912  1.00  0.00     0.031 C 
ATOM     36  C   UNL A   1      43.744  29.764  32.298  1.00  0.00     0.031 A 
BRANCH  23  37
ATOM     37  C   UNL A   1      45.470  30.690  27.273  1.00  0.00    -0.014 A 
ATOM     38  C   UNL A   1      46.851  30.895  27.062  1.00  0.00     0.010 A 
ATOM     39  C   UNL A   1      44.622  31.796  27.062  1.00  0.00     0.010 A 
ATOM     40  C   UNL A   1      47.362  32.160  26.740  1.00  0.00     0.020 A 
ATOM     41  C   UNL A   1      45.116  33.051  26.693  1.00  0.00     0.020 A 
ATOM     42  C   UNL A   1      46.489  33.235  26.580  1.00  0.00     0.054 A 
BRANCH  42  43
ATOM     43  S   UNL A   1      47.165  34.895  26.318  1.00  0.00     0.124 S 
ATOM     44  O   UNL A   1      47.969  35.082  27.521  1.00  0.00    -0.237 OA
ATOM     45  O   UNL A   1      47.914  34.736  25.074  1.00  0.00    -0.237 OA
ATOM     46  O   UNL A   1      45.974  35.737  26.219  1.00  0.00    -0.744 OA
ENDBRANCH  42  43
ENDBRANCH  23  37
BRANCH  24  47
ATOM     47  C   UNL A   1      38.297  31.847  31.217  1.00  0.00    -0.014 A 
ATOM     48  C   UNL A   1      37.182  31.727  30.367  1.00  0.00     0.010 A 
ATOM     49  C   UNL A   1      38.213  32.760  32.288  1.00  0.00     0.010 A 
ATOM     50  C   UNL A   1      36.005  32.449  30.618  1.00  0.00     0.020 A 
ATOM     51  C   UNL A   1      37.050  33.493  32.535  1.00  0.00     0.020 A 
ATOM     52  C   UNL A   1      35.940  33.313  31.714  1.00  0.00     0.054 A 
BRANCH  52  53
ATOM     53  S   UNL A   1      34.360  34.104  32.135  1.00  0.00     0.124 S 
ATOM     54  O   UNL A   1      34.792  35.338  32.784  1.00  0.00    -0.237 OA
ATOM     55  O   UNL A   1      33.730  34.263  30.827  1.00  0.00    -0.237 OA
ATOM     56  O   UNL A   1      33.713  33.132  33.016  1.00  0.00    -0.744 OA
ENDBRANCH  52  53
ENDBRANCH  24  47
BRANCH  36  57
ATOM     57  C   UNL A   1      43.452  28.852  33.466  1.00  0.00    -0.014 A 
ATOM     58  C   UNL A   1      43.910  29.110  34.772  1.00  0.00     0.010 A 
ATOM     59  C   UNL A   1      42.558  27.784  33.267  1.00  0.00     0.010 A 
ATOM     60  C   UNL A   1      43.502  28.308  35.846  1.00  0.00     0.020 A 
ATOM     61  C   UNL A   1      42.131  26.992  34.338  1.00  0.00     0.020 A 
ATOM     62  C   UNL A   1      42.609  27.256  35.622  1.00  0.00     0.054 A 
BRANCH  62  63
ATOM     63  S   UNL A   1      42.020  26.285  37.036  1.00  0.00     0.124 S 
ATOM     64  O   UNL A   1      41.957  24.932  36.488  1.00  0.00    -0.237 OA
ATOM     65  O   UNL A   1      43.060  26.511  38.038  1.00  0.00    -0.237 OA
ATOM     66  O   UNL A   1      40.724  26.884  37.355  1.00  0.00    -0.744 OA
ENDBRANCH  62  63
ENDBRANCH  36  57
ENDBRANCH  10  11
ENDBRANCH   2   5
BRANCH   3  67
ATOM     67  C   UNL A   1      37.342  22.532  24.587  1.00  0.00     0.118 C 
BRANCH  67  68
ATOM     68  C   UNL A   1      35.922  21.963  24.555  1.00  0.00     0.042 C 
BRANCH  68  69
ATOM     69  C   UNL A   1      35.718  20.691  25.377  1.00  0.00     0.118 C 
BRANCH  69  70
ATOM     70  N   UNL A   1      34.520  19.959  24.990  1.00  0.00    -0.351 N 
ATOM     71  C   UNL A   1      33.230  20.039  25.445  1.00  0.00     0.270 C 
ATOM     72  H   UNL A   1      34.662  19.293  24.280  1.00  0.00     0.163 HD
ATOM     73  O   UNL A   1      32.469  19.123  25.147  1.00  0.00    -0.268 OA
BRANCH  71  74
ATOM     74  C   UNL A   1      32.817  21.164  26.233  1.00  0.00     0.132 A 
ATOM     75  N   UNL A   1      33.179  21.392  27.540  1.00  0.00    -0.270 N 
ATOM     76  C   UNL A   1      32.117  22.300  25.887  1.00  0.00     0.055 A 
ATOM     77  N   UNL A   1      32.736  22.548  28.066  1.00  0.00    -0.154 NA
ATOM     78  H   UNL A   1      33.724  20.753  28.055  1.00  0.00     0.190 HD
ATOM     79  C   UNL A   1      32.067  23.114  27.064  1.00  0.00     0.181 A 
ATOM     80  C   UNL A   1      31.563  22.581  24.641  1.00  0.00     0.055 A 
ATOM     81  N   UNL A   1      31.424  24.311  27.079  1.00  0.00    -0.232 NA
ATOM     82  C   UNL A   1      30.902  23.810  24.689  1.00  0.00     0.142 A 
ATOM     83  C   UNL A   1      30.854  24.592  25.865  1.00  0.00     0.152 A 
ATOM     84  F   UNL A   1      30.295  24.263  23.582  1.00  0.00    -0.205 F 
ENDBRANCH  71  74
ENDBRANCH  69  70
ENDBRANCH  68  69
ENDBRANCH  67  68
ENDBRANCH   3  67
TORSDOF 13
ENDMDL
