MODEL 1
REMARK VINA RESULT:     -10.9      0.000      0.000
REMARK SMILES C[C@@H](NC(=O)/C(=C/c1ccc(Cl)cc1)NC(=O)c1ccc(C(C)(C)C)cc1)C(=O)NCCCNC(=O)c1ccc(-c2c3nc(c(-c4ccc(S(=O)(=O)[O-])cc4)c4ccc([nH]4)c(-c4ccc(S(=O)(=O)[O-])cc4)c4nc(c(-c5ccc(S(=O)(=O)[O-])cc5)c5ccc2[nH]5)C=C4)C=C3)cc1
REMARK SMILES IDX 31 1 30 2 28 3 29 4 2 6 1 7 3 8 4 9 5 11 6 12 7 13 15 14
REMARK SMILES IDX 16 15 17 17 18 18 19 19 27 20 20 21 26 22 21 23 22 24 23 25
REMARK SMILES IDX 24 26 25 27 8 28 9 29 14 30 10 31 13 32 11 33 12 34 32 35
REMARK SMILES IDX 33 36 34 37 35 38 36 40 37 41 38 42 96 43 39 44 95 45 40 46
REMARK SMILES IDX 41 47 42 48 89 49 43 50 94 51 88 52 90 53 44 54 93 55 87 56
REMARK SMILES IDX 86 57 45 59 75 60 56 61 74 62 57 63 60 64 73 65 91 66 58 67
REMARK SMILES IDX 59 68 72 70 92 71 61 72 46 73 47 74 55 75 48 76 54 77 49 78
REMARK SMILES IDX 50 79 51 80 52 81 53 82 76 83 77 84 85 85 78 86 84 87 79 88
REMARK SMILES IDX 80 89 81 90 82 91 83 92 62 93 63 94 71 95 64 96 70 97 65 98
REMARK SMILES IDX 66 99 67 100 68 101 69 102
REMARK H PARENT 30 5 3 10 15 16 34 39 90 58 60 69
REMARK Flexibility Score: inf
ROOT
ATOM      1  C   UNL A   1      37.335  23.909  26.096  1.00  0.00     0.117 C 
ENDROOT
BRANCH   1   2
ATOM      2  N   UNL A   1      36.642  22.659  26.331  1.00  0.00    -0.354 N 
ATOM      3  C   UNL A   1      35.575  22.140  25.670  1.00  0.00     0.242 C 
ATOM      4  O   UNL A   1      35.110  21.069  26.071  1.00  0.00    -0.273 OA
ATOM      5  H   UNL A   1      36.990  22.111  27.071  1.00  0.00     0.163 HD
BRANCH   3   6
ATOM      6  C   UNL A   1      34.875  22.917  24.543  1.00  0.00     0.168 C 
ATOM      7  C   UNL A   1      35.952  23.243  23.502  1.00  0.00     0.041 C 
BRANCH   6   8
ATOM      8  N   UNL A   1      33.685  22.330  23.897  1.00  0.00    -0.339 N 
ATOM      9  C   UNL A   1      32.843  22.974  23.015  1.00  0.00     0.268 C 
ATOM     10  H   UNL A   1      33.473  21.394  24.115  1.00  0.00     0.164 HD
ATOM     11  O   UNL A   1      32.694  22.525  21.882  1.00  0.00    -0.268 OA
BRANCH   9  12
ATOM     12  C   UNL A   1      31.980  24.095  23.529  1.00  0.00     0.107 C 
ATOM     13  C   UNL A   1      31.958  25.222  22.793  1.00  0.00     0.040 C 
BRANCH  12  14
ATOM     14  N   UNL A   1      31.168  23.944  24.638  1.00  0.00    -0.317 N 
ATOM     15  C   UNL A   1      31.066  24.559  25.862  1.00  0.00     0.255 C 
ATOM     16  H   UNL A   1      30.505  23.224  24.523  1.00  0.00     0.170 HD
ATOM     17  O   UNL A   1      30.311  24.083  26.709  1.00  0.00    -0.269 OA
BRANCH  15  18
ATOM     18  C   UNL A   1      31.833  25.758  26.217  1.00  0.00     0.040 A 
ATOM     19  C   UNL A   1      33.215  25.721  26.051  1.00  0.00     0.014 A 
ATOM     20  C   UNL A   1      31.219  26.881  26.763  1.00  0.00     0.014 A 
ATOM     21  C   UNL A   1      33.971  26.861  26.324  1.00  0.00     0.005 A 
ATOM     22  C   UNL A   1      31.982  28.024  27.027  1.00  0.00     0.005 A 
ATOM     23  C   UNL A   1      33.365  28.053  26.767  1.00  0.00    -0.043 A 
BRANCH  23  24
ATOM     24  C   UNL A   1      34.215  29.324  26.932  1.00  0.00    -0.013 C 
ATOM     25  C   UNL A   1      33.327  30.568  26.739  1.00  0.00     0.016 C 
ATOM     26  C   UNL A   1      34.837  29.356  28.349  1.00  0.00     0.016 C 
ATOM     27  C   UNL A   1      35.389  29.416  25.932  1.00  0.00     0.016 C 
ENDBRANCH  23  24
ENDBRANCH  15  18
ENDBRANCH  12  14
BRANCH  13  28
ATOM     28  C   UNL A   1      31.388  26.550  23.108  1.00  0.00    -0.023 A 
ATOM     29  C   UNL A   1      32.154  27.726  23.178  1.00  0.00     0.010 A 
ATOM     30  C   UNL A   1      29.992  26.667  23.179  1.00  0.00     0.010 A 
ATOM     31  C   UNL A   1      31.550  28.970  23.386  1.00  0.00     0.021 A 
ATOM     32  C   UNL A   1      29.382  27.913  23.362  1.00  0.00     0.021 A 
ATOM     33  C   UNL A   1      30.165  29.058  23.478  1.00  0.00     0.041 A 
ATOM     34  Cl  UNL A   1      29.417  30.588  23.705  1.00  0.00    -0.084 Cl
ENDBRANCH  13  28
ENDBRANCH   9  12
ENDBRANCH   6   8
ENDBRANCH   3   6
ENDBRANCH   1   2
BRANCH   1  35
ATOM     35  C   UNL A   1      38.803  23.803  26.466  1.00  0.00     0.042 C 
BRANCH  35  36
ATOM     36  C   UNL A   1      39.611  25.011  26.018  1.00  0.00     0.118 C 
BRANCH  36  37
ATOM     37  N   UNL A   1      40.997  24.679  25.717  1.00  0.00    -0.352 N 
ATOM     38  C   UNL A   1      42.138  25.136  26.337  1.00  0.00     0.251 C 
ATOM     39  H   UNL A   1      41.135  24.047  24.976  1.00  0.00     0.163 HD
ATOM     40  O   UNL A   1      43.237  24.869  25.876  1.00  0.00    -0.269 OA
BRANCH  38  41
ATOM     41  C   UNL A   1      42.010  25.987  27.540  1.00  0.00     0.039 A 
ATOM     42  C   UNL A   1      42.495  27.295  27.493  1.00  0.00     0.014 A 
ATOM     43  C   UNL A   1      41.366  25.511  28.684  1.00  0.00     0.014 A 
ATOM     44  C   UNL A   1      42.276  28.146  28.576  1.00  0.00     0.010 A 
ATOM     45  C   UNL A   1      41.065  26.388  29.721  1.00  0.00     0.010 A 
ATOM     46  C   UNL A   1      41.528  27.711  29.684  1.00  0.00    -0.014 A 
BRANCH  46  47
ATOM     47  C   UNL A   1      41.237  28.628  30.815  1.00  0.00     0.031 A 
ATOM     48  C   UNL A   1      42.073  28.573  32.066  1.00  0.00     0.074 A 
ATOM     49  C   UNL A   1      40.201  29.486  30.730  1.00  0.00     0.049 A 
ATOM     50  N   UNL A   1      41.981  29.300  33.150  1.00  0.00    -0.248 NA
ATOM     51  C   UNL A   1      43.131  27.549  32.120  1.00  0.00     0.031 C 
ATOM     52  C   UNL A   1      39.277  29.592  29.596  1.00  0.00     0.029 A 
ATOM     53  N   UNL A   1      39.750  30.437  31.611  1.00  0.00    -0.354 N 
ATOM     54  C   UNL A   1      42.956  28.814  34.014  1.00  0.00     0.074 A 
ATOM     55  C   UNL A   1      43.584  27.691  33.356  1.00  0.00     0.031 C 
ATOM     56  C   UNL A   1      38.402  30.583  29.831  1.00  0.00     0.029 A 
ATOM     57  C   UNL A   1      38.678  31.160  31.143  1.00  0.00     0.049 A 
ATOM     58  H   UNL A   1      40.157  30.587  32.495  1.00  0.00     0.167 HD
ATOM     59  C   UNL A   1      43.318  29.278  35.234  1.00  0.00     0.031 A 
ATOM     60  C   UNL A   1      38.000  32.180  31.703  1.00  0.00     0.031 A 
ATOM     61  C   UNL A   1      42.702  30.407  35.877  1.00  0.00     0.049 A 
ATOM     62  C   UNL A   1      38.433  32.692  33.050  1.00  0.00     0.074 A 
ATOM     63  C   UNL A   1      43.033  30.995  37.085  1.00  0.00     0.029 A 
ATOM     64  N   UNL A   1      41.630  31.122  35.364  1.00  0.00    -0.354 N 
ATOM     65  N   UNL A   1      39.407  32.268  33.818  1.00  0.00    -0.248 NA
ATOM     66  C   UNL A   1      37.685  33.833  33.596  1.00  0.00     0.031 C 
ATOM     67  C   UNL A   1      42.130  32.036  37.325  1.00  0.00     0.029 A 
ATOM     68  C   UNL A   1      41.274  32.133  36.240  1.00  0.00     0.049 A 
ATOM     69  H   UNL A   1      41.188  30.937  34.504  1.00  0.00     0.167 HD
ATOM     70  C   UNL A   1      39.408  33.107  34.927  1.00  0.00     0.074 A 
ATOM     71  C   UNL A   1      38.348  34.073  34.719  1.00  0.00     0.031 C 
ATOM     72  C   UNL A   1      40.213  33.082  36.018  1.00  0.00     0.031 A 
BRANCH  59  73
ATOM     73  C   UNL A   1      44.436  28.561  35.945  1.00  0.00    -0.014 A 
ATOM     74  C   UNL A   1      45.776  28.949  35.766  1.00  0.00     0.010 A 
ATOM     75  C   UNL A   1      44.142  27.505  36.826  1.00  0.00     0.010 A 
ATOM     76  C   UNL A   1      46.805  28.266  36.418  1.00  0.00     0.020 A 
ATOM     77  C   UNL A   1      45.166  26.838  37.505  1.00  0.00     0.020 A 
ATOM     78  C   UNL A   1      46.493  27.212  37.282  1.00  0.00     0.054 A 
BRANCH  78  79
ATOM     79  S   UNL A   1      47.847  26.359  38.136  1.00  0.00     0.124 S 
ATOM     80  O   UNL A   1      48.875  27.396  38.179  1.00  0.00    -0.237 OA
ATOM     81  O   UNL A   1      47.249  26.014  39.422  1.00  0.00    -0.237 OA
ATOM     82  O   UNL A   1      48.144  25.224  37.266  1.00  0.00    -0.744 OA
ENDBRANCH  78  79
ENDBRANCH  59  73
BRANCH  60  83
ATOM     83  C   UNL A   1      36.864  32.808  30.974  1.00  0.00    -0.014 A 
ATOM     84  C   UNL A   1      35.536  32.479  31.299  1.00  0.00     0.010 A 
ATOM     85  C   UNL A   1      37.105  33.749  29.956  1.00  0.00     0.010 A 
ATOM     86  C   UNL A   1      34.470  33.063  30.607  1.00  0.00     0.020 A 
ATOM     87  C   UNL A   1      36.041  34.356  29.281  1.00  0.00     0.020 A 
ATOM     88  C   UNL A   1      34.731  34.001  29.603  1.00  0.00     0.054 A 
BRANCH  88  89
ATOM     89  S   UNL A   1      33.333  34.786  28.753  1.00  0.00     0.124 S 
ATOM     90  O   UNL A   1      32.817  33.691  27.938  1.00  0.00    -0.237 OA
ATOM     91  O   UNL A   1      32.482  35.204  29.866  1.00  0.00    -0.237 OA
ATOM     92  O   UNL A   1      33.957  35.881  28.013  1.00  0.00    -0.744 OA
ENDBRANCH  88  89
ENDBRANCH  60  83
BRANCH  72  93
ATOM     93  C   UNL A   1      39.996  34.148  37.057  1.00  0.00    -0.014 A 
ATOM     94  C   UNL A   1      40.555  35.431  36.913  1.00  0.00     0.010 A 
ATOM     95  C   UNL A   1      39.190  33.871  38.177  1.00  0.00     0.010 A 
ATOM     96  C   UNL A   1      40.347  36.404  37.894  1.00  0.00     0.020 A 
ATOM     97  C   UNL A   1      38.956  34.851  39.144  1.00  0.00     0.020 A 
ATOM     98  C   UNL A   1      39.552  36.107  39.006  1.00  0.00     0.054 A 
BRANCH  98  99
ATOM     99  S   UNL A   1      39.277  37.393  40.254  1.00  0.00     0.124 S 
ATOM    100  O   UNL A   1      40.640  37.840  40.532  1.00  0.00    -0.237 OA
ATOM    101  O   UNL A   1      38.434  38.353  39.547  1.00  0.00    -0.237 OA
ATOM    102  O   UNL A   1      38.620  36.681  41.347  1.00  0.00    -0.744 OA
ENDBRANCH  98  99
ENDBRANCH  72  93
ENDBRANCH  46  47
ENDBRANCH  38  41
ENDBRANCH  36  37
ENDBRANCH  35  36
ENDBRANCH   1  35
TORSDOF 19
ENDMDL
MODEL 2
REMARK VINA RESULT:     -10.3      1.081      7.864
REMARK SMILES C[C@@H](NC(=O)/C(=C/c1ccc(Cl)cc1)NC(=O)c1ccc(C(C)(C)C)cc1)C(=O)NCCCNC(=O)c1ccc(-c2c3nc(c(-c4ccc(S(=O)(=O)[O-])cc4)c4ccc([nH]4)c(-c4ccc(S(=O)(=O)[O-])cc4)c4nc(c(-c5ccc(S(=O)(=O)[O-])cc5)c5ccc2[nH]5)C=C4)C=C3)cc1
REMARK SMILES IDX 31 1 30 2 28 3 29 4 2 6 1 7 3 8 4 9 5 11 6 12 7 13 15 14
REMARK SMILES IDX 16 15 17 17 18 18 19 19 27 20 20 21 26 22 21 23 22 24 23 25
REMARK SMILES IDX 24 26 25 27 8 28 9 29 14 30 10 31 13 32 11 33 12 34 32 35
REMARK SMILES IDX 33 36 34 37 35 38 36 40 37 41 38 42 96 43 39 44 95 45 40 46
REMARK SMILES IDX 41 47 42 48 89 49 43 50 94 51 88 52 90 53 44 54 93 55 87 56
REMARK SMILES IDX 86 57 45 59 75 60 56 61 74 62 57 63 60 64 73 65 91 66 58 67
REMARK SMILES IDX 59 68 72 70 92 71 61 72 46 73 47 74 55 75 48 76 54 77 49 78
REMARK SMILES IDX 50 79 51 80 52 81 53 82 76 83 77 84 85 85 78 86 84 87 79 88
REMARK SMILES IDX 80 89 81 90 82 91 83 92 62 93 63 94 71 95 64 96 70 97 65 98
REMARK SMILES IDX 66 99 67 100 68 101 69 102
REMARK H PARENT 30 5 3 10 15 16 34 39 90 58 60 69
REMARK Flexibility Score: inf
ROOT
ATOM      1  C   UNL A   1      38.037  23.759  26.124  1.00  0.00     0.117 C 
ENDROOT
BRANCH   1   2
ATOM      2  N   UNL A   1      38.145  22.450  25.513  1.00  0.00    -0.354 N 
ATOM      3  C   UNL A   1      37.193  21.732  24.863  1.00  0.00     0.242 C 
ATOM      4  O   UNL A   1      37.493  20.606  24.455  1.00  0.00    -0.273 OA
ATOM      5  H   UNL A   1      39.029  22.022  25.578  1.00  0.00     0.163 HD
BRANCH   3   6
ATOM      6  C   UNL A   1      35.745  22.239  24.750  1.00  0.00     0.168 C 
ATOM      7  C   UNL A   1      35.641  22.972  23.407  1.00  0.00     0.041 C 
BRANCH   6   8
ATOM      8  N   UNL A   1      34.634  21.281  24.909  1.00  0.00    -0.339 N 
ATOM      9  C   UNL A   1      33.456  21.282  24.194  1.00  0.00     0.268 C 
ATOM     10  H   UNL A   1      34.745  20.576  25.589  1.00  0.00     0.164 HD
ATOM     11  O   UNL A   1      33.153  20.298  23.524  1.00  0.00    -0.268 OA
BRANCH   9  12
ATOM     12  C   UNL A   1      32.482  22.409  24.410  1.00  0.00     0.107 C 
ATOM     13  C   UNL A   1      32.297  23.250  23.374  1.00  0.00     0.040 C 
BRANCH  12  14
ATOM     14  N   UNL A   1      31.734  22.518  25.567  1.00  0.00    -0.317 N 
ATOM     15  C   UNL A   1      31.556  23.486  26.526  1.00  0.00     0.255 C 
ATOM     16  H   UNL A   1      31.201  21.709  25.747  1.00  0.00     0.170 HD
ATOM     17  O   UNL A   1      30.913  23.213  27.538  1.00  0.00    -0.269 OA
BRANCH  15  18
ATOM     18  C   UNL A   1      32.115  24.836  26.405  1.00  0.00     0.040 A 
ATOM     19  C   UNL A   1      31.249  25.917  26.554  1.00  0.00     0.014 A 
ATOM     20  C   UNL A   1      33.454  25.046  26.089  1.00  0.00     0.014 A 
ATOM     21  C   UNL A   1      31.754  27.215  26.502  1.00  0.00     0.005 A 
ATOM     22  C   UNL A   1      33.956  26.351  26.047  1.00  0.00     0.005 A 
ATOM     23  C   UNL A   1      33.127  27.460  26.300  1.00  0.00    -0.043 A 
BRANCH  23  24
ATOM     24  C   UNL A   1      33.664  28.899  26.379  1.00  0.00    -0.013 C 
ATOM     25  C   UNL A   1      32.661  29.783  27.144  1.00  0.00     0.016 C 
ATOM     26  C   UNL A   1      35.022  28.909  27.120  1.00  0.00     0.016 C 
ATOM     27  C   UNL A   1      33.910  29.543  24.997  1.00  0.00     0.016 C 
ENDBRANCH  23  24
ENDBRANCH  15  18
ENDBRANCH  12  14
BRANCH  13  28
ATOM     28  C   UNL A   1      31.582  24.543  23.318  1.00  0.00    -0.023 A 
ATOM     29  C   UNL A   1      32.187  25.748  22.922  1.00  0.00     0.010 A 
ATOM     30  C   UNL A   1      30.193  24.536  23.513  1.00  0.00     0.010 A 
ATOM     31  C   UNL A   1      31.440  26.923  22.797  1.00  0.00     0.021 A 
ATOM     32  C   UNL A   1      29.438  25.704  23.364  1.00  0.00     0.021 A 
ATOM     33  C   UNL A   1      30.067  26.896  23.019  1.00  0.00     0.041 A 
ATOM     34  Cl  UNL A   1      29.142  28.332  22.837  1.00  0.00    -0.084 Cl
ENDBRANCH  13  28
ENDBRANCH   9  12
ENDBRANCH   6   8
ENDBRANCH   3   6
ENDBRANCH   1   2
BRANCH   1  35
ATOM     35  C   UNL A   1      39.322  24.146  26.832  1.00  0.00     0.042 C 
BRANCH  35  36
ATOM     36  C   UNL A   1      39.985  25.370  26.221  1.00  0.00     0.118 C 
BRANCH  36  37
ATOM     37  N   UNL A   1      41.361  25.120  25.815  1.00  0.00    -0.352 N 
ATOM     38  C   UNL A   1      42.518  25.630  26.359  1.00  0.00     0.251 C 
ATOM     39  H   UNL A   1      41.479  24.507  25.054  1.00  0.00     0.163 HD
ATOM     40  O   UNL A   1      43.593  25.431  25.815  1.00  0.00    -0.269 OA
BRANCH  38  41
ATOM     41  C   UNL A   1      42.433  26.456  27.583  1.00  0.00     0.039 A 
ATOM     42  C   UNL A   1      42.845  27.788  27.526  1.00  0.00     0.014 A 
ATOM     43  C   UNL A   1      41.896  25.930  28.762  1.00  0.00     0.014 A 
ATOM     44  C   UNL A   1      42.659  28.610  28.638  1.00  0.00     0.010 A 
ATOM     45  C   UNL A   1      41.626  26.774  29.832  1.00  0.00     0.010 A 
ATOM     46  C   UNL A   1      42.015  28.120  29.787  1.00  0.00    -0.014 A 
BRANCH  46  47
ATOM     47  C   UNL A   1      41.760  29.004  30.953  1.00  0.00     0.031 A 
ATOM     48  C   UNL A   1      40.605  29.970  30.929  1.00  0.00     0.074 A 
ATOM     49  C   UNL A   1      42.586  28.961  32.017  1.00  0.00     0.049 A 
ATOM     50  N   UNL A   1      40.216  30.809  31.854  1.00  0.00    -0.248 NA
ATOM     51  C   UNL A   1      39.801  30.022  29.697  1.00  0.00     0.031 C 
ATOM     52  C   UNL A   1      43.776  28.113  32.135  1.00  0.00     0.029 A 
ATOM     53  N   UNL A   1      42.550  29.644  33.207  1.00  0.00    -0.354 N 
ATOM     54  C   UNL A   1      39.134  31.494  31.311  1.00  0.00     0.074 A 
ATOM     55  C   UNL A   1      38.969  31.019  29.956  1.00  0.00     0.031 C 
ATOM     56  C   UNL A   1      44.328  28.292  33.346  1.00  0.00     0.029 A 
ATOM     57  C   UNL A   1      43.554  29.290  34.078  1.00  0.00     0.049 A 
ATOM     58  H   UNL A   1      41.869  30.323  33.417  1.00  0.00     0.167 HD
ATOM     59  C   UNL A   1      38.331  32.414  31.896  1.00  0.00     0.031 A 
ATOM     60  C   UNL A   1      43.816  29.714  35.330  1.00  0.00     0.031 A 
ATOM     61  C   UNL A   1      38.488  32.871  33.250  1.00  0.00     0.049 A 
ATOM     62  C   UNL A   1      42.898  30.721  35.966  1.00  0.00     0.074 A 
ATOM     63  C   UNL A   1      37.693  33.755  33.958  1.00  0.00     0.029 A 
ATOM     64  N   UNL A   1      39.507  32.477  34.104  1.00  0.00    -0.354 N 
ATOM     65  N   UNL A   1      41.834  31.301  35.462  1.00  0.00    -0.248 NA
ATOM     66  C   UNL A   1      43.206  31.118  37.347  1.00  0.00     0.031 C 
ATOM     67  C   UNL A   1      38.259  33.933  35.224  1.00  0.00     0.029 A 
ATOM     68  C   UNL A   1      39.373  33.115  35.326  1.00  0.00     0.049 A 
ATOM     69  H   UNL A   1      40.221  31.838  33.876  1.00  0.00     0.167 HD
ATOM     70  C   UNL A   1      41.329  32.110  36.473  1.00  0.00     0.074 A 
ATOM     71  C   UNL A   1      42.195  31.931  37.622  1.00  0.00     0.031 C 
ATOM     72  C   UNL A   1      40.247  32.928  36.455  1.00  0.00     0.031 A 
BRANCH  59  73
ATOM     73  C   UNL A   1      37.208  32.981  31.067  1.00  0.00    -0.014 A 
ATOM     74  C   UNL A   1      35.873  32.597  31.292  1.00  0.00     0.010 A 
ATOM     75  C   UNL A   1      37.486  33.932  30.068  1.00  0.00     0.010 A 
ATOM     76  C   UNL A   1      34.844  33.117  30.506  1.00  0.00     0.020 A 
ATOM     77  C   UNL A   1      36.454  34.479  29.299  1.00  0.00     0.020 A 
ATOM     78  C   UNL A   1      35.141  34.054  29.512  1.00  0.00     0.054 A 
BRANCH  78  79
ATOM     79  S   UNL A   1      33.780  34.732  28.523  1.00  0.00     0.124 S 
ATOM     80  O   UNL A   1      33.809  36.143  28.901  1.00  0.00    -0.237 OA
ATOM     81  O   UNL A   1      34.200  34.440  27.156  1.00  0.00    -0.237 OA
ATOM     82  O   UNL A   1      32.612  33.987  28.985  1.00  0.00    -0.744 OA
ENDBRANCH  78  79
ENDBRANCH  59  73
BRANCH  60  83
ATOM     83  C   UNL A   1      44.978  29.158  36.075  1.00  0.00    -0.014 A 
ATOM     84  C   UNL A   1      44.833  28.008  36.871  1.00  0.00     0.010 A 
ATOM     85  C   UNL A   1      46.241  29.771  35.984  1.00  0.00     0.010 A 
ATOM     86  C   UNL A   1      45.924  27.491  37.577  1.00  0.00     0.020 A 
ATOM     87  C   UNL A   1      47.341  29.241  36.667  1.00  0.00     0.020 A 
ATOM     88  C   UNL A   1      47.173  28.112  37.468  1.00  0.00     0.054 A 
BRANCH  88  89
ATOM     89  S   UNL A   1      48.587  27.395  38.352  1.00  0.00     0.124 S 
ATOM     90  O   UNL A   1      48.803  26.150  37.623  1.00  0.00    -0.237 OA
ATOM     91  O   UNL A   1      49.617  28.418  38.181  1.00  0.00    -0.237 OA
ATOM     92  O   UNL A   1      48.093  27.245  39.719  1.00  0.00    -0.744 OA
ENDBRANCH  88  89
ENDBRANCH  60  83
BRANCH  72  93
ATOM     93  C   UNL A   1      39.923  33.667  37.725  1.00  0.00    -0.014 A 
ATOM     94  C   UNL A   1      39.135  33.079  38.731  1.00  0.00     0.010 A 
ATOM     95  C   UNL A   1      40.445  34.958  37.927  1.00  0.00     0.010 A 
ATOM     96  C   UNL A   1      38.840  33.787  39.898  1.00  0.00     0.020 A 
ATOM     97  C   UNL A   1      40.176  35.657  39.106  1.00  0.00     0.020 A 
ATOM     98  C   UNL A   1      39.358  35.074  40.077  1.00  0.00     0.054 A 
BRANCH  98  99
ATOM     99  S   UNL A   1      38.980  35.964  41.610  1.00  0.00     0.124 S 
ATOM    100  O   UNL A   1      40.112  35.598  42.458  1.00  0.00    -0.237 OA
ATOM    101  O   UNL A   1      38.947  37.358  41.174  1.00  0.00    -0.237 OA
ATOM    102  O   UNL A   1      37.691  35.415  42.022  1.00  0.00    -0.744 OA
ENDBRANCH  98  99
ENDBRANCH  72  93
ENDBRANCH  46  47
ENDBRANCH  38  41
ENDBRANCH  36  37
ENDBRANCH  35  36
ENDBRANCH   1  35
TORSDOF 19
ENDMDL
MODEL 3
REMARK VINA RESULT:     -10.3      5.139      8.766
REMARK SMILES C[C@@H](NC(=O)/C(=C/c1ccc(Cl)cc1)NC(=O)c1ccc(C(C)(C)C)cc1)C(=O)NCCCNC(=O)c1ccc(-c2c3nc(c(-c4ccc(S(=O)(=O)[O-])cc4)c4ccc([nH]4)c(-c4ccc(S(=O)(=O)[O-])cc4)c4nc(c(-c5ccc(S(=O)(=O)[O-])cc5)c5ccc2[nH]5)C=C4)C=C3)cc1
REMARK SMILES IDX 31 1 30 2 28 3 29 4 2 6 1 7 3 8 4 9 5 11 6 12 7 13 15 14
REMARK SMILES IDX 16 15 17 17 18 18 19 19 27 20 20 21 26 22 21 23 22 24 23 25
REMARK SMILES IDX 24 26 25 27 8 28 9 29 14 30 10 31 13 32 11 33 12 34 32 35
REMARK SMILES IDX 33 36 34 37 35 38 36 40 37 41 38 42 96 43 39 44 95 45 40 46
REMARK SMILES IDX 41 47 42 48 89 49 43 50 94 51 88 52 90 53 44 54 93 55 87 56
REMARK SMILES IDX 86 57 45 59 75 60 56 61 74 62 57 63 60 64 73 65 91 66 58 67
REMARK SMILES IDX 59 68 72 70 92 71 61 72 46 73 47 74 55 75 48 76 54 77 49 78
REMARK SMILES IDX 50 79 51 80 52 81 53 82 76 83 77 84 85 85 78 86 84 87 79 88
REMARK SMILES IDX 80 89 81 90 82 91 83 92 62 93 63 94 71 95 64 96 70 97 65 98
REMARK SMILES IDX 66 99 67 100 68 101 69 102
REMARK H PARENT 30 5 3 10 15 16 34 39 90 58 60 69
REMARK Flexibility Score: inf
ROOT
ATOM      1  C   UNL A   1      45.811  27.796  26.692  1.00  0.00     0.117 C 
ENDROOT
BRANCH   1   2
ATOM      2  N   UNL A   1      46.055  28.995  25.916  1.00  0.00    -0.354 N 
ATOM      3  C   UNL A   1      46.051  30.290  26.325  1.00  0.00     0.242 C 
ATOM      4  O   UNL A   1      46.241  31.166  25.476  1.00  0.00    -0.273 OA
ATOM      5  H   UNL A   1      46.248  28.852  24.962  1.00  0.00     0.163 HD
BRANCH   3   6
ATOM      6  C   UNL A   1      45.689  30.673  27.770  1.00  0.00     0.168 C 
ATOM      7  C   UNL A   1      44.206  30.331  27.955  1.00  0.00     0.041 C 
BRANCH   6   8
ATOM      8  N   UNL A   1      46.493  30.127  28.880  1.00  0.00    -0.339 N 
ATOM      9  C   UNL A   1      46.051  29.909  30.168  1.00  0.00     0.268 C 
ATOM     10  H   UNL A   1      47.431  29.899  28.684  1.00  0.00     0.164 HD
ATOM     11  O   UNL A   1      46.091  28.774  30.637  1.00  0.00    -0.268 OA
BRANCH   9  12
ATOM     12  C   UNL A   1      45.716  31.097  31.027  1.00  0.00     0.107 C 
ATOM     13  C   UNL A   1      44.501  31.095  31.607  1.00  0.00     0.040 C 
BRANCH  12  14
ATOM     14  N   UNL A   1      46.641  32.088  31.299  1.00  0.00    -0.317 N 
ATOM     15  C   UNL A   1      46.779  33.412  30.957  1.00  0.00     0.255 C 
ATOM     16  H   UNL A   1      47.375  31.770  31.873  1.00  0.00     0.170 HD
ATOM     17  O   UNL A   1      47.820  33.998  31.250  1.00  0.00    -0.269 OA
BRANCH  15  18
ATOM     18  C   UNL A   1      45.742  34.161  30.241  1.00  0.00     0.040 A 
ATOM     19  C   UNL A   1      45.405  33.742  28.956  1.00  0.00     0.014 A 
ATOM     20  C   UNL A   1      45.151  35.295  30.789  1.00  0.00     0.014 A 
ATOM     21  C   UNL A   1      44.385  34.396  28.265  1.00  0.00     0.005 A 
ATOM     22  C   UNL A   1      44.122  35.941  30.095  1.00  0.00     0.005 A 
ATOM     23  C   UNL A   1      43.685  35.475  28.840  1.00  0.00    -0.043 A 
BRANCH  23  24
ATOM     24  C   UNL A   1      42.482  36.084  28.101  1.00  0.00    -0.013 C 
ATOM     25  C   UNL A   1      42.617  35.819  26.589  1.00  0.00     0.016 C 
ATOM     26  C   UNL A   1      41.173  35.440  28.617  1.00  0.00     0.016 C 
ATOM     27  C   UNL A   1      42.336  37.608  28.308  1.00  0.00     0.016 C 
ENDBRANCH  23  24
ENDBRANCH  15  18
ENDBRANCH  12  14
BRANCH  13  28
ATOM     28  C   UNL A   1      43.794  32.173  32.333  1.00  0.00    -0.023 A 
ATOM     29  C   UNL A   1      44.267  32.744  33.526  1.00  0.00     0.010 A 
ATOM     30  C   UNL A   1      42.683  32.764  31.714  1.00  0.00     0.010 A 
ATOM     31  C   UNL A   1      43.607  33.825  34.120  1.00  0.00     0.021 A 
ATOM     32  C   UNL A   1      42.035  33.862  32.292  1.00  0.00     0.021 A 
ATOM     33  C   UNL A   1      42.492  34.380  33.499  1.00  0.00     0.041 A 
ATOM     34  Cl  UNL A   1      41.697  35.726  34.210  1.00  0.00    -0.084 Cl
ENDBRANCH  13  28
ENDBRANCH   9  12
ENDBRANCH   6   8
ENDBRANCH   3   6
ENDBRANCH   1   2
BRANCH   1  35
ATOM     35  C   UNL A   1      45.261  26.679  25.826  1.00  0.00     0.042 C 
BRANCH  35  36
ATOM     36  C   UNL A   1      44.147  25.901  26.505  1.00  0.00     0.118 C 
BRANCH  36  37
ATOM     37  N   UNL A   1      43.031  25.622  25.612  1.00  0.00    -0.352 N 
ATOM     38  C   UNL A   1      41.706  25.961  25.770  1.00  0.00     0.251 C 
ATOM     39  H   UNL A   1      43.253  25.127  24.791  1.00  0.00     0.163 HD
ATOM     40  O   UNL A   1      40.866  25.532  24.994  1.00  0.00    -0.269 OA
BRANCH  38  41
ATOM     41  C   UNL A   1      41.314  26.813  26.912  1.00  0.00     0.039 A 
ATOM     42  C   UNL A   1      40.775  26.209  28.049  1.00  0.00     0.014 A 
ATOM     43  C   UNL A   1      41.530  28.194  26.879  1.00  0.00     0.014 A 
ATOM     44  C   UNL A   1      40.511  26.985  29.178  1.00  0.00     0.010 A 
ATOM     45  C   UNL A   1      41.357  28.946  28.036  1.00  0.00     0.010 A 
ATOM     46  C   UNL A   1      40.833  28.353  29.193  1.00  0.00    -0.014 A 
BRANCH  46  47
ATOM     47  C   UNL A   1      40.613  29.175  30.410  1.00  0.00     0.031 A 
ATOM     48  C   UNL A   1      41.473  28.967  31.628  1.00  0.00     0.074 A 
ATOM     49  C   UNL A   1      39.616  30.083  30.431  1.00  0.00     0.049 A 
ATOM     50  N   UNL A   1      41.440  29.595  32.775  1.00  0.00    -0.248 NA
ATOM     51  C   UNL A   1      42.482  27.896  31.561  1.00  0.00     0.031 C 
ATOM     52  C   UNL A   1      38.673  30.334  29.337  1.00  0.00     0.029 A 
ATOM     53  N   UNL A   1      39.232  30.968  31.406  1.00  0.00    -0.354 N 
ATOM     54  C   UNL A   1      42.410  28.989  33.565  1.00  0.00     0.074 A 
ATOM     55  C   UNL A   1      42.969  27.904  32.791  1.00  0.00     0.031 C 
ATOM     56  C   UNL A   1      37.852  31.338  29.684  1.00  0.00     0.029 A 
ATOM     57  C   UNL A   1      38.184  31.779  31.035  1.00  0.00     0.049 A 
ATOM     58  H   UNL A   1      39.665  31.018  32.288  1.00  0.00     0.167 HD
ATOM     59  C   UNL A   1      42.821  29.322  34.812  1.00  0.00     0.031 A 
ATOM     60  C   UNL A   1      37.569  32.773  31.703  1.00  0.00     0.031 A 
ATOM     61  C   UNL A   1      42.275  30.414  35.571  1.00  0.00     0.049 A 
ATOM     62  C   UNL A   1      38.056  33.139  33.078  1.00  0.00     0.074 A 
ATOM     63  C   UNL A   1      42.660  30.873  36.819  1.00  0.00     0.029 A 
ATOM     64  N   UNL A   1      41.226  31.220  35.154  1.00  0.00    -0.354 N 
ATOM     65  N   UNL A   1      39.026  32.602  33.779  1.00  0.00    -0.248 NA
ATOM     66  C   UNL A   1      37.375  34.258  33.745  1.00  0.00     0.031 C 
ATOM     67  C   UNL A   1      41.814  31.927  37.176  1.00  0.00     0.029 A 
ATOM     68  C   UNL A   1      40.938  32.162  36.127  1.00  0.00     0.049 A 
ATOM     69  H   UNL A   1      40.756  31.136  34.293  1.00  0.00     0.167 HD
ATOM     70  C   UNL A   1      39.091  33.335  34.959  1.00  0.00     0.074 A 
ATOM     71  C   UNL A   1      38.074  34.363  34.867  1.00  0.00     0.031 C 
ATOM     72  C   UNL A   1      39.919  33.174  36.021  1.00  0.00     0.031 A 
BRANCH  59  73
ATOM     73  C   UNL A   1      43.919  28.493  35.425  1.00  0.00    -0.014 A 
ATOM     74  C   UNL A   1      45.272  28.848  35.265  1.00  0.00     0.010 A 
ATOM     75  C   UNL A   1      43.596  27.361  36.194  1.00  0.00     0.010 A 
ATOM     76  C   UNL A   1      46.281  28.062  35.825  1.00  0.00     0.020 A 
ATOM     77  C   UNL A   1      44.603  26.588  36.782  1.00  0.00     0.020 A 
ATOM     78  C   UNL A   1      45.940  26.935  36.578  1.00  0.00     0.054 A 
BRANCH  78  79
ATOM     79  S   UNL A   1      47.271  25.946  37.315  1.00  0.00     0.124 S 
ATOM     80  O   UNL A   1      48.458  26.539  36.703  1.00  0.00    -0.237 OA
ATOM     81  O   UNL A   1      47.107  26.200  38.743  1.00  0.00    -0.237 OA
ATOM     82  O   UNL A   1      46.967  24.583  36.888  1.00  0.00    -0.744 OA
ENDBRANCH  78  79
ENDBRANCH  59  73
BRANCH  60  83
ATOM     83  C   UNL A   1      36.448  33.516  31.064  1.00  0.00    -0.014 A 
ATOM     84  C   UNL A   1      36.558  33.978  29.741  1.00  0.00     0.010 A 
ATOM     85  C   UNL A   1      35.256  33.756  31.774  1.00  0.00     0.010 A 
ATOM     86  C   UNL A   1      35.508  34.683  29.145  1.00  0.00     0.020 A 
ATOM     87  C   UNL A   1      34.193  34.436  31.172  1.00  0.00     0.020 A 
ATOM     88  C   UNL A   1      34.330  34.905  29.865  1.00  0.00     0.054 A 
BRANCH  88  89
ATOM     89  S   UNL A   1      32.959  35.776  29.056  1.00  0.00     0.124 S 
ATOM     90  O   UNL A   1      32.150  36.196  30.194  1.00  0.00    -0.237 OA
ATOM     91  O   UNL A   1      33.646  36.846  28.336  1.00  0.00    -0.237 OA
ATOM     92  O   UNL A   1      32.360  34.750  28.204  1.00  0.00    -0.744 OA
ENDBRANCH  88  89
ENDBRANCH  60  83
BRANCH  72  93
ATOM     93  C   UNL A   1      39.776  34.149  37.158  1.00  0.00    -0.014 A 
ATOM     94  C   UNL A   1      40.463  35.377  37.156  1.00  0.00     0.010 A 
ATOM     95  C   UNL A   1      38.913  33.847  38.226  1.00  0.00     0.010 A 
ATOM     96  C   UNL A   1      40.322  36.264  38.226  1.00  0.00     0.020 A 
ATOM     97  C   UNL A   1      38.747  34.745  39.283  1.00  0.00     0.020 A 
ATOM     98  C   UNL A   1      39.468  35.941  39.285  1.00  0.00     0.054 A 
BRANCH  98  99
ATOM     99  S   UNL A   1      39.283  37.119  40.651  1.00  0.00     0.124 S 
ATOM    100  O   UNL A   1      38.315  38.066  40.104  1.00  0.00    -0.237 OA
ATOM    101  O   UNL A   1      38.792  36.276  41.739  1.00  0.00    -0.237 OA
ATOM    102  O   UNL A   1      40.632  37.646  40.839  1.00  0.00    -0.744 OA
ENDBRANCH  98  99
ENDBRANCH  72  93
ENDBRANCH  46  47
ENDBRANCH  38  41
ENDBRANCH  36  37
ENDBRANCH  35  36
ENDBRANCH   1  35
TORSDOF 19
ENDMDL
