MODEL 1
REMARK VINA RESULT:     -12.9      0.000      0.000
REMARK SMILES COc1ccc(N2C(=O)/C(=C/c3c(C(=O)NCCCNC(=O)c4ccc(-c5c6nc(c(-c7ccc(S(=O)(=O)[O-])cc7)c7ccc([nH]7)c(-c7ccc(S(=O)(=O)[O-])cc7)c7nc(c(-c8ccc(S(=O)(=O)[O-])cc8)c8ccc5[nH]8)C=C7)C=C6)cc4)[nH]c4cc(OC)ccc34)SC2=S)cc1
REMARK SMILES IDX 18 1 17 2 16 3 14 4 15 5 13 7 12 8 91 9 83 10 84 11 90 12
REMARK SMILES IDX 85 14 89 15 86 16 11 17 7 18 8 19 93 20 9 21 10 22 92 23
REMARK SMILES IDX 94 24 6 25 3 26 4 27 96 28 5 29 95 30 2 31 1 32 87 33 88 34
REMARK SMILES IDX 19 35 20 36 21 37 22 39 23 40 24 41 82 42 25 43 81 44 26 45
REMARK SMILES IDX 27 46 28 47 75 48 29 49 80 50 74 51 76 52 30 53 79 54 73 55
REMARK SMILES IDX 72 56 31 58 61 59 42 60 60 61 43 62 46 63 59 64 77 65 44 66
REMARK SMILES IDX 45 67 58 69 78 70 47 71 32 72 33 73 41 74 34 75 40 76 35 77
REMARK SMILES IDX 36 78 37 79 38 80 39 81 62 82 63 83 71 84 64 85 70 86 65 87
REMARK SMILES IDX 66 88 67 89 68 90 69 91 48 92 49 93 57 94 50 95 56 96 51 97
REMARK SMILES IDX 52 98 53 99 54 100 55 101
REMARK H PARENT 16 6 83 13 20 38 76 57 46 68
REMARK Flexibility Score: inf
ROOT
ATOM      1  C   UNL A   1      37.373  23.244  24.928  1.00  0.00     0.042 C 
ENDROOT
BRANCH   1   2
ATOM      2  C   UNL A   1      35.974  23.736  25.248  1.00  0.00     0.118 C 
BRANCH   2   3
ATOM      3  N   UNL A   1      35.498  23.370  26.574  1.00  0.00    -0.351 N 
ATOM      4  C   UNL A   1      34.607  22.374  26.892  1.00  0.00     0.268 C 
ATOM      5  O   UNL A   1      34.134  22.349  28.028  1.00  0.00    -0.268 OA
ATOM      6  H   UNL A   1      35.855  23.896  27.326  1.00  0.00     0.163 HD
BRANCH   4   7
ATOM      7  C   UNL A   1      34.177  21.463  25.860  1.00  0.00     0.112 A 
ATOM      8  C   UNL A   1      32.990  21.282  25.143  1.00  0.00     0.014 A 
ATOM      9  C   UNL A   1      33.049  19.920  24.646  1.00  0.00     0.008 A 
ATOM     10  N   UNL A   1      35.059  20.529  25.387  1.00  0.00    -0.350 N 
ATOM     11  C   UNL A   1      34.361  19.484  24.852  1.00  0.00     0.050 A 
ATOM     12  C   UNL A   1      32.157  18.967  24.091  1.00  0.00     0.015 A 
ATOM     13  H   UNL A   1      36.040  20.600  25.426  1.00  0.00     0.167 HD
ATOM     14  C   UNL A   1      34.819  18.195  24.581  1.00  0.00     0.073 A 
ATOM     15  C   UNL A   1      32.600  17.638  23.837  1.00  0.00     0.047 A 
ATOM     16  C   UNL A   1      33.917  17.258  24.089  1.00  0.00     0.120 A 
BRANCH   8  17
ATOM     17  C   UNL A   1      31.895  22.235  25.206  1.00  0.00     0.032 C 
ATOM     18  N   UNL A   1      31.350  25.396  23.541  1.00  0.00    -0.261 N 
ATOM     19  C   UNL A   1      30.963  24.481  24.532  1.00  0.00     0.270 C 
ATOM     20  C   UNL A   1      32.074  24.879  22.476  1.00  0.00     0.152 C 
ATOM     21  O   UNL A   1      30.352  24.706  25.567  1.00  0.00    -0.268 OA
ATOM     22  C   UNL A   1      31.586  23.138  24.242  1.00  0.00     0.081 C 
ATOM     23  S   UNL A   1      32.131  23.127  22.607  1.00  0.00    -0.054 SA
ATOM     24  S   UNL A   1      32.772  25.663  21.173  1.00  0.00    -0.051 S 
BRANCH  18  25
ATOM     25  C   UNL A   1      31.064  26.792  23.651  1.00  0.00     0.051 A 
ATOM     26  C   UNL A   1      30.364  29.505  24.053  1.00  0.00     0.119 A 
ATOM     27  C   UNL A   1      29.573  28.679  23.258  1.00  0.00     0.048 A 
ATOM     28  C   UNL A   1      31.488  28.964  24.676  1.00  0.00     0.048 A 
ATOM     29  C   UNL A   1      29.914  27.334  23.061  1.00  0.00     0.030 A 
ATOM     30  C   UNL A   1      31.849  27.620  24.462  1.00  0.00     0.030 A 
BRANCH  26  31
ATOM     31  O   UNL A   1      29.919  30.793  24.161  1.00  0.00    -0.497 OA
ATOM     32  C   UNL A   1      28.712  31.115  23.481  1.00  0.00     0.278 C 
ENDBRANCH  26  31
ENDBRANCH  18  25
ENDBRANCH   8  17
BRANCH  16  33
ATOM     33  O   UNL A   1      34.467  16.013  23.970  1.00  0.00    -0.497 OA
ATOM     34  C   UNL A   1      35.209  15.503  25.063  1.00  0.00     0.278 C 
ENDBRANCH  16  33
ENDBRANCH   4   7
ENDBRANCH   2   3
ENDBRANCH   1   2
BRANCH   1  35
ATOM     35  C   UNL A   1      37.964  22.332  25.994  1.00  0.00     0.118 C 
BRANCH  35  36
ATOM     36  N   UNL A   1      39.410  22.159  25.941  1.00  0.00    -0.352 N 
ATOM     37  C   UNL A   1      40.422  23.036  26.272  1.00  0.00     0.251 C 
ATOM     38  H   UNL A   1      39.711  21.278  25.619  1.00  0.00     0.163 HD
ATOM     39  O   UNL A   1      41.588  22.681  26.104  1.00  0.00    -0.269 OA
BRANCH  37  40
ATOM     40  C   UNL A   1      40.142  24.418  26.745  1.00  0.00     0.039 A 
ATOM     41  C   UNL A   1      39.495  24.560  27.979  1.00  0.00     0.014 A 
ATOM     42  C   UNL A   1      40.567  25.561  26.064  1.00  0.00     0.014 A 
ATOM     43  C   UNL A   1      39.470  25.802  28.612  1.00  0.00     0.010 A 
ATOM     44  C   UNL A   1      40.631  26.778  26.726  1.00  0.00     0.010 A 
ATOM     45  C   UNL A   1      40.159  26.879  28.036  1.00  0.00    -0.014 A 
BRANCH  45  46
ATOM     46  C   UNL A   1      40.633  28.006  28.870  1.00  0.00     0.031 A 
ATOM     47  C   UNL A   1      41.918  27.919  29.633  1.00  0.00     0.074 A 
ATOM     48  C   UNL A   1      39.777  29.036  29.042  1.00  0.00     0.049 A 
ATOM     49  N   UNL A   1      42.439  28.793  30.452  1.00  0.00    -0.248 NA
ATOM     50  C   UNL A   1      42.701  26.680  29.493  1.00  0.00     0.031 C 
ATOM     51  C   UNL A   1      38.441  29.134  28.436  1.00  0.00     0.029 A 
ATOM     52  N   UNL A   1      39.877  30.184  29.783  1.00  0.00    -0.354 N 
ATOM     53  C   UNL A   1      43.607  28.213  30.930  1.00  0.00     0.074 A 
ATOM     54  C   UNL A   1      43.694  26.892  30.347  1.00  0.00     0.031 C 
ATOM     55  C   UNL A   1      37.866  30.288  28.801  1.00  0.00     0.029 A 
ATOM     56  C   UNL A   1      38.768  30.994  29.696  1.00  0.00     0.049 A 
ATOM     57  H   UNL A   1      40.668  30.407  30.326  1.00  0.00     0.167 HD
ATOM     58  C   UNL A   1      44.522  28.750  31.771  1.00  0.00     0.031 A 
ATOM     59  C   UNL A   1      38.506  32.179  30.276  1.00  0.00     0.031 A 
ATOM     60  C   UNL A   1      44.394  30.068  32.338  1.00  0.00     0.049 A 
ATOM     61  C   UNL A   1      39.565  32.774  31.157  1.00  0.00     0.074 A 
ATOM     62  C   UNL A   1      45.292  30.755  33.135  1.00  0.00     0.029 A 
ATOM     63  N   UNL A   1      43.291  30.896  32.171  1.00  0.00    -0.354 N 
ATOM     64  N   UNL A   1      40.726  32.264  31.497  1.00  0.00    -0.248 NA
ATOM     65  C   UNL A   1      39.297  34.104  31.712  1.00  0.00     0.031 C 
ATOM     66  C   UNL A   1      44.710  31.976  33.491  1.00  0.00     0.029 A 
ATOM     67  C   UNL A   1      43.474  32.077  32.869  1.00  0.00     0.049 A 
ATOM     68  H   UNL A   1      42.495  30.674  31.637  1.00  0.00     0.167 HD
ATOM     69  C   UNL A   1      41.339  33.222  32.290  1.00  0.00     0.074 A 
ATOM     70  C   UNL A   1      40.429  34.350  32.357  1.00  0.00     0.031 C 
ATOM     71  C   UNL A   1      42.542  33.175  32.913  1.00  0.00     0.031 A 
BRANCH  58  72
ATOM     72  C   UNL A   1      45.738  27.930  32.117  1.00  0.00    -0.014 A 
ATOM     73  C   UNL A   1      45.697  26.978  33.151  1.00  0.00     0.010 A 
ATOM     74  C   UNL A   1      46.916  28.057  31.356  1.00  0.00     0.010 A 
ATOM     75  C   UNL A   1      46.814  26.186  33.435  1.00  0.00     0.020 A 
ATOM     76  C   UNL A   1      48.026  27.248  31.618  1.00  0.00     0.020 A 
ATOM     77  C   UNL A   1      47.972  26.323  32.663  1.00  0.00     0.054 A 
BRANCH  77  78
ATOM     78  S   UNL A   1      49.384  25.242  33.018  1.00  0.00     0.124 S 
ATOM     79  O   UNL A   1      48.770  24.201  33.837  1.00  0.00    -0.237 OA
ATOM     80  O   UNL A   1      49.809  24.823  31.685  1.00  0.00    -0.237 OA
ATOM     81  O   UNL A   1      50.323  26.114  33.722  1.00  0.00    -0.744 OA
ENDBRANCH  77  78
ENDBRANCH  58  72
BRANCH  59  82
ATOM     82  C   UNL A   1      37.214  32.876  30.018  1.00  0.00    -0.014 A 
ATOM     83  C   UNL A   1      37.049  33.674  28.873  1.00  0.00     0.010 A 
ATOM     84  C   UNL A   1      36.130  32.724  30.903  1.00  0.00     0.010 A 
ATOM     85  C   UNL A   1      35.840  34.336  28.636  1.00  0.00     0.020 A 
ATOM     86  C   UNL A   1      34.910  33.359  30.654  1.00  0.00     0.020 A 
ATOM     87  C   UNL A   1      34.778  34.176  29.531  1.00  0.00     0.054 A 
BRANCH  87  88
ATOM     88  S   UNL A   1      33.210  35.027  29.191  1.00  0.00     0.124 S 
ATOM     89  O   UNL A   1      33.670  36.329  28.716  1.00  0.00    -0.237 OA
ATOM     90  O   UNL A   1      32.594  34.167  28.185  1.00  0.00    -0.237 OA
ATOM     91  O   UNL A   1      32.539  35.035  30.488  1.00  0.00    -0.744 OA
ENDBRANCH  87  88
ENDBRANCH  59  82
BRANCH  71  92
ATOM     92  C   UNL A   1      42.943  34.393  33.697  1.00  0.00    -0.014 A 
ATOM     93  C   UNL A   1      42.790  34.438  35.093  1.00  0.00     0.010 A 
ATOM     94  C   UNL A   1      43.522  35.486  33.027  1.00  0.00     0.010 A 
ATOM     95  C   UNL A   1      43.179  35.574  35.805  1.00  0.00     0.020 A 
ATOM     96  C   UNL A   1      43.941  36.610  33.740  1.00  0.00     0.020 A 
ATOM     97  C   UNL A   1      43.753  36.651  35.123  1.00  0.00     0.054 A 
BRANCH  97  98
ATOM     98  S   UNL A   1      44.293  38.095  36.077  1.00  0.00     0.124 S 
ATOM     99  O   UNL A   1      45.720  37.832  36.242  1.00  0.00    -0.237 OA
ATOM    100  O   UNL A   1      43.956  39.207  35.193  1.00  0.00    -0.237 OA
ATOM    101  O   UNL A   1      43.499  38.016  37.301  1.00  0.00    -0.744 OA
ENDBRANCH  97  98
ENDBRANCH  71  92
ENDBRANCH  45  46
ENDBRANCH  37  40
ENDBRANCH  35  36
ENDBRANCH   1  35
TORSDOF 17
ENDMDL
MODEL 2
REMARK VINA RESULT:     -12.8      2.569      3.257
REMARK SMILES COc1ccc(N2C(=O)/C(=C/c3c(C(=O)NCCCNC(=O)c4ccc(-c5c6nc(c(-c7ccc(S(=O)(=O)[O-])cc7)c7ccc([nH]7)c(-c7ccc(S(=O)(=O)[O-])cc7)c7nc(c(-c8ccc(S(=O)(=O)[O-])cc8)c8ccc5[nH]8)C=C7)C=C6)cc4)[nH]c4cc(OC)ccc34)SC2=S)cc1
REMARK SMILES IDX 18 1 17 2 16 3 14 4 15 5 13 7 12 8 91 9 83 10 84 11 90 12
REMARK SMILES IDX 85 14 89 15 86 16 11 17 7 18 8 19 93 20 9 21 10 22 92 23
REMARK SMILES IDX 94 24 6 25 3 26 4 27 96 28 5 29 95 30 2 31 1 32 87 33 88 34
REMARK SMILES IDX 19 35 20 36 21 37 22 39 23 40 24 41 82 42 25 43 81 44 26 45
REMARK SMILES IDX 27 46 28 47 75 48 29 49 80 50 74 51 76 52 30 53 79 54 73 55
REMARK SMILES IDX 72 56 31 58 61 59 42 60 60 61 43 62 46 63 59 64 77 65 44 66
REMARK SMILES IDX 45 67 58 69 78 70 47 71 32 72 33 73 41 74 34 75 40 76 35 77
REMARK SMILES IDX 36 78 37 79 38 80 39 81 62 82 63 83 71 84 64 85 70 86 65 87
REMARK SMILES IDX 66 88 67 89 68 90 69 91 48 92 49 93 57 94 50 95 56 96 51 97
REMARK SMILES IDX 52 98 53 99 54 100 55 101
REMARK H PARENT 16 6 83 13 20 38 76 57 46 68
REMARK Flexibility Score: inf
ROOT
ATOM      1  C   UNL A   1      37.557  23.588  25.496  1.00  0.00     0.042 C 
ENDROOT
BRANCH   1   2
ATOM      2  C   UNL A   1      36.046  23.713  25.567  1.00  0.00     0.118 C 
BRANCH   2   3
ATOM      3  N   UNL A   1      35.473  23.335  26.849  1.00  0.00    -0.351 N 
ATOM      4  C   UNL A   1      34.531  22.364  27.085  1.00  0.00     0.268 C 
ATOM      5  O   UNL A   1      33.983  22.330  28.187  1.00  0.00    -0.268 OA
ATOM      6  H   UNL A   1      35.796  23.832  27.636  1.00  0.00     0.163 HD
BRANCH   4   7
ATOM      7  C   UNL A   1      34.140  21.490  26.006  1.00  0.00     0.112 A 
ATOM      8  C   UNL A   1      32.980  21.336  25.240  1.00  0.00     0.014 A 
ATOM      9  C   UNL A   1      33.058  19.993  24.697  1.00  0.00     0.008 A 
ATOM     10  N   UNL A   1      35.039  20.573  25.533  1.00  0.00    -0.350 N 
ATOM     11  C   UNL A   1      34.362  19.549  24.935  1.00  0.00     0.050 A 
ATOM     12  C   UNL A   1      32.188  19.060  24.075  1.00  0.00     0.015 A 
ATOM     13  H   UNL A   1      36.018  20.641  25.611  1.00  0.00     0.167 HD
ATOM     14  C   UNL A   1      34.830  18.269  24.636  1.00  0.00     0.073 A 
ATOM     15  C   UNL A   1      32.641  17.741  23.790  1.00  0.00     0.047 A 
ATOM     16  C   UNL A   1      33.948  17.351  24.077  1.00  0.00     0.120 A 
BRANCH   8  17
ATOM     17  C   UNL A   1      31.883  22.287  25.295  1.00  0.00     0.032 C 
ATOM     18  N   UNL A   1      31.321  25.424  23.591  1.00  0.00    -0.261 N 
ATOM     19  C   UNL A   1      30.942  24.522  24.597  1.00  0.00     0.270 C 
ATOM     20  C   UNL A   1      32.040  24.895  22.530  1.00  0.00     0.152 C 
ATOM     21  O   UNL A   1      30.336  24.758  25.632  1.00  0.00    -0.268 OA
ATOM     22  C   UNL A   1      31.566  23.176  24.321  1.00  0.00     0.081 C 
ATOM     23  S   UNL A   1      32.102  23.144  22.683  1.00  0.00    -0.054 SA
ATOM     24  S   UNL A   1      32.730  25.663  21.213  1.00  0.00    -0.051 S 
BRANCH  18  25
ATOM     25  C   UNL A   1      31.033  26.820  23.684  1.00  0.00     0.051 A 
ATOM     26  C   UNL A   1      30.327  29.537  24.053  1.00  0.00     0.119 A 
ATOM     27  C   UNL A   1      29.538  28.700  23.267  1.00  0.00     0.048 A 
ATOM     28  C   UNL A   1      31.451  29.005  24.684  1.00  0.00     0.048 A 
ATOM     29  C   UNL A   1      29.882  27.354  23.087  1.00  0.00     0.030 A 
ATOM     30  C   UNL A   1      31.814  27.659  24.487  1.00  0.00     0.030 A 
BRANCH  26  31
ATOM     31  O   UNL A   1      29.879  30.825  24.146  1.00  0.00    -0.497 OA
ATOM     32  C   UNL A   1      28.687  31.144  23.438  1.00  0.00     0.278 C 
ENDBRANCH  26  31
ENDBRANCH  18  25
ENDBRANCH   8  17
BRANCH  16  33
ATOM     33  O   UNL A   1      34.502  16.111  23.934  1.00  0.00    -0.497 OA
ATOM     34  C   UNL A   1      35.179  15.550  25.045  1.00  0.00     0.278 C 
ENDBRANCH  16  33
ENDBRANCH   4   7
ENDBRANCH   2   3
ENDBRANCH   1   2
BRANCH   1  35
ATOM     35  C   UNL A   1      38.293  24.432  26.528  1.00  0.00     0.118 C 
BRANCH  35  36
ATOM     36  N   UNL A   1      39.668  24.777  26.192  1.00  0.00    -0.352 N 
ATOM     37  C   UNL A   1      40.455  25.821  26.633  1.00  0.00     0.251 C 
ATOM     38  H   UNL A   1      40.104  24.170  25.549  1.00  0.00     0.163 HD
ATOM     39  O   UNL A   1      41.590  25.939  26.173  1.00  0.00    -0.269 OA
BRANCH  37  40
ATOM     40  C   UNL A   1      39.942  26.847  27.580  1.00  0.00     0.039 A 
ATOM     41  C   UNL A   1      39.251  26.393  28.711  1.00  0.00     0.014 A 
ATOM     42  C   UNL A   1      40.191  28.213  27.437  1.00  0.00     0.014 A 
ATOM     43  C   UNL A   1      39.010  27.264  29.774  1.00  0.00     0.010 A 
ATOM     44  C   UNL A   1      40.040  29.062  28.523  1.00  0.00     0.010 A 
ATOM     45  C   UNL A   1      39.527  28.567  29.724  1.00  0.00    -0.014 A 
BRANCH  45  46
ATOM     46  C   UNL A   1      39.792  29.323  30.968  1.00  0.00     0.031 A 
ATOM     47  C   UNL A   1      40.911  28.941  31.884  1.00  0.00     0.074 A 
ATOM     48  C   UNL A   1      38.879  30.255  31.317  1.00  0.00     0.049 A 
ATOM     49  N   UNL A   1      41.235  29.464  33.037  1.00  0.00    -0.248 NA
ATOM     50  C   UNL A   1      41.754  27.804  31.480  1.00  0.00     0.031 C 
ATOM     51  C   UNL A   1      37.679  30.595  30.538  1.00  0.00     0.029 A 
ATOM     52  N   UNL A   1      38.793  31.074  32.411  1.00  0.00    -0.354 N 
ATOM     53  C   UNL A   1      42.312  28.720  33.500  1.00  0.00     0.074 A 
ATOM     54  C   UNL A   1      42.559  27.679  32.526  1.00  0.00     0.031 C 
ATOM     55  C   UNL A   1      37.001  31.569  31.161  1.00  0.00     0.029 A 
ATOM     56  C   UNL A   1      37.690  31.898  32.398  1.00  0.00     0.049 A 
ATOM     57  H   UNL A   1      39.458  31.074  33.138  1.00  0.00     0.167 HD
ATOM     58  C   UNL A   1      43.031  28.909  34.632  1.00  0.00     0.031 A 
ATOM     59  C   UNL A   1      37.277  32.817  33.289  1.00  0.00     0.031 A 
ATOM     60  C   UNL A   1      42.747  29.954  35.581  1.00  0.00     0.049 A 
ATOM     61  C   UNL A   1      38.128  33.041  34.505  1.00  0.00     0.074 A 
ATOM     62  C   UNL A   1      43.452  30.298  36.721  1.00  0.00     0.029 A 
ATOM     63  N   UNL A   1      41.664  30.820  35.502  1.00  0.00    -0.354 N 
ATOM     64  N   UNL A   1      39.223  32.412  34.864  1.00  0.00    -0.248 NA
ATOM     65  C   UNL A   1      37.708  34.106  35.421  1.00  0.00     0.031 C 
ATOM     66  C   UNL A   1      42.766  31.338  37.358  1.00  0.00     0.029 A 
ATOM     67  C   UNL A   1      41.667  31.683  36.584  1.00  0.00     0.049 A 
ATOM     68  H   UNL A   1      40.993  30.820  34.783  1.00  0.00     0.167 HD
ATOM     69  C   UNL A   1      39.637  33.020  36.039  1.00  0.00     0.074 A 
ATOM     70  C   UNL A   1      38.688  34.082  36.315  1.00  0.00     0.031 C 
ATOM     71  C   UNL A   1      40.702  32.726  36.825  1.00  0.00     0.031 A 
BRANCH  58  72
ATOM     72  C   UNL A   1      44.190  27.984  34.900  1.00  0.00    -0.014 A 
ATOM     73  C   UNL A   1      44.008  26.782  35.608  1.00  0.00     0.010 A 
ATOM     74  C   UNL A   1      45.465  28.280  34.379  1.00  0.00     0.010 A 
ATOM     75  C   UNL A   1      45.079  25.906  35.811  1.00  0.00     0.020 A 
ATOM     76  C   UNL A   1      46.532  27.393  34.556  1.00  0.00     0.020 A 
ATOM     77  C   UNL A   1      46.335  26.215  35.279  1.00  0.00     0.054 A 
BRANCH  77  78
ATOM     78  S   UNL A   1      47.689  25.031  35.510  1.00  0.00     0.124 S 
ATOM     79  O   UNL A   1      47.947  24.595  34.141  1.00  0.00    -0.237 OA
ATOM     80  O   UNL A   1      48.734  25.854  36.114  1.00  0.00    -0.237 OA
ATOM     81  O   UNL A   1      47.116  24.014  36.390  1.00  0.00    -0.744 OA
ENDBRANCH  77  78
ENDBRANCH  58  72
BRANCH  59  82
ATOM     82  C   UNL A   1      36.032  33.598  33.045  1.00  0.00    -0.014 A 
ATOM     83  C   UNL A   1      34.773  33.049  33.347  1.00  0.00     0.010 A 
ATOM     84  C   UNL A   1      36.097  34.907  32.533  1.00  0.00     0.010 A 
ATOM     85  C   UNL A   1      33.604  33.778  33.108  1.00  0.00     0.020 A 
ATOM     86  C   UNL A   1      34.932  35.651  32.322  1.00  0.00     0.020 A 
ATOM     87  C   UNL A   1      33.691  35.075  32.593  1.00  0.00     0.054 A 
BRANCH  87  88
ATOM     88  S   UNL A   1      32.161  36.010  32.312  1.00  0.00     0.124 S 
ATOM     89  O   UNL A   1      31.138  35.022  32.640  1.00  0.00    -0.237 OA
ATOM     90  O   UNL A   1      32.292  37.122  33.249  1.00  0.00    -0.237 OA
ATOM     91  O   UNL A   1      32.243  36.381  30.901  1.00  0.00    -0.744 OA
ENDBRANCH  87  88
ENDBRANCH  59  82
BRANCH  71  92
ATOM     92  C   UNL A   1      40.900  33.587  38.040  1.00  0.00    -0.014 A 
ATOM     93  C   UNL A   1      41.678  34.756  37.981  1.00  0.00     0.010 A 
ATOM     94  C   UNL A   1      40.259  33.241  39.244  1.00  0.00     0.010 A 
ATOM     95  C   UNL A   1      41.840  35.549  39.118  1.00  0.00     0.020 A 
ATOM     96  C   UNL A   1      40.394  34.049  40.373  1.00  0.00     0.020 A 
ATOM     97  C   UNL A   1      41.195  35.190  40.306  1.00  0.00     0.054 A 
BRANCH  97  98
ATOM     98  S   UNL A   1      41.384  36.262  41.755  1.00  0.00     0.124 S 
ATOM     99  O   UNL A   1      41.905  37.489  41.158  1.00  0.00    -0.237 OA
ATOM    100  O   UNL A   1      40.022  36.344  42.273  1.00  0.00    -0.237 OA
ATOM    101  O   UNL A   1      42.325  35.534  42.603  1.00  0.00    -0.744 OA
ENDBRANCH  97  98
ENDBRANCH  71  92
ENDBRANCH  45  46
ENDBRANCH  37  40
ENDBRANCH  35  36
ENDBRANCH   1  35
TORSDOF 17
ENDMDL
MODEL 3
REMARK VINA RESULT:     -12.8      0.700      7.814
REMARK SMILES COc1ccc(N2C(=O)/C(=C/c3c(C(=O)NCCCNC(=O)c4ccc(-c5c6nc(c(-c7ccc(S(=O)(=O)[O-])cc7)c7ccc([nH]7)c(-c7ccc(S(=O)(=O)[O-])cc7)c7nc(c(-c8ccc(S(=O)(=O)[O-])cc8)c8ccc5[nH]8)C=C7)C=C6)cc4)[nH]c4cc(OC)ccc34)SC2=S)cc1
REMARK SMILES IDX 18 1 17 2 16 3 14 4 15 5 13 7 12 8 91 9 83 10 84 11 90 12
REMARK SMILES IDX 85 14 89 15 86 16 11 17 7 18 8 19 93 20 9 21 10 22 92 23
REMARK SMILES IDX 94 24 6 25 3 26 4 27 96 28 5 29 95 30 2 31 1 32 87 33 88 34
REMARK SMILES IDX 19 35 20 36 21 37 22 39 23 40 24 41 82 42 25 43 81 44 26 45
REMARK SMILES IDX 27 46 28 47 75 48 29 49 80 50 74 51 76 52 30 53 79 54 73 55
REMARK SMILES IDX 72 56 31 58 61 59 42 60 60 61 43 62 46 63 59 64 77 65 44 66
REMARK SMILES IDX 45 67 58 69 78 70 47 71 32 72 33 73 41 74 34 75 40 76 35 77
REMARK SMILES IDX 36 78 37 79 38 80 39 81 62 82 63 83 71 84 64 85 70 86 65 87
REMARK SMILES IDX 66 88 67 89 68 90 69 91 48 92 49 93 57 94 50 95 56 96 51 97
REMARK SMILES IDX 52 98 53 99 54 100 55 101
REMARK H PARENT 16 6 83 13 20 38 76 57 46 68
REMARK Flexibility Score: inf
ROOT
ATOM      1  C   UNL A   1      37.449  23.468  25.059  1.00  0.00     0.042 C 
ENDROOT
BRANCH   1   2
ATOM      2  C   UNL A   1      35.964  23.713  25.250  1.00  0.00     0.118 C 
BRANCH   2   3
ATOM      3  N   UNL A   1      35.458  23.337  26.561  1.00  0.00    -0.351 N 
ATOM      4  C   UNL A   1      34.561  22.338  26.851  1.00  0.00     0.268 C 
ATOM      5  O   UNL A   1      34.061  22.304  27.976  1.00  0.00    -0.268 OA
ATOM      6  H   UNL A   1      35.796  23.858  27.326  1.00  0.00     0.163 HD
BRANCH   4   7
ATOM      7  C   UNL A   1      34.156  21.434  25.803  1.00  0.00     0.112 A 
ATOM      8  C   UNL A   1      32.993  21.269  25.044  1.00  0.00     0.014 A 
ATOM      9  C   UNL A   1      33.052  19.907  24.547  1.00  0.00     0.008 A 
ATOM     10  N   UNL A   1      35.042  20.489  25.360  1.00  0.00    -0.350 N 
ATOM     11  C   UNL A   1      34.350  19.454  24.798  1.00  0.00     0.050 A 
ATOM     12  C   UNL A   1      32.168  18.966  23.959  1.00  0.00     0.015 A 
ATOM     13  H   UNL A   1      36.022  20.547  25.434  1.00  0.00     0.167 HD
ATOM     14  C   UNL A   1      34.800  18.160  24.542  1.00  0.00     0.073 A 
ATOM     15  C   UNL A   1      32.603  17.631  23.718  1.00  0.00     0.047 A 
ATOM     16  C   UNL A   1      33.905  17.235  24.016  1.00  0.00     0.120 A 
BRANCH   8  17
ATOM     17  C   UNL A   1      31.908  22.235  25.070  1.00  0.00     0.032 C 
ATOM     18  N   UNL A   1      31.739  25.699  24.050  1.00  0.00    -0.261 N 
ATOM     19  C   UNL A   1      31.143  24.614  24.711  1.00  0.00     0.270 C 
ATOM     20  C   UNL A   1      32.684  25.386  23.084  1.00  0.00     0.152 C 
ATOM     21  O   UNL A   1      30.315  24.641  25.610  1.00  0.00    -0.268 OA
ATOM     22  C   UNL A   1      31.819  23.335  24.281  1.00  0.00     0.081 C 
ATOM     23  S   UNL A   1      32.716  23.645  22.842  1.00  0.00    -0.054 SA
ATOM     24  S   UNL A   1      33.654  26.395  22.167  1.00  0.00    -0.051 S 
BRANCH  18  25
ATOM     25  C   UNL A   1      31.431  27.051  24.394  1.00  0.00     0.051 A 
ATOM     26  C   UNL A   1      31.011  29.794  24.954  1.00  0.00     0.119 A 
ATOM     27  C   UNL A   1      31.820  29.017  25.781  1.00  0.00     0.048 A 
ATOM     28  C   UNL A   1      30.440  29.206  23.825  1.00  0.00     0.048 A 
ATOM     29  C   UNL A   1      32.034  27.661  25.503  1.00  0.00     0.030 A 
ATOM     30  C   UNL A   1      30.633  27.838  23.556  1.00  0.00     0.030 A 
BRANCH  26  31
ATOM     31  O   UNL A   1      30.887  31.100  25.338  1.00  0.00    -0.497 OA
ATOM     32  C   UNL A   1      31.568  31.489  26.524  1.00  0.00     0.278 C 
ENDBRANCH  26  31
ENDBRANCH  18  25
ENDBRANCH   8  17
BRANCH  16  33
ATOM     33  O   UNL A   1      34.443  15.983  23.914  1.00  0.00    -0.497 OA
ATOM     34  C   UNL A   1      35.197  15.489  25.006  1.00  0.00     0.278 C 
ENDBRANCH  16  33
ENDBRANCH   4   7
ENDBRANCH   2   3
ENDBRANCH   1   2
BRANCH   1  35
ATOM     35  C   UNL A   1      37.992  22.305  25.879  1.00  0.00     0.118 C 
BRANCH  35  36
ATOM     36  N   UNL A   1      39.443  22.177  25.904  1.00  0.00    -0.352 N 
ATOM     37  C   UNL A   1      40.406  23.068  26.330  1.00  0.00     0.251 C 
ATOM     38  H   UNL A   1      39.790  21.320  25.562  1.00  0.00     0.163 HD
ATOM     39  O   UNL A   1      41.590  22.756  26.216  1.00  0.00    -0.269 OA
BRANCH  37  40
ATOM     40  C   UNL A   1      40.055  24.419  26.844  1.00  0.00     0.039 A 
ATOM     41  C   UNL A   1      39.394  24.489  28.077  1.00  0.00     0.014 A 
ATOM     42  C   UNL A   1      40.426  25.602  26.203  1.00  0.00     0.014 A 
ATOM     43  C   UNL A   1      39.305  25.708  28.750  1.00  0.00     0.010 A 
ATOM     44  C   UNL A   1      40.427  26.800  26.903  1.00  0.00     0.010 A 
ATOM     45  C   UNL A   1      39.942  26.836  28.212  1.00  0.00    -0.014 A 
BRANCH  45  46
ATOM     46  C   UNL A   1      40.356  27.957  29.085  1.00  0.00     0.031 A 
ATOM     47  C   UNL A   1      39.472  29.146  29.292  1.00  0.00     0.074 A 
ATOM     48  C   UNL A   1      41.626  27.933  29.543  1.00  0.00     0.049 A 
ATOM     49  N   UNL A   1      39.714  30.233  29.975  1.00  0.00    -0.248 NA
ATOM     50  C   UNL A   1      38.163  29.138  28.616  1.00  0.00     0.031 C 
ATOM     51  C   UNL A   1      42.601  26.866  29.272  1.00  0.00     0.029 A 
ATOM     52  N   UNL A   1      42.331  28.823  30.309  1.00  0.00    -0.354 N 
ATOM     53  C   UNL A   1      38.596  31.040  29.810  1.00  0.00     0.074 A 
ATOM     54  C   UNL A   1      37.694  30.340  28.923  1.00  0.00     0.031 C 
ATOM     55  C   UNL A   1      43.758  27.148  29.888  1.00  0.00     0.029 A 
ATOM     56  C   UNL A   1      43.625  28.429  30.562  1.00  0.00     0.049 A 
ATOM     57  H   UNL A   1      41.947  29.666  30.646  1.00  0.00     0.167 HD
ATOM     58  C   UNL A   1      38.352  32.251  30.366  1.00  0.00     0.031 A 
ATOM     59  C   UNL A   1      44.601  29.035  31.262  1.00  0.00     0.031 A 
ATOM     60  C   UNL A   1      39.283  32.920  31.238  1.00  0.00     0.049 A 
ATOM     61  C   UNL A   1      44.279  30.348  31.912  1.00  0.00     0.074 A 
ATOM     62  C   UNL A   1      39.117  34.108  31.928  1.00  0.00     0.029 A 
ATOM     63  N   UNL A   1      40.559  32.459  31.535  1.00  0.00    -0.354 N 
ATOM     64  N   UNL A   1      43.164  31.040  31.851  1.00  0.00    -0.248 NA
ATOM     65  C   UNL A   1      45.327  30.953  32.741  1.00  0.00     0.031 C 
ATOM     66  C   UNL A   1      40.311  34.390  32.600  1.00  0.00     0.029 A 
ATOM     67  C   UNL A   1      41.201  33.349  32.378  1.00  0.00     0.049 A 
ATOM     68  H   UNL A   1      40.950  31.622  31.195  1.00  0.00     0.167 HD
ATOM     69  C   UNL A   1      43.369  32.153  32.652  1.00  0.00     0.074 A 
ATOM     70  C   UNL A   1      44.704  32.028  33.205  1.00  0.00     0.031 C 
ATOM     71  C   UNL A   1      42.533  33.190  32.905  1.00  0.00     0.031 A 
BRANCH  58  72
ATOM     72  C   UNL A   1      37.037  32.920  30.062  1.00  0.00    -0.014 A 
ATOM     73  C   UNL A   1      35.969  32.865  30.975  1.00  0.00     0.010 A 
ATOM     74  C   UNL A   1      36.885  33.675  28.883  1.00  0.00     0.010 A 
ATOM     75  C   UNL A   1      34.768  33.529  30.708  1.00  0.00     0.020 A 
ATOM     76  C   UNL A   1      35.695  34.364  28.624  1.00  0.00     0.020 A 
ATOM     77  C   UNL A   1      34.639  34.278  29.534  1.00  0.00     0.054 A 
BRANCH  77  78
ATOM     78  S   UNL A   1      33.090  35.175  29.244  1.00  0.00     0.124 S 
ATOM     79  O   UNL A   1      33.574  36.490  28.832  1.00  0.00    -0.237 OA
ATOM     80  O   UNL A   1      32.454  34.383  28.193  1.00  0.00    -0.237 OA
ATOM     81  O   UNL A   1      32.417  35.138  30.540  1.00  0.00    -0.744 OA
ENDBRANCH  77  78
ENDBRANCH  58  72
BRANCH  59  82
ATOM     82  C   UNL A   1      45.939  28.395  31.400  1.00  0.00    -0.014 A 
ATOM     83  C   UNL A   1      46.970  28.690  30.492  1.00  0.00     0.010 A 
ATOM     84  C   UNL A   1      46.200  27.504  32.459  1.00  0.00     0.010 A 
ATOM     85  C   UNL A   1      48.223  28.082  30.615  1.00  0.00     0.020 A 
ATOM     86  C   UNL A   1      47.461  26.917  32.605  1.00  0.00     0.020 A 
ATOM     87  C   UNL A   1      48.460  27.195  31.670  1.00  0.00     0.054 A 
BRANCH  87  88
ATOM     88  S   UNL A   1      50.101  26.434  31.824  1.00  0.00     0.124 S 
ATOM     89  O   UNL A   1      50.818  27.423  32.623  1.00  0.00    -0.237 OA
ATOM     90  O   UNL A   1      49.803  25.171  32.495  1.00  0.00    -0.237 OA
ATOM     91  O   UNL A   1      50.547  26.304  30.439  1.00  0.00    -0.744 OA
ENDBRANCH  87  88
ENDBRANCH  59  82
BRANCH  71  92
ATOM     92  C   UNL A   1      43.040  34.251  33.841  1.00  0.00    -0.014 A 
ATOM     93  C   UNL A   1      43.700  35.392  33.353  1.00  0.00     0.010 A 
ATOM     94  C   UNL A   1      42.809  34.121  35.222  1.00  0.00     0.010 A 
ATOM     95  C   UNL A   1      44.152  36.371  34.237  1.00  0.00     0.020 A 
ATOM     96  C   UNL A   1      43.233  35.114  36.105  1.00  0.00     0.020 A 
ATOM     97  C   UNL A   1      43.914  36.226  35.608  1.00  0.00     0.054 A 
BRANCH  97  98
ATOM     98  S   UNL A   1      44.471  37.536  36.730  1.00  0.00     0.124 S 
ATOM     99  O   UNL A   1      45.876  37.187  36.929  1.00  0.00    -0.237 OA
ATOM    100  O   UNL A   1      44.228  38.748  35.953  1.00  0.00    -0.237 OA
ATOM    101  O   UNL A   1      43.617  37.373  37.903  1.00  0.00    -0.744 OA
ENDBRANCH  97  98
ENDBRANCH  71  92
ENDBRANCH  45  46
ENDBRANCH  37  40
ENDBRANCH  35  36
ENDBRANCH   1  35
TORSDOF 17
ENDMDL
