MODEL 1
REMARK VINA RESULT:      -9.8      0.000      0.000
REMARK SMILES COC(=O)[C@H]1CC[C@]2(C)[C@H](CC[C@]3(C)[C@H]2CC=C2[C@H]4CC(C)(C)CC[C@]4(C(=O)NCCCNC(=O)c4ccc(-c5c6nc(c(-c7ccc(S(=O)(=O)[O-])cc7)c7ccc([nH]7)c(-c7ccc(S(=O)(=O)[O-])cc7)c7nc(c(-c8ccc(S(=O)(=O)[O-])cc8)c8ccc5[nH]8)C=C7)C=C6)cc4)CC[C@@]23C)C1(C)C
REMARK SMILES IDX 31 1 30 2 29 3 27 4 28 5 26 7 5 8 6 9 100 10 7 11 10 12
REMARK SMILES IDX 101 13 102 14 8 15 11 16 15 17 9 18 12 19 16 20 13 21 17 22
REMARK SMILES IDX 98 23 14 24 18 25 97 26 99 27 19 28 96 29 20 30 21 31 25 32
REMARK SMILES IDX 24 33 22 34 23 35 3 36 4 37 2 38 1 39 32 40 33 41 34 42
REMARK SMILES IDX 35 44 36 45 37 46 95 47 38 48 94 49 39 50 40 51 41 52 88 53
REMARK SMILES IDX 42 54 93 55 87 56 89 57 43 58 92 59 86 60 85 61 44 63 74 64
REMARK SMILES IDX 55 65 73 66 56 67 59 68 72 69 90 70 57 71 58 72 71 74 91 75
REMARK SMILES IDX 60 76 45 77 46 78 54 79 47 80 53 81 48 82 49 83 50 84 51 85
REMARK SMILES IDX 52 86 75 87 76 88 84 89 77 90 83 91 78 92 79 93 80 94 81 95
REMARK SMILES IDX 82 96 61 97 62 98 70 99 63 100 69 101 64 102 65 103 66 104
REMARK SMILES IDX 67 105 68 106
REMARK H PARENT 29 6 33 43 89 62 59 73
REMARK Flexibility Score: inf
ROOT
ATOM      1  C   UNL A   1      37.210  31.947  29.250  1.00  0.00     0.042 C 
ENDROOT
BRANCH   1   2
ATOM      2  C   UNL A   1      37.919  30.850  30.053  1.00  0.00     0.117 C 
BRANCH   2   3
ATOM      3  N   UNL A   1      39.244  31.246  30.480  1.00  0.00    -0.356 N 
ATOM      4  C   UNL A   1      40.307  30.620  31.023  1.00  0.00     0.226 C 
ATOM      5  O   UNL A   1      41.256  31.392  31.235  1.00  0.00    -0.274 OA
ATOM      6  H   UNL A   1      39.409  32.207  30.340  1.00  0.00     0.163 HD
BRANCH   4   7
ATOM      7  C   UNL A   1      40.456  29.103  31.351  1.00  0.00     0.056 C 
ATOM      8  C   UNL A   1      45.248  24.588  26.212  1.00  0.00     0.105 C 
ATOM      9  C   UNL A   1      44.735  25.538  25.110  1.00  0.00     0.016 C 
ATOM     10  C   UNL A   1      44.770  24.899  27.671  1.00  0.00    -0.019 C 
ATOM     11  C   UNL A   1      43.294  26.062  25.257  1.00  0.00     0.008 C 
ATOM     12  C   UNL A   1      43.243  25.313  27.599  1.00  0.00     0.002 C 
ATOM     13  C   UNL A   1      44.952  23.666  28.605  1.00  0.00     0.012 C 
ATOM     14  C   UNL A   1      45.751  25.931  28.290  1.00  0.00     0.012 C 
ATOM     15  C   UNL A   1      42.915  26.547  26.692  1.00  0.00    -0.026 C 
ATOM     16  C   UNL A   1      42.538  25.401  28.941  1.00  0.00     0.005 C 
ATOM     17  C   UNL A   1      41.327  26.950  26.690  1.00  0.00     0.006 C 
ATOM     18  C   UNL A   1      43.847  27.758  26.997  1.00  0.00     0.012 C 
ATOM     19  C   UNL A   1      41.038  25.272  28.750  1.00  0.00     0.008 C 
ATOM     20  C   UNL A   1      41.124  28.505  26.534  1.00  0.00     0.032 C 
ATOM     21  C   UNL A   1      40.332  26.328  27.858  1.00  0.00    -0.020 C 
ATOM     22  C   UNL A   1      41.300  29.146  27.889  1.00  0.00    -0.027 C 
ATOM     23  C   UNL A   1      39.642  27.519  28.730  1.00  0.00    -0.006 C 
ATOM     24  C   UNL A   1      39.209  25.528  27.115  1.00  0.00     0.012 C 
ATOM     25  C   UNL A   1      40.786  28.501  28.950  1.00  0.00    -0.064 C 
ATOM     26  C   UNL A   1      38.950  27.226  30.129  1.00  0.00     0.013 C 
ATOM     27  C   UNL A   1      38.463  28.126  27.902  1.00  0.00     0.017 C 
ATOM     28  C   UNL A   1      41.405  28.469  30.338  1.00  0.00     0.031 C 
ATOM     29  C   UNL A   1      39.181  28.203  31.348  1.00  0.00     0.018 C 
ATOM     30  C   UNL A   1      42.883  28.863  30.471  1.00  0.00     0.015 C 
ATOM     31  C   UNL A   1      43.465  28.598  31.874  1.00  0.00    -0.035 C 
ATOM     32  C   UNL A   1      41.100  29.048  32.789  1.00  0.00     0.018 C 
ATOM     33  C   UNL A   1      42.608  29.369  32.890  1.00  0.00     0.007 C 
ATOM     34  C   UNL A   1      43.503  27.096  32.241  1.00  0.00     0.011 C 
ATOM     35  C   UNL A   1      44.925  29.092  31.886  1.00  0.00     0.011 C 
BRANCH   8  36
ATOM     36  C   UNL A   1      44.989  23.144  25.803  1.00  0.00     0.309 C 
ATOM     37  O   UNL A   1      43.891  22.634  25.636  1.00  0.00    -0.252 OA
BRANCH  36  38
ATOM     38  O   UNL A   1      46.182  22.487  25.713  1.00  0.00    -0.469 OA
ATOM     39  C   UNL A   1      46.129  21.241  25.024  1.00  0.00     0.282 C 
ENDBRANCH  36  38
ENDBRANCH   8  36
ENDBRANCH   4   7
ENDBRANCH   2   3
ENDBRANCH   1   2
BRANCH   1  40
ATOM     40  C   UNL A   1      36.867  33.207  30.060  1.00  0.00     0.118 C 
BRANCH  40  41
ATOM     41  N   UNL A   1      35.585  33.152  30.767  1.00  0.00    -0.352 N 
ATOM     42  C   UNL A   1      35.263  32.906  32.082  1.00  0.00     0.251 C 
ATOM     43  H   UNL A   1      34.805  33.324  30.192  1.00  0.00     0.163 HD
ATOM     44  O   UNL A   1      34.107  32.762  32.423  1.00  0.00    -0.269 OA
BRANCH  42  45
ATOM     45  C   UNL A   1      36.355  32.801  33.063  1.00  0.00     0.039 A 
ATOM     46  C   UNL A   1      36.741  33.930  33.786  1.00  0.00     0.014 A 
ATOM     47  C   UNL A   1      36.951  31.565  33.293  1.00  0.00     0.014 A 
ATOM     48  C   UNL A   1      37.647  33.783  34.834  1.00  0.00     0.010 A 
ATOM     49  C   UNL A   1      37.746  31.396  34.410  1.00  0.00     0.010 A 
ATOM     50  C   UNL A   1      38.100  32.503  35.194  1.00  0.00    -0.014 A 
BRANCH  50  51
ATOM     51  C   UNL A   1      38.937  32.281  36.395  1.00  0.00     0.031 A 
ATOM     52  C   UNL A   1      38.295  32.287  37.755  1.00  0.00     0.074 A 
ATOM     53  C   UNL A   1      40.276  32.189  36.254  1.00  0.00     0.049 A 
ATOM     54  N   UNL A   1      38.862  32.230  38.931  1.00  0.00    -0.248 NA
ATOM     55  C   UNL A   1      36.828  32.427  37.806  1.00  0.00     0.031 C 
ATOM     56  C   UNL A   1      41.007  32.260  34.983  1.00  0.00     0.029 A 
ATOM     57  N   UNL A   1      41.265  32.024  37.189  1.00  0.00    -0.354 N 
ATOM     58  C   UNL A   1      37.830  32.375  39.852  1.00  0.00     0.074 A 
ATOM     59  C   UNL A   1      36.611  32.573  39.104  1.00  0.00     0.031 C 
ATOM     60  C   UNL A   1      42.319  32.095  35.216  1.00  0.00     0.029 A 
ATOM     61  C   UNL A   1      42.529  31.950  36.650  1.00  0.00     0.049 A 
ATOM     62  H   UNL A   1      41.087  31.965  38.154  1.00  0.00     0.167 HD
ATOM     63  C   UNL A   1      37.893  32.316  41.201  1.00  0.00     0.031 A 
ATOM     64  C   UNL A   1      43.721  31.780  37.253  1.00  0.00     0.031 A 
ATOM     65  C   UNL A   1      39.104  32.045  41.923  1.00  0.00     0.049 A 
ATOM     66  C   UNL A   1      43.748  31.638  38.750  1.00  0.00     0.074 A 
ATOM     67  C   UNL A   1      39.271  31.857  43.284  1.00  0.00     0.029 A 
ATOM     68  N   UNL A   1      40.353  31.903  41.338  1.00  0.00    -0.354 N 
ATOM     69  N   UNL A   1      42.748  31.685  39.600  1.00  0.00    -0.248 NA
ATOM     70  C   UNL A   1      45.058  31.404  39.373  1.00  0.00     0.031 C 
ATOM     71  C   UNL A   1      40.631  31.636  43.524  1.00  0.00     0.029 A 
ATOM     72  C   UNL A   1      41.300  31.640  42.310  1.00  0.00     0.049 A 
ATOM     73  H   UNL A   1      40.538  31.978  40.374  1.00  0.00     0.167 HD
ATOM     74  C   UNL A   1      43.304  31.457  40.852  1.00  0.00     0.074 A 
ATOM     75  C   UNL A   1      44.725  31.254  40.646  1.00  0.00     0.031 C 
ATOM     76  C   UNL A   1      42.702  31.422  42.065  1.00  0.00     0.031 A 
BRANCH  63  77
ATOM     77  C   UNL A   1      36.621  32.522  41.978  1.00  0.00    -0.014 A 
ATOM     78  C   UNL A   1      35.725  31.459  42.198  1.00  0.00     0.010 A 
ATOM     79  C   UNL A   1      36.344  33.779  42.545  1.00  0.00     0.010 A 
ATOM     80  C   UNL A   1      34.563  31.657  42.948  1.00  0.00     0.020 A 
ATOM     81  C   UNL A   1      35.196  33.974  43.319  1.00  0.00     0.020 A 
ATOM     82  C   UNL A   1      34.307  32.913  43.506  1.00  0.00     0.054 A 
BRANCH  82  83
ATOM     83  S   UNL A   1      32.822  33.123  44.527  1.00  0.00     0.124 S 
ATOM     84  O   UNL A   1      32.760  31.847  45.235  1.00  0.00    -0.237 OA
ATOM     85  O   UNL A   1      33.161  34.282  45.350  1.00  0.00    -0.237 OA
ATOM     86  O   UNL A   1      31.759  33.346  43.550  1.00  0.00    -0.744 OA
ENDBRANCH  82  83
ENDBRANCH  63  77
BRANCH  64  87
ATOM     87  C   UNL A   1      44.975  31.706  36.453  1.00  0.00    -0.014 A 
ATOM     88  C   UNL A   1      45.730  32.867  36.201  1.00  0.00     0.010 A 
ATOM     89  C   UNL A   1      45.412  30.481  35.917  1.00  0.00     0.010 A 
ATOM     90  C   UNL A   1      46.869  32.812  35.392  1.00  0.00     0.020 A 
ATOM     91  C   UNL A   1      46.568  30.417  35.132  1.00  0.00     0.020 A 
ATOM     92  C   UNL A   1      47.276  31.588  34.856  1.00  0.00     0.054 A 
BRANCH  92  93
ATOM     93  S   UNL A   1      48.760  31.538  33.811  1.00  0.00     0.124 S 
ATOM     94  O   UNL A   1      49.486  32.723  34.260  1.00  0.00    -0.237 OA
ATOM     95  O   UNL A   1      49.358  30.255  34.170  1.00  0.00    -0.237 OA
ATOM     96  O   UNL A   1      48.223  31.608  32.454  1.00  0.00    -0.744 OA
ENDBRANCH  92  93
ENDBRANCH  64  87
BRANCH  76  97
ATOM     97  C   UNL A   1      43.566  31.111  43.252  1.00  0.00    -0.014 A 
ATOM     98  C   UNL A   1      43.784  29.784  43.661  1.00  0.00     0.010 A 
ATOM     99  C   UNL A   1      44.223  32.160  43.920  1.00  0.00     0.010 A 
ATOM    100  C   UNL A   1      44.625  29.514  44.743  1.00  0.00     0.020 A 
ATOM    101  C   UNL A   1      45.085  31.891  44.983  1.00  0.00     0.020 A 
ATOM    102  C   UNL A   1      45.270  30.570  45.396  1.00  0.00     0.054 A 
BRANCH 102 103
ATOM    103  S   UNL A   1      46.399  30.189  46.762  1.00  0.00     0.124 S 
ATOM    104  O   UNL A   1      45.753  29.031  47.373  1.00  0.00    -0.237 OA
ATOM    105  O   UNL A   1      47.658  29.916  46.074  1.00  0.00    -0.237 OA
ATOM    106  O   UNL A   1      46.388  31.408  47.570  1.00  0.00    -0.744 OA
ENDBRANCH 102 103
ENDBRANCH  76  97
ENDBRANCH  50  51
ENDBRANCH  42  45
ENDBRANCH  40  41
ENDBRANCH   1  40
TORSDOF 15
ENDMDL
MODEL 2
REMARK VINA RESULT:      -9.8      5.172     11.582
REMARK SMILES COC(=O)[C@H]1CC[C@]2(C)[C@H](CC[C@]3(C)[C@H]2CC=C2[C@H]4CC(C)(C)CC[C@]4(C(=O)NCCCNC(=O)c4ccc(-c5c6nc(c(-c7ccc(S(=O)(=O)[O-])cc7)c7ccc([nH]7)c(-c7ccc(S(=O)(=O)[O-])cc7)c7nc(c(-c8ccc(S(=O)(=O)[O-])cc8)c8ccc5[nH]8)C=C7)C=C6)cc4)CC[C@@]23C)C1(C)C
REMARK SMILES IDX 31 1 30 2 29 3 27 4 28 5 26 7 5 8 6 9 100 10 7 11 10 12
REMARK SMILES IDX 101 13 102 14 8 15 11 16 15 17 9 18 12 19 16 20 13 21 17 22
REMARK SMILES IDX 98 23 14 24 18 25 97 26 99 27 19 28 96 29 20 30 21 31 25 32
REMARK SMILES IDX 24 33 22 34 23 35 3 36 4 37 2 38 1 39 32 40 33 41 34 42
REMARK SMILES IDX 35 44 36 45 37 46 95 47 38 48 94 49 39 50 40 51 41 52 88 53
REMARK SMILES IDX 42 54 93 55 87 56 89 57 43 58 92 59 86 60 85 61 44 63 74 64
REMARK SMILES IDX 55 65 73 66 56 67 59 68 72 69 90 70 57 71 58 72 71 74 91 75
REMARK SMILES IDX 60 76 45 77 46 78 54 79 47 80 53 81 48 82 49 83 50 84 51 85
REMARK SMILES IDX 52 86 75 87 76 88 84 89 77 90 83 91 78 92 79 93 80 94 81 95
REMARK SMILES IDX 82 96 61 97 62 98 70 99 63 100 69 101 64 102 65 103 66 104
REMARK SMILES IDX 67 105 68 106
REMARK H PARENT 29 6 33 43 89 62 59 73
REMARK Flexibility Score: inf
ROOT
ATOM      1  C   UNL A   1      38.165  33.645  37.317  1.00  0.00     0.042 C 
ENDROOT
BRANCH   1   2
ATOM      2  C   UNL A   1      38.024  32.408  36.422  1.00  0.00     0.117 C 
BRANCH   2   3
ATOM      3  N   UNL A   1      37.192  32.656  35.264  1.00  0.00    -0.356 N 
ATOM      4  C   UNL A   1      37.410  32.893  33.955  1.00  0.00     0.226 C 
ATOM      5  O   UNL A   1      36.357  33.060  33.320  1.00  0.00    -0.274 OA
ATOM      6  H   UNL A   1      36.233  32.650  35.486  1.00  0.00     0.163 HD
BRANCH   4   7
ATOM      7  C   UNL A   1      38.778  32.935  33.208  1.00  0.00     0.056 C 
ATOM      8  C   UNL A   1      39.998  27.205  27.254  1.00  0.00     0.105 C 
ATOM      9  C   UNL A   1      39.140  26.284  28.147  1.00  0.00     0.016 C 
ATOM     10  C   UNL A   1      40.179  28.679  27.753  1.00  0.00    -0.019 C 
ATOM     11  C   UNL A   1      39.263  26.478  29.670  1.00  0.00     0.008 C 
ATOM     12  C   UNL A   1      40.393  28.634  29.321  1.00  0.00     0.002 C 
ATOM     13  C   UNL A   1      41.391  29.370  27.060  1.00  0.00     0.012 C 
ATOM     14  C   UNL A   1      38.978  29.514  27.230  1.00  0.00     0.012 C 
ATOM     15  C   UNL A   1      39.243  27.965  30.146  1.00  0.00    -0.026 C 
ATOM     16  C   UNL A   1      40.842  29.944  29.946  1.00  0.00     0.005 C 
ATOM     17  C   UNL A   1      39.505  27.984  31.763  1.00  0.00     0.006 C 
ATOM     18  C   UNL A   1      37.842  28.523  29.752  1.00  0.00     0.012 C 
ATOM     19  C   UNL A   1      41.513  29.680  31.281  1.00  0.00     0.008 C 
ATOM     20  C   UNL A   1      38.156  28.116  32.568  1.00  0.00     0.032 C 
ATOM     21  C   UNL A   1      40.674  28.979  32.383  1.00  0.00    -0.020 C 
ATOM     22  C   UNL A   1      37.763  29.573  32.599  1.00  0.00    -0.027 C 
ATOM     23  C   UNL A   1      40.037  30.035  33.447  1.00  0.00    -0.006 C 
ATOM     24  C   UNL A   1      41.698  28.061  33.132  1.00  0.00     0.012 C 
ATOM     25  C   UNL A   1      38.743  30.476  32.772  1.00  0.00    -0.064 C 
ATOM     26  C   UNL A   1      40.833  31.330  33.907  1.00  0.00     0.013 C 
ATOM     27  C   UNL A   1      39.800  29.296  34.803  1.00  0.00     0.017 C 
ATOM     28  C   UNL A   1      38.786  31.853  32.131  1.00  0.00     0.031 C 
ATOM     29  C   UNL A   1      40.089  32.718  34.025  1.00  0.00     0.018 C 
ATOM     30  C   UNL A   1      37.875  32.109  30.922  1.00  0.00     0.015 C 
ATOM     31  C   UNL A   1      38.146  33.456  30.222  1.00  0.00    -0.035 C 
ATOM     32  C   UNL A   1      38.842  34.358  32.532  1.00  0.00     0.018 C 
ATOM     33  C   UNL A   1      37.978  34.569  31.269  1.00  0.00     0.007 C 
ATOM     34  C   UNL A   1      39.551  33.535  29.582  1.00  0.00     0.011 C 
ATOM     35  C   UNL A   1      37.128  33.611  29.075  1.00  0.00     0.011 C 
BRANCH   8  36
ATOM     36  C   UNL A   1      41.324  26.522  26.943  1.00  0.00     0.309 C 
ATOM     37  O   UNL A   1      42.153  26.162  27.765  1.00  0.00    -0.252 OA
BRANCH  36  38
ATOM     38  O   UNL A   1      41.470  26.434  25.589  1.00  0.00    -0.469 OA
ATOM     39  C   UNL A   1      42.788  26.687  25.111  1.00  0.00     0.282 C 
ENDBRANCH  36  38
ENDBRANCH   8  36
ENDBRANCH   4   7
ENDBRANCH   2   3
ENDBRANCH   1   2
BRANCH   1  40
ATOM     40  C   UNL A   1      39.495  34.398  37.155  1.00  0.00     0.118 C 
BRANCH  40  41
ATOM     41  N   UNL A   1      40.301  34.489  38.375  1.00  0.00    -0.352 N 
ATOM     42  C   UNL A   1      41.541  33.990  38.704  1.00  0.00     0.251 C 
ATOM     43  H   UNL A   1      39.876  35.006  39.097  1.00  0.00     0.163 HD
ATOM     44  O   UNL A   1      41.959  34.065  39.841  1.00  0.00    -0.269 OA
BRANCH  42  45
ATOM     45  C   UNL A   1      42.339  33.345  37.650  1.00  0.00     0.039 A 
ATOM     46  C   UNL A   1      42.264  31.962  37.480  1.00  0.00     0.014 A 
ATOM     47  C   UNL A   1      43.117  34.130  36.804  1.00  0.00     0.014 A 
ATOM     48  C   UNL A   1      42.880  31.385  36.371  1.00  0.00     0.010 A 
ATOM     49  C   UNL A   1      43.617  33.578  35.640  1.00  0.00     0.010 A 
ATOM     50  C   UNL A   1      43.500  32.200  35.410  1.00  0.00    -0.014 A 
BRANCH  50  51
ATOM     51  C   UNL A   1      44.029  31.646  34.143  1.00  0.00     0.031 A 
ATOM     52  C   UNL A   1      44.032  32.503  32.906  1.00  0.00     0.074 A 
ATOM     53  C   UNL A   1      44.396  30.349  34.095  1.00  0.00     0.049 A 
ATOM     54  N   UNL A   1      44.339  32.173  31.680  1.00  0.00    -0.248 NA
ATOM     55  C   UNL A   1      43.581  33.899  33.054  1.00  0.00     0.031 C 
ATOM     56  C   UNL A   1      44.349  29.407  35.220  1.00  0.00     0.029 A 
ATOM     57  N   UNL A   1      44.875  29.592  33.058  1.00  0.00    -0.354 N 
ATOM     58  C   UNL A   1      44.074  33.301  30.911  1.00  0.00     0.074 A 
ATOM     59  C   UNL A   1      43.533  34.306  31.794  1.00  0.00     0.031 C 
ATOM     60  C   UNL A   1      44.821  28.215  34.822  1.00  0.00     0.029 A 
ATOM     61  C   UNL A   1      45.165  28.293  33.408  1.00  0.00     0.049 A 
ATOM     62  H   UNL A   1      44.998  29.944  32.148  1.00  0.00     0.167 HD
ATOM     63  C   UNL A   1      44.292  33.488  29.590  1.00  0.00     0.031 A 
ATOM     64  C   UNL A   1      45.656  27.283  32.665  1.00  0.00     0.031 A 
ATOM     65  C   UNL A   1      44.899  32.501  28.742  1.00  0.00     0.049 A 
ATOM     66  C   UNL A   1      45.964  27.547  31.217  1.00  0.00     0.074 A 
ATOM     67  C   UNL A   1      45.267  32.615  27.414  1.00  0.00     0.029 A 
ATOM     68  N   UNL A   1      45.246  31.222  29.151  1.00  0.00    -0.354 N 
ATOM     69  N   UNL A   1      45.791  28.651  30.528  1.00  0.00    -0.248 NA
ATOM     70  C   UNL A   1      46.545  26.439  30.448  1.00  0.00     0.031 C 
ATOM     71  C   UNL A   1      45.804  31.390  27.008  1.00  0.00     0.029 A 
ATOM     72  C   UNL A   1      45.814  30.531  28.097  1.00  0.00     0.049 A 
ATOM     73  H   UNL A   1      45.108  30.860  30.055  1.00  0.00     0.167 HD
ATOM     74  C   UNL A   1      46.271  28.379  29.253  1.00  0.00     0.074 A 
ATOM     75  C   UNL A   1      46.756  27.013  29.272  1.00  0.00     0.031 C 
ATOM     76  C   UNL A   1      46.306  29.179  28.160  1.00  0.00     0.031 A 
BRANCH  63  77
ATOM     77  C   UNL A   1      43.899  34.811  28.989  1.00  0.00    -0.014 A 
ATOM     78  C   UNL A   1      42.591  35.037  28.523  1.00  0.00     0.010 A 
ATOM     79  C   UNL A   1      44.833  35.862  28.941  1.00  0.00     0.010 A 
ATOM     80  C   UNL A   1      42.231  36.279  27.996  1.00  0.00     0.020 A 
ATOM     81  C   UNL A   1      44.470  37.116  28.441  1.00  0.00     0.020 A 
ATOM     82  C   UNL A   1      43.172  37.313  27.961  1.00  0.00     0.054 A 
BRANCH  82  83
ATOM     83  S   UNL A   1      42.659  38.933  27.329  1.00  0.00     0.124 S 
ATOM     84  O   UNL A   1      41.487  38.587  26.529  1.00  0.00    -0.237 OA
ATOM     85  O   UNL A   1      42.384  39.682  28.553  1.00  0.00    -0.237 OA
ATOM     86  O   UNL A   1      43.820  39.393  26.569  1.00  0.00    -0.744 OA
ENDBRANCH  82  83
ENDBRANCH  63  77
BRANCH  64  87
ATOM     87  C   UNL A   1      45.915  25.948  33.273  1.00  0.00    -0.014 A 
ATOM     88  C   UNL A   1      44.910  24.962  33.284  1.00  0.00     0.010 A 
ATOM     89  C   UNL A   1      47.158  25.658  33.866  1.00  0.00     0.010 A 
ATOM     90  C   UNL A   1      45.126  23.733  33.916  1.00  0.00     0.020 A 
ATOM     91  C   UNL A   1      47.388  24.419  34.473  1.00  0.00     0.020 A 
ATOM     92  C   UNL A   1      46.362  23.473  34.513  1.00  0.00     0.054 A 
BRANCH  92  93
ATOM     93  S   UNL A   1      46.625  21.871  35.324  1.00  0.00     0.124 S 
ATOM     94  O   UNL A   1      46.367  20.935  34.234  1.00  0.00    -0.237 OA
ATOM     95  O   UNL A   1      48.014  21.961  35.766  1.00  0.00    -0.237 OA
ATOM     96  O   UNL A   1      45.636  21.868  36.401  1.00  0.00    -0.744 OA
ENDBRANCH  92  93
ENDBRANCH  64  87
BRANCH  76  97
ATOM     97  C   UNL A   1      46.926  28.615  26.915  1.00  0.00    -0.014 A 
ATOM     98  C   UNL A   1      48.322  28.532  26.775  1.00  0.00     0.010 A 
ATOM     99  C   UNL A   1      46.096  28.098  25.904  1.00  0.00     0.010 A 
ATOM    100  C   UNL A   1      48.878  27.966  25.626  1.00  0.00     0.020 A 
ATOM    101  C   UNL A   1      46.649  27.506  24.769  1.00  0.00     0.020 A 
ATOM    102  C   UNL A   1      48.037  27.457  24.631  1.00  0.00     0.054 A 
BRANCH 102 103
ATOM    103  S   UNL A   1      48.784  26.678  23.175  1.00  0.00     0.124 S 
ATOM    104  O   UNL A   1      48.272  25.314  23.266  1.00  0.00    -0.237 OA
ATOM    105  O   UNL A   1      48.251  27.478  22.074  1.00  0.00    -0.237 OA
ATOM    106  O   UNL A   1      50.220  26.822  23.403  1.00  0.00    -0.744 OA
ENDBRANCH 102 103
ENDBRANCH  76  97
ENDBRANCH  50  51
ENDBRANCH  42  45
ENDBRANCH  40  41
ENDBRANCH   1  40
TORSDOF 15
ENDMDL
MODEL 3
REMARK VINA RESULT:      -9.7      4.593      6.567
REMARK SMILES COC(=O)[C@H]1CC[C@]2(C)[C@H](CC[C@]3(C)[C@H]2CC=C2[C@H]4CC(C)(C)CC[C@]4(C(=O)NCCCNC(=O)c4ccc(-c5c6nc(c(-c7ccc(S(=O)(=O)[O-])cc7)c7ccc([nH]7)c(-c7ccc(S(=O)(=O)[O-])cc7)c7nc(c(-c8ccc(S(=O)(=O)[O-])cc8)c8ccc5[nH]8)C=C7)C=C6)cc4)CC[C@@]23C)C1(C)C
REMARK SMILES IDX 31 1 30 2 29 3 27 4 28 5 26 7 5 8 6 9 100 10 7 11 10 12
REMARK SMILES IDX 101 13 102 14 8 15 11 16 15 17 9 18 12 19 16 20 13 21 17 22
REMARK SMILES IDX 98 23 14 24 18 25 97 26 99 27 19 28 96 29 20 30 21 31 25 32
REMARK SMILES IDX 24 33 22 34 23 35 3 36 4 37 2 38 1 39 32 40 33 41 34 42
REMARK SMILES IDX 35 44 36 45 37 46 95 47 38 48 94 49 39 50 40 51 41 52 88 53
REMARK SMILES IDX 42 54 93 55 87 56 89 57 43 58 92 59 86 60 85 61 44 63 74 64
REMARK SMILES IDX 55 65 73 66 56 67 59 68 72 69 90 70 57 71 58 72 71 74 91 75
REMARK SMILES IDX 60 76 45 77 46 78 54 79 47 80 53 81 48 82 49 83 50 84 51 85
REMARK SMILES IDX 52 86 75 87 76 88 84 89 77 90 83 91 78 92 79 93 80 94 81 95
REMARK SMILES IDX 82 96 61 97 62 98 70 99 63 100 69 101 64 102 65 103 66 104
REMARK SMILES IDX 67 105 68 106
REMARK H PARENT 29 6 33 43 89 62 59 73
REMARK Flexibility Score: inf
ROOT
ATOM      1  C   UNL A   1      36.366  30.560  30.881  1.00  0.00     0.042 C 
ENDROOT
BRANCH   1   2
ATOM      2  C   UNL A   1      37.683  30.313  30.135  1.00  0.00     0.117 C 
BRANCH   2   3
ATOM      3  N   UNL A   1      38.835  30.771  30.882  1.00  0.00    -0.356 N 
ATOM      4  C   UNL A   1      39.853  30.180  31.539  1.00  0.00     0.226 C 
ATOM      5  O   UNL A   1      40.628  31.001  32.053  1.00  0.00    -0.274 OA
ATOM      6  H   UNL A   1      38.888  31.753  30.919  1.00  0.00     0.163 HD
BRANCH   4   7
ATOM      7  C   UNL A   1      40.146  28.654  31.669  1.00  0.00     0.056 C 
ATOM      8  C   UNL A   1      45.830  25.451  26.454  1.00  0.00     0.105 C 
ATOM      9  C   UNL A   1      45.304  26.496  25.447  1.00  0.00     0.016 C 
ATOM     10  C   UNL A   1      45.200  25.494  27.887  1.00  0.00    -0.019 C 
ATOM     11  C   UNL A   1      43.806  26.845  25.522  1.00  0.00     0.008 C 
ATOM     12  C   UNL A   1      43.648  25.758  27.724  1.00  0.00     0.002 C 
ATOM     13  C   UNL A   1      45.445  24.162  28.656  1.00  0.00     0.012 C 
ATOM     14  C   UNL A   1      46.003  26.518  28.735  1.00  0.00     0.012 C 
ATOM     15  C   UNL A   1      43.258  27.072  26.967  1.00  0.00    -0.026 C 
ATOM     16  C   UNL A   1      42.828  25.576  28.989  1.00  0.00     0.005 C 
ATOM     17  C   UNL A   1      41.639  27.308  26.864  1.00  0.00     0.006 C 
ATOM     18  C   UNL A   1      44.017  28.313  27.524  1.00  0.00     0.012 C 
ATOM     19  C   UNL A   1      41.374  25.326  28.636  1.00  0.00     0.008 C 
ATOM     20  C   UNL A   1      41.274  28.841  26.904  1.00  0.00     0.032 C 
ATOM     21  C   UNL A   1      40.628  26.424  27.832  1.00  0.00    -0.020 C 
ATOM     22  C   UNL A   1      41.263  29.290  28.345  1.00  0.00    -0.027 C 
ATOM     23  C   UNL A   1      39.737  27.398  28.787  1.00  0.00    -0.006 C 
ATOM     24  C   UNL A   1      39.669  25.633  26.880  1.00  0.00     0.012 C 
ATOM     25  C   UNL A   1      40.740  28.447  29.252  1.00  0.00    -0.064 C 
ATOM     26  C   UNL A   1      38.970  26.834  30.058  1.00  0.00     0.013 C 
ATOM     27  C   UNL A   1      38.570  27.998  27.939  1.00  0.00     0.017 C 
ATOM     28  C   UNL A   1      41.242  28.275  30.676  1.00  0.00     0.031 C 
ATOM     29  C   UNL A   1      38.987  27.640  31.417  1.00  0.00     0.018 C 
ATOM     30  C   UNL A   1      42.650  28.792  31.006  1.00  0.00     0.015 C 
ATOM     31  C   UNL A   1      43.140  28.384  32.410  1.00  0.00    -0.035 C 
ATOM     32  C   UNL A   1      40.671  28.453  33.142  1.00  0.00     0.018 C 
ATOM     33  C   UNL A   1      42.119  28.906  33.433  1.00  0.00     0.007 C 
ATOM     34  C   UNL A   1      43.318  26.855  32.569  1.00  0.00     0.011 C 
ATOM     35  C   UNL A   1      44.528  29.016  32.633  1.00  0.00     0.011 C 
BRANCH   8  36
ATOM     36  C   UNL A   1      45.772  24.064  25.826  1.00  0.00     0.309 C 
ATOM     37  O   UNL A   1      46.711  23.291  25.711  1.00  0.00    -0.252 OA
BRANCH  36  38
ATOM     38  O   UNL A   1      44.510  23.845  25.354  1.00  0.00    -0.469 OA
ATOM     39  C   UNL A   1      44.442  23.028  24.188  1.00  0.00     0.282 C 
ENDBRANCH  36  38
ENDBRANCH   8  36
ENDBRANCH   4   7
ENDBRANCH   2   3
ENDBRANCH   1   2
BRANCH   1  40
ATOM     40  C   UNL A   1      35.588  31.797  30.404  1.00  0.00     0.118 C 
BRANCH  40  41
ATOM     41  N   UNL A   1      34.497  32.214  31.288  1.00  0.00    -0.352 N 
ATOM     42  C   UNL A   1      34.489  32.823  32.522  1.00  0.00     0.251 C 
ATOM     43  H   UNL A   1      33.599  32.024  30.932  1.00  0.00     0.163 HD
ATOM     44  O   UNL A   1      33.455  32.945  33.148  1.00  0.00    -0.269 OA
BRANCH  42  45
ATOM     45  C   UNL A   1      35.764  33.303  33.076  1.00  0.00     0.039 A 
ATOM     46  C   UNL A   1      36.581  32.423  33.785  1.00  0.00     0.014 A 
ATOM     47  C   UNL A   1      36.161  34.616  32.839  1.00  0.00     0.014 A 
ATOM     48  C   UNL A   1      37.861  32.836  34.149  1.00  0.00     0.010 A 
ATOM     49  C   UNL A   1      37.471  34.980  33.084  1.00  0.00     0.010 A 
ATOM     50  C   UNL A   1      38.336  34.092  33.738  1.00  0.00    -0.014 A 
BRANCH  50  51
ATOM     51  C   UNL A   1      39.739  34.509  33.966  1.00  0.00     0.031 A 
ATOM     52  C   UNL A   1      40.146  35.026  35.319  1.00  0.00     0.074 A 
ATOM     53  C   UNL A   1      40.598  34.520  32.926  1.00  0.00     0.049 A 
ATOM     54  N   UNL A   1      41.284  35.548  35.689  1.00  0.00    -0.248 NA
ATOM     55  C   UNL A   1      39.124  35.005  36.382  1.00  0.00     0.031 C 
ATOM     56  C   UNL A   1      40.277  34.119  31.550  1.00  0.00     0.029 A 
ATOM     57  N   UNL A   1      41.916  34.889  32.857  1.00  0.00    -0.354 N 
ATOM     58  C   UNL A   1      41.099  35.956  37.006  1.00  0.00     0.074 A 
ATOM     59  C   UNL A   1      39.728  35.671  37.355  1.00  0.00     0.031 C 
ATOM     60  C   UNL A   1      41.379  34.222  30.790  1.00  0.00     0.029 A 
ATOM     61  C   UNL A   1      42.470  34.735  31.608  1.00  0.00     0.049 A 
ATOM     62  H   UNL A   1      42.418  35.232  33.631  1.00  0.00     0.167 HD
ATOM     63  C   UNL A   1      42.004  36.493  37.855  1.00  0.00     0.031 A 
ATOM     64  C   UNL A   1      43.722  34.981  31.177  1.00  0.00     0.031 A 
ATOM     65  C   UNL A   1      43.382  36.701  37.511  1.00  0.00     0.049 A 
ATOM     66  C   UNL A   1      44.727  35.502  32.167  1.00  0.00     0.074 A 
ATOM     67  C   UNL A   1      44.415  37.139  38.320  1.00  0.00     0.029 A 
ATOM     68  N   UNL A   1      43.923  36.465  36.255  1.00  0.00    -0.354 N 
ATOM     69  N   UNL A   1      44.556  35.796  33.435  1.00  0.00    -0.248 NA
ATOM     70  C   UNL A   1      46.096  35.712  31.677  1.00  0.00     0.031 C 
ATOM     71  C   UNL A   1      45.575  37.201  37.543  1.00  0.00     0.029 A 
ATOM     72  C   UNL A   1      45.273  36.758  36.264  1.00  0.00     0.049 A 
ATOM     73  H   UNL A   1      43.420  36.138  35.475  1.00  0.00     0.167 HD
ATOM     74  C   UNL A   1      45.802  36.196  33.901  1.00  0.00     0.074 A 
ATOM     75  C   UNL A   1      46.719  36.089  32.784  1.00  0.00     0.031 C 
ATOM     76  C   UNL A   1      46.160  36.619  35.138  1.00  0.00     0.031 A 
BRANCH  63  77
ATOM     77  C   UNL A   1      41.542  36.866  39.238  1.00  0.00    -0.014 A 
ATOM     78  C   UNL A   1      41.597  35.940  40.296  1.00  0.00     0.010 A 
ATOM     79  C   UNL A   1      41.099  38.176  39.497  1.00  0.00     0.010 A 
ATOM     80  C   UNL A   1      41.194  36.310  41.581  1.00  0.00     0.020 A 
ATOM     81  C   UNL A   1      40.721  38.557  40.787  1.00  0.00     0.020 A 
ATOM     82  C   UNL A   1      40.762  37.617  41.820  1.00  0.00     0.054 A 
BRANCH  82  83
ATOM     83  S   UNL A   1      40.304  38.085  43.511  1.00  0.00     0.124 S 
ATOM     84  O   UNL A   1      41.604  38.120  44.177  1.00  0.00    -0.237 OA
ATOM     85  O   UNL A   1      39.661  39.383  43.321  1.00  0.00    -0.237 OA
ATOM     86  O   UNL A   1      39.413  37.009  43.940  1.00  0.00    -0.744 OA
ENDBRANCH  82  83
ENDBRANCH  63  77
BRANCH  64  87
ATOM     87  C   UNL A   1      44.107  34.713  29.763  1.00  0.00    -0.014 A 
ATOM     88  C   UNL A   1      43.879  35.681  28.767  1.00  0.00     0.010 A 
ATOM     89  C   UNL A   1      44.681  33.482  29.396  1.00  0.00     0.010 A 
ATOM     90  C   UNL A   1      44.174  35.406  27.428  1.00  0.00     0.020 A 
ATOM     91  C   UNL A   1      45.004  33.215  28.062  1.00  0.00     0.020 A 
ATOM     92  C   UNL A   1      44.728  34.171  27.083  1.00  0.00     0.054 A 
BRANCH  92  93
ATOM     93  S   UNL A   1      45.107  33.835  25.340  1.00  0.00     0.124 S 
ATOM     94  O   UNL A   1      43.943  34.399  24.663  1.00  0.00    -0.237 OA
ATOM     95  O   UNL A   1      46.364  34.553  25.144  1.00  0.00    -0.237 OA
ATOM     96  O   UNL A   1      45.218  32.379  25.290  1.00  0.00    -0.744 OA
ENDBRANCH  92  93
ENDBRANCH  64  87
BRANCH  76  97
ATOM     97  C   UNL A   1      47.608  36.952  35.357  1.00  0.00    -0.014 A 
ATOM     98  C   UNL A   1      48.084  38.261  35.178  1.00  0.00     0.010 A 
ATOM     99  C   UNL A   1      48.483  35.950  35.815  1.00  0.00     0.010 A 
ATOM    100  C   UNL A   1      49.426  38.557  35.427  1.00  0.00     0.020 A 
ATOM    101  C   UNL A   1      49.816  36.250  36.092  1.00  0.00     0.020 A 
ATOM    102  C   UNL A   1      50.283  37.550  35.883  1.00  0.00     0.054 A 
BRANCH 102 103
ATOM    103  S   UNL A   1      52.007  37.972  36.250  1.00  0.00     0.124 S 
ATOM    104  O   UNL A   1      51.856  39.180  37.056  1.00  0.00    -0.237 OA
ATOM    105  O   UNL A   1      52.482  36.792  36.968  1.00  0.00    -0.237 OA
ATOM    106  O   UNL A   1      52.602  38.174  34.930  1.00  0.00    -0.744 OA
ENDBRANCH 102 103
ENDBRANCH  76  97
ENDBRANCH  50  51
ENDBRANCH  42  45
ENDBRANCH  40  41
ENDBRANCH   1  40
TORSDOF 15
ENDMDL
