MODEL 1
REMARK VINA RESULT:     -11.9      0.000      0.000
REMARK SMILES COc1c(Cl)cc(C(=O)NCCCNC(=O)c2ccc(-c3c4nc(c(-c5ccc(S(=O)(=O)[O-])cc5)c5ccc([nH]5)c(-c5ccc(S(=O)(=O)[O-])cc5)c5nc(c(-c6ccc(S(=O)(=O)[O-])cc6)c6ccc3[nH]6)C=C5)C=C4)cc2)cc1NC(=S)NC(=O)c1cccc(C)c1OC
REMARK SMILES IDX 11 1 10 2 8 3 9 4 7 6 3 7 4 8 78 9 5 10 6 11 77 12 2 13 1 14
REMARK SMILES IDX 79 15 80 17 81 18 82 19 83 20 84 22 85 23 86 24 91 25 87 26
REMARK SMILES IDX 89 27 88 28 90 29 92 30 93 31 12 32 13 33 14 34 15 35 16 37
REMARK SMILES IDX 17 38 18 39 76 40 19 41 75 42 20 43 21 44 22 45 69 46 23 47
REMARK SMILES IDX 74 48 68 49 70 50 24 51 73 52 67 53 66 54 25 56 55 57 36 58
REMARK SMILES IDX 54 59 37 60 40 61 53 62 71 63 38 64 39 65 52 67 72 68 41 69
REMARK SMILES IDX 26 70 27 71 35 72 28 73 34 74 29 75 30 76 31 77 32 78 33 79
REMARK SMILES IDX 56 80 57 81 65 82 58 83 64 84 59 85 60 86 61 87 62 88 63 89
REMARK SMILES IDX 42 90 43 91 51 92 44 93 50 94 45 95 46 96 47 97 48 98 49 99
REMARK H PARENT 10 5 79 16 82 21 14 36 70 55 40 66
REMARK Flexibility Score: inf
ROOT
ATOM      1  C   UNL A   1      39.966  22.249  26.497  1.00  0.00     0.118 C 
ENDROOT
BRANCH   1   2
ATOM      2  N   UNL A   1      39.819  20.851  26.036  1.00  0.00    -0.352 N 
ATOM      3  C   UNL A   1      38.953  19.767  25.490  1.00  0.00     0.251 C 
ATOM      4  O   UNL A   1      40.009  19.024  25.447  1.00  0.00    -0.269 OA
ATOM      5  H   UNL A   1      40.711  20.447  26.136  1.00  0.00     0.163 HD
BRANCH   3   6
ATOM      6  C   UNL A   1      36.884  19.460  25.010  1.00  0.00     0.043 A 
ATOM      7  C   UNL A   1      33.792  19.139  24.671  1.00  0.00     0.160 A 
ATOM      8  C   UNL A   1      34.665  18.111  24.348  1.00  0.00     0.086 A 
ATOM      9  C   UNL A   1      34.397  20.270  25.149  1.00  0.00     0.085 A 
ATOM     10  Cl  UNL A   1      34.166  16.632  23.597  1.00  0.00    -0.080 Cl
ATOM     11  C   UNL A   1      36.086  18.245  24.585  1.00  0.00     0.038 A 
ATOM     12  C   UNL A   1      35.763  20.420  24.995  1.00  0.00     0.044 A 
BRANCH   7  13
ATOM     13  O   UNL A   1      32.454  19.260  24.461  1.00  0.00    -0.493 OA
ATOM     14  C   UNL A   1      31.974  19.108  23.137  1.00  0.00     0.278 C 
ENDBRANCH   7  13
BRANCH   9  15
ATOM     15  N   UNL A   1      33.729  21.359  25.731  1.00  0.00    -0.329 N 
ATOM     16  H   UNL A   1      33.580  21.288  26.702  1.00  0.00     0.169 HD
BRANCH  15  17
ATOM     17  C   UNL A   1      33.254  22.499  25.153  1.00  0.00     0.177 C 
ATOM     18  S   UNL A   1      31.599  22.620  24.910  1.00  0.00    -0.040 S 
BRANCH  17  19
ATOM     19  N   UNL A   1      34.015  23.620  24.822  1.00  0.00    -0.299 N 
ATOM     20  C   UNL A   1      33.928  24.838  24.111  1.00  0.00     0.261 C 
ATOM     21  H   UNL A   1      34.914  23.533  25.215  1.00  0.00     0.172 HD
ATOM     22  O   UNL A   1      34.568  24.937  23.061  1.00  0.00    -0.269 OA
BRANCH  20  23
ATOM     23  C   UNL A   1      33.071  26.016  24.513  1.00  0.00     0.082 A 
ATOM     24  C   UNL A   1      33.964  27.049  25.724  1.00  0.00     0.018 A 
ATOM     25  C   UNL A   1      31.636  26.752  23.597  1.00  0.00     0.134 A 
ATOM     26  C   UNL A   1      33.539  28.792  25.959  1.00  0.00     0.001 A 
ATOM     27  C   UNL A   1      31.290  28.533  23.761  1.00  0.00    -0.008 A 
ATOM     28  C   UNL A   1      32.225  29.560  24.928  1.00  0.00     0.007 A 
ATOM     29  C   UNL A   1      30.584  29.246  22.644  1.00  0.00     0.048 C 
BRANCH  25  30
ATOM     30  O   UNL A   1      30.976  26.218  22.509  1.00  0.00    -0.496 OA
ATOM     31  C   UNL A   1      31.707  25.948  21.329  1.00  0.00     0.278 C 
ENDBRANCH  25  30
ENDBRANCH  20  23
ENDBRANCH  17  19
ENDBRANCH  15  17
ENDBRANCH   9  15
ENDBRANCH   3   6
ENDBRANCH   1   2
BRANCH   1  32
ATOM     32  C   UNL A   1      38.676  23.058  26.494  1.00  0.00     0.042 C 
BRANCH  32  33
ATOM     33  C   UNL A   1      38.815  24.518  26.880  1.00  0.00     0.118 C 
BRANCH  33  34
ATOM     34  N   UNL A   1      39.890  25.189  26.167  1.00  0.00    -0.352 N 
ATOM     35  C   UNL A   1      40.527  26.384  26.390  1.00  0.00     0.251 C 
ATOM     36  H   UNL A   1      40.220  24.698  25.381  1.00  0.00     0.163 HD
ATOM     37  O   UNL A   1      41.277  26.808  25.509  1.00  0.00    -0.269 OA
BRANCH  35  38
ATOM     38  C   UNL A   1      40.348  27.170  27.638  1.00  0.00     0.039 A 
ATOM     39  C   UNL A   1      40.872  28.468  27.686  1.00  0.00     0.014 A 
ATOM     40  C   UNL A   1      39.767  26.636  28.791  1.00  0.00     0.014 A 
ATOM     41  C   UNL A   1      40.811  29.213  28.869  1.00  0.00     0.010 A 
ATOM     42  C   UNL A   1      39.594  27.421  29.928  1.00  0.00     0.010 A 
ATOM     43  C   UNL A   1      40.165  28.697  30.002  1.00  0.00    -0.014 A 
BRANCH  43  44
ATOM     44  C   UNL A   1      40.160  29.435  31.292  1.00  0.00     0.031 A 
ATOM     45  C   UNL A   1      41.236  29.166  32.316  1.00  0.00     0.074 A 
ATOM     46  C   UNL A   1      39.183  30.322  31.559  1.00  0.00     0.049 A 
ATOM     47  N   UNL A   1      41.407  29.702  33.499  1.00  0.00    -0.248 NA
ATOM     48  C   UNL A   1      42.235  28.135  31.984  1.00  0.00     0.031 C 
ATOM     49  C   UNL A   1      38.057  30.632  30.675  1.00  0.00     0.029 A 
ATOM     50  N   UNL A   1      38.979  31.128  32.651  1.00  0.00    -0.354 N 
ATOM     51  C   UNL A   1      42.505  29.054  34.056  1.00  0.00     0.074 A 
ATOM     52  C   UNL A   1      42.923  28.044  33.111  1.00  0.00     0.031 C 
ATOM     53  C   UNL A   1      37.303  31.587  31.244  1.00  0.00     0.029 A 
ATOM     54  C   UNL A   1      37.869  31.929  32.545  1.00  0.00     0.049 A 
ATOM     55  H   UNL A   1      39.573  31.130  33.436  1.00  0.00     0.167 HD
ATOM     56  C   UNL A   1      43.130  29.291  35.235  1.00  0.00     0.031 A 
ATOM     57  C   UNL A   1      37.363  32.843  33.396  1.00  0.00     0.031 A 
ATOM     58  C   UNL A   1      42.721  30.312  36.162  1.00  0.00     0.049 A 
ATOM     59  C   UNL A   1      38.089  33.120  34.684  1.00  0.00     0.074 A 
ATOM     60  C   UNL A   1      43.320  30.686  37.351  1.00  0.00     0.029 A 
ATOM     61  N   UNL A   1      41.608  31.124  36.002  1.00  0.00    -0.354 N 
ATOM     62  N   UNL A   1      39.171  32.549  35.160  1.00  0.00    -0.248 NA
ATOM     63  C   UNL A   1      37.542  34.182  35.537  1.00  0.00     0.031 C 
ATOM     64  C   UNL A   1      42.536  31.685  37.939  1.00  0.00     0.029 A 
ATOM     65  C   UNL A   1      41.488  31.983  37.082  1.00  0.00     0.049 A 
ATOM     66  H   UNL A   1      40.993  31.093  35.234  1.00  0.00     0.167 HD
ATOM     67  C   UNL A   1      39.451  33.202  36.355  1.00  0.00     0.074 A 
ATOM     68  C   UNL A   1      38.433  34.222  36.518  1.00  0.00     0.031 C 
ATOM     69  C   UNL A   1      40.463  32.985  37.232  1.00  0.00     0.031 A 
BRANCH  56  70
ATOM     70  C   UNL A   1      44.307  28.415  35.588  1.00  0.00    -0.014 A 
ATOM     71  C   UNL A   1      44.143  27.217  36.310  1.00  0.00     0.010 A 
ATOM     72  C   UNL A   1      45.601  28.793  35.188  1.00  0.00     0.010 A 
ATOM     73  C   UNL A   1      45.253  26.452  36.680  1.00  0.00     0.020 A 
ATOM     74  C   UNL A   1      46.712  28.013  35.526  1.00  0.00     0.020 A 
ATOM     75  C   UNL A   1      46.533  26.861  36.292  1.00  0.00     0.054 A 
BRANCH  75  76
ATOM     76  S   UNL A   1      47.957  25.854  36.793  1.00  0.00     0.124 S 
ATOM     77  O   UNL A   1      49.051  26.509  36.081  1.00  0.00    -0.237 OA
ATOM     78  O   UNL A   1      47.968  26.013  38.245  1.00  0.00    -0.237 OA
ATOM     79  O   UNL A   1      47.618  24.514  36.318  1.00  0.00    -0.744 OA
ENDBRANCH  75  76
ENDBRANCH  56  70
BRANCH  57  80
ATOM     80  C   UNL A   1      36.126  33.584  33.027  1.00  0.00    -0.014 A 
ATOM     81  C   UNL A   1      34.857  33.075  33.358  1.00  0.00     0.010 A 
ATOM     82  C   UNL A   1      36.213  34.834  32.388  1.00  0.00     0.010 A 
ATOM     83  C   UNL A   1      33.701  33.798  33.049  1.00  0.00     0.020 A 
ATOM     84  C   UNL A   1      35.062  35.574  32.104  1.00  0.00     0.020 A 
ATOM     85  C   UNL A   1      33.811  35.047  32.431  1.00  0.00     0.054 A 
BRANCH  85  86
ATOM     86  S   UNL A   1      32.300  36.003  32.116  1.00  0.00     0.124 S 
ATOM     87  O   UNL A   1      32.551  37.225  32.872  1.00  0.00    -0.237 OA
ATOM     88  O   UNL A   1      32.315  36.144  30.662  1.00  0.00    -0.237 OA
ATOM     89  O   UNL A   1      31.238  35.148  32.640  1.00  0.00    -0.744 OA
ENDBRANCH  85  86
ENDBRANCH  57  80
BRANCH  69  90
ATOM     90  C   UNL A   1      40.543  33.895  38.430  1.00  0.00    -0.014 A 
ATOM     91  C   UNL A   1      40.004  33.525  39.675  1.00  0.00     0.010 A 
ATOM     92  C   UNL A   1      41.203  35.133  38.311  1.00  0.00     0.010 A 
ATOM     93  C   UNL A   1      40.077  34.399  40.764  1.00  0.00     0.020 A 
ATOM     94  C   UNL A   1      41.308  35.994  39.404  1.00  0.00     0.020 A 
ATOM     95  C   UNL A   1      40.724  35.630  40.619  1.00  0.00     0.054 A 
BRANCH  95  96
ATOM     96  S   UNL A   1      40.816  36.743  42.048  1.00  0.00     0.124 S 
ATOM     97  O   UNL A   1      39.428  36.766  42.503  1.00  0.00    -0.237 OA
ATOM     98  O   UNL A   1      41.756  36.056  42.930  1.00  0.00    -0.237 OA
ATOM     99  O   UNL A   1      41.307  37.997  41.480  1.00  0.00    -0.744 OA
ENDBRANCH  95  96
ENDBRANCH  69  90
ENDBRANCH  43  44
ENDBRANCH  35  38
ENDBRANCH  33  34
ENDBRANCH  32  33
ENDBRANCH   1  32
TORSDOF 19
ENDMDL
MODEL 2
REMARK VINA RESULT:     -11.6     11.865     18.708
REMARK SMILES COc1c(Cl)cc(C(=O)NCCCNC(=O)c2ccc(-c3c4nc(c(-c5ccc(S(=O)(=O)[O-])cc5)c5ccc([nH]5)c(-c5ccc(S(=O)(=O)[O-])cc5)c5nc(c(-c6ccc(S(=O)(=O)[O-])cc6)c6ccc3[nH]6)C=C5)C=C4)cc2)cc1NC(=S)NC(=O)c1cccc(C)c1OC
REMARK SMILES IDX 11 1 10 2 8 3 9 4 7 6 3 7 4 8 78 9 5 10 6 11 77 12 2 13 1 14
REMARK SMILES IDX 79 15 80 17 81 18 82 19 83 20 84 22 85 23 86 24 91 25 87 26
REMARK SMILES IDX 89 27 88 28 90 29 92 30 93 31 12 32 13 33 14 34 15 35 16 37
REMARK SMILES IDX 17 38 18 39 76 40 19 41 75 42 20 43 21 44 22 45 69 46 23 47
REMARK SMILES IDX 74 48 68 49 70 50 24 51 73 52 67 53 66 54 25 56 55 57 36 58
REMARK SMILES IDX 54 59 37 60 40 61 53 62 71 63 38 64 39 65 52 67 72 68 41 69
REMARK SMILES IDX 26 70 27 71 35 72 28 73 34 74 29 75 30 76 31 77 32 78 33 79
REMARK SMILES IDX 56 80 57 81 65 82 58 83 64 84 59 85 60 86 61 87 62 88 63 89
REMARK SMILES IDX 42 90 43 91 51 92 44 93 50 94 45 95 46 96 47 97 48 98 49 99
REMARK H PARENT 10 5 79 16 82 21 14 36 70 55 40 66
REMARK Flexibility Score: inf
ROOT
ATOM      1  C   UNL A   1      42.113  38.968  27.299  1.00  0.00     0.118 C 
ENDROOT
BRANCH   1   2
ATOM      2  N   UNL A   1      41.398  40.082  26.639  1.00  0.00    -0.352 N 
ATOM      3  C   UNL A   1      41.391  41.181  25.630  1.00  0.00     0.251 C 
ATOM      4  O   UNL A   1      40.158  41.392  25.953  1.00  0.00    -0.269 OA
ATOM      5  H   UNL A   1      40.511  40.112  27.063  1.00  0.00     0.163 HD
BRANCH   3   6
ATOM      6  C   UNL A   1      42.759  42.103  24.258  1.00  0.00     0.043 A 
ATOM      7  C   UNL A   1      44.716  43.122  22.042  1.00  0.00     0.160 A 
ATOM      8  C   UNL A   1      45.064  43.156  23.384  1.00  0.00     0.086 A 
ATOM      9  C   UNL A   1      43.474  42.605  21.789  1.00  0.00     0.085 A 
ATOM     10  Cl  UNL A   1      46.517  43.887  23.978  1.00  0.00    -0.080 Cl
ATOM     11  C   UNL A   1      44.181  42.607  24.391  1.00  0.00     0.038 A 
ATOM     12  C   UNL A   1      42.583  42.449  22.833  1.00  0.00     0.044 A 
BRANCH   7  13
ATOM     13  O   UNL A   1      45.343  43.645  20.955  1.00  0.00    -0.493 OA
ATOM     14  C   UNL A   1      45.493  45.052  20.888  1.00  0.00     0.278 C 
ENDBRANCH   7  13
BRANCH   9  15
ATOM     15  N   UNL A   1      42.980  42.278  20.516  1.00  0.00    -0.329 N 
ATOM     16  H   UNL A   1      42.819  41.318  20.363  1.00  0.00     0.169 HD
BRANCH  15  17
ATOM     17  C   UNL A   1      42.691  43.089  19.458  1.00  0.00     0.177 C 
ATOM     18  S   UNL A   1      41.265  43.969  19.518  1.00  0.00    -0.040 S 
BRANCH  17  19
ATOM     19  N   UNL A   1      43.522  43.321  18.362  1.00  0.00    -0.299 N 
ATOM     20  C   UNL A   1      43.559  44.033  17.142  1.00  0.00     0.261 C 
ATOM     21  H   UNL A   1      44.363  42.823  18.477  1.00  0.00     0.172 HD
ATOM     22  O   UNL A   1      43.499  43.383  16.096  1.00  0.00    -0.269 OA
BRANCH  20  23
ATOM     23  C   UNL A   1      43.620  45.539  17.019  1.00  0.00     0.082 A 
ATOM     24  C   UNL A   1      41.941  46.212  16.783  1.00  0.00     0.018 A 
ATOM     25  C   UNL A   1      44.968  46.678  17.592  1.00  0.00     0.134 A 
ATOM     26  C   UNL A   1      41.557  47.931  17.198  1.00  0.00     0.001 A 
ATOM     27  C   UNL A   1      44.545  48.372  18.110  1.00  0.00    -0.008 A 
ATOM     28  C   UNL A   1      42.857  49.010  17.922  1.00  0.00     0.007 A 
ATOM     29  C   UNL A   1      45.431  49.078  19.096  1.00  0.00     0.048 C 
BRANCH  25  30
ATOM     30  O   UNL A   1      46.230  46.329  18.026  1.00  0.00    -0.496 OA
ATOM     31  C   UNL A   1      47.193  45.919  17.076  1.00  0.00     0.278 C 
ENDBRANCH  25  30
ENDBRANCH  20  23
ENDBRANCH  17  19
ENDBRANCH  15  17
ENDBRANCH   9  15
ENDBRANCH   3   6
ENDBRANCH   1   2
BRANCH   1  32
ATOM     32  C   UNL A   1      43.620  39.158  27.411  1.00  0.00     0.042 C 
BRANCH  32  33
ATOM     33  C   UNL A   1      44.376  38.026  28.078  1.00  0.00     0.118 C 
BRANCH  33  34
ATOM     34  N   UNL A   1      45.772  38.348  28.324  1.00  0.00    -0.352 N 
ATOM     35  C   UNL A   1      46.871  37.553  28.529  1.00  0.00     0.251 C 
ATOM     36  H   UNL A   1      45.963  39.313  28.350  1.00  0.00     0.163 HD
ATOM     37  O   UNL A   1      47.909  38.095  28.912  1.00  0.00    -0.269 OA
BRANCH  35  38
ATOM     38  C   UNL A   1      46.853  36.084  28.306  1.00  0.00     0.039 A 
ATOM     39  C   UNL A   1      46.812  35.613  26.987  1.00  0.00     0.014 A 
ATOM     40  C   UNL A   1      46.779  35.161  29.352  1.00  0.00     0.014 A 
ATOM     41  C   UNL A   1      46.701  34.243  26.727  1.00  0.00     0.010 A 
ATOM     42  C   UNL A   1      46.795  33.792  29.094  1.00  0.00     0.010 A 
ATOM     43  C   UNL A   1      46.696  33.317  27.781  1.00  0.00    -0.014 A 
BRANCH  43  44
ATOM     44  C   UNL A   1      46.495  31.865  27.534  1.00  0.00     0.031 A 
ATOM     45  C   UNL A   1      45.122  31.258  27.700  1.00  0.00     0.074 A 
ATOM     46  C   UNL A   1      47.539  31.088  27.190  1.00  0.00     0.049 A 
ATOM     47  N   UNL A   1      44.741  30.016  27.533  1.00  0.00    -0.248 NA
ATOM     48  C   UNL A   1      44.041  32.155  28.142  1.00  0.00     0.031 C 
ATOM     49  C   UNL A   1      48.924  31.544  27.050  1.00  0.00     0.029 A 
ATOM     50  N   UNL A   1      47.599  29.750  26.893  1.00  0.00    -0.354 N 
ATOM     51  C   UNL A   1      43.394  29.982  27.879  1.00  0.00     0.074 A 
ATOM     52  C   UNL A   1      43.039  31.309  28.324  1.00  0.00     0.031 C 
ATOM     53  C   UNL A   1      49.688  30.512  26.659  1.00  0.00     0.029 A 
ATOM     54  C   UNL A   1      48.858  29.316  26.557  1.00  0.00     0.049 A 
ATOM     55  H   UNL A   1      46.813  29.157  26.920  1.00  0.00     0.167 HD
ATOM     56  C   UNL A   1      42.520  28.948  27.810  1.00  0.00     0.031 A 
ATOM     57  C   UNL A   1      49.297  28.093  26.200  1.00  0.00     0.031 A 
ATOM     58  C   UNL A   1      42.875  27.633  27.347  1.00  0.00     0.049 A 
ATOM     59  C   UNL A   1      48.308  26.965  26.093  1.00  0.00     0.074 A 
ATOM     60  C   UNL A   1      42.058  26.532  27.170  1.00  0.00     0.029 A 
ATOM     61  N   UNL A   1      44.157  27.243  26.986  1.00  0.00    -0.354 N 
ATOM     62  N   UNL A   1      47.021  26.971  26.352  1.00  0.00    -0.248 NA
ATOM     63  C   UNL A   1      48.824  25.675  25.621  1.00  0.00     0.031 C 
ATOM     64  C   UNL A   1      42.856  25.458  26.757  1.00  0.00     0.029 A 
ATOM     65  C   UNL A   1      44.158  25.911  26.608  1.00  0.00     0.049 A 
ATOM     66  H   UNL A   1      44.949  27.828  26.997  1.00  0.00     0.167 HD
ATOM     67  C   UNL A   1      46.567  25.692  26.047  1.00  0.00     0.074 A 
ATOM     68  C   UNL A   1      47.716  24.948  25.568  1.00  0.00     0.031 C 
ATOM     69  C   UNL A   1      45.313  25.183  26.145  1.00  0.00     0.031 A 
BRANCH  56  70
ATOM     70  C   UNL A   1      41.103  29.202  28.265  1.00  0.00    -0.014 A 
ATOM     71  C   UNL A   1      40.807  29.539  29.599  1.00  0.00     0.010 A 
ATOM     72  C   UNL A   1      40.048  29.107  27.340  1.00  0.00     0.010 A 
ATOM     73  C   UNL A   1      39.483  29.709  30.014  1.00  0.00     0.020 A 
ATOM     74  C   UNL A   1      38.724  29.311  27.741  1.00  0.00     0.020 A 
ATOM     75  C   UNL A   1      38.448  29.586  29.082  1.00  0.00     0.054 A 
BRANCH  75  76
ATOM     76  S   UNL A   1      36.738  29.805  29.647  1.00  0.00     0.124 S 
ATOM     77  O   UNL A   1      35.978  29.372  28.477  1.00  0.00    -0.237 OA
ATOM     78  O   UNL A   1      36.667  28.917  30.805  1.00  0.00    -0.237 OA
ATOM     79  O   UNL A   1      36.653  31.231  29.952  1.00  0.00    -0.744 OA
ENDBRANCH  75  76
ENDBRANCH  56  70
BRANCH  57  80
ATOM     80  C   UNL A   1      50.738  27.895  25.881  1.00  0.00    -0.014 A 
ATOM     81  C   UNL A   1      51.228  28.147  24.587  1.00  0.00     0.010 A 
ATOM     82  C   UNL A   1      51.639  27.502  26.887  1.00  0.00     0.010 A 
ATOM     83  C   UNL A   1      52.590  28.003  24.304  1.00  0.00     0.020 A 
ATOM     84  C   UNL A   1      53.005  27.385  26.616  1.00  0.00     0.020 A 
ATOM     85  C   UNL A   1      53.472  27.630  25.323  1.00  0.00     0.054 A 
BRANCH  85  86
ATOM     86  S   UNL A   1      55.246  27.530  24.953  1.00  0.00     0.124 S 
ATOM     87  O   UNL A   1      55.374  28.453  23.829  1.00  0.00    -0.237 OA
ATOM     88  O   UNL A   1      55.854  27.970  26.205  1.00  0.00    -0.237 OA
ATOM     89  O   UNL A   1      55.449  26.120  24.631  1.00  0.00    -0.744 OA
ENDBRANCH  85  86
ENDBRANCH  57  80
BRANCH  69  90
ATOM     90  C   UNL A   1      45.108  23.763  25.686  1.00  0.00    -0.014 A 
ATOM     91  C   UNL A   1      44.798  23.457  24.349  1.00  0.00     0.010 A 
ATOM     92  C   UNL A   1      45.264  22.712  26.610  1.00  0.00     0.010 A 
ATOM     93  C   UNL A   1      44.594  22.131  23.956  1.00  0.00     0.020 A 
ATOM     94  C   UNL A   1      45.095  21.384  26.215  1.00  0.00     0.020 A 
ATOM     95  C   UNL A   1      44.739  21.103  24.894  1.00  0.00     0.054 A 
BRANCH  95  96
ATOM     96  S   UNL A   1      44.481  19.390  24.360  1.00  0.00     0.124 S 
ATOM     97  O   UNL A   1      45.589  18.699  25.013  1.00  0.00    -0.237 OA
ATOM     98  O   UNL A   1      43.152  19.087  24.886  1.00  0.00    -0.237 OA
ATOM     99  O   UNL A   1      44.565  19.464  22.902  1.00  0.00    -0.744 OA
ENDBRANCH  95  96
ENDBRANCH  69  90
ENDBRANCH  43  44
ENDBRANCH  35  38
ENDBRANCH  33  34
ENDBRANCH  32  33
ENDBRANCH   1  32
TORSDOF 19
ENDMDL
MODEL 3
REMARK VINA RESULT:     -11.2      6.888     12.973
REMARK SMILES COc1c(Cl)cc(C(=O)NCCCNC(=O)c2ccc(-c3c4nc(c(-c5ccc(S(=O)(=O)[O-])cc5)c5ccc([nH]5)c(-c5ccc(S(=O)(=O)[O-])cc5)c5nc(c(-c6ccc(S(=O)(=O)[O-])cc6)c6ccc3[nH]6)C=C5)C=C4)cc2)cc1NC(=S)NC(=O)c1cccc(C)c1OC
REMARK SMILES IDX 11 1 10 2 8 3 9 4 7 6 3 7 4 8 78 9 5 10 6 11 77 12 2 13 1 14
REMARK SMILES IDX 79 15 80 17 81 18 82 19 83 20 84 22 85 23 86 24 91 25 87 26
REMARK SMILES IDX 89 27 88 28 90 29 92 30 93 31 12 32 13 33 14 34 15 35 16 37
REMARK SMILES IDX 17 38 18 39 76 40 19 41 75 42 20 43 21 44 22 45 69 46 23 47
REMARK SMILES IDX 74 48 68 49 70 50 24 51 73 52 67 53 66 54 25 56 55 57 36 58
REMARK SMILES IDX 54 59 37 60 40 61 53 62 71 63 38 64 39 65 52 67 72 68 41 69
REMARK SMILES IDX 26 70 27 71 35 72 28 73 34 74 29 75 30 76 31 77 32 78 33 79
REMARK SMILES IDX 56 80 57 81 65 82 58 83 64 84 59 85 60 86 61 87 62 88 63 89
REMARK SMILES IDX 42 90 43 91 51 92 44 93 50 94 45 95 46 96 47 97 48 98 49 99
REMARK H PARENT 10 5 79 16 82 21 14 36 70 55 40 66
REMARK Flexibility Score: inf
ROOT
ATOM      1  C   UNL A   1      34.725  31.720  28.085  1.00  0.00     0.118 C 
ENDROOT
BRANCH   1   2
ATOM      2  N   UNL A   1      33.532  32.531  27.759  1.00  0.00    -0.352 N 
ATOM      3  C   UNL A   1      32.226  32.661  27.049  1.00  0.00     0.251 C 
ATOM      4  O   UNL A   1      32.101  33.817  27.612  1.00  0.00    -0.269 OA
ATOM      5  H   UNL A   1      33.657  33.384  28.233  1.00  0.00     0.163 HD
BRANCH   3   6
ATOM      6  C   UNL A   1      31.036  31.530  25.666  1.00  0.00     0.043 A 
ATOM      7  C   UNL A   1      29.641  29.775  23.488  1.00  0.00     0.160 A 
ATOM      8  C   UNL A   1      29.246  31.083  23.723  1.00  0.00     0.086 A 
ATOM      9  C   UNL A   1      30.677  29.344  24.271  1.00  0.00     0.085 A 
ATOM     10  Cl  UNL A   1      27.874  31.819  22.966  1.00  0.00    -0.080 Cl
ATOM     11  C   UNL A   1      29.953  31.909  24.678  1.00  0.00     0.038 A 
ATOM     12  C   UNL A   1      31.033  30.081  25.384  1.00  0.00     0.044 A 
BRANCH   7  13
ATOM     13  O   UNL A   1      29.080  28.810  22.711  1.00  0.00    -0.493 OA
ATOM     14  C   UNL A   1      27.836  28.270  23.118  1.00  0.00     0.278 C 
ENDBRANCH   7  13
BRANCH   9  15
ATOM     15  N   UNL A   1      31.385  28.145  24.085  1.00  0.00    -0.329 N 
ATOM     16  H   UNL A   1      31.291  27.487  24.811  1.00  0.00     0.169 HD
BRANCH  15  17
ATOM     17  C   UNL A   1      32.185  27.757  23.051  1.00  0.00     0.177 C 
ATOM     18  S   UNL A   1      33.342  28.844  22.509  1.00  0.00    -0.040 S 
BRANCH  17  19
ATOM     19  N   UNL A   1      32.187  26.496  22.455  1.00  0.00    -0.299 N 
ATOM     20  C   UNL A   1      33.062  25.438  22.121  1.00  0.00     0.261 C 
ATOM     21  H   UNL A   1      31.272  26.267  22.172  1.00  0.00     0.172 HD
ATOM     22  O   UNL A   1      33.310  25.253  20.928  1.00  0.00    -0.269 OA
BRANCH  20  23
ATOM     23  C   UNL A   1      33.758  24.543  23.121  1.00  0.00     0.082 A 
ATOM     24  C   UNL A   1      34.335  25.528  24.543  1.00  0.00     0.018 A 
ATOM     25  C   UNL A   1      33.597  22.705  23.313  1.00  0.00     0.134 A 
ATOM     26  C   UNL A   1      34.646  24.758  26.150  1.00  0.00     0.001 A 
ATOM     27  C   UNL A   1      33.805  21.958  24.962  1.00  0.00    -0.008 A 
ATOM     28  C   UNL A   1      34.325  22.963  26.380  1.00  0.00     0.007 A 
ATOM     29  C   UNL A   1      33.123  20.656  25.267  1.00  0.00     0.048 C 
BRANCH  25  30
ATOM     30  O   UNL A   1      32.988  21.823  22.445  1.00  0.00    -0.496 OA
ATOM     31  C   UNL A   1      31.577  21.740  22.430  1.00  0.00     0.278 C 
ENDBRANCH  25  30
ENDBRANCH  20  23
ENDBRANCH  17  19
ENDBRANCH  15  17
ENDBRANCH   9  15
ENDBRANCH   3   6
ENDBRANCH   1   2
BRANCH   1  32
ATOM     32  C   UNL A   1      34.784  30.368  27.388  1.00  0.00     0.042 C 
BRANCH  32  33
ATOM     33  C   UNL A   1      35.873  29.428  27.870  1.00  0.00     0.118 C 
BRANCH  33  34
ATOM     34  N   UNL A   1      36.053  29.465  29.312  1.00  0.00    -0.352 N 
ATOM     35  C   UNL A   1      37.133  29.171  30.105  1.00  0.00     0.251 C 
ATOM     36  H   UNL A   1      35.254  29.753  29.809  1.00  0.00     0.163 HD
ATOM     37  O   UNL A   1      36.949  29.100  31.321  1.00  0.00    -0.269 OA
BRANCH  35  38
ATOM     38  C   UNL A   1      38.495  28.942  29.556  1.00  0.00     0.039 A 
ATOM     39  C   UNL A   1      39.451  28.338  30.383  1.00  0.00     0.014 A 
ATOM     40  C   UNL A   1      38.885  29.387  28.291  1.00  0.00     0.014 A 
ATOM     41  C   UNL A   1      40.771  28.185  29.946  1.00  0.00     0.010 A 
ATOM     42  C   UNL A   1      40.164  29.122  27.808  1.00  0.00     0.010 A 
ATOM     43  C   UNL A   1      41.139  28.572  28.648  1.00  0.00    -0.014 A 
BRANCH  43  44
ATOM     44  C   UNL A   1      42.551  28.496  28.191  1.00  0.00     0.031 A 
ATOM     45  C   UNL A   1      43.460  29.692  28.353  1.00  0.00     0.074 A 
ATOM     46  C   UNL A   1      43.012  27.374  27.608  1.00  0.00     0.049 A 
ATOM     47  N   UNL A   1      44.719  29.827  28.019  1.00  0.00    -0.248 NA
ATOM     48  C   UNL A   1      42.869  30.908  28.939  1.00  0.00     0.031 C 
ATOM     49  C   UNL A   1      42.221  26.170  27.344  1.00  0.00     0.029 A 
ATOM     50  N   UNL A   1      44.261  27.060  27.132  1.00  0.00    -0.354 N 
ATOM     51  C   UNL A   1      45.054  31.142  28.323  1.00  0.00     0.074 A 
ATOM     52  C   UNL A   1      43.854  31.782  28.810  1.00  0.00     0.031 C 
ATOM     53  C   UNL A   1      43.011  25.238  26.789  1.00  0.00     0.029 A 
ATOM     54  C   UNL A   1      44.353  25.788  26.623  1.00  0.00     0.049 A 
ATOM     55  H   UNL A   1      45.018  27.689  27.152  1.00  0.00     0.167 HD
ATOM     56  C   UNL A   1      46.257  31.760  28.232  1.00  0.00     0.031 A 
ATOM     57  C   UNL A   1      45.401  25.133  26.086  1.00  0.00     0.031 A 
ATOM     58  C   UNL A   1      47.453  31.111  27.765  1.00  0.00     0.049 A 
ATOM     59  C   UNL A   1      46.738  25.820  26.026  1.00  0.00     0.074 A 
ATOM     60  C   UNL A   1      48.738  31.618  27.696  1.00  0.00     0.029 A 
ATOM     61  N   UNL A   1      47.510  29.810  27.287  1.00  0.00    -0.354 N 
ATOM     62  N   UNL A   1      47.054  27.041  26.390  1.00  0.00    -0.248 NA
ATOM     63  C   UNL A   1      47.863  25.033  25.509  1.00  0.00     0.031 C 
ATOM     64  C   UNL A   1      49.562  30.643  27.122  1.00  0.00     0.029 A 
ATOM     65  C   UNL A   1      48.804  29.503  26.900  1.00  0.00     0.049 A 
ATOM     66  H   UNL A   1      46.743  29.195  27.231  1.00  0.00     0.167 HD
ATOM     67  C   UNL A   1      48.422  27.160  26.172  1.00  0.00     0.074 A 
ATOM     68  C   UNL A   1      48.873  25.880  25.661  1.00  0.00     0.031 C 
ATOM     69  C   UNL A   1      49.233  28.227  26.384  1.00  0.00     0.031 A 
BRANCH  56  70
ATOM     70  C   UNL A   1      46.325  33.214  28.630  1.00  0.00    -0.014 A 
ATOM     71  C   UNL A   1      46.272  34.243  27.671  1.00  0.00     0.010 A 
ATOM     72  C   UNL A   1      46.441  33.559  29.989  1.00  0.00     0.010 A 
ATOM     73  C   UNL A   1      46.399  35.581  28.055  1.00  0.00     0.020 A 
ATOM     74  C   UNL A   1      46.533  34.898  30.382  1.00  0.00     0.020 A 
ATOM     75  C   UNL A   1      46.538  35.899  29.409  1.00  0.00     0.054 A 
BRANCH  75  76
ATOM     76  S   UNL A   1      46.708  37.644  29.880  1.00  0.00     0.124 S 
ATOM     77  O   UNL A   1      46.653  37.567  31.338  1.00  0.00    -0.237 OA
ATOM     78  O   UNL A   1      48.009  38.002  29.320  1.00  0.00    -0.237 OA
ATOM     79  O   UNL A   1      45.561  38.288  29.246  1.00  0.00    -0.744 OA
ENDBRANCH  75  76
ENDBRANCH  56  70
BRANCH  57  80
ATOM     80  C   UNL A   1      45.225  23.735  25.605  1.00  0.00    -0.014 A 
ATOM     81  C   UNL A   1      45.576  22.644  26.419  1.00  0.00     0.010 A 
ATOM     82  C   UNL A   1      44.652  23.488  24.344  1.00  0.00     0.010 A 
ATOM     83  C   UNL A   1      45.366  21.334  25.980  1.00  0.00     0.020 A 
ATOM     84  C   UNL A   1      44.413  22.180  23.913  1.00  0.00     0.020 A 
ATOM     85  C   UNL A   1      44.777  21.110  24.732  1.00  0.00     0.054 A 
BRANCH  85  86
ATOM     86  S   UNL A   1      44.438  19.402  24.219  1.00  0.00     0.124 S 
ATOM     87  O   UNL A   1      45.549  18.676  24.826  1.00  0.00    -0.237 OA
ATOM     88  O   UNL A   1      43.124  19.152  24.805  1.00  0.00    -0.237 OA
ATOM     89  O   UNL A   1      44.458  19.473  22.760  1.00  0.00    -0.744 OA
ENDBRANCH  85  86
ENDBRANCH  57  80
BRANCH  69  90
ATOM     90  C   UNL A   1      50.701  28.043  26.102  1.00  0.00    -0.014 A 
ATOM     91  C   UNL A   1      51.601  27.644  27.106  1.00  0.00     0.010 A 
ATOM     92  C   UNL A   1      51.181  28.243  24.794  1.00  0.00     0.010 A 
ATOM     93  C   UNL A   1      52.961  27.501  26.820  1.00  0.00     0.020 A 
ATOM     94  C   UNL A   1      52.534  28.068  24.495  1.00  0.00     0.020 A 
ATOM     95  C   UNL A   1      53.419  27.719  25.517  1.00  0.00     0.054 A 
BRANCH  95  96
ATOM     96  S   UNL A   1      55.187  27.516  25.166  1.00  0.00     0.124 S 
ATOM     97  O   UNL A   1      55.689  26.994  26.434  1.00  0.00    -0.237 OA
ATOM     98  O   UNL A   1      55.186  26.570  24.052  1.00  0.00    -0.237 OA
ATOM     99  O   UNL A   1      55.631  28.867  24.828  1.00  0.00    -0.744 OA
ENDBRANCH  95  96
ENDBRANCH  69  90
ENDBRANCH  43  44
ENDBRANCH  35  38
ENDBRANCH  33  34
ENDBRANCH  32  33
ENDBRANCH   1  32
TORSDOF 19
ENDMDL
