MODEL 1
REMARK VINA RESULT:      -9.3      0.000      0.000
REMARK SMILES C#CCN(CC(=O)NCCCNC(=O)c1ccc(-c2c3nc(c(-c4ccc(S(=O)(=O)[O-])cc4)c4ccc([nH]4)c(-c4ccc(S(=O)(=O)[O-])cc4)c4nc(c(-c5ccc(S(=O)(=O)[O-])cc5)c5ccc2[nH]5)C=C4)C=C3)cc1)C(=O)[C@H]1C[NH2+]C[C@H]1C
REMARK SMILES IDX 10 1 9 2 8 3 6 4 7 5 5 7 4 8 3 9 2 10 1 11 75 12 76 13 77 14
REMARK SMILES IDX 78 15 81 16 79 17 80 18 82 19 11 22 12 23 13 24 14 26 15 27
REMARK SMILES IDX 16 28 74 29 17 30 73 31 18 32 19 33 20 34 67 35 21 36 72 37
REMARK SMILES IDX 66 38 68 39 22 40 71 41 65 42 64 43 23 45 53 46 34 47 52 48
REMARK SMILES IDX 35 49 38 50 51 51 69 52 36 53 37 54 50 56 70 57 39 58 24 59
REMARK SMILES IDX 25 60 33 61 26 62 32 63 27 64 28 65 29 66 30 67 31 68 54 69
REMARK SMILES IDX 55 70 63 71 56 72 62 73 57 74 58 75 59 76 60 77 61 78 40 79
REMARK SMILES IDX 41 80 49 81 42 82 48 83 43 84 44 85 45 86 46 87 47 88
REMARK H PARENT 8 6 79 20 79 21 12 25 68 44 38 55
REMARK Flexibility Score: inf
ROOT
ATOM      1  C   UNL A   1      33.232  27.907  25.675  1.00  0.00     0.042 C 
ENDROOT
BRANCH   1   2
ATOM      2  C   UNL A   1      31.876  27.241  25.451  1.00  0.00     0.117 C 
BRANCH   2   3
ATOM      3  N   UNL A   1      31.477  27.194  24.058  1.00  0.00    -0.354 N 
ATOM      4  C   UNL A   1      31.205  26.119  23.264  1.00  0.00     0.239 C 
ATOM      5  O   UNL A   1      30.666  26.332  22.174  1.00  0.00    -0.273 OA
ATOM      6  H   UNL A   1      31.389  28.070  23.618  1.00  0.00     0.163 HD
BRANCH   4   7
ATOM      7  C   UNL A   1      31.468  24.678  23.731  1.00  0.00     0.220 C 
BRANCH   7   8
ATOM      8  N   UNL A   1      32.720  24.115  23.224  1.00  0.00    -0.322 N 
BRANCH   8   9
ATOM      9  C   UNL A   1      32.650  22.847  22.508  1.00  0.00     0.209 C 
BRANCH   9  10
ATOM     10  C   UNL A   1      32.709  21.670  23.468  1.00  0.00    -0.085 C 
ATOM     11  C   UNL A   1      32.760  20.661  24.291  1.00  0.00     0.006 C 
ENDBRANCH   9  10
ENDBRANCH   8   9
BRANCH   8  12
ATOM     12  C   UNL A   1      33.967  24.729  23.343  1.00  0.00     0.233 C 
ATOM     13  O   UNL A   1      34.451  25.358  22.401  1.00  0.00    -0.274 OA
BRANCH  12  14
ATOM     14  C   UNL A   1      34.748  24.569  24.647  1.00  0.00     0.142 C 
ATOM     15  C   UNL A   1      33.848  23.980  25.730  1.00  0.00     0.274 C 
ATOM     16  C   UNL A   1      35.973  23.630  24.636  1.00  0.00     0.059 C 
ATOM     17  N   UNL A   1      34.790  23.402  26.697  1.00  0.00    -0.345 N 
ATOM     18  C   UNL A   1      35.768  22.713  25.848  1.00  0.00     0.264 C 
ATOM     19  C   UNL A   1      36.250  22.826  23.373  1.00  0.00     0.015 C 
ATOM     20  H   UNL A   1      34.319  22.745  27.319  1.00  0.00     0.346 HD
ATOM     21  H   UNL A   1      35.214  24.102  27.306  1.00  0.00     0.346 HD
ENDBRANCH  12  14
ENDBRANCH   8  12
ENDBRANCH   7   8
ENDBRANCH   4   7
ENDBRANCH   2   3
ENDBRANCH   1   2
BRANCH   1  22
ATOM     22  C   UNL A   1      33.580  28.190  27.134  1.00  0.00     0.118 C 
BRANCH  22  23
ATOM     23  N   UNL A   1      33.491  29.604  27.465  1.00  0.00    -0.352 N 
ATOM     24  C   UNL A   1      34.394  30.448  28.056  1.00  0.00     0.251 C 
ATOM     25  H   UNL A   1      32.635  30.025  27.224  1.00  0.00     0.163 HD
ATOM     26  O   UNL A   1      34.002  31.563  28.408  1.00  0.00    -0.269 OA
BRANCH  24  27
ATOM     27  C   UNL A   1      35.807  30.063  28.283  1.00  0.00     0.039 A 
ATOM     28  C   UNL A   1      36.188  29.671  29.572  1.00  0.00     0.014 A 
ATOM     29  C   UNL A   1      36.778  30.162  27.281  1.00  0.00     0.014 A 
ATOM     30  C   UNL A   1      37.520  29.350  29.846  1.00  0.00     0.010 A 
ATOM     31  C   UNL A   1      38.095  29.774  27.539  1.00  0.00     0.010 A 
ATOM     32  C   UNL A   1      38.484  29.381  28.827  1.00  0.00    -0.014 A 
BRANCH  32  33
ATOM     33  C   UNL A   1      39.901  29.029  29.106  1.00  0.00     0.031 A 
ATOM     34  C   UNL A   1      40.827  30.034  29.739  1.00  0.00     0.074 A 
ATOM     35  C   UNL A   1      40.367  27.811  28.763  1.00  0.00     0.049 A 
ATOM     36  N   UNL A   1      42.095  29.912  30.042  1.00  0.00    -0.248 NA
ATOM     37  C   UNL A   1      40.261  31.355  30.054  1.00  0.00     0.031 C 
ATOM     38  C   UNL A   1      39.585  26.759  28.111  1.00  0.00     0.029 A 
ATOM     39  N   UNL A   1      41.612  27.253  28.913  1.00  0.00    -0.354 N 
ATOM     40  C   UNL A   1      42.482  31.142  30.566  1.00  0.00     0.074 A 
ATOM     41  C   UNL A   1      41.325  32.008  30.499  1.00  0.00     0.031 C 
ATOM     42  C   UNL A   1      40.360  25.674  27.943  1.00  0.00     0.029 A 
ATOM     43  C   UNL A   1      41.700  25.964  28.444  1.00  0.00     0.049 A 
ATOM     44  H   UNL A   1      42.371  27.732  29.319  1.00  0.00     0.167 HD
ATOM     45  C   UNL A   1      43.682  31.511  31.072  1.00  0.00     0.031 A 
ATOM     46  C   UNL A   1      42.741  25.110  28.419  1.00  0.00     0.031 A 
ATOM     47  C   UNL A   1      44.829  30.646  31.153  1.00  0.00     0.049 A 
ATOM     48  C   UNL A   1      44.062  25.540  28.992  1.00  0.00     0.074 A 
ATOM     49  C   UNL A   1      46.073  30.911  31.699  1.00  0.00     0.029 A 
ATOM     50  N   UNL A   1      44.873  29.345  30.674  1.00  0.00    -0.354 N 
ATOM     51  N   UNL A   1      44.388  26.688  29.538  1.00  0.00    -0.248 NA
ATOM     52  C   UNL A   1      45.152  24.555  28.957  1.00  0.00     0.031 C 
ATOM     53  C   UNL A   1      46.882  29.784  31.515  1.00  0.00     0.029 A 
ATOM     54  C   UNL A   1      46.127  28.801  30.896  1.00  0.00     0.049 A 
ATOM     55  H   UNL A   1      44.123  28.877  30.240  1.00  0.00     0.167 HD
ATOM     56  C   UNL A   1      45.716  26.555  29.930  1.00  0.00     0.074 A 
ATOM     57  C   UNL A   1      46.126  25.212  29.574  1.00  0.00     0.031 C 
ATOM     58  C   UNL A   1      46.522  27.465  30.531  1.00  0.00     0.031 A 
BRANCH  45  59
ATOM     59  C   UNL A   1      43.816  32.924  31.579  1.00  0.00    -0.014 A 
ATOM     60  C   UNL A   1      43.590  33.231  32.934  1.00  0.00     0.010 A 
ATOM     61  C   UNL A   1      44.201  33.951  30.699  1.00  0.00     0.010 A 
ATOM     62  C   UNL A   1      43.703  34.547  33.389  1.00  0.00     0.020 A 
ATOM     63  C   UNL A   1      44.340  35.265  31.157  1.00  0.00     0.020 A 
ATOM     64  C   UNL A   1      44.071  35.558  32.496  1.00  0.00     0.054 A 
BRANCH  64  65
ATOM     65  S   UNL A   1      44.223  37.256  33.116  1.00  0.00     0.124 S 
ATOM     66  O   UNL A   1      42.921  37.462  33.746  1.00  0.00    -0.237 OA
ATOM     67  O   UNL A   1      45.356  37.165  34.034  1.00  0.00    -0.237 OA
ATOM     68  O   UNL A   1      44.464  38.045  31.911  1.00  0.00    -0.744 OA
ENDBRANCH  64  65
ENDBRANCH  45  59
BRANCH  46  69
ATOM     69  C   UNL A   1      42.565  23.747  27.849  1.00  0.00    -0.014 A 
ATOM     70  C   UNL A   1      42.301  22.652  28.692  1.00  0.00     0.010 A 
ATOM     71  C   UNL A   1      42.643  23.539  26.460  1.00  0.00     0.010 A 
ATOM     72  C   UNL A   1      42.134  21.372  28.158  1.00  0.00     0.020 A 
ATOM     73  C   UNL A   1      42.453  22.263  25.921  1.00  0.00     0.020 A 
ATOM     74  C   UNL A   1      42.210  21.185  26.774  1.00  0.00     0.054 A 
BRANCH  74  75
ATOM     75  S   UNL A   1      41.933  19.525  26.097  1.00  0.00     0.124 S 
ATOM     76  O   UNL A   1      40.493  19.529  25.862  1.00  0.00    -0.237 OA
ATOM     77  O   UNL A   1      42.770  19.527  24.900  1.00  0.00    -0.237 OA
ATOM     78  O   UNL A   1      42.393  18.641  27.166  1.00  0.00    -0.744 OA
ENDBRANCH  74  75
ENDBRANCH  46  69
BRANCH  58  79
ATOM     79  C   UNL A   1      47.924  27.029  30.862  1.00  0.00    -0.014 A 
ATOM     80  C   UNL A   1      48.980  27.230  29.956  1.00  0.00     0.010 A 
ATOM     81  C   UNL A   1      48.193  26.446  32.114  1.00  0.00     0.010 A 
ATOM     82  C   UNL A   1      50.277  26.826  30.284  1.00  0.00     0.020 A 
ATOM     83  C   UNL A   1      49.493  26.063  32.454  1.00  0.00     0.020 A 
ATOM     84  C   UNL A   1      50.524  26.242  31.530  1.00  0.00     0.054 A 
BRANCH  84  85
ATOM     85  S   UNL A   1      52.222  25.756  31.948  1.00  0.00     0.124 S 
ATOM     86  O   UNL A   1      52.936  26.051  30.709  1.00  0.00    -0.237 OA
ATOM     87  O   UNL A   1      52.538  26.627  33.078  1.00  0.00    -0.237 OA
ATOM     88  O   UNL A   1      52.103  24.338  32.278  1.00  0.00    -0.744 OA
ENDBRANCH  84  85
ENDBRANCH  58  79
ENDBRANCH  32  33
ENDBRANCH  24  27
ENDBRANCH  22  23
ENDBRANCH   1  22
TORSDOF 18
ENDMDL
MODEL 2
REMARK VINA RESULT:      -9.3      2.470      9.190
REMARK SMILES C#CCN(CC(=O)NCCCNC(=O)c1ccc(-c2c3nc(c(-c4ccc(S(=O)(=O)[O-])cc4)c4ccc([nH]4)c(-c4ccc(S(=O)(=O)[O-])cc4)c4nc(c(-c5ccc(S(=O)(=O)[O-])cc5)c5ccc2[nH]5)C=C4)C=C3)cc1)C(=O)[C@H]1C[NH2+]C[C@H]1C
REMARK SMILES IDX 10 1 9 2 8 3 6 4 7 5 5 7 4 8 3 9 2 10 1 11 75 12 76 13 77 14
REMARK SMILES IDX 78 15 81 16 79 17 80 18 82 19 11 22 12 23 13 24 14 26 15 27
REMARK SMILES IDX 16 28 74 29 17 30 73 31 18 32 19 33 20 34 67 35 21 36 72 37
REMARK SMILES IDX 66 38 68 39 22 40 71 41 65 42 64 43 23 45 53 46 34 47 52 48
REMARK SMILES IDX 35 49 38 50 51 51 69 52 36 53 37 54 50 56 70 57 39 58 24 59
REMARK SMILES IDX 25 60 33 61 26 62 32 63 27 64 28 65 29 66 30 67 31 68 54 69
REMARK SMILES IDX 55 70 63 71 56 72 62 73 57 74 58 75 59 76 60 77 61 78 40 79
REMARK SMILES IDX 41 80 49 81 42 82 48 83 43 84 44 85 45 86 46 87 47 88
REMARK H PARENT 8 6 79 20 79 21 12 25 68 44 38 55
REMARK Flexibility Score: inf
ROOT
ATOM      1  C   UNL A   1      35.146  23.301  24.884  1.00  0.00     0.042 C 
ENDROOT
BRANCH   1   2
ATOM      2  C   UNL A   1      34.061  24.337  24.602  1.00  0.00     0.117 C 
BRANCH   2   3
ATOM      3  N   UNL A   1      34.122  24.893  23.265  1.00  0.00    -0.354 N 
ATOM      4  C   UNL A   1      33.167  25.551  22.548  1.00  0.00     0.239 C 
ATOM      5  O   UNL A   1      33.520  26.130  21.516  1.00  0.00    -0.273 OA
ATOM      6  H   UNL A   1      34.985  24.778  22.804  1.00  0.00     0.163 HD
BRANCH   4   7
ATOM      7  C   UNL A   1      31.713  25.656  23.038  1.00  0.00     0.220 C 
BRANCH   7   8
ATOM      8  N   UNL A   1      31.414  26.915  23.722  1.00  0.00    -0.322 N 
BRANCH   8   9
ATOM      9  C   UNL A   1      30.891  28.013  22.917  1.00  0.00     0.209 C 
BRANCH   9  10
ATOM     10  C   UNL A   1      29.377  28.101  23.027  1.00  0.00    -0.085 C 
ATOM     11  C   UNL A   1      28.079  28.177  23.121  1.00  0.00     0.006 C 
ENDBRANCH   9  10
ENDBRANCH   8   9
BRANCH   8  12
ATOM     12  C   UNL A   1      31.557  27.123  25.094  1.00  0.00     0.233 C 
ATOM     13  O   UNL A   1      31.436  26.188  25.886  1.00  0.00    -0.274 OA
BRANCH  12  14
ATOM     14  C   UNL A   1      31.820  28.539  25.603  1.00  0.00     0.142 C 
ATOM     15  C   UNL A   1      31.734  28.575  27.126  1.00  0.00     0.274 C 
ATOM     16  C   UNL A   1      33.200  29.164  25.299  1.00  0.00     0.059 C 
ATOM     17  N   UNL A   1      32.495  29.775  27.496  1.00  0.00    -0.345 N 
ATOM     18  C   UNL A   1      33.692  29.692  26.652  1.00  0.00     0.264 C 
ATOM     19  C   UNL A   1      34.251  28.291  24.628  1.00  0.00     0.015 C 
ATOM     20  H   UNL A   1      32.745  29.759  28.485  1.00  0.00     0.346 HD
ATOM     21  H   UNL A   1      31.970  30.638  27.359  1.00  0.00     0.346 HD
ENDBRANCH  12  14
ENDBRANCH   8  12
ENDBRANCH   7   8
ENDBRANCH   4   7
ENDBRANCH   2   3
ENDBRANCH   1   2
BRANCH   1  22
ATOM     22  C   UNL A   1      36.306  23.797  25.744  1.00  0.00     0.118 C 
BRANCH  22  23
ATOM     23  N   UNL A   1      37.366  22.810  25.876  1.00  0.00    -0.352 N 
ATOM     24  C   UNL A   1      38.673  22.939  26.265  1.00  0.00     0.251 C 
ATOM     25  H   UNL A   1      37.097  21.891  25.647  1.00  0.00     0.163 HD
ATOM     26  O   UNL A   1      39.425  21.976  26.103  1.00  0.00    -0.269 OA
BRANCH  24  27
ATOM     27  C   UNL A   1      39.201  24.189  26.862  1.00  0.00     0.039 A 
ATOM     28  C   UNL A   1      38.887  24.469  28.198  1.00  0.00     0.014 A 
ATOM     29  C   UNL A   1      39.921  25.127  26.116  1.00  0.00     0.014 A 
ATOM     30  C   UNL A   1      39.318  25.660  28.788  1.00  0.00     0.010 A 
ATOM     31  C   UNL A   1      40.410  26.285  26.727  1.00  0.00     0.010 A 
ATOM     32  C   UNL A   1      40.100  26.572  28.063  1.00  0.00    -0.014 A 
BRANCH  32  33
ATOM     33  C   UNL A   1      40.573  27.835  28.687  1.00  0.00     0.031 A 
ATOM     34  C   UNL A   1      41.987  27.953  29.193  1.00  0.00     0.074 A 
ATOM     35  C   UNL A   1      39.722  28.871  28.827  1.00  0.00     0.049 A 
ATOM     36  N   UNL A   1      42.572  28.968  29.779  1.00  0.00    -0.248 NA
ATOM     37  C   UNL A   1      42.851  26.772  29.041  1.00  0.00     0.031 C 
ATOM     38  C   UNL A   1      38.318  28.874  28.412  1.00  0.00     0.029 A 
ATOM     39  N   UNL A   1      39.914  30.122  29.358  1.00  0.00    -0.354 N 
ATOM     40  C   UNL A   1      43.862  28.543  30.080  1.00  0.00     0.074 A 
ATOM     41  C   UNL A   1      43.960  27.165  29.651  1.00  0.00     0.031 C 
ATOM     42  C   UNL A   1      37.783  30.078  28.679  1.00  0.00     0.029 A 
ATOM     43  C   UNL A   1      38.794  30.919  29.312  1.00  0.00     0.049 A 
ATOM     44  H   UNL A   1      40.772  30.421  29.737  1.00  0.00     0.167 HD
ATOM     45  C   UNL A   1      44.878  29.239  30.644  1.00  0.00     0.031 A 
ATOM     46  C   UNL A   1      38.601  32.184  29.732  1.00  0.00     0.031 A 
ATOM     47  C   UNL A   1      44.786  30.614  31.057  1.00  0.00     0.049 A 
ATOM     48  C   UNL A   1      39.745  32.939  30.349  1.00  0.00     0.074 A 
ATOM     49  C   UNL A   1      45.777  31.422  31.588  1.00  0.00     0.029 A 
ATOM     50  N   UNL A   1      43.637  31.386  30.985  1.00  0.00    -0.354 N 
ATOM     51  N   UNL A   1      40.974  32.537  30.569  1.00  0.00    -0.248 NA
ATOM     52  C   UNL A   1      39.478  34.323  30.766  1.00  0.00     0.031 C 
ATOM     53  C   UNL A   1      45.216  32.672  31.875  1.00  0.00     0.029 A 
ATOM     54  C   UNL A   1      43.888  32.656  31.478  1.00  0.00     0.049 A 
ATOM     55  H   UNL A   1      42.770  31.078  30.635  1.00  0.00     0.167 HD
ATOM     56  C   UNL A   1      41.633  33.625  31.129  1.00  0.00     0.074 A 
ATOM     57  C   UNL A   1      40.671  34.707  31.199  1.00  0.00     0.031 C 
ATOM     58  C   UNL A   1      42.919  33.719  31.548  1.00  0.00     0.031 A 
BRANCH  45  59
ATOM     59  C   UNL A   1      46.183  28.516  30.850  1.00  0.00    -0.014 A 
ATOM     60  C   UNL A   1      47.182  28.529  29.858  1.00  0.00     0.010 A 
ATOM     61  C   UNL A   1      46.428  27.841  32.060  1.00  0.00     0.010 A 
ATOM     62  C   UNL A   1      48.384  27.842  30.055  1.00  0.00     0.020 A 
ATOM     63  C   UNL A   1      47.640  27.175  32.270  1.00  0.00     0.020 A 
ATOM     64  C   UNL A   1      48.602  27.163  31.258  1.00  0.00     0.054 A 
BRANCH  64  65
ATOM     65  S   UNL A   1      50.175  26.291  31.493  1.00  0.00     0.124 S 
ATOM     66  O   UNL A   1      50.619  26.818  32.782  1.00  0.00    -0.237 OA
ATOM     67  O   UNL A   1      49.770  24.888  31.495  1.00  0.00    -0.237 OA
ATOM     68  O   UNL A   1      50.976  26.703  30.343  1.00  0.00    -0.744 OA
ENDBRANCH  64  65
ENDBRANCH  45  59
BRANCH  46  69
ATOM     69  C   UNL A   1      37.270  32.826  29.557  1.00  0.00    -0.014 A 
ATOM     70  C   UNL A   1      36.456  33.090  30.673  1.00  0.00     0.010 A 
ATOM     71  C   UNL A   1      36.818  33.192  28.277  1.00  0.00     0.010 A 
ATOM     72  C   UNL A   1      35.206  33.694  30.511  1.00  0.00     0.020 A 
ATOM     73  C   UNL A   1      35.578  33.819  28.114  1.00  0.00     0.020 A 
ATOM     74  C   UNL A   1      34.775  34.056  29.231  1.00  0.00     0.054 A 
BRANCH  74  75
ATOM     75  S   UNL A   1      33.175  34.891  29.048  1.00  0.00     0.124 S 
ATOM     76  O   UNL A   1      32.517  34.070  28.037  1.00  0.00    -0.237 OA
ATOM     77  O   UNL A   1      32.617  34.805  30.395  1.00  0.00    -0.237 OA
ATOM     78  O   UNL A   1      33.542  36.240  28.622  1.00  0.00    -0.744 OA
ENDBRANCH  74  75
ENDBRANCH  46  69
BRANCH  58  79
ATOM     79  C   UNL A   1      43.368  35.046  32.099  1.00  0.00    -0.014 A 
ATOM     80  C   UNL A   1      43.255  35.339  33.469  1.00  0.00     0.010 A 
ATOM     81  C   UNL A   1      43.946  35.997  31.238  1.00  0.00     0.010 A 
ATOM     82  C   UNL A   1      43.684  36.573  33.965  1.00  0.00     0.020 A 
ATOM     83  C   UNL A   1      44.398  37.223  31.735  1.00  0.00     0.020 A 
ATOM     84  C   UNL A   1      44.249  37.509  33.093  1.00  0.00     0.054 A 
BRANCH  84  85
ATOM     85  S   UNL A   1      44.830  39.091  33.764  1.00  0.00     0.124 S 
ATOM     86  O   UNL A   1      43.764  39.433  34.701  1.00  0.00    -0.237 OA
ATOM     87  O   UNL A   1      46.110  38.734  34.371  1.00  0.00    -0.237 OA
ATOM     88  O   UNL A   1      44.926  39.950  32.587  1.00  0.00    -0.744 OA
ENDBRANCH  84  85
ENDBRANCH  58  79
ENDBRANCH  32  33
ENDBRANCH  24  27
ENDBRANCH  22  23
ENDBRANCH   1  22
TORSDOF 18
ENDMDL
MODEL 3
REMARK VINA RESULT:      -9.3      2.994      4.042
REMARK SMILES C#CCN(CC(=O)NCCCNC(=O)c1ccc(-c2c3nc(c(-c4ccc(S(=O)(=O)[O-])cc4)c4ccc([nH]4)c(-c4ccc(S(=O)(=O)[O-])cc4)c4nc(c(-c5ccc(S(=O)(=O)[O-])cc5)c5ccc2[nH]5)C=C4)C=C3)cc1)C(=O)[C@H]1C[NH2+]C[C@H]1C
REMARK SMILES IDX 10 1 9 2 8 3 6 4 7 5 5 7 4 8 3 9 2 10 1 11 75 12 76 13 77 14
REMARK SMILES IDX 78 15 81 16 79 17 80 18 82 19 11 22 12 23 13 24 14 26 15 27
REMARK SMILES IDX 16 28 74 29 17 30 73 31 18 32 19 33 20 34 67 35 21 36 72 37
REMARK SMILES IDX 66 38 68 39 22 40 71 41 65 42 64 43 23 45 53 46 34 47 52 48
REMARK SMILES IDX 35 49 38 50 51 51 69 52 36 53 37 54 50 56 70 57 39 58 24 59
REMARK SMILES IDX 25 60 33 61 26 62 32 63 27 64 28 65 29 66 30 67 31 68 54 69
REMARK SMILES IDX 55 70 63 71 56 72 62 73 57 74 58 75 59 76 60 77 61 78 40 79
REMARK SMILES IDX 41 80 49 81 42 82 48 83 43 84 44 85 45 86 46 87 47 88
REMARK H PARENT 8 6 79 20 79 21 12 25 68 44 38 55
REMARK Flexibility Score: inf
ROOT
ATOM      1  C   UNL A   1      34.094  31.280  27.542  1.00  0.00     0.042 C 
ENDROOT
BRANCH   1   2
ATOM      2  C   UNL A   1      33.237  30.462  26.579  1.00  0.00     0.117 C 
BRANCH   2   3
ATOM      3  N   UNL A   1      32.224  29.663  27.240  1.00  0.00    -0.354 N 
ATOM      4  C   UNL A   1      32.090  28.307  27.310  1.00  0.00     0.239 C 
ATOM      5  O   UNL A   1      31.275  27.852  28.118  1.00  0.00    -0.273 OA
ATOM      6  H   UNL A   1      31.528  30.176  27.710  1.00  0.00     0.163 HD
BRANCH   4   7
ATOM      7  C   UNL A   1      32.979  27.361  26.486  1.00  0.00     0.220 C 
BRANCH   7   8
ATOM      8  N   UNL A   1      32.299  26.774  25.331  1.00  0.00    -0.322 N 
BRANCH   8   9
ATOM      9  C   UNL A   1      30.869  26.511  25.449  1.00  0.00     0.209 C 
BRANCH   9  10
ATOM     10  C   UNL A   1      30.611  25.117  25.997  1.00  0.00    -0.085 C 
ATOM     11  C   UNL A   1      30.389  23.921  26.467  1.00  0.00     0.006 C 
ENDBRANCH   9  10
ENDBRANCH   8   9
BRANCH   8  12
ATOM     12  C   UNL A   1      32.915  26.488  24.113  1.00  0.00     0.233 C 
ATOM     13  O   UNL A   1      33.775  27.240  23.652  1.00  0.00    -0.274 OA
BRANCH  12  14
ATOM     14  C   UNL A   1      32.475  25.249  23.335  1.00  0.00     0.142 C 
ATOM     15  C   UNL A   1      32.732  25.445  21.844  1.00  0.00     0.274 C 
ATOM     16  C   UNL A   1      33.181  23.914  23.656  1.00  0.00     0.059 C 
ATOM     17  N   UNL A   1      32.779  24.078  21.309  1.00  0.00    -0.345 N 
ATOM     18  C   UNL A   1      33.600  23.359  22.290  1.00  0.00     0.264 C 
ATOM     19  C   UNL A   1      34.353  23.937  24.628  1.00  0.00     0.015 C 
ATOM     20  H   UNL A   1      33.214  24.061  20.386  1.00  0.00     0.346 HD
ATOM     21  H   UNL A   1      31.854  23.667  21.185  1.00  0.00     0.346 HD
ENDBRANCH  12  14
ENDBRANCH   8  12
ENDBRANCH   7   8
ENDBRANCH   4   7
ENDBRANCH   2   3
ENDBRANCH   1   2
BRANCH   1  22
ATOM     22  C   UNL A   1      35.344  30.572  28.057  1.00  0.00     0.118 C 
BRANCH  22  23
ATOM     23  N   UNL A   1      35.409  30.539  29.510  1.00  0.00    -0.352 N 
ATOM     24  C   UNL A   1      36.379  30.071  30.357  1.00  0.00     0.251 C 
ATOM     25  H   UNL A   1      34.620  30.917  29.961  1.00  0.00     0.163 HD
ATOM     26  O   UNL A   1      36.108  29.978  31.555  1.00  0.00    -0.269 OA
BRANCH  24  27
ATOM     27  C   UNL A   1      37.725  29.678  29.878  1.00  0.00     0.039 A 
ATOM     28  C   UNL A   1      38.699  29.353  30.831  1.00  0.00     0.014 A 
ATOM     29  C   UNL A   1      38.074  29.705  28.524  1.00  0.00     0.014 A 
ATOM     30  C   UNL A   1      39.997  29.027  30.429  1.00  0.00     0.010 A 
ATOM     31  C   UNL A   1      39.352  29.312  28.119  1.00  0.00     0.010 A 
ATOM     32  C   UNL A   1      40.332  28.985  29.067  1.00  0.00    -0.014 A 
BRANCH  32  33
ATOM     33  C   UNL A   1      41.707  28.627  28.630  1.00  0.00     0.031 A 
ATOM     34  C   UNL A   1      42.790  29.673  28.585  1.00  0.00     0.074 A 
ATOM     35  C   UNL A   1      41.977  27.365  28.242  1.00  0.00     0.049 A 
ATOM     36  N   UNL A   1      44.041  29.551  28.217  1.00  0.00    -0.248 NA
ATOM     37  C   UNL A   1      42.416  31.038  28.988  1.00  0.00     0.031 C 
ATOM     38  C   UNL A   1      41.009  26.267  28.202  1.00  0.00     0.029 A 
ATOM     39  N   UNL A   1      43.146  26.793  27.805  1.00  0.00    -0.354 N 
ATOM     40  C   UNL A   1      44.596  30.822  28.326  1.00  0.00     0.074 A 
ATOM     41  C   UNL A   1      43.536  31.708  28.754  1.00  0.00     0.031 C 
ATOM     42  C   UNL A   1      41.630  25.148  27.792  1.00  0.00     0.029 A 
ATOM     43  C   UNL A   1      43.029  25.456  27.509  1.00  0.00     0.049 A 
ATOM     44  H   UNL A   1      43.989  27.294  27.712  1.00  0.00     0.167 HD
ATOM     45  C   UNL A   1      45.875  31.213  28.109  1.00  0.00     0.031 A 
ATOM     46  C   UNL A   1      43.944  24.574  27.060  1.00  0.00     0.031 A 
ATOM     47  C   UNL A   1      46.934  30.330  27.698  1.00  0.00     0.049 A 
ATOM     48  C   UNL A   1      45.357  25.030  26.832  1.00  0.00     0.074 A 
ATOM     49  C   UNL A   1      48.273  30.622  27.506  1.00  0.00     0.029 A 
ATOM     50  N   UNL A   1      46.775  28.982  27.418  1.00  0.00    -0.354 N 
ATOM     51  N   UNL A   1      45.875  26.224  27.000  1.00  0.00    -0.248 NA
ATOM     52  C   UNL A   1      46.314  24.017  26.364  1.00  0.00     0.031 C 
ATOM     53  C   UNL A   1      48.917  29.458  27.070  1.00  0.00     0.029 A 
ATOM     54  C   UNL A   1      47.987  28.431  27.036  1.00  0.00     0.049 A 
ATOM     55  H   UNL A   1      45.925  28.488  27.481  1.00  0.00     0.167 HD
ATOM     56  C   UNL A   1      47.222  26.100  26.679  1.00  0.00     0.074 A 
ATOM     57  C   UNL A   1      47.442  24.713  26.324  1.00  0.00     0.031 C 
ATOM     58  C   UNL A   1      48.189  27.051  26.679  1.00  0.00     0.031 A 
BRANCH  45  59
ATOM     59  C   UNL A   1      46.197  32.671  28.311  1.00  0.00    -0.014 A 
ATOM     60  C   UNL A   1      46.630  33.150  29.561  1.00  0.00     0.010 A 
ATOM     61  C   UNL A   1      46.096  33.568  27.232  1.00  0.00     0.010 A 
ATOM     62  C   UNL A   1      46.912  34.507  29.740  1.00  0.00     0.020 A 
ATOM     63  C   UNL A   1      46.402  34.922  27.401  1.00  0.00     0.020 A 
ATOM     64  C   UNL A   1      46.790  35.386  28.659  1.00  0.00     0.054 A 
BRANCH  64  65
ATOM     65  S   UNL A   1      47.175  37.140  28.915  1.00  0.00     0.124 S 
ATOM     66  O   UNL A   1      46.866  37.708  27.605  1.00  0.00    -0.237 OA
ATOM     67  O   UNL A   1      46.263  37.518  29.992  1.00  0.00    -0.237 OA
ATOM     68  O   UNL A   1      48.591  37.136  29.275  1.00  0.00    -0.744 OA
ENDBRANCH  64  65
ENDBRANCH  45  59
BRANCH  46  69
ATOM     69  C   UNL A   1      43.551  23.159  26.820  1.00  0.00    -0.014 A 
ATOM     70  C   UNL A   1      43.792  22.557  25.572  1.00  0.00     0.010 A 
ATOM     71  C   UNL A   1      42.951  22.403  27.842  1.00  0.00     0.010 A 
ATOM     72  C   UNL A   1      43.425  21.227  25.346  1.00  0.00     0.020 A 
ATOM     73  C   UNL A   1      42.605  21.065  27.626  1.00  0.00     0.020 A 
ATOM     74  C   UNL A   1      42.834  20.489  26.376  1.00  0.00     0.054 A 
BRANCH  74  75
ATOM     75  S   UNL A   1      42.418  18.748  26.079  1.00  0.00     0.124 S 
ATOM     76  O   UNL A   1      42.689  18.144  27.380  1.00  0.00    -0.237 OA
ATOM     77  O   UNL A   1      41.011  18.819  25.695  1.00  0.00    -0.237 OA
ATOM     78  O   UNL A   1      43.328  18.360  25.004  1.00  0.00    -0.744 OA
ENDBRANCH  74  75
ENDBRANCH  46  69
BRANCH  58  79
ATOM     79  C   UNL A   1      49.580  26.616  26.304  1.00  0.00    -0.014 A 
ATOM     80  C   UNL A   1      50.432  26.015  27.248  1.00  0.00     0.010 A 
ATOM     81  C   UNL A   1      50.026  26.777  24.980  1.00  0.00     0.010 A 
ATOM     82  C   UNL A   1      51.718  25.611  26.881  1.00  0.00     0.020 A 
ATOM     83  C   UNL A   1      51.302  26.352  24.603  1.00  0.00     0.020 A 
ATOM     84  C   UNL A   1      52.147  25.785  25.561  1.00  0.00     0.054 A 
BRANCH  84  85
ATOM     85  S   UNL A   1      53.808  25.222  25.097  1.00  0.00     0.124 S 
ATOM     86  O   UNL A   1      54.592  25.589  26.274  1.00  0.00    -0.237 OA
ATOM     87  O   UNL A   1      53.617  23.789  24.891  1.00  0.00    -0.237 OA
ATOM     88  O   UNL A   1      54.105  25.984  23.887  1.00  0.00    -0.744 OA
ENDBRANCH  84  85
ENDBRANCH  58  79
ENDBRANCH  32  33
ENDBRANCH  24  27
ENDBRANCH  22  23
ENDBRANCH   1  22
TORSDOF 18
ENDMDL
