MODEL 1
REMARK VINA RESULT:     -14.1      0.000      0.000
REMARK SMILES Cc1ccccc1C(=O)Nc1ccc(N2CCCCC2)cc1C(=O)NCCCNC(=O)c1ccc(-c2c3nc(c(-c4ccc(S(=O)(=O)[O-])cc4)c4ccc([nH]4)c(-c4ccc(S(=O)(=O)[O-])cc4)c4nc(c(-c5ccc(S(=O)(=O)[O-])cc5)c5ccc2[nH]5)C=C4)C=C3)cc1
REMARK SMILES IDX 27 1 26 2 25 3 23 4 24 5 22 7 11 8 12 9 13 10 21 11 14 12
REMARK SMILES IDX 10 13 8 14 9 15 7 17 1 18 2 19 3 20 4 21 6 22 5 23 15 24
REMARK SMILES IDX 16 25 20 26 17 27 19 28 18 29 28 30 29 31 30 32 31 34 32 35
REMARK SMILES IDX 33 36 91 37 34 38 90 39 35 40 36 41 37 42 84 43 38 44 89 45
REMARK SMILES IDX 83 46 85 47 39 48 88 49 82 50 81 51 40 53 70 54 51 55 69 56
REMARK SMILES IDX 52 57 55 58 68 59 86 60 53 61 54 62 67 64 87 65 56 66 41 67
REMARK SMILES IDX 42 68 50 69 43 70 49 71 44 72 45 73 46 74 47 75 48 76 71 77
REMARK SMILES IDX 72 78 80 79 73 80 79 81 74 82 75 83 76 84 77 85 78 86 57 87
REMARK SMILES IDX 58 88 66 89 59 90 65 91 60 92 61 93 62 94 63 95 64 96
REMARK H PARENT 25 6 10 16 29 33 85 52 55 63
REMARK Flexibility Score: inf
ROOT
ATOM      1  C   UNL A   1      32.942  30.109  27.433  1.00  0.00     0.042 C 
ENDROOT
BRANCH   1   2
ATOM      2  C   UNL A   1      32.444  28.680  27.395  1.00  0.00     0.118 C 
BRANCH   2   3
ATOM      3  N   UNL A   1      33.173  27.842  26.444  1.00  0.00    -0.352 N 
ATOM      4  C   UNL A   1      32.765  27.139  25.327  1.00  0.00     0.253 C 
ATOM      5  O   UNL A   1      33.593  26.490  24.693  1.00  0.00    -0.269 OA
ATOM      6  H   UNL A   1      34.136  27.764  26.636  1.00  0.00     0.163 HD
BRANCH   4   7
ATOM      7  C   UNL A   1      31.351  27.170  24.863  1.00  0.00     0.065 A 
ATOM      8  C   UNL A   1      30.381  26.243  25.274  1.00  0.00     0.054 A 
ATOM      9  C   UNL A   1      29.103  26.302  24.695  1.00  0.00     0.029 A 
ATOM     10  C   UNL A   1      28.735  27.382  23.897  1.00  0.00     0.028 A 
ATOM     11  C   UNL A   1      30.997  28.114  23.881  1.00  0.00     0.042 A 
ATOM     12  C   UNL A   1      29.667  28.353  23.537  1.00  0.00     0.038 A 
BRANCH   8  13
ATOM     13  N   UNL A   1      30.498  25.229  26.235  1.00  0.00    -0.321 N 
ATOM     14  C   UNL A   1      31.024  23.964  26.235  1.00  0.00     0.255 C 
ATOM     15  O   UNL A   1      30.847  23.290  27.257  1.00  0.00    -0.269 OA
ATOM     16  H   UNL A   1      30.114  25.483  27.105  1.00  0.00     0.170 HD
BRANCH  14  17
ATOM     17  C   UNL A   1      31.923  23.406  25.187  1.00  0.00     0.043 A 
ATOM     18  C   UNL A   1      34.106  23.424  26.564  1.00  0.00     0.045 C 
ATOM     19  C   UNL A   1      33.294  23.110  25.343  1.00  0.00    -0.038 A 
ATOM     20  C   UNL A   1      33.965  22.446  24.295  1.00  0.00     0.004 A 
ATOM     21  C   UNL A   1      33.288  22.013  23.154  1.00  0.00     0.000 A 
ATOM     22  C   UNL A   1      31.254  22.949  24.034  1.00  0.00     0.014 A 
ATOM     23  C   UNL A   1      31.928  22.255  23.028  1.00  0.00     0.001 A 
ENDBRANCH  14  17
ENDBRANCH   8  13
BRANCH  12  24
ATOM     24  N   UNL A   1      29.233  29.552  22.967  1.00  0.00    -0.372 N 
ATOM     25  C   UNL A   1      29.519  30.724  23.820  1.00  0.00     0.116 C 
ATOM     26  C   UNL A   1      29.438  29.793  21.534  1.00  0.00     0.116 C 
ATOM     27  C   UNL A   1      28.624  31.889  23.415  1.00  0.00     0.021 C 
ATOM     28  C   UNL A   1      28.533  30.941  21.084  1.00  0.00     0.021 C 
ATOM     29  C   UNL A   1      28.750  32.197  21.926  1.00  0.00     0.004 C 
ENDBRANCH  12  24
ENDBRANCH   4   7
ENDBRANCH   2   3
ENDBRANCH   1   2
BRANCH   1  30
ATOM     30  C   UNL A   1      34.400  30.216  27.026  1.00  0.00     0.118 C 
BRANCH  30  31
ATOM     31  N   UNL A   1      35.084  31.287  27.758  1.00  0.00    -0.352 N 
ATOM     32  C   UNL A   1      36.271  31.215  28.468  1.00  0.00     0.251 C 
ATOM     33  H   UNL A   1      34.644  32.168  27.742  1.00  0.00     0.163 HD
ATOM     34  O   UNL A   1      36.725  32.161  29.085  1.00  0.00    -0.269 OA
BRANCH  32  35
ATOM     35  C   UNL A   1      36.975  29.921  28.421  1.00  0.00     0.039 A 
ATOM     36  C   UNL A   1      37.090  29.205  29.616  1.00  0.00     0.014 A 
ATOM     37  C   UNL A   1      37.812  29.680  27.336  1.00  0.00     0.014 A 
ATOM     38  C   UNL A   1      38.188  28.371  29.800  1.00  0.00     0.010 A 
ATOM     39  C   UNL A   1      38.952  28.930  27.563  1.00  0.00     0.010 A 
ATOM     40  C   UNL A   1      39.173  28.324  28.814  1.00  0.00    -0.014 A 
BRANCH  40  41
ATOM     41  C   UNL A   1      40.510  27.776  29.033  1.00  0.00     0.031 A 
ATOM     42  C   UNL A   1      40.818  26.383  28.622  1.00  0.00     0.074 A 
ATOM     43  C   UNL A   1      41.515  28.536  29.531  1.00  0.00     0.049 A 
ATOM     44  N   UNL A   1      41.805  25.687  29.082  1.00  0.00    -0.248 NA
ATOM     45  C   UNL A   1      39.970  25.630  27.703  1.00  0.00     0.031 C 
ATOM     46  C   UNL A   1      42.944  28.243  29.434  1.00  0.00     0.029 A 
ATOM     47  N   UNL A   1      41.456  29.614  30.416  1.00  0.00    -0.354 N 
ATOM     48  C   UNL A   1      41.911  24.556  28.304  1.00  0.00     0.074 A 
ATOM     49  C   UNL A   1      40.686  24.515  27.543  1.00  0.00     0.031 C 
ATOM     50  C   UNL A   1      43.583  28.879  30.425  1.00  0.00     0.029 A 
ATOM     51  C   UNL A   1      42.570  29.491  31.265  1.00  0.00     0.049 A 
ATOM     52  H   UNL A   1      40.771  30.320  30.440  1.00  0.00     0.167 HD
ATOM     53  C   UNL A   1      43.084  23.862  28.273  1.00  0.00     0.031 A 
ATOM     54  C   UNL A   1      42.524  29.413  32.627  1.00  0.00     0.031 A 
ATOM     55  C   UNL A   1      44.058  24.377  29.236  1.00  0.00     0.049 A 
ATOM     56  C   UNL A   1      43.255  28.219  33.194  1.00  0.00     0.074 A 
ATOM     57  C   UNL A   1      45.200  25.151  29.109  1.00  0.00     0.029 A 
ATOM     58  N   UNL A   1      43.783  24.301  30.595  1.00  0.00    -0.354 N 
ATOM     59  N   UNL A   1      43.650  27.204  32.478  1.00  0.00    -0.248 NA
ATOM     60  C   UNL A   1      43.538  28.033  34.614  1.00  0.00     0.031 C 
ATOM     61  C   UNL A   1      45.604  25.557  30.407  1.00  0.00     0.029 A 
ATOM     62  C   UNL A   1      44.714  25.020  31.319  1.00  0.00     0.049 A 
ATOM     63  H   UNL A   1      43.029  23.803  30.988  1.00  0.00     0.167 HD
ATOM     64  C   UNL A   1      44.199  26.244  33.290  1.00  0.00     0.074 A 
ATOM     65  C   UNL A   1      44.121  26.820  34.620  1.00  0.00     0.031 C 
ATOM     66  C   UNL A   1      44.642  25.057  32.777  1.00  0.00     0.031 A 
BRANCH  53  67
ATOM     67  C   UNL A   1      43.463  22.892  27.168  1.00  0.00    -0.014 A 
ATOM     68  C   UNL A   1      42.729  21.697  27.009  1.00  0.00     0.010 A 
ATOM     69  C   UNL A   1      44.564  23.049  26.307  1.00  0.00     0.010 A 
ATOM     70  C   UNL A   1      43.136  20.677  26.134  1.00  0.00     0.020 A 
ATOM     71  C   UNL A   1      45.004  22.029  25.450  1.00  0.00     0.020 A 
ATOM     72  C   UNL A   1      44.297  20.838  25.383  1.00  0.00     0.054 A 
BRANCH  72  73
ATOM     73  S   UNL A   1      44.876  19.480  24.334  1.00  0.00     0.124 S 
ATOM     74  O   UNL A   1      44.138  18.337  24.865  1.00  0.00    -0.237 OA
ATOM     75  O   UNL A   1      44.483  19.923  23.001  1.00  0.00    -0.237 OA
ATOM     76  O   UNL A   1      46.318  19.447  24.577  1.00  0.00    -0.744 OA
ENDBRANCH  72  73
ENDBRANCH  53  67
BRANCH  54  77
ATOM     77  C   UNL A   1      41.333  30.048  33.245  1.00  0.00    -0.014 A 
ATOM     78  C   UNL A   1      41.341  31.451  33.372  1.00  0.00     0.010 A 
ATOM     79  C   UNL A   1      40.107  29.360  33.266  1.00  0.00     0.010 A 
ATOM     80  C   UNL A   1      40.145  32.167  33.329  1.00  0.00     0.020 A 
ATOM     81  C   UNL A   1      38.905  30.078  33.226  1.00  0.00     0.020 A 
ATOM     82  C   UNL A   1      38.941  31.476  33.185  1.00  0.00     0.054 A 
BRANCH  82  83
ATOM     83  S   UNL A   1      37.471  32.428  32.699  1.00  0.00     0.124 S 
ATOM     84  O   UNL A   1      36.574  31.390  32.203  1.00  0.00    -0.237 OA
ATOM     85  O   UNL A   1      37.085  33.046  33.966  1.00  0.00    -0.237 OA
ATOM     86  O   UNL A   1      37.985  33.353  31.693  1.00  0.00    -0.744 OA
ENDBRANCH  82  83
ENDBRANCH  54  77
BRANCH  66  87
ATOM     87  C   UNL A   1      45.110  23.829  33.536  1.00  0.00    -0.014 A 
ATOM     88  C   UNL A   1      46.423  23.593  33.966  1.00  0.00     0.010 A 
ATOM     89  C   UNL A   1      44.139  22.872  33.933  1.00  0.00     0.010 A 
ATOM     90  C   UNL A   1      46.757  22.452  34.718  1.00  0.00     0.020 A 
ATOM     91  C   UNL A   1      44.450  21.754  34.711  1.00  0.00     0.020 A 
ATOM     92  C   UNL A   1      45.768  21.539  35.085  1.00  0.00     0.054 A 
BRANCH  92  93
ATOM     93  S   UNL A   1      46.200  20.114  36.115  1.00  0.00     0.124 S 
ATOM     94  O   UNL A   1      47.649  20.047  35.949  1.00  0.00    -0.237 OA
ATOM     95  O   UNL A   1      45.739  20.519  37.442  1.00  0.00    -0.237 OA
ATOM     96  O   UNL A   1      45.447  19.015  35.514  1.00  0.00    -0.744 OA
ENDBRANCH  92  93
ENDBRANCH  66  87
ENDBRANCH  40  41
ENDBRANCH  32  35
ENDBRANCH  30  31
ENDBRANCH   1  30
TORSDOF 16
ENDMDL
MODEL 2
REMARK VINA RESULT:     -13.7      4.581     11.512
REMARK SMILES Cc1ccccc1C(=O)Nc1ccc(N2CCCCC2)cc1C(=O)NCCCNC(=O)c1ccc(-c2c3nc(c(-c4ccc(S(=O)(=O)[O-])cc4)c4ccc([nH]4)c(-c4ccc(S(=O)(=O)[O-])cc4)c4nc(c(-c5ccc(S(=O)(=O)[O-])cc5)c5ccc2[nH]5)C=C4)C=C3)cc1
REMARK SMILES IDX 27 1 26 2 25 3 23 4 24 5 22 7 11 8 12 9 13 10 21 11 14 12
REMARK SMILES IDX 10 13 8 14 9 15 7 17 1 18 2 19 3 20 4 21 6 22 5 23 15 24
REMARK SMILES IDX 16 25 20 26 17 27 19 28 18 29 28 30 29 31 30 32 31 34 32 35
REMARK SMILES IDX 33 36 91 37 34 38 90 39 35 40 36 41 37 42 84 43 38 44 89 45
REMARK SMILES IDX 83 46 85 47 39 48 88 49 82 50 81 51 40 53 70 54 51 55 69 56
REMARK SMILES IDX 52 57 55 58 68 59 86 60 53 61 54 62 67 64 87 65 56 66 41 67
REMARK SMILES IDX 42 68 50 69 43 70 49 71 44 72 45 73 46 74 47 75 48 76 71 77
REMARK SMILES IDX 72 78 80 79 73 80 79 81 74 82 75 83 76 84 77 85 78 86 57 87
REMARK SMILES IDX 58 88 66 89 59 90 65 91 60 92 61 93 62 94 63 95 64 96
REMARK H PARENT 25 6 10 16 29 33 85 52 55 63
REMARK Flexibility Score: inf
ROOT
ATOM      1  C   UNL A   1      38.211  21.842  25.304  1.00  0.00     0.042 C 
ENDROOT
BRANCH   1   2
ATOM      2  C   UNL A   1      37.022  22.108  24.407  1.00  0.00     0.118 C 
BRANCH   2   3
ATOM      3  N   UNL A   1      36.139  23.156  24.917  1.00  0.00    -0.352 N 
ATOM      4  C   UNL A   1      34.784  23.380  24.765  1.00  0.00     0.253 C 
ATOM      5  O   UNL A   1      34.277  24.362  25.301  1.00  0.00    -0.269 OA
ATOM      6  H   UNL A   1      36.596  23.827  25.474  1.00  0.00     0.163 HD
BRANCH   4   7
ATOM      7  C   UNL A   1      33.925  22.448  23.987  1.00  0.00     0.065 A 
ATOM      8  C   UNL A   1      33.320  22.789  22.768  1.00  0.00     0.054 A 
ATOM      9  C   UNL A   1      32.444  21.869  22.168  1.00  0.00     0.029 A 
ATOM     10  C   UNL A   1      32.345  20.567  22.651  1.00  0.00     0.028 A 
ATOM     11  C   UNL A   1      33.619  21.197  24.556  1.00  0.00     0.042 A 
ATOM     12  C   UNL A   1      32.997  20.188  23.822  1.00  0.00     0.038 A 
BRANCH   8  13
ATOM     13  N   UNL A   1      33.479  23.960  22.013  1.00  0.00    -0.321 N 
ATOM     14  C   UNL A   1      32.884  25.195  22.022  1.00  0.00     0.255 C 
ATOM     15  O   UNL A   1      33.206  25.971  21.114  1.00  0.00    -0.269 OA
ATOM     16  H   UNL A   1      34.174  23.876  21.321  1.00  0.00     0.170 HD
BRANCH  14  17
ATOM     17  C   UNL A   1      32.025  25.728  23.114  1.00  0.00     0.043 A 
ATOM     18  C   UNL A   1      33.658  27.525  23.989  1.00  0.00     0.045 C 
ATOM     19  C   UNL A   1      32.341  26.807  23.966  1.00  0.00    -0.038 A 
ATOM     20  C   UNL A   1      31.351  27.282  24.852  1.00  0.00     0.004 A 
ATOM     21  C   UNL A   1      30.058  26.760  24.847  1.00  0.00     0.000 A 
ATOM     22  C   UNL A   1      30.709  25.223  23.115  1.00  0.00     0.014 A 
ATOM     23  C   UNL A   1      29.732  25.736  23.969  1.00  0.00     0.001 A 
ENDBRANCH  14  17
ENDBRANCH   8  13
BRANCH  12  24
ATOM     24  N   UNL A   1      33.105  18.835  24.148  1.00  0.00    -0.372 N 
ATOM     25  C   UNL A   1      32.369  18.486  25.381  1.00  0.00     0.116 C 
ATOM     26  C   UNL A   1      33.014  17.821  23.091  1.00  0.00     0.116 C 
ATOM     27  C   UNL A   1      32.903  17.177  25.950  1.00  0.00     0.021 C 
ATOM     28  C   UNL A   1      33.567  16.496  23.617  1.00  0.00     0.021 C 
ATOM     29  C   UNL A   1      32.872  16.063  24.907  1.00  0.00     0.004 C 
ENDBRANCH  12  24
ENDBRANCH   4   7
ENDBRANCH   2   3
ENDBRANCH   1   2
BRANCH   1  30
ATOM     30  C   UNL A   1      38.524  23.025  26.202  1.00  0.00     0.118 C 
BRANCH  30  31
ATOM     31  N   UNL A   1      39.822  22.865  26.866  1.00  0.00    -0.352 N 
ATOM     32  C   UNL A   1      40.578  23.832  27.508  1.00  0.00     0.251 C 
ATOM     33  H   UNL A   1      40.203  21.958  26.853  1.00  0.00     0.163 HD
ATOM     34  O   UNL A   1      41.675  23.599  27.984  1.00  0.00    -0.269 OA
BRANCH  32  35
ATOM     35  C   UNL A   1      39.970  25.171  27.603  1.00  0.00     0.039 A 
ATOM     36  C   UNL A   1      40.475  26.171  26.767  1.00  0.00     0.014 A 
ATOM     37  C   UNL A   1      39.246  25.471  28.754  1.00  0.00     0.014 A 
ATOM     38  C   UNL A   1      40.426  27.494  27.191  1.00  0.00     0.010 A 
ATOM     39  C   UNL A   1      39.291  26.774  29.214  1.00  0.00     0.010 A 
ATOM     40  C   UNL A   1      39.933  27.777  28.465  1.00  0.00    -0.014 A 
BRANCH  40  41
ATOM     41  C   UNL A   1      40.147  29.051  29.149  1.00  0.00     0.031 A 
ATOM     42  C   UNL A   1      39.097  30.099  29.113  1.00  0.00     0.074 A 
ATOM     43  C   UNL A   1      41.256  29.277  29.895  1.00  0.00     0.049 A 
ATOM     44  N   UNL A   1      39.307  31.353  29.349  1.00  0.00    -0.248 NA
ATOM     45  C   UNL A   1      37.719  29.817  28.723  1.00  0.00     0.031 C 
ATOM     46  C   UNL A   1      41.409  30.312  30.916  1.00  0.00     0.029 A 
ATOM     47  N   UNL A   1      42.547  28.769  29.740  1.00  0.00    -0.354 N 
ATOM     48  C   UNL A   1      38.079  31.964  29.460  1.00  0.00     0.074 A 
ATOM     49  C   UNL A   1      37.137  30.996  28.952  1.00  0.00     0.031 C 
ATOM     50  C   UNL A   1      42.714  30.579  31.068  1.00  0.00     0.029 A 
ATOM     51  C   UNL A   1      43.427  29.819  30.057  1.00  0.00     0.049 A 
ATOM     52  H   UNL A   1      42.793  27.857  29.464  1.00  0.00     0.167 HD
ATOM     53  C   UNL A   1      37.972  33.158  30.109  1.00  0.00     0.031 A 
ATOM     54  C   UNL A   1      44.395  30.318  29.235  1.00  0.00     0.031 A 
ATOM     55  C   UNL A   1      39.278  33.703  30.485  1.00  0.00     0.049 A 
ATOM     56  C   UNL A   1      44.319  31.814  29.041  1.00  0.00     0.074 A 
ATOM     57  C   UNL A   1      39.960  33.786  31.686  1.00  0.00     0.029 A 
ATOM     58  N   UNL A   1      40.180  34.062  29.493  1.00  0.00    -0.354 N 
ATOM     59  N   UNL A   1      43.287  32.536  29.375  1.00  0.00    -0.248 NA
ATOM     60  C   UNL A   1      45.359  32.608  28.394  1.00  0.00     0.031 C 
ATOM     61  C   UNL A   1      41.294  34.182  31.410  1.00  0.00     0.029 A 
ATOM     62  C   UNL A   1      41.414  34.351  30.042  1.00  0.00     0.049 A 
ATOM     63  H   UNL A   1      39.971  34.104  28.531  1.00  0.00     0.167 HD
ATOM     64  C   UNL A   1      43.483  33.839  28.992  1.00  0.00     0.074 A 
ATOM     65  C   UNL A   1      44.807  33.835  28.396  1.00  0.00     0.031 C 
ATOM     66  C   UNL A   1      42.516  34.784  29.188  1.00  0.00     0.031 A 
BRANCH  53  67
ATOM     67  C   UNL A   1      36.669  33.704  30.665  1.00  0.00    -0.014 A 
ATOM     68  C   UNL A   1      35.581  33.930  29.794  1.00  0.00     0.010 A 
ATOM     69  C   UNL A   1      36.466  34.087  32.003  1.00  0.00     0.010 A 
ATOM     70  C   UNL A   1      34.419  34.601  30.205  1.00  0.00     0.020 A 
ATOM     71  C   UNL A   1      35.325  34.786  32.424  1.00  0.00     0.020 A 
ATOM     72  C   UNL A   1      34.314  35.057  31.515  1.00  0.00     0.054 A 
BRANCH  72  73
ATOM     73  S   UNL A   1      32.859  36.012  32.013  1.00  0.00     0.124 S 
ATOM     74  O   UNL A   1      32.478  36.676  30.770  1.00  0.00    -0.237 OA
ATOM     75  O   UNL A   1      31.946  34.975  32.482  1.00  0.00    -0.237 OA
ATOM     76  O   UNL A   1      33.370  36.904  33.054  1.00  0.00    -0.744 OA
ENDBRANCH  72  73
ENDBRANCH  53  67
BRANCH  54  77
ATOM     77  C   UNL A   1      44.905  29.359  28.223  1.00  0.00    -0.014 A 
ATOM     78  C   UNL A   1      45.567  28.209  28.698  1.00  0.00     0.010 A 
ATOM     79  C   UNL A   1      44.359  29.355  26.927  1.00  0.00     0.010 A 
ATOM     80  C   UNL A   1      45.519  27.020  27.970  1.00  0.00     0.020 A 
ATOM     81  C   UNL A   1      44.313  28.161  26.195  1.00  0.00     0.020 A 
ATOM     82  C   UNL A   1      44.831  26.990  26.757  1.00  0.00     0.054 A 
BRANCH  82  83
ATOM     83  S   UNL A   1      44.416  25.364  26.059  1.00  0.00     0.124 S 
ATOM     84  O   UNL A   1      45.395  25.222  24.987  1.00  0.00    -0.237 OA
ATOM     85  O   UNL A   1      44.609  24.488  27.213  1.00  0.00    -0.237 OA
ATOM     86  O   UNL A   1      43.029  25.524  25.631  1.00  0.00    -0.744 OA
ENDBRANCH  82  83
ENDBRANCH  54  77
BRANCH  66  87
ATOM     87  C   UNL A   1      42.491  36.213  28.678  1.00  0.00    -0.014 A 
ATOM     88  C   UNL A   1      43.061  37.317  29.328  1.00  0.00     0.010 A 
ATOM     89  C   UNL A   1      41.931  36.462  27.396  1.00  0.00     0.010 A 
ATOM     90  C   UNL A   1      43.042  38.600  28.752  1.00  0.00     0.020 A 
ATOM     91  C   UNL A   1      41.939  37.724  26.797  1.00  0.00     0.020 A 
ATOM     92  C   UNL A   1      42.481  38.796  27.490  1.00  0.00     0.054 A 
BRANCH  92  93
ATOM     93  S   UNL A   1      42.530  40.438  26.730  1.00  0.00     0.124 S 
ATOM     94  O   UNL A   1      41.151  40.604  26.277  1.00  0.00    -0.237 OA
ATOM     95  O   UNL A   1      42.931  41.300  27.840  1.00  0.00    -0.237 OA
ATOM     96  O   UNL A   1      43.526  40.297  25.671  1.00  0.00    -0.744 OA
ENDBRANCH  92  93
ENDBRANCH  66  87
ENDBRANCH  40  41
ENDBRANCH  32  35
ENDBRANCH  30  31
ENDBRANCH   1  30
TORSDOF 16
ENDMDL
MODEL 3
REMARK VINA RESULT:     -13.0      1.291      1.736
REMARK SMILES Cc1ccccc1C(=O)Nc1ccc(N2CCCCC2)cc1C(=O)NCCCNC(=O)c1ccc(-c2c3nc(c(-c4ccc(S(=O)(=O)[O-])cc4)c4ccc([nH]4)c(-c4ccc(S(=O)(=O)[O-])cc4)c4nc(c(-c5ccc(S(=O)(=O)[O-])cc5)c5ccc2[nH]5)C=C4)C=C3)cc1
REMARK SMILES IDX 27 1 26 2 25 3 23 4 24 5 22 7 11 8 12 9 13 10 21 11 14 12
REMARK SMILES IDX 10 13 8 14 9 15 7 17 1 18 2 19 3 20 4 21 6 22 5 23 15 24
REMARK SMILES IDX 16 25 20 26 17 27 19 28 18 29 28 30 29 31 30 32 31 34 32 35
REMARK SMILES IDX 33 36 91 37 34 38 90 39 35 40 36 41 37 42 84 43 38 44 89 45
REMARK SMILES IDX 83 46 85 47 39 48 88 49 82 50 81 51 40 53 70 54 51 55 69 56
REMARK SMILES IDX 52 57 55 58 68 59 86 60 53 61 54 62 67 64 87 65 56 66 41 67
REMARK SMILES IDX 42 68 50 69 43 70 49 71 44 72 45 73 46 74 47 75 48 76 71 77
REMARK SMILES IDX 72 78 80 79 73 80 79 81 74 82 75 83 76 84 77 85 78 86 57 87
REMARK SMILES IDX 58 88 66 89 59 90 65 91 60 92 61 93 62 94 63 95 64 96
REMARK H PARENT 25 6 10 16 29 33 85 52 55 63
REMARK Flexibility Score: inf
ROOT
ATOM      1  C   UNL A   1      34.598  28.994  26.797  1.00  0.00     0.042 C 
ENDROOT
BRANCH   1   2
ATOM      2  C   UNL A   1      33.775  29.191  25.542  1.00  0.00     0.118 C 
BRANCH   2   3
ATOM      3  N   UNL A   1      34.561  29.072  24.315  1.00  0.00    -0.352 N 
ATOM      4  C   UNL A   1      34.264  28.545  23.073  1.00  0.00     0.253 C 
ATOM      5  O   UNL A   1      35.124  28.559  22.196  1.00  0.00    -0.269 OA
ATOM      6  H   UNL A   1      35.473  29.436  24.387  1.00  0.00     0.163 HD
BRANCH   4   7
ATOM      7  C   UNL A   1      32.921  27.983  22.768  1.00  0.00     0.065 A 
ATOM      8  C   UNL A   1      32.699  26.633  22.457  1.00  0.00     0.054 A 
ATOM      9  C   UNL A   1      31.406  26.229  22.084  1.00  0.00     0.029 A 
ATOM     10  C   UNL A   1      30.324  27.094  22.229  1.00  0.00     0.028 A 
ATOM     11  C   UNL A   1      31.833  28.873  22.684  1.00  0.00     0.042 A 
ATOM     12  C   UNL A   1      30.517  28.420  22.607  1.00  0.00     0.038 A 
BRANCH   8  13
ATOM     13  N   UNL A   1      33.615  25.572  22.481  1.00  0.00    -0.321 N 
ATOM     14  C   UNL A   1      33.819  24.499  23.308  1.00  0.00     0.255 C 
ATOM     15  O   UNL A   1      34.820  23.807  23.083  1.00  0.00    -0.269 OA
ATOM     16  H   UNL A   1      34.256  25.605  21.734  1.00  0.00     0.170 HD
BRANCH  14  17
ATOM     17  C   UNL A   1      32.858  24.009  24.334  1.00  0.00     0.043 A 
ATOM     18  C   UNL A   1      31.868  22.054  22.969  1.00  0.00     0.045 C 
ATOM     19  C   UNL A   1      32.018  22.881  24.211  1.00  0.00    -0.038 A 
ATOM     20  C   UNL A   1      31.274  22.466  25.336  1.00  0.00     0.004 A 
ATOM     21  C   UNL A   1      31.412  23.096  26.573  1.00  0.00     0.000 A 
ATOM     22  C   UNL A   1      32.993  24.623  25.595  1.00  0.00     0.014 A 
ATOM     23  C   UNL A   1      32.281  24.169  26.706  1.00  0.00     0.001 A 
ENDBRANCH  14  17
ENDBRANCH   8  13
BRANCH  12  24
ATOM     24  N   UNL A   1      29.423  29.195  23.000  1.00  0.00    -0.372 N 
ATOM     25  C   UNL A   1      29.687  30.645  22.903  1.00  0.00     0.116 C 
ATOM     26  C   UNL A   1      28.069  28.806  22.587  1.00  0.00     0.116 C 
ATOM     27  C   UNL A   1      28.701  31.411  23.776  1.00  0.00     0.021 C 
ATOM     28  C   UNL A   1      27.049  29.536  23.462  1.00  0.00     0.021 C 
ATOM     29  C   UNL A   1      27.259  31.049  23.435  1.00  0.00     0.004 C 
ENDBRANCH  12  24
ENDBRANCH   4   7
ENDBRANCH   2   3
ENDBRANCH   1   2
BRANCH   1  30
ATOM     30  C   UNL A   1      34.144  29.902  27.925  1.00  0.00     0.118 C 
BRANCH  30  31
ATOM     31  N   UNL A   1      35.003  31.085  28.040  1.00  0.00    -0.352 N 
ATOM     32  C   UNL A   1      36.371  31.129  28.258  1.00  0.00     0.251 C 
ATOM     33  H   UNL A   1      34.552  31.955  27.952  1.00  0.00     0.163 HD
ATOM     34  O   UNL A   1      36.980  32.175  28.389  1.00  0.00    -0.269 OA
BRANCH  32  35
ATOM     35  C   UNL A   1      37.061  29.828  28.304  1.00  0.00     0.039 A 
ATOM     36  C   UNL A   1      37.205  29.217  29.553  1.00  0.00     0.014 A 
ATOM     37  C   UNL A   1      37.864  29.484  27.220  1.00  0.00     0.014 A 
ATOM     38  C   UNL A   1      38.301  28.390  29.777  1.00  0.00     0.010 A 
ATOM     39  C   UNL A   1      39.003  28.744  27.479  1.00  0.00     0.010 A 
ATOM     40  C   UNL A   1      39.255  28.247  28.771  1.00  0.00    -0.014 A 
BRANCH  40  41
ATOM     41  C   UNL A   1      40.594  27.704  28.998  1.00  0.00     0.031 A 
ATOM     42  C   UNL A   1      40.908  26.310  28.596  1.00  0.00     0.074 A 
ATOM     43  C   UNL A   1      41.594  28.470  29.497  1.00  0.00     0.049 A 
ATOM     44  N   UNL A   1      41.896  25.620  29.064  1.00  0.00    -0.248 NA
ATOM     45  C   UNL A   1      40.067  25.549  27.678  1.00  0.00     0.031 C 
ATOM     46  C   UNL A   1      43.025  28.182  29.408  1.00  0.00     0.029 A 
ATOM     47  N   UNL A   1      41.528  29.552  30.376  1.00  0.00    -0.354 N 
ATOM     48  C   UNL A   1      42.009  24.485  28.292  1.00  0.00     0.074 A 
ATOM     49  C   UNL A   1      40.787  24.436  27.526  1.00  0.00     0.031 C 
ATOM     50  C   UNL A   1      43.657  28.825  30.398  1.00  0.00     0.029 A 
ATOM     51  C   UNL A   1      42.638  29.438  31.231  1.00  0.00     0.049 A 
ATOM     52  H   UNL A   1      40.839  30.256  30.394  1.00  0.00     0.167 HD
ATOM     53  C   UNL A   1      43.185  23.795  28.270  1.00  0.00     0.031 A 
ATOM     54  C   UNL A   1      42.587  29.367  32.592  1.00  0.00     0.031 A 
ATOM     55  C   UNL A   1      44.152  24.318  29.235  1.00  0.00     0.049 A 
ATOM     56  C   UNL A   1      43.319  28.177  33.169  1.00  0.00     0.074 A 
ATOM     57  C   UNL A   1      45.292  25.095  29.109  1.00  0.00     0.029 A 
ATOM     58  N   UNL A   1      43.872  24.248  30.593  1.00  0.00    -0.354 N 
ATOM     59  N   UNL A   1      43.721  27.161  32.460  1.00  0.00    -0.248 NA
ATOM     60  C   UNL A   1      43.597  28.000  34.591  1.00  0.00     0.031 C 
ATOM     61  C   UNL A   1      45.689  25.510  30.406  1.00  0.00     0.029 A 
ATOM     62  C   UNL A   1      44.797  24.975  31.317  1.00  0.00     0.049 A 
ATOM     63  H   UNL A   1      43.118  23.750  30.985  1.00  0.00     0.167 HD
ATOM     64  C   UNL A   1      44.269  26.206  33.279  1.00  0.00     0.074 A 
ATOM     65  C   UNL A   1      44.184  26.790  34.606  1.00  0.00     0.031 C 
ATOM     66  C   UNL A   1      44.719  25.019  32.774  1.00  0.00     0.031 A 
BRANCH  53  67
ATOM     67  C   UNL A   1      43.571  22.821  27.172  1.00  0.00    -0.014 A 
ATOM     68  C   UNL A   1      42.785  21.668  26.955  1.00  0.00     0.010 A 
ATOM     69  C   UNL A   1      44.724  22.930  26.373  1.00  0.00     0.010 A 
ATOM     70  C   UNL A   1      43.186  20.640  26.087  1.00  0.00     0.020 A 
ATOM     71  C   UNL A   1      45.156  21.899  25.525  1.00  0.00     0.020 A 
ATOM     72  C   UNL A   1      44.393  20.748  25.402  1.00  0.00     0.054 A 
BRANCH  72  73
ATOM     73  S   UNL A   1      44.956  19.376  24.364  1.00  0.00     0.124 S 
ATOM     74  O   UNL A   1      44.529  19.794  23.032  1.00  0.00    -0.237 OA
ATOM     75  O   UNL A   1      46.396  19.376  24.597  1.00  0.00    -0.237 OA
ATOM     76  O   UNL A   1      44.240  18.219  24.903  1.00  0.00    -0.744 OA
ENDBRANCH  72  73
ENDBRANCH  53  67
BRANCH  54  77
ATOM     77  C   UNL A   1      41.391  30.000  33.203  1.00  0.00    -0.014 A 
ATOM     78  C   UNL A   1      41.333  31.408  33.201  1.00  0.00     0.010 A 
ATOM     79  C   UNL A   1      40.202  29.261  33.340  1.00  0.00     0.010 A 
ATOM     80  C   UNL A   1      40.102  32.061  33.146  1.00  0.00     0.020 A 
ATOM     81  C   UNL A   1      38.965  29.917  33.287  1.00  0.00     0.020 A 
ATOM     82  C   UNL A   1      38.930  31.305  33.118  1.00  0.00     0.054 A 
BRANCH  82  83
ATOM     83  S   UNL A   1      37.397  32.139  32.613  1.00  0.00     0.124 S 
ATOM     84  O   UNL A   1      36.472  31.023  32.444  1.00  0.00    -0.237 OA
ATOM     85  O   UNL A   1      37.138  33.007  33.760  1.00  0.00    -0.237 OA
ATOM     86  O   UNL A   1      37.779  32.835  31.387  1.00  0.00    -0.744 OA
ENDBRANCH  82  83
ENDBRANCH  54  77
BRANCH  66  87
ATOM     87  C   UNL A   1      45.188  23.796  33.542  1.00  0.00    -0.014 A 
ATOM     88  C   UNL A   1      46.478  23.607  34.056  1.00  0.00     0.010 A 
ATOM     89  C   UNL A   1      44.235  22.792  33.857  1.00  0.00     0.010 A 
ATOM     90  C   UNL A   1      46.810  22.465  34.807  1.00  0.00     0.020 A 
ATOM     91  C   UNL A   1      44.541  21.672  34.634  1.00  0.00     0.020 A 
ATOM     92  C   UNL A   1      45.839  21.505  35.092  1.00  0.00     0.054 A 
BRANCH  92  93
ATOM     93  S   UNL A   1      46.262  20.078  36.124  1.00  0.00     0.124 S 
ATOM     94  O   UNL A   1      47.712  20.004  35.960  1.00  0.00    -0.237 OA
ATOM     95  O   UNL A   1      45.802  20.487  37.450  1.00  0.00    -0.237 OA
ATOM     96  O   UNL A   1      45.505  18.983  35.522  1.00  0.00    -0.744 OA
ENDBRANCH  92  93
ENDBRANCH  66  87
ENDBRANCH  40  41
ENDBRANCH  32  35
ENDBRANCH  30  31
ENDBRANCH   1  30
TORSDOF 16
ENDMDL
