MODEL 1
REMARK VINA RESULT:     -10.6      0.000      0.000
REMARK SMILES COc1cccc(-c2ccc(C#N)c(SCC(=O)NCCCNC(=O)c3ccc(-c4c5nc(c(-c6ccc(S(=O)(=O)[O-])cc6)c6ccc([nH]6)c(-c6ccc(S(=O)(=O)[O-])cc6)c6nc(c(-c7ccc(S(=O)(=O)[O-])cc7)c7ccc4[nH]7)C=C6)C=C5)cc3)n2)c1
REMARK SMILES IDX 20 1 19 2 17 3 18 4 16 6 15 7 14 8 8 9 9 10 86 11 10 12
REMARK SMILES IDX 11 13 7 14 3 15 4 16 87 17 5 18 6 19 2 20 1 21 12 22 13 23
REMARK SMILES IDX 21 24 22 25 23 26 24 27 25 29 26 30 27 31 85 32 28 33 84 34
REMARK SMILES IDX 29 35 30 36 31 37 78 38 32 39 83 40 77 41 79 42 33 43 82 44
REMARK SMILES IDX 76 45 75 46 34 48 64 49 45 50 63 51 46 52 49 53 62 54 80 55
REMARK SMILES IDX 47 56 48 57 61 59 81 60 50 61 35 62 36 63 44 64 37 65 43 66
REMARK SMILES IDX 38 67 39 68 40 69 41 70 42 71 65 72 66 73 74 74 67 75 73 76
REMARK SMILES IDX 68 77 69 78 70 79 71 80 72 81 51 82 52 83 60 84 53 85 59 86
REMARK SMILES IDX 54 87 55 88 56 89 57 90 58 91
REMARK H PARENT 19 5 23 28 79 47 49 58
REMARK Flexibility Score: inf
ROOT
ATOM      1  C   UNL A   1      33.628  28.800  24.870  1.00  0.00     0.117 C 
ENDROOT
BRANCH   1   2
ATOM      2  N   UNL A   1      32.578  29.277  23.993  1.00  0.00    -0.355 N 
ATOM      3  C   UNL A   1      32.261  28.902  22.728  1.00  0.00     0.230 C 
ATOM      4  O   UNL A   1      31.384  29.554  22.157  1.00  0.00    -0.274 OA
ATOM      5  H   UNL A   1      32.005  29.983  24.373  1.00  0.00     0.163 HD
BRANCH   3   6
ATOM      6  C   UNL A   1      32.899  27.690  22.084  1.00  0.00     0.176 C 
BRANCH   6   7
ATOM      7  S   UNL A   1      31.802  26.256  21.867  1.00  0.00    -0.095 SA
BRANCH   7   8
ATOM      8  C   UNL A   1      31.119  25.802  23.451  1.00  0.00     0.115 A 
ATOM      9  C   UNL A   1      31.705  24.551  25.368  1.00  0.00     0.072 A 
ATOM     10  C   UNL A   1      30.506  24.874  25.985  1.00  0.00     0.030 A 
ATOM     11  N   UNL A   1      31.996  24.987  24.118  1.00  0.00    -0.240 NA
ATOM     12  C   UNL A   1      29.620  25.714  25.325  1.00  0.00     0.024 A 
ATOM     13  C   UNL A   1      29.939  26.227  24.060  1.00  0.00     0.084 A 
BRANCH   9  14
ATOM     14  C   UNL A   1      32.739  23.799  26.098  1.00  0.00     0.004 A 
ATOM     15  C   UNL A   1      34.994  22.863  26.184  1.00  0.00     0.119 A 
ATOM     16  C   UNL A   1      34.635  22.078  27.277  1.00  0.00     0.046 A 
ATOM     17  C   UNL A   1      34.051  23.709  25.595  1.00  0.00     0.056 A 
ATOM     18  C   UNL A   1      33.355  22.181  27.819  1.00  0.00     0.005 A 
ATOM     19  C   UNL A   1      32.417  23.042  27.239  1.00  0.00     0.010 A 
BRANCH  15  20
ATOM     20  O   UNL A   1      36.252  22.669  25.683  1.00  0.00    -0.497 OA
ATOM     21  C   UNL A   1      37.239  23.531  26.249  1.00  0.00     0.278 C 
ENDBRANCH  15  20
ENDBRANCH   9  14
BRANCH  13  22
ATOM     22  C   UNL A   1      29.084  27.256  23.563  1.00  0.00     0.102 C 
ATOM     23  N   UNL A   1      28.356  28.108  23.253  1.00  0.00    -0.192 NA
ENDBRANCH  13  22
ENDBRANCH   7   8
ENDBRANCH   6   7
ENDBRANCH   3   6
ENDBRANCH   1   2
BRANCH   1  24
ATOM     24  C   UNL A   1      33.072  27.881  25.953  1.00  0.00     0.042 C 
BRANCH  24  25
ATOM     25  C   UNL A   1      33.389  28.330  27.378  1.00  0.00     0.118 C 
BRANCH  25  26
ATOM     26  N   UNL A   1      33.396  29.779  27.527  1.00  0.00    -0.352 N 
ATOM     27  C   UNL A   1      34.363  30.615  28.028  1.00  0.00     0.251 C 
ATOM     28  H   UNL A   1      32.578  30.231  27.219  1.00  0.00     0.163 HD
ATOM     29  O   UNL A   1      34.083  31.789  28.253  1.00  0.00    -0.269 OA
BRANCH  27  30
ATOM     30  C   UNL A   1      35.722  30.109  28.315  1.00  0.00     0.039 A 
ATOM     31  C   UNL A   1      36.666  30.108  27.286  1.00  0.00     0.014 A 
ATOM     32  C   UNL A   1      36.064  29.616  29.576  1.00  0.00     0.014 A 
ATOM     33  C   UNL A   1      37.969  29.674  27.542  1.00  0.00     0.010 A 
ATOM     34  C   UNL A   1      37.385  29.271  29.854  1.00  0.00     0.010 A 
ATOM     35  C   UNL A   1      38.352  29.293  28.840  1.00  0.00    -0.014 A 
BRANCH  35  36
ATOM     36  C   UNL A   1      39.766  28.947  29.142  1.00  0.00     0.031 A 
ATOM     37  C   UNL A   1      40.686  29.948  29.788  1.00  0.00     0.074 A 
ATOM     38  C   UNL A   1      40.232  27.731  28.794  1.00  0.00     0.049 A 
ATOM     39  N   UNL A   1      41.941  29.807  30.133  1.00  0.00    -0.248 NA
ATOM     40  C   UNL A   1      40.136  31.285  30.059  1.00  0.00     0.031 C 
ATOM     41  C   UNL A   1      39.454  26.692  28.113  1.00  0.00     0.029 A 
ATOM     42  N   UNL A   1      41.469  27.159  28.965  1.00  0.00    -0.354 N 
ATOM     43  C   UNL A   1      42.334  31.036  30.648  1.00  0.00     0.074 A 
ATOM     44  C   UNL A   1      41.201  31.927  30.520  1.00  0.00     0.031 C 
ATOM     45  C   UNL A   1      40.218  25.599  27.964  1.00  0.00     0.029 A 
ATOM     46  C   UNL A   1      41.552  25.873  28.485  1.00  0.00     0.049 A 
ATOM     47  H   UNL A   1      42.225  27.626  29.390  1.00  0.00     0.167 HD
ATOM     48  C   UNL A   1      43.524  31.388  31.193  1.00  0.00     0.031 A 
ATOM     49  C   UNL A   1      42.586  25.010  28.456  1.00  0.00     0.031 A 
ATOM     50  C   UNL A   1      44.651  30.496  31.308  1.00  0.00     0.049 A 
ATOM     51  C   UNL A   1      43.901  25.425  29.051  1.00  0.00     0.074 A 
ATOM     52  C   UNL A   1      45.879  30.737  31.900  1.00  0.00     0.029 A 
ATOM     53  N   UNL A   1      44.698  29.204  30.804  1.00  0.00    -0.354 N 
ATOM     54  N   UNL A   1      44.225  26.564  29.618  1.00  0.00    -0.248 NA
ATOM     55  C   UNL A   1      44.986  24.436  29.016  1.00  0.00     0.031 C 
ATOM     56  C   UNL A   1      46.696  29.623  31.679  1.00  0.00     0.029 A 
ATOM     57  C   UNL A   1      45.950  28.653  31.030  1.00  0.00     0.049 A 
ATOM     58  H   UNL A   1      43.953  28.747  30.352  1.00  0.00     0.167 HD
ATOM     59  C   UNL A   1      45.547  26.420  30.026  1.00  0.00     0.074 A 
ATOM     60  C   UNL A   1      45.951  25.076  29.664  1.00  0.00     0.031 C 
ATOM     61  C   UNL A   1      46.352  27.321  30.645  1.00  0.00     0.031 A 
BRANCH  48  62
ATOM     62  C   UNL A   1      43.681  32.810  31.675  1.00  0.00    -0.014 A 
ATOM     63  C   UNL A   1      43.383  33.177  33.001  1.00  0.00     0.010 A 
ATOM     64  C   UNL A   1      44.167  33.791  30.792  1.00  0.00     0.010 A 
ATOM     65  C   UNL A   1      43.517  34.506  33.416  1.00  0.00     0.020 A 
ATOM     66  C   UNL A   1      44.337  35.114  31.213  1.00  0.00     0.020 A 
ATOM     67  C   UNL A   1      43.991  35.466  32.518  1.00  0.00     0.054 A 
BRANCH  67  68
ATOM     68  S   UNL A   1      44.158  37.180  33.087  1.00  0.00     0.124 S 
ATOM     69  O   UNL A   1      43.007  37.316  33.976  1.00  0.00    -0.237 OA
ATOM     70  O   UNL A   1      45.462  37.170  33.744  1.00  0.00    -0.237 OA
ATOM     71  O   UNL A   1      44.089  37.964  31.856  1.00  0.00    -0.744 OA
ENDBRANCH  67  68
ENDBRANCH  48  62
BRANCH  49  72
ATOM     72  C   UNL A   1      42.405  23.668  27.834  1.00  0.00    -0.014 A 
ATOM     73  C   UNL A   1      42.969  23.367  26.583  1.00  0.00     0.010 A 
ATOM     74  C   UNL A   1      41.694  22.665  28.521  1.00  0.00     0.010 A 
ATOM     75  C   UNL A   1      42.823  22.091  26.027  1.00  0.00     0.020 A 
ATOM     76  C   UNL A   1      41.575  21.380  27.987  1.00  0.00     0.020 A 
ATOM     77  C   UNL A   1      42.135  21.103  26.740  1.00  0.00     0.054 A 
BRANCH  77  78
ATOM     78  S   UNL A   1      42.029  19.434  26.036  1.00  0.00     0.124 S 
ATOM     79  O   UNL A   1      42.557  18.612  27.121  1.00  0.00    -0.237 OA
ATOM     80  O   UNL A   1      40.598  19.296  25.775  1.00  0.00    -0.237 OA
ATOM     81  O   UNL A   1      42.869  19.512  24.843  1.00  0.00    -0.744 OA
ENDBRANCH  77  78
ENDBRANCH  49  72
BRANCH  61  82
ATOM     82  C   UNL A   1      47.751  26.874  30.991  1.00  0.00    -0.014 A 
ATOM     83  C   UNL A   1      48.848  27.192  30.171  1.00  0.00     0.010 A 
ATOM     84  C   UNL A   1      47.974  26.155  32.180  1.00  0.00     0.010 A 
ATOM     85  C   UNL A   1      50.133  26.759  30.508  1.00  0.00     0.020 A 
ATOM     86  C   UNL A   1      49.262  25.754  32.541  1.00  0.00     0.020 A 
ATOM     87  C   UNL A   1      50.332  26.042  31.692  1.00  0.00     0.054 A 
BRANCH  87  88
ATOM     88  S   UNL A   1      52.014  25.516  32.119  1.00  0.00     0.124 S 
ATOM     89  O   UNL A   1      51.825  24.096  32.404  1.00  0.00    -0.237 OA
ATOM     90  O   UNL A   1      52.761  25.819  30.902  1.00  0.00    -0.237 OA
ATOM     91  O   UNL A   1      52.353  26.342  33.276  1.00  0.00    -0.744 OA
ENDBRANCH  87  88
ENDBRANCH  61  82
ENDBRANCH  35  36
ENDBRANCH  27  30
ENDBRANCH  25  26
ENDBRANCH  24  25
ENDBRANCH   1  24
TORSDOF 18
ENDMDL
MODEL 2
REMARK VINA RESULT:     -10.3      0.635      8.160
REMARK SMILES COc1cccc(-c2ccc(C#N)c(SCC(=O)NCCCNC(=O)c3ccc(-c4c5nc(c(-c6ccc(S(=O)(=O)[O-])cc6)c6ccc([nH]6)c(-c6ccc(S(=O)(=O)[O-])cc6)c6nc(c(-c7ccc(S(=O)(=O)[O-])cc7)c7ccc4[nH]7)C=C6)C=C5)cc3)n2)c1
REMARK SMILES IDX 20 1 19 2 17 3 18 4 16 6 15 7 14 8 8 9 9 10 86 11 10 12
REMARK SMILES IDX 11 13 7 14 3 15 4 16 87 17 5 18 6 19 2 20 1 21 12 22 13 23
REMARK SMILES IDX 21 24 22 25 23 26 24 27 25 29 26 30 27 31 85 32 28 33 84 34
REMARK SMILES IDX 29 35 30 36 31 37 78 38 32 39 83 40 77 41 79 42 33 43 82 44
REMARK SMILES IDX 76 45 75 46 34 48 64 49 45 50 63 51 46 52 49 53 62 54 80 55
REMARK SMILES IDX 47 56 48 57 61 59 81 60 50 61 35 62 36 63 44 64 37 65 43 66
REMARK SMILES IDX 38 67 39 68 40 69 41 70 42 71 65 72 66 73 74 74 67 75 73 76
REMARK SMILES IDX 68 77 69 78 70 79 71 80 72 81 51 82 52 83 60 84 53 85 59 86
REMARK SMILES IDX 54 87 55 88 56 89 57 90 58 91
REMARK H PARENT 19 5 23 28 79 47 49 58
REMARK Flexibility Score: inf
ROOT
ATOM      1  C   UNL A   1      33.722  28.853  24.815  1.00  0.00     0.117 C 
ENDROOT
BRANCH   1   2
ATOM      2  N   UNL A   1      32.628  29.261  23.957  1.00  0.00    -0.355 N 
ATOM      3  C   UNL A   1      32.278  28.822  22.722  1.00  0.00     0.230 C 
ATOM      4  O   UNL A   1      31.362  29.423  22.157  1.00  0.00    -0.274 OA
ATOM      5  H   UNL A   1      32.048  29.966  24.329  1.00  0.00     0.163 HD
BRANCH   3   6
ATOM      6  C   UNL A   1      32.928  27.602  22.107  1.00  0.00     0.176 C 
BRANCH   6   7
ATOM      7  S   UNL A   1      31.846  26.154  21.919  1.00  0.00    -0.095 SA
BRANCH   7   8
ATOM      8  C   UNL A   1      31.129  25.755  23.504  1.00  0.00     0.115 A 
ATOM      9  C   UNL A   1      31.660  24.540  25.460  1.00  0.00     0.072 A 
ATOM     10  C   UNL A   1      30.459  24.904  26.050  1.00  0.00     0.030 A 
ATOM     11  N   UNL A   1      31.979  24.938  24.204  1.00  0.00    -0.240 NA
ATOM     12  C   UNL A   1      29.601  25.746  25.357  1.00  0.00     0.024 A 
ATOM     13  C   UNL A   1      29.951  26.220  24.084  1.00  0.00     0.084 A 
BRANCH   9  14
ATOM     14  C   UNL A   1      32.666  23.784  26.224  1.00  0.00     0.004 A 
ATOM     15  C   UNL A   1      34.940  22.916  26.425  1.00  0.00     0.119 A 
ATOM     16  C   UNL A   1      34.535  22.065  27.449  1.00  0.00     0.046 A 
ATOM     17  C   UNL A   1      34.012  23.761  25.813  1.00  0.00     0.056 A 
ATOM     18  C   UNL A   1      33.217  22.099  27.903  1.00  0.00     0.005 A 
ATOM     19  C   UNL A   1      32.292  22.959  27.300  1.00  0.00     0.010 A 
BRANCH  15  20
ATOM     20  O   UNL A   1      36.237  22.788  26.005  1.00  0.00    -0.497 OA
ATOM     21  C   UNL A   1      36.608  23.713  24.984  1.00  0.00     0.278 C 
ENDBRANCH  15  20
ENDBRANCH   9  14
BRANCH  13  22
ATOM     22  C   UNL A   1      29.126  27.254  23.549  1.00  0.00     0.102 C 
ATOM     23  N   UNL A   1      28.382  28.068  23.177  1.00  0.00    -0.192 NA
ENDBRANCH  13  22
ENDBRANCH   7   8
ENDBRANCH   6   7
ENDBRANCH   3   6
ENDBRANCH   1   2
BRANCH   1  24
ATOM     24  C   UNL A   1      33.269  27.820  25.841  1.00  0.00     0.042 C 
BRANCH  24  25
ATOM     25  C   UNL A   1      33.502  28.234  27.292  1.00  0.00     0.118 C 
BRANCH  25  26
ATOM     26  N   UNL A   1      33.419  29.675  27.489  1.00  0.00    -0.352 N 
ATOM     27  C   UNL A   1      34.334  30.552  28.017  1.00  0.00     0.251 C 
ATOM     28  H   UNL A   1      32.573  30.084  27.200  1.00  0.00     0.163 HD
ATOM     29  O   UNL A   1      33.982  31.699  28.282  1.00  0.00    -0.269 OA
BRANCH  27  30
ATOM     30  C   UNL A   1      35.723  30.123  28.283  1.00  0.00     0.039 A 
ATOM     31  C   UNL A   1      36.638  30.127  27.228  1.00  0.00     0.014 A 
ATOM     32  C   UNL A   1      36.123  29.698  29.552  1.00  0.00     0.014 A 
ATOM     33  C   UNL A   1      37.967  29.767  27.463  1.00  0.00     0.010 A 
ATOM     34  C   UNL A   1      37.466  29.428  29.804  1.00  0.00     0.010 A 
ATOM     35  C   UNL A   1      38.403  29.456  28.762  1.00  0.00    -0.014 A 
BRANCH  35  36
ATOM     36  C   UNL A   1      39.840  29.190  29.036  1.00  0.00     0.031 A 
ATOM     37  C   UNL A   1      40.458  27.861  28.698  1.00  0.00     0.074 A 
ATOM     38  C   UNL A   1      40.582  30.145  29.632  1.00  0.00     0.049 A 
ATOM     39  N   UNL A   1      41.697  27.467  28.857  1.00  0.00    -0.248 NA
ATOM     40  C   UNL A   1      39.571  26.834  28.132  1.00  0.00     0.031 C 
ATOM     41  C   UNL A   1      40.084  31.457  30.059  1.00  0.00     0.029 A 
ATOM     42  N   UNL A   1      41.909  30.166  29.981  1.00  0.00    -0.354 N 
ATOM     43  C   UNL A   1      41.735  26.147  28.424  1.00  0.00     0.074 A 
ATOM     44  C   UNL A   1      40.384  25.790  28.048  1.00  0.00     0.031 C 
ATOM     45  C   UNL A   1      41.101  32.166  30.571  1.00  0.00     0.029 A 
ATOM     46  C   UNL A   1      42.308  31.347  30.562  1.00  0.00     0.049 A 
ATOM     47  H   UNL A   1      42.518  29.407  29.830  1.00  0.00     0.167 HD
ATOM     48  C   UNL A   1      42.798  25.312  28.333  1.00  0.00     0.031 A 
ATOM     49  C   UNL A   1      43.506  31.730  31.045  1.00  0.00     0.031 A 
ATOM     50  C   UNL A   1      44.140  25.673  28.720  1.00  0.00     0.049 A 
ATOM     51  C   UNL A   1      44.668  30.784  30.948  1.00  0.00     0.074 A 
ATOM     52  C   UNL A   1      45.297  24.922  28.608  1.00  0.00     0.029 A 
ATOM     53  N   UNL A   1      44.501  26.875  29.310  1.00  0.00    -0.354 N 
ATOM     54  N   UNL A   1      44.703  29.570  30.450  1.00  0.00    -0.248 NA
ATOM     55  C   UNL A   1      45.957  31.263  31.466  1.00  0.00     0.031 C 
ATOM     56  C   UNL A   1      46.340  25.635  29.208  1.00  0.00     0.029 A 
ATOM     57  C   UNL A   1      45.854  26.868  29.612  1.00  0.00     0.049 A 
ATOM     58  H   UNL A   1      43.887  27.624  29.490  1.00  0.00     0.167 HD
ATOM     59  C   UNL A   1      46.022  29.147  30.576  1.00  0.00     0.074 A 
ATOM     60  C   UNL A   1      46.756  30.245  31.172  1.00  0.00     0.031 C 
ATOM     61  C   UNL A   1      46.573  27.957  30.227  1.00  0.00     0.031 A 
BRANCH  48  62
ATOM     62  C   UNL A   1      42.549  23.911  27.828  1.00  0.00    -0.014 A 
ATOM     63  C   UNL A   1      42.123  22.881  28.688  1.00  0.00     0.010 A 
ATOM     64  C   UNL A   1      42.714  23.628  26.460  1.00  0.00     0.010 A 
ATOM     65  C   UNL A   1      41.920  21.587  28.200  1.00  0.00     0.020 A 
ATOM     66  C   UNL A   1      42.477  22.344  25.961  1.00  0.00     0.020 A 
ATOM     67  C   UNL A   1      42.101  21.326  26.839  1.00  0.00     0.054 A 
BRANCH  67  68
ATOM     68  S   UNL A   1      41.826  19.639  26.233  1.00  0.00     0.124 S 
ATOM     69  O   UNL A   1      42.324  18.834  27.346  1.00  0.00    -0.237 OA
ATOM     70  O   UNL A   1      40.380  19.606  26.033  1.00  0.00    -0.237 OA
ATOM     71  O   UNL A   1      42.624  19.572  25.012  1.00  0.00    -0.744 OA
ENDBRANCH  67  68
ENDBRANCH  48  62
BRANCH  49  72
ATOM     72  C   UNL A   1      43.652  33.078  31.664  1.00  0.00    -0.014 A 
ATOM     73  C   UNL A   1      43.985  34.200  30.886  1.00  0.00     0.010 A 
ATOM     74  C   UNL A   1      43.415  33.248  33.041  1.00  0.00     0.010 A 
ATOM     75  C   UNL A   1      44.083  35.466  31.473  1.00  0.00     0.020 A 
ATOM     76  C   UNL A   1      43.477  34.515  33.625  1.00  0.00     0.020 A 
ATOM     77  C   UNL A   1      43.817  35.616  32.839  1.00  0.00     0.054 A 
BRANCH  77  78
ATOM     78  S   UNL A   1      43.871  37.280  33.561  1.00  0.00     0.124 S 
ATOM     79  O   UNL A   1      42.635  37.314  34.337  1.00  0.00    -0.237 OA
ATOM     80  O   UNL A   1      45.107  37.243  34.338  1.00  0.00    -0.237 OA
ATOM     81  O   UNL A   1      43.902  38.158  32.394  1.00  0.00    -0.744 OA
ENDBRANCH  77  78
ENDBRANCH  49  72
BRANCH  61  82
ATOM     82  C   UNL A   1      48.053  27.786  30.464  1.00  0.00    -0.014 A 
ATOM     83  C   UNL A   1      48.546  27.193  31.640  1.00  0.00     0.010 A 
ATOM     84  C   UNL A   1      48.965  28.192  29.472  1.00  0.00     0.010 A 
ATOM     85  C   UNL A   1      49.923  27.054  31.840  1.00  0.00     0.020 A 
ATOM     86  C   UNL A   1      50.340  28.019  29.650  1.00  0.00     0.020 A 
ATOM     87  C   UNL A   1      50.811  27.468  30.843  1.00  0.00     0.054 A 
BRANCH  87  88
ATOM     88  S   UNL A   1      52.590  27.251  31.117  1.00  0.00     0.124 S 
ATOM     89  O   UNL A   1      52.955  26.340  30.035  1.00  0.00    -0.237 OA
ATOM     90  O   UNL A   1      53.100  28.613  30.992  1.00  0.00    -0.237 OA
ATOM     91  O   UNL A   1      52.668  26.682  32.461  1.00  0.00    -0.744 OA
ENDBRANCH  87  88
ENDBRANCH  61  82
ENDBRANCH  35  36
ENDBRANCH  27  30
ENDBRANCH  25  26
ENDBRANCH  24  25
ENDBRANCH   1  24
TORSDOF 18
ENDMDL
MODEL 3
REMARK VINA RESULT:     -10.2      3.338      4.190
REMARK SMILES COc1cccc(-c2ccc(C#N)c(SCC(=O)NCCCNC(=O)c3ccc(-c4c5nc(c(-c6ccc(S(=O)(=O)[O-])cc6)c6ccc([nH]6)c(-c6ccc(S(=O)(=O)[O-])cc6)c6nc(c(-c7ccc(S(=O)(=O)[O-])cc7)c7ccc4[nH]7)C=C6)C=C5)cc3)n2)c1
REMARK SMILES IDX 20 1 19 2 17 3 18 4 16 6 15 7 14 8 8 9 9 10 86 11 10 12
REMARK SMILES IDX 11 13 7 14 3 15 4 16 87 17 5 18 6 19 2 20 1 21 12 22 13 23
REMARK SMILES IDX 21 24 22 25 23 26 24 27 25 29 26 30 27 31 85 32 28 33 84 34
REMARK SMILES IDX 29 35 30 36 31 37 78 38 32 39 83 40 77 41 79 42 33 43 82 44
REMARK SMILES IDX 76 45 75 46 34 48 64 49 45 50 63 51 46 52 49 53 62 54 80 55
REMARK SMILES IDX 47 56 48 57 61 59 81 60 50 61 35 62 36 63 44 64 37 65 43 66
REMARK SMILES IDX 38 67 39 68 40 69 41 70 42 71 65 72 66 73 74 74 67 75 73 76
REMARK SMILES IDX 68 77 69 78 70 79 71 80 72 81 51 82 52 83 60 84 53 85 59 86
REMARK SMILES IDX 54 87 55 88 56 89 57 90 58 91
REMARK H PARENT 19 5 23 28 79 47 49 58
REMARK Flexibility Score: inf
ROOT
ATOM      1  C   UNL A   1      33.545  30.356  26.932  1.00  0.00     0.117 C 
ENDROOT
BRANCH   1   2
ATOM      2  N   UNL A   1      32.578  29.559  27.660  1.00  0.00    -0.355 N 
ATOM      3  C   UNL A   1      31.836  28.500  27.250  1.00  0.00     0.230 C 
ATOM      4  O   UNL A   1      30.994  28.071  28.042  1.00  0.00    -0.274 OA
ATOM      5  H   UNL A   1      32.437  29.829  28.597  1.00  0.00     0.163 HD
BRANCH   3   6
ATOM      6  C   UNL A   1      32.090  27.830  25.917  1.00  0.00     0.176 C 
BRANCH   6   7
ATOM      7  S   UNL A   1      31.278  26.220  25.688  1.00  0.00    -0.095 SA
BRANCH   7   8
ATOM      8  C   UNL A   1      31.907  25.459  24.201  1.00  0.00     0.115 A 
ATOM      9  C   UNL A   1      32.989  23.471  23.521  1.00  0.00     0.072 A 
ATOM     10  C   UNL A   1      32.987  23.885  22.198  1.00  0.00     0.030 A 
ATOM     11  N   UNL A   1      32.481  24.252  24.506  1.00  0.00    -0.240 NA
ATOM     12  C   UNL A   1      32.391  25.096  21.877  1.00  0.00     0.024 A 
ATOM     13  C   UNL A   1      31.800  25.882  22.878  1.00  0.00     0.084 A 
BRANCH   9  14
ATOM     14  C   UNL A   1      33.464  22.124  23.880  1.00  0.00     0.004 A 
ATOM     15  C   UNL A   1      32.971  19.790  24.404  1.00  0.00     0.119 A 
ATOM     16  C   UNL A   1      34.259  19.622  24.905  1.00  0.00     0.046 A 
ATOM     17  C   UNL A   1      32.575  21.033  23.904  1.00  0.00     0.056 A 
ATOM     18  C   UNL A   1      35.170  20.675  24.853  1.00  0.00     0.005 A 
ATOM     19  C   UNL A   1      34.777  21.914  24.336  1.00  0.00     0.010 A 
BRANCH  15  20
ATOM     20  O   UNL A   1      32.123  18.724  24.535  1.00  0.00    -0.497 OA
ATOM     21  C   UNL A   1      32.549  17.763  25.501  1.00  0.00     0.278 C 
ENDBRANCH  15  20
ENDBRANCH   9  14
BRANCH  13  22
ATOM     22  C   UNL A   1      31.016  26.986  22.430  1.00  0.00     0.102 C 
ATOM     23  N   UNL A   1      30.462  27.937  22.051  1.00  0.00    -0.192 NA
ENDBRANCH  13  22
ENDBRANCH   7   8
ENDBRANCH   6   7
ENDBRANCH   3   6
ENDBRANCH   1   2
BRANCH   1  24
ATOM     24  C   UNL A   1      34.973  29.988  27.322  1.00  0.00     0.042 C 
BRANCH  24  25
ATOM     25  C   UNL A   1      35.671  31.030  28.194  1.00  0.00     0.118 C 
BRANCH  25  26
ATOM     26  N   UNL A   1      35.617  30.708  29.614  1.00  0.00    -0.352 N 
ATOM     27  C   UNL A   1      36.554  30.124  30.428  1.00  0.00     0.251 C 
ATOM     28  H   UNL A   1      34.773  30.948  30.060  1.00  0.00     0.163 HD
ATOM     29  O   UNL A   1      36.227  29.756  31.553  1.00  0.00    -0.269 OA
BRANCH  27  30
ATOM     30  C   UNL A   1      37.940  29.919  29.956  1.00  0.00     0.039 A 
ATOM     31  C   UNL A   1      38.948  29.726  30.902  1.00  0.00     0.014 A 
ATOM     32  C   UNL A   1      38.255  29.940  28.595  1.00  0.00     0.014 A 
ATOM     33  C   UNL A   1      40.258  29.488  30.480  1.00  0.00     0.010 A 
ATOM     34  C   UNL A   1      39.542  29.613  28.173  1.00  0.00     0.010 A 
ATOM     35  C   UNL A   1      40.559  29.386  29.111  1.00  0.00    -0.014 A 
BRANCH  35  36
ATOM     36  C   UNL A   1      41.926  29.015  28.661  1.00  0.00     0.031 A 
ATOM     37  C   UNL A   1      43.019  30.045  28.577  1.00  0.00     0.074 A 
ATOM     38  C   UNL A   1      42.171  27.742  28.288  1.00  0.00     0.049 A 
ATOM     39  N   UNL A   1      44.270  29.890  28.219  1.00  0.00    -0.248 NA
ATOM     40  C   UNL A   1      42.661  31.431  28.913  1.00  0.00     0.031 C 
ATOM     41  C   UNL A   1      41.180  26.662  28.273  1.00  0.00     0.029 A 
ATOM     42  N   UNL A   1      43.325  27.138  27.853  1.00  0.00    -0.354 N 
ATOM     43  C   UNL A   1      44.841  31.155  28.274  1.00  0.00     0.074 A 
ATOM     44  C   UNL A   1      43.789  32.075  28.646  1.00  0.00     0.031 C 
ATOM     45  C   UNL A   1      41.778  25.523  27.892  1.00  0.00     0.029 A 
ATOM     46  C   UNL A   1      43.177  25.798  27.583  1.00  0.00     0.049 A 
ATOM     47  H   UNL A   1      44.177  27.620  27.744  1.00  0.00     0.167 HD
ATOM     48  C   UNL A   1      46.128  31.517  28.051  1.00  0.00     0.031 A 
ATOM     49  C   UNL A   1      44.061  24.889  27.127  1.00  0.00     0.031 A 
ATOM     50  C   UNL A   1      47.168  30.594  27.670  1.00  0.00     0.049 A 
ATOM     51  C   UNL A   1      45.479  25.315  26.871  1.00  0.00     0.074 A 
ATOM     52  C   UNL A   1      48.516  30.851  27.482  1.00  0.00     0.029 A 
ATOM     53  N   UNL A   1      46.977  29.247  27.399  1.00  0.00    -0.354 N 
ATOM     54  N   UNL A   1      46.022  26.501  27.018  1.00  0.00    -0.248 NA
ATOM     55  C   UNL A   1      46.406  24.278  26.401  1.00  0.00     0.031 C 
ATOM     56  C   UNL A   1      49.121  29.679  27.015  1.00  0.00     0.029 A 
ATOM     57  C   UNL A   1      48.172  28.670  26.999  1.00  0.00     0.049 A 
ATOM     58  H   UNL A   1      46.119  28.771  27.479  1.00  0.00     0.167 HD
ATOM     59  C   UNL A   1      47.362  26.347  26.678  1.00  0.00     0.074 A 
ATOM     60  C   UNL A   1      47.549  24.950  26.343  1.00  0.00     0.031 C 
ATOM     61  C   UNL A   1      48.346  27.281  26.646  1.00  0.00     0.031 A 
BRANCH  48  62
ATOM     62  C   UNL A   1      46.476  32.980  28.177  1.00  0.00    -0.014 A 
ATOM     63  C   UNL A   1      46.889  33.538  29.402  1.00  0.00     0.010 A 
ATOM     64  C   UNL A   1      46.421  33.806  27.039  1.00  0.00     0.010 A 
ATOM     65  C   UNL A   1      47.185  34.901  29.497  1.00  0.00     0.020 A 
ATOM     66  C   UNL A   1      46.751  35.162  27.122  1.00  0.00     0.020 A 
ATOM     67  C   UNL A   1      47.112  35.706  28.356  1.00  0.00     0.054 A 
BRANCH  67  68
ATOM     68  S   UNL A   1      47.507  37.469  28.508  1.00  0.00     0.124 S 
ATOM     69  O   UNL A   1      46.602  38.066  27.530  1.00  0.00    -0.237 OA
ATOM     70  O   UNL A   1      47.191  37.745  29.907  1.00  0.00    -0.237 OA
ATOM     71  O   UNL A   1      48.925  37.539  28.166  1.00  0.00    -0.744 OA
ENDBRANCH  67  68
ENDBRANCH  48  62
BRANCH  49  72
ATOM     72  C   UNL A   1      43.616  23.488  26.886  1.00  0.00    -0.014 A 
ATOM     73  C   UNL A   1      43.363  22.614  27.957  1.00  0.00     0.010 A 
ATOM     74  C   UNL A   1      43.404  23.034  25.571  1.00  0.00     0.010 A 
ATOM     75  C   UNL A   1      42.910  21.312  27.717  1.00  0.00     0.020 A 
ATOM     76  C   UNL A   1      42.919  21.747  25.327  1.00  0.00     0.020 A 
ATOM     77  C   UNL A   1      42.681  20.891  26.403  1.00  0.00     0.054 A 
BRANCH  77  78
ATOM     78  S   UNL A   1      42.017  19.226  26.122  1.00  0.00     0.124 S 
ATOM     79  O   UNL A   1      42.346  18.552  27.373  1.00  0.00    -0.237 OA
ATOM     80  O   UNL A   1      40.598  19.491  25.898  1.00  0.00    -0.237 OA
ATOM     81  O   UNL A   1      42.749  18.760  24.947  1.00  0.00    -0.744 OA
ENDBRANCH  77  78
ENDBRANCH  49  72
BRANCH  61  82
ATOM     82  C   UNL A   1      49.727  26.816  26.254  1.00  0.00    -0.014 A 
ATOM     83  C   UNL A   1      50.565  26.150  27.166  1.00  0.00     0.010 A 
ATOM     84  C   UNL A   1      50.178  27.019  24.936  1.00  0.00     0.010 A 
ATOM     85  C   UNL A   1      51.844  25.737  26.781  1.00  0.00     0.020 A 
ATOM     86  C   UNL A   1      51.439  26.573  24.536  1.00  0.00     0.020 A 
ATOM     87  C   UNL A   1      52.273  25.951  25.467  1.00  0.00     0.054 A 
BRANCH  87  88
ATOM     88  S   UNL A   1      53.925  25.381  24.988  1.00  0.00     0.124 S 
ATOM     89  O   UNL A   1      54.115  26.046  23.701  1.00  0.00    -0.237 OA
ATOM     90  O   UNL A   1      54.761  25.874  26.079  1.00  0.00    -0.237 OA
ATOM     91  O   UNL A   1      53.787  23.928  24.922  1.00  0.00    -0.744 OA
ENDBRANCH  87  88
ENDBRANCH  61  82
ENDBRANCH  35  36
ENDBRANCH  27  30
ENDBRANCH  25  26
ENDBRANCH  24  25
ENDBRANCH   1  24
TORSDOF 18
ENDMDL
