MODEL 1
REMARK VINA RESULT:     -10.7      0.000      0.000
REMARK SMILES Cc1csc(C[N@H+]2CCC[C@@H](CC(=O)NCCCNC(=O)c3ccc(-c4c5nc(c(-c6ccc(S(=O)(=O)[O-])cc6)c6ccc([nH]6)c(-c6ccc(S(=O)(=O)[O-])cc6)c6nc(c(-c7ccc(S(=O)(=O)[O-])cc7)c7ccc4[nH]7)C=C6)C=C5)cc3)C2)n1
REMARK SMILES IDX 17 1 16 2 15 3 13 4 14 5 12 7 11 8 7 9 8 10 82 11 9 13 10 14
REMARK SMILES IDX 6 15 5 16 1 17 2 18 3 19 83 20 4 21 18 22 19 23 20 24 21 26
REMARK SMILES IDX 22 27 23 28 81 29 24 30 80 31 25 32 26 33 27 34 74 35 28 36
REMARK SMILES IDX 79 37 73 38 75 39 29 40 78 41 72 42 71 43 30 45 60 46 41 47
REMARK SMILES IDX 59 48 42 49 45 50 58 51 76 52 43 53 44 54 57 56 77 57 46 58
REMARK SMILES IDX 31 59 32 60 40 61 33 62 39 63 34 64 35 65 36 66 37 67 38 68
REMARK SMILES IDX 61 69 62 70 70 71 63 72 69 73 64 74 65 75 66 76 67 77 68 78
REMARK SMILES IDX 47 79 48 80 56 81 49 82 55 83 50 84 51 85 52 86 53 87 54 88
REMARK H PARENT 15 6 7 12 19 25 75 44 45 55
REMARK Flexibility Score: inf
ROOT
ATOM      1  C   UNL A   1      33.334  27.589  26.525  1.00  0.00     0.042 C 
ENDROOT
BRANCH   1   2
ATOM      2  C   UNL A   1      31.852  27.871  26.776  1.00  0.00     0.117 C 
BRANCH   2   3
ATOM      3  N   UNL A   1      31.049  26.678  26.987  1.00  0.00    -0.356 N 
ATOM      4  C   UNL A   1      30.284  25.956  26.125  1.00  0.00     0.220 C 
ATOM      5  O   UNL A   1      29.709  24.954  26.551  1.00  0.00    -0.275 OA
ATOM      6  H   UNL A   1      31.060  26.336  27.911  1.00  0.00     0.163 HD
BRANCH   4   7
ATOM      7  C   UNL A   1      30.151  26.376  24.679  1.00  0.00     0.109 C 
BRANCH   7   8
ATOM      8  C   UNL A   1      31.375  26.120  23.778  1.00  0.00     0.054 C 
ATOM      9  N   UNL A   1      32.735  24.224  22.759  1.00  0.00    -0.329 N 
ATOM     10  C   UNL A   1      32.853  24.994  21.511  1.00  0.00     0.262 C 
ATOM     11  C   UNL A   1      31.591  24.599  23.610  1.00  0.00     0.266 C 
ATOM     12  H   UNL A   1      33.559  24.464  23.309  1.00  0.00     0.348 HD
ATOM     13  C   UNL A   1      32.637  26.491  21.688  1.00  0.00     0.062 C 
ATOM     14  C   UNL A   1      31.299  26.730  22.374  1.00  0.00     0.016 C 
BRANCH   9  15
ATOM     15  C   UNL A   1      32.730  22.757  22.469  1.00  0.00     0.331 C 
BRANCH  15  16
ATOM     16  C   UNL A   1      33.326  21.885  23.563  1.00  0.00     0.147 A 
ATOM     17  C   UNL A   1      35.884  21.562  26.062  1.00  0.00     0.067 C 
ATOM     18  C   UNL A   1      34.668  21.334  25.243  1.00  0.00     0.049 A 
ATOM     19  C   UNL A   1      33.601  20.508  25.536  1.00  0.00     0.090 A 
ATOM     20  N   UNL A   1      34.535  22.046  24.066  1.00  0.00    -0.240 NA
ATOM     21  S   UNL A   1      32.391  20.655  24.328  1.00  0.00    -0.121 S 
ENDBRANCH  15  16
ENDBRANCH   9  15
ENDBRANCH   7   8
ENDBRANCH   4   7
ENDBRANCH   2   3
ENDBRANCH   1   2
BRANCH   1  22
ATOM     22  C   UNL A   1      34.119  28.751  25.917  1.00  0.00     0.118 C 
BRANCH  22  23
ATOM     23  N   UNL A   1      33.841  30.006  26.596  1.00  0.00    -0.352 N 
ATOM     24  C   UNL A   1      34.525  30.598  27.629  1.00  0.00     0.251 C 
ATOM     25  H   UNL A   1      33.054  30.500  26.270  1.00  0.00     0.163 HD
ATOM     26  O   UNL A   1      34.002  31.528  28.245  1.00  0.00    -0.269 OA
BRANCH  24  27
ATOM     27  C   UNL A   1      35.876  30.126  28.012  1.00  0.00     0.039 A 
ATOM     28  C   UNL A   1      36.080  29.636  29.306  1.00  0.00     0.014 A 
ATOM     29  C   UNL A   1      36.953  30.220  27.125  1.00  0.00     0.014 A 
ATOM     30  C   UNL A   1      37.353  29.205  29.697  1.00  0.00     0.010 A 
ATOM     31  C   UNL A   1      38.211  29.742  27.501  1.00  0.00     0.010 A 
ATOM     32  C   UNL A   1      38.427  29.238  28.793  1.00  0.00    -0.014 A 
BRANCH  32  33
ATOM     33  C   UNL A   1      39.787  28.783  29.191  1.00  0.00     0.031 A 
ATOM     34  C   UNL A   1      40.706  29.717  29.937  1.00  0.00     0.074 A 
ATOM     35  C   UNL A   1      40.216  27.550  28.854  1.00  0.00     0.049 A 
ATOM     36  N   UNL A   1      41.954  29.540  30.289  1.00  0.00    -0.248 NA
ATOM     37  C   UNL A   1      40.153  31.026  30.323  1.00  0.00     0.031 C 
ATOM     38  C   UNL A   1      39.436  26.549  28.124  1.00  0.00     0.029 A 
ATOM     39  N   UNL A   1      41.422  26.930  29.076  1.00  0.00    -0.354 N 
ATOM     40  C   UNL A   1      42.339  30.714  30.928  1.00  0.00     0.074 A 
ATOM     41  C   UNL A   1      41.206  31.613  30.877  1.00  0.00     0.031 C 
ATOM     42  C   UNL A   1      40.178  25.440  27.970  1.00  0.00     0.029 A 
ATOM     43  C   UNL A   1      41.497  25.660  28.555  1.00  0.00     0.049 A 
ATOM     44  H   UNL A   1      42.164  27.358  29.563  1.00  0.00     0.167 HD
ATOM     45  C   UNL A   1      43.519  31.013  31.523  1.00  0.00     0.031 A 
ATOM     46  C   UNL A   1      42.515  24.776  28.538  1.00  0.00     0.031 A 
ATOM     47  C   UNL A   1      44.644  30.120  31.589  1.00  0.00     0.049 A 
ATOM     48  C   UNL A   1      43.825  25.144  29.184  1.00  0.00     0.074 A 
ATOM     49  C   UNL A   1      45.879  30.334  32.178  1.00  0.00     0.029 A 
ATOM     50  N   UNL A   1      44.670  28.839  31.062  1.00  0.00    -0.354 N 
ATOM     51  N   UNL A   1      44.159  26.255  29.797  1.00  0.00    -0.248 NA
ATOM     52  C   UNL A   1      44.892  24.133  29.144  1.00  0.00     0.031 C 
ATOM     53  C   UNL A   1      46.662  29.192  31.984  1.00  0.00     0.029 A 
ATOM     54  C   UNL A   1      45.898  28.250  31.313  1.00  0.00     0.049 A 
ATOM     55  H   UNL A   1      43.925  28.411  30.581  1.00  0.00     0.167 HD
ATOM     56  C   UNL A   1      45.462  26.060  30.244  1.00  0.00     0.074 A 
ATOM     57  C   UNL A   1      45.852  24.726  29.842  1.00  0.00     0.031 C 
ATOM     58  C   UNL A   1      46.264  26.913  30.927  1.00  0.00     0.031 A 
BRANCH  45  59
ATOM     59  C   UNL A   1      43.651  32.366  32.169  1.00  0.00    -0.014 A 
ATOM     60  C   UNL A   1      43.316  32.549  33.522  1.00  0.00     0.010 A 
ATOM     61  C   UNL A   1      44.175  33.449  31.439  1.00  0.00     0.010 A 
ATOM     62  C   UNL A   1      43.475  33.798  34.127  1.00  0.00     0.020 A 
ATOM     63  C   UNL A   1      44.358  34.694  32.048  1.00  0.00     0.020 A 
ATOM     64  C   UNL A   1      43.994  34.863  33.386  1.00  0.00     0.054 A 
BRANCH  64  65
ATOM     65  S   UNL A   1      44.228  36.463  34.210  1.00  0.00     0.124 S 
ATOM     66  O   UNL A   1      42.970  37.143  33.909  1.00  0.00    -0.237 OA
ATOM     67  O   UNL A   1      44.417  36.080  35.607  1.00  0.00    -0.237 OA
ATOM     68  O   UNL A   1      45.408  37.021  33.556  1.00  0.00    -0.744 OA
ENDBRANCH  64  65
ENDBRANCH  45  59
BRANCH  46  69
ATOM     69  C   UNL A   1      42.350  23.450  27.884  1.00  0.00    -0.014 A 
ATOM     70  C   UNL A   1      41.661  22.412  28.535  1.00  0.00     0.010 A 
ATOM     71  C   UNL A   1      42.917  23.207  26.620  1.00  0.00     0.010 A 
ATOM     72  C   UNL A   1      41.579  21.142  27.956  1.00  0.00     0.020 A 
ATOM     73  C   UNL A   1      42.814  21.947  26.024  1.00  0.00     0.020 A 
ATOM     74  C   UNL A   1      42.163  20.916  26.706  1.00  0.00     0.054 A 
BRANCH  74  75
ATOM     75  S   UNL A   1      42.042  19.264  25.964  1.00  0.00     0.124 S 
ATOM     76  O   UNL A   1      42.588  18.419  27.021  1.00  0.00    -0.237 OA
ATOM     77  O   UNL A   1      40.609  19.128  25.719  1.00  0.00    -0.237 OA
ATOM     78  O   UNL A   1      42.864  19.374  24.761  1.00  0.00    -0.744 OA
ENDBRANCH  74  75
ENDBRANCH  46  69
BRANCH  58  79
ATOM     79  C   UNL A   1      47.623  26.413  31.336  1.00  0.00    -0.014 A 
ATOM     80  C   UNL A   1      47.815  25.728  32.548  1.00  0.00     0.010 A 
ATOM     81  C   UNL A   1      48.712  26.582  30.461  1.00  0.00     0.010 A 
ATOM     82  C   UNL A   1      49.080  25.243  32.891  1.00  0.00     0.020 A 
ATOM     83  C   UNL A   1      49.974  26.078  30.790  1.00  0.00     0.020 A 
ATOM     84  C   UNL A   1      50.152  25.422  32.010  1.00  0.00     0.054 A 
BRANCH  84  85
ATOM     85  S   UNL A   1      51.773  24.738  32.452  1.00  0.00     0.124 S 
ATOM     86  O   UNL A   1      51.560  23.307  32.264  1.00  0.00    -0.237 OA
ATOM     87  O   UNL A   1      52.665  25.373  31.484  1.00  0.00    -0.237 OA
ATOM     88  O   UNL A   1      51.963  25.165  33.837  1.00  0.00    -0.744 OA
ENDBRANCH  84  85
ENDBRANCH  58  79
ENDBRANCH  32  33
ENDBRANCH  24  27
ENDBRANCH  22  23
ENDBRANCH   1  22
TORSDOF 16
ENDMDL
MODEL 2
REMARK VINA RESULT:     -10.6      2.844      9.463
REMARK SMILES Cc1csc(C[N@H+]2CCC[C@@H](CC(=O)NCCCNC(=O)c3ccc(-c4c5nc(c(-c6ccc(S(=O)(=O)[O-])cc6)c6ccc([nH]6)c(-c6ccc(S(=O)(=O)[O-])cc6)c6nc(c(-c7ccc(S(=O)(=O)[O-])cc7)c7ccc4[nH]7)C=C6)C=C5)cc3)C2)n1
REMARK SMILES IDX 17 1 16 2 15 3 13 4 14 5 12 7 11 8 7 9 8 10 82 11 9 13 10 14
REMARK SMILES IDX 6 15 5 16 1 17 2 18 3 19 83 20 4 21 18 22 19 23 20 24 21 26
REMARK SMILES IDX 22 27 23 28 81 29 24 30 80 31 25 32 26 33 27 34 74 35 28 36
REMARK SMILES IDX 79 37 73 38 75 39 29 40 78 41 72 42 71 43 30 45 60 46 41 47
REMARK SMILES IDX 59 48 42 49 45 50 58 51 76 52 43 53 44 54 57 56 77 57 46 58
REMARK SMILES IDX 31 59 32 60 40 61 33 62 39 63 34 64 35 65 36 66 37 67 38 68
REMARK SMILES IDX 61 69 62 70 70 71 63 72 69 73 64 74 65 75 66 76 67 77 68 78
REMARK SMILES IDX 47 79 48 80 56 81 49 82 55 83 50 84 51 85 52 86 53 87 54 88
REMARK H PARENT 15 6 7 12 19 25 75 44 45 55
REMARK Flexibility Score: inf
ROOT
ATOM      1  C   UNL A   1      35.220  22.523  26.089  1.00  0.00     0.042 C 
ENDROOT
BRANCH   1   2
ATOM      2  C   UNL A   1      35.181  21.392  25.059  1.00  0.00     0.117 C 
BRANCH   2   3
ATOM      3  N   UNL A   1      34.386  20.246  25.467  1.00  0.00    -0.356 N 
ATOM      4  C   UNL A   1      33.063  19.977  25.305  1.00  0.00     0.220 C 
ATOM      5  O   UNL A   1      32.627  18.906  25.729  1.00  0.00    -0.275 OA
ATOM      6  H   UNL A   1      34.892  19.546  25.941  1.00  0.00     0.163 HD
BRANCH   4   7
ATOM      7  C   UNL A   1      32.155  20.971  24.618  1.00  0.00     0.109 C 
BRANCH   7   8
ATOM      8  C   UNL A   1      31.808  22.244  25.415  1.00  0.00     0.054 C 
ATOM      9  N   UNL A   1      31.628  24.770  25.150  1.00  0.00    -0.329 N 
ATOM     10  C   UNL A   1      30.416  24.761  25.984  1.00  0.00     0.262 C 
ATOM     11  C   UNL A   1      31.942  23.484  24.502  1.00  0.00     0.266 C 
ATOM     12  H   UNL A   1      32.403  24.935  25.792  1.00  0.00     0.348 HD
ATOM     13  C   UNL A   1      30.294  23.535  26.879  1.00  0.00     0.062 C 
ATOM     14  C   UNL A   1      30.404  22.276  26.028  1.00  0.00     0.016 C 
BRANCH   9  15
ATOM     15  C   UNL A   1      31.562  25.876  24.145  1.00  0.00     0.331 C 
BRANCH  15  16
ATOM     16  C   UNL A   1      32.148  27.200  24.609  1.00  0.00     0.147 A 
ATOM     17  C   UNL A   1      34.427  28.834  26.852  1.00  0.00     0.067 C 
ATOM     18  C   UNL A   1      33.477  28.569  25.742  1.00  0.00     0.049 A 
ATOM     19  C   UNL A   1      33.217  29.373  24.650  1.00  0.00     0.090 A 
ATOM     20  N   UNL A   1      32.790  27.370  25.749  1.00  0.00    -0.240 NA
ATOM     21  S   UNL A   1      32.114  28.592  23.592  1.00  0.00    -0.121 S 
ENDBRANCH  15  16
ENDBRANCH   9  15
ENDBRANCH   7   8
ENDBRANCH   4   7
ENDBRANCH   2   3
ENDBRANCH   1   2
BRANCH   1  22
ATOM     22  C   UNL A   1      36.524  23.319  26.126  1.00  0.00     0.118 C 
BRANCH  22  23
ATOM     23  N   UNL A   1      37.689  22.452  26.064  1.00  0.00    -0.352 N 
ATOM     24  C   UNL A   1      39.011  22.766  26.265  1.00  0.00     0.251 C 
ATOM     25  H   UNL A   1      37.506  21.509  25.847  1.00  0.00     0.163 HD
ATOM     26  O   UNL A   1      39.882  21.964  25.922  1.00  0.00    -0.269 OA
BRANCH  24  27
ATOM     27  C   UNL A   1      39.398  24.057  26.881  1.00  0.00     0.039 A 
ATOM     28  C   UNL A   1      40.065  25.006  26.101  1.00  0.00     0.014 A 
ATOM     29  C   UNL A   1      39.160  24.311  28.235  1.00  0.00     0.014 A 
ATOM     30  C   UNL A   1      40.459  26.224  26.667  1.00  0.00     0.010 A 
ATOM     31  C   UNL A   1      39.508  25.548  28.785  1.00  0.00     0.010 A 
ATOM     32  C   UNL A   1      40.170  26.513  28.011  1.00  0.00    -0.014 A 
BRANCH  32  33
ATOM     33  C   UNL A   1      40.580  27.803  28.629  1.00  0.00     0.031 A 
ATOM     34  C   UNL A   1      41.967  27.958  29.199  1.00  0.00     0.074 A 
ATOM     35  C   UNL A   1      39.702  28.823  28.718  1.00  0.00     0.049 A 
ATOM     36  N   UNL A   1      42.482  28.966  29.857  1.00  0.00    -0.248 NA
ATOM     37  C   UNL A   1      42.891  26.826  29.016  1.00  0.00     0.031 C 
ATOM     38  C   UNL A   1      38.326  28.805  28.219  1.00  0.00     0.029 A 
ATOM     39  N   UNL A   1      39.838  30.075  29.268  1.00  0.00    -0.354 N 
ATOM     40  C   UNL A   1      43.782  28.588  30.176  1.00  0.00     0.074 A 
ATOM     41  C   UNL A   1      43.964  27.242  29.676  1.00  0.00     0.031 C 
ATOM     42  C   UNL A   1      37.750  29.992  28.475  1.00  0.00     0.029 A 
ATOM     43  C   UNL A   1      38.700  30.842  29.188  1.00  0.00     0.049 A 
ATOM     44  H   UNL A   1      40.673  30.392  29.682  1.00  0.00     0.167 HD
ATOM     45  C   UNL A   1      44.746  29.301  30.806  1.00  0.00     0.031 A 
ATOM     46  C   UNL A   1      38.443  32.083  29.646  1.00  0.00     0.031 A 
ATOM     47  C   UNL A   1      44.576  30.644  31.293  1.00  0.00     0.049 A 
ATOM     48  C   UNL A   1      39.524  32.844  30.368  1.00  0.00     0.074 A 
ATOM     49  C   UNL A   1      45.499  31.448  31.939  1.00  0.00     0.029 A 
ATOM     50  N   UNL A   1      43.412  31.387  31.177  1.00  0.00    -0.354 N 
ATOM     51  N   UNL A   1      40.752  32.471  30.643  1.00  0.00    -0.248 NA
ATOM     52  C   UNL A   1      39.187  34.198  30.833  1.00  0.00     0.031 C 
ATOM     53  C   UNL A   1      44.885  32.669  32.237  1.00  0.00     0.029 A 
ATOM     54  C   UNL A   1      43.593  32.639  31.737  1.00  0.00     0.049 A 
ATOM     55  H   UNL A   1      42.579  31.070  30.757  1.00  0.00     0.167 HD
ATOM     56  C   UNL A   1      41.340  33.558  31.281  1.00  0.00     0.074 A 
ATOM     57  C   UNL A   1      40.342  34.604  31.342  1.00  0.00     0.031 C 
ATOM     58  C   UNL A   1      42.598  33.678  31.771  1.00  0.00     0.031 A 
BRANCH  45  59
ATOM     59  C   UNL A   1      46.086  28.645  30.995  1.00  0.00    -0.014 A 
ATOM     60  C   UNL A   1      46.320  27.793  32.090  1.00  0.00     0.010 A 
ATOM     61  C   UNL A   1      47.103  28.826  30.039  1.00  0.00     0.010 A 
ATOM     62  C   UNL A   1      47.554  27.157  32.242  1.00  0.00     0.020 A 
ATOM     63  C   UNL A   1      48.331  28.171  30.174  1.00  0.00     0.020 A 
ATOM     64  C   UNL A   1      48.553  27.351  31.283  1.00  0.00     0.054 A 
BRANCH  64  65
ATOM     65  S   UNL A   1      50.131  26.480  31.484  1.00  0.00     0.124 S 
ATOM     66  O   UNL A   1      50.641  26.461  30.115  1.00  0.00    -0.237 OA
ATOM     67  O   UNL A   1      50.858  27.341  32.413  1.00  0.00    -0.237 OA
ATOM     68  O   UNL A   1      49.743  25.179  32.021  1.00  0.00    -0.744 OA
ENDBRANCH  64  65
ENDBRANCH  45  59
BRANCH  46  69
ATOM     69  C   UNL A   1      37.102  32.697  29.447  1.00  0.00    -0.014 A 
ATOM     70  C   UNL A   1      36.789  33.358  28.246  1.00  0.00     0.010 A 
ATOM     71  C   UNL A   1      36.143  32.659  30.476  1.00  0.00     0.010 A 
ATOM     72  C   UNL A   1      35.560  34.006  28.092  1.00  0.00     0.020 A 
ATOM     73  C   UNL A   1      34.903  33.282  30.316  1.00  0.00     0.020 A 
ATOM     74  C   UNL A   1      34.627  33.970  29.133  1.00  0.00     0.054 A 
BRANCH  74  75
ATOM     75  S   UNL A   1      33.034  34.811  28.915  1.00  0.00     0.124 S 
ATOM     76  O   UNL A   1      33.448  36.114  28.406  1.00  0.00    -0.237 OA
ATOM     77  O   UNL A   1      32.345  33.947  27.960  1.00  0.00    -0.237 OA
ATOM     78  O   UNL A   1      32.467  34.814  30.261  1.00  0.00    -0.744 OA
ENDBRANCH  74  75
ENDBRANCH  46  69
BRANCH  58  79
ATOM     79  C   UNL A   1      42.989  35.003  32.368  1.00  0.00    -0.014 A 
ATOM     80  C   UNL A   1      43.639  35.985  31.601  1.00  0.00     0.010 A 
ATOM     81  C   UNL A   1      42.644  35.288  33.702  1.00  0.00     0.010 A 
ATOM     82  C   UNL A   1      43.962  37.222  32.168  1.00  0.00     0.020 A 
ATOM     83  C   UNL A   1      42.944  36.532  34.265  1.00  0.00     0.020 A 
ATOM     84  C   UNL A   1      43.613  37.487  33.496  1.00  0.00     0.054 A 
BRANCH  84  85
ATOM     85  S   UNL A   1      43.995  39.117  34.194  1.00  0.00     0.124 S 
ATOM     86  O   UNL A   1      44.074  38.825  35.622  1.00  0.00    -0.237 OA
ATOM     87  O   UNL A   1      45.263  39.454  33.550  1.00  0.00    -0.237 OA
ATOM     88  O   UNL A   1      42.859  39.942  33.788  1.00  0.00    -0.744 OA
ENDBRANCH  84  85
ENDBRANCH  58  79
ENDBRANCH  32  33
ENDBRANCH  24  27
ENDBRANCH  22  23
ENDBRANCH   1  22
TORSDOF 16
ENDMDL
MODEL 3
REMARK VINA RESULT:     -10.3      1.349      2.113
REMARK SMILES Cc1csc(C[N@H+]2CCC[C@@H](CC(=O)NCCCNC(=O)c3ccc(-c4c5nc(c(-c6ccc(S(=O)(=O)[O-])cc6)c6ccc([nH]6)c(-c6ccc(S(=O)(=O)[O-])cc6)c6nc(c(-c7ccc(S(=O)(=O)[O-])cc7)c7ccc4[nH]7)C=C6)C=C5)cc3)C2)n1
REMARK SMILES IDX 17 1 16 2 15 3 13 4 14 5 12 7 11 8 7 9 8 10 82 11 9 13 10 14
REMARK SMILES IDX 6 15 5 16 1 17 2 18 3 19 83 20 4 21 18 22 19 23 20 24 21 26
REMARK SMILES IDX 22 27 23 28 81 29 24 30 80 31 25 32 26 33 27 34 74 35 28 36
REMARK SMILES IDX 79 37 73 38 75 39 29 40 78 41 72 42 71 43 30 45 60 46 41 47
REMARK SMILES IDX 59 48 42 49 45 50 58 51 76 52 43 53 44 54 57 56 77 57 46 58
REMARK SMILES IDX 31 59 32 60 40 61 33 62 39 63 34 64 35 65 36 66 37 67 38 68
REMARK SMILES IDX 61 69 62 70 70 71 63 72 69 73 64 74 65 75 66 76 67 77 68 78
REMARK SMILES IDX 47 79 48 80 56 81 49 82 55 83 50 84 51 85 52 86 53 87 54 88
REMARK H PARENT 15 6 7 12 19 25 75 44 45 55
REMARK Flexibility Score: inf
ROOT
ATOM      1  C   UNL A   1      33.038  28.296  25.133  1.00  0.00     0.042 C 
ENDROOT
BRANCH   1   2
ATOM      2  C   UNL A   1      33.425  27.132  24.219  1.00  0.00     0.117 C 
BRANCH   2   3
ATOM      3  N   UNL A   1      32.574  26.987  23.050  1.00  0.00    -0.356 N 
ATOM      4  C   UNL A   1      32.419  25.949  22.186  1.00  0.00     0.220 C 
ATOM      5  O   UNL A   1      31.603  26.065  21.271  1.00  0.00    -0.275 OA
ATOM      6  H   UNL A   1      32.016  27.773  22.850  1.00  0.00     0.163 HD
BRANCH   4   7
ATOM      7  C   UNL A   1      33.227  24.682  22.352  1.00  0.00     0.109 C 
BRANCH   7   8
ATOM      8  C   UNL A   1      32.549  23.535  23.127  1.00  0.00     0.054 C 
ATOM      9  N   UNL A   1      33.078  21.323  24.272  1.00  0.00    -0.329 N 
ATOM     10  C   UNL A   1      32.141  21.671  25.352  1.00  0.00     0.262 C 
ATOM     11  C   UNL A   1      33.604  22.474  23.517  1.00  0.00     0.266 C 
ATOM     12  H   UNL A   1      32.531  20.794  23.594  1.00  0.00     0.348 HD
ATOM     13  C   UNL A   1      31.107  22.718  24.958  1.00  0.00     0.062 C 
ATOM     14  C   UNL A   1      31.819  23.947  24.409  1.00  0.00     0.016 C 
BRANCH   9  15
ATOM     15  C   UNL A   1      34.189  20.473  24.800  1.00  0.00     0.331 C 
BRANCH  15  16
ATOM     16  C   UNL A   1      34.072  18.992  24.478  1.00  0.00     0.147 A 
ATOM     17  C   UNL A   1      35.284  15.682  25.165  1.00  0.00     0.067 C 
ATOM     18  C   UNL A   1      34.468  16.816  24.663  1.00  0.00     0.049 A 
ATOM     19  C   UNL A   1      33.200  16.761  24.118  1.00  0.00     0.090 A 
ATOM     20  N   UNL A   1      34.988  18.091  24.779  1.00  0.00    -0.240 NA
ATOM     21  S   UNL A   1      32.635  18.345  23.776  1.00  0.00    -0.121 S 
ENDBRANCH  15  16
ENDBRANCH   9  15
ENDBRANCH   7   8
ENDBRANCH   4   7
ENDBRANCH   2   3
ENDBRANCH   1   2
BRANCH   1  22
ATOM     22  C   UNL A   1      34.046  28.615  26.236  1.00  0.00     0.118 C 
BRANCH  22  23
ATOM     23  N   UNL A   1      33.808  29.922  26.826  1.00  0.00    -0.352 N 
ATOM     24  C   UNL A   1      34.538  30.584  27.782  1.00  0.00     0.251 C 
ATOM     25  H   UNL A   1      33.012  30.399  26.496  1.00  0.00     0.163 HD
ATOM     26  O   UNL A   1      34.050  31.565  28.345  1.00  0.00    -0.269 OA
BRANCH  24  27
ATOM     27  C   UNL A   1      35.900  30.127  28.146  1.00  0.00     0.039 A 
ATOM     28  C   UNL A   1      36.117  29.592  29.420  1.00  0.00     0.014 A 
ATOM     29  C   UNL A   1      36.973  30.277  27.262  1.00  0.00     0.014 A 
ATOM     30  C   UNL A   1      37.399  29.174  29.794  1.00  0.00     0.010 A 
ATOM     31  C   UNL A   1      38.241  29.811  27.619  1.00  0.00     0.010 A 
ATOM     32  C   UNL A   1      38.471  29.264  28.890  1.00  0.00    -0.014 A 
BRANCH  32  33
ATOM     33  C   UNL A   1      39.841  28.822  29.270  1.00  0.00     0.031 A 
ATOM     34  C   UNL A   1      40.758  29.764  30.008  1.00  0.00     0.074 A 
ATOM     35  C   UNL A   1      40.280  27.596  28.922  1.00  0.00     0.049 A 
ATOM     36  N   UNL A   1      42.013  29.600  30.344  1.00  0.00    -0.248 NA
ATOM     37  C   UNL A   1      40.194  31.065  30.407  1.00  0.00     0.031 C 
ATOM     38  C   UNL A   1      39.502  26.589  28.197  1.00  0.00     0.029 A 
ATOM     39  N   UNL A   1      41.495  26.990  29.127  1.00  0.00    -0.354 N 
ATOM     40  C   UNL A   1      42.391  30.776  30.984  1.00  0.00     0.074 A 
ATOM     41  C   UNL A   1      41.247  31.661  30.951  1.00  0.00     0.031 C 
ATOM     42  C   UNL A   1      40.255  25.489  28.029  1.00  0.00     0.029 A 
ATOM     43  C   UNL A   1      41.578  25.723  28.599  1.00  0.00     0.049 A 
ATOM     44  H   UNL A   1      42.238  27.423  29.606  1.00  0.00     0.167 HD
ATOM     45  C   UNL A   1      43.575  31.086  31.565  1.00  0.00     0.031 A 
ATOM     46  C   UNL A   1      42.606  24.851  28.566  1.00  0.00     0.031 A 
ATOM     47  C   UNL A   1      44.711  30.206  31.614  1.00  0.00     0.049 A 
ATOM     48  C   UNL A   1      43.920  25.230  29.197  1.00  0.00     0.074 A 
ATOM     49  C   UNL A   1      45.951  30.431  32.189  1.00  0.00     0.029 A 
ATOM     50  N   UNL A   1      44.746  28.927  31.081  1.00  0.00    -0.354 N 
ATOM     51  N   UNL A   1      44.249  26.343  29.810  1.00  0.00    -0.248 NA
ATOM     52  C   UNL A   1      44.998  24.232  29.139  1.00  0.00     0.031 C 
ATOM     53  C   UNL A   1      46.744  29.299  31.980  1.00  0.00     0.029 A 
ATOM     54  C   UNL A   1      45.983  28.352  31.313  1.00  0.00     0.049 A 
ATOM     55  H   UNL A   1      44.000  28.493  30.607  1.00  0.00     0.167 HD
ATOM     56  C   UNL A   1      45.560  26.161  30.240  1.00  0.00     0.074 A 
ATOM     57  C   UNL A   1      45.959  24.833  29.828  1.00  0.00     0.031 C 
ATOM     58  C   UNL A   1      46.359  27.020  30.917  1.00  0.00     0.031 A 
BRANCH  45  59
ATOM     59  C   UNL A   1      43.699  32.437  32.215  1.00  0.00    -0.014 A 
ATOM     60  C   UNL A   1      43.423  32.602  33.584  1.00  0.00     0.010 A 
ATOM     61  C   UNL A   1      44.158  33.540  31.471  1.00  0.00     0.010 A 
ATOM     62  C   UNL A   1      43.575  33.851  34.192  1.00  0.00     0.020 A 
ATOM     63  C   UNL A   1      44.335  34.786  32.082  1.00  0.00     0.020 A 
ATOM     64  C   UNL A   1      44.030  34.935  33.436  1.00  0.00     0.054 A 
BRANCH  64  65
ATOM     65  S   UNL A   1      44.257  36.534  34.261  1.00  0.00     0.124 S 
ATOM     66  O   UNL A   1      45.700  36.731  34.143  1.00  0.00    -0.237 OA
ATOM     67  O   UNL A   1      43.433  37.432  33.456  1.00  0.00    -0.237 OA
ATOM     68  O   UNL A   1      43.770  36.298  35.618  1.00  0.00    -0.744 OA
ENDBRANCH  64  65
ENDBRANCH  45  59
BRANCH  46  69
ATOM     69  C   UNL A   1      42.448  23.526  27.907  1.00  0.00    -0.014 A 
ATOM     70  C   UNL A   1      41.941  22.427  28.623  1.00  0.00     0.010 A 
ATOM     71  C   UNL A   1      42.845  23.346  26.570  1.00  0.00     0.010 A 
ATOM     72  C   UNL A   1      41.871  21.164  28.029  1.00  0.00     0.020 A 
ATOM     73  C   UNL A   1      42.751  22.090  25.963  1.00  0.00     0.020 A 
ATOM     74  C   UNL A   1      42.285  21.002  26.703  1.00  0.00     0.054 A 
BRANCH  74  75
ATOM     75  S   UNL A   1      42.182  19.357  25.944  1.00  0.00     0.124 S 
ATOM     76  O   UNL A   1      40.748  19.221  25.714  1.00  0.00    -0.237 OA
ATOM     77  O   UNL A   1      43.005  19.505  24.747  1.00  0.00    -0.237 OA
ATOM     78  O   UNL A   1      42.740  18.478  26.969  1.00  0.00    -0.744 OA
ENDBRANCH  74  75
ENDBRANCH  46  69
BRANCH  58  79
ATOM     79  C   UNL A   1      47.729  26.535  31.307  1.00  0.00    -0.014 A 
ATOM     80  C   UNL A   1      47.943  25.841  32.511  1.00  0.00     0.010 A 
ATOM     81  C   UNL A   1      48.806  26.726  30.423  1.00  0.00     0.010 A 
ATOM     82  C   UNL A   1      49.218  25.370  32.836  1.00  0.00     0.020 A 
ATOM     83  C   UNL A   1      50.078  26.235  30.734  1.00  0.00     0.020 A 
ATOM     84  C   UNL A   1      50.278  25.571  31.946  1.00  0.00     0.054 A 
BRANCH  84  85
ATOM     85  S   UNL A   1      51.912  24.904  32.364  1.00  0.00     0.124 S 
ATOM     86  O   UNL A   1      52.740  25.428  31.282  1.00  0.00    -0.237 OA
ATOM     87  O   UNL A   1      52.166  25.479  33.684  1.00  0.00    -0.237 OA
ATOM     88  O   UNL A   1      51.710  23.457  32.351  1.00  0.00    -0.744 OA
ENDBRANCH  84  85
ENDBRANCH  58  79
ENDBRANCH  32  33
ENDBRANCH  24  27
ENDBRANCH  22  23
ENDBRANCH   1  22
TORSDOF 16
ENDMDL
