MODEL 1
REMARK VINA RESULT:     -12.0      0.000      0.000
REMARK SMILES O=C(NCCCNC(=O)[C@]1(C2CCCC2)CCOc2ccccc21)c1ccc(-c2c3nc(c(-c4ccc(S(=O)(=O)[O-])cc4)c4ccc([nH]4)c(-c4ccc(S(=O)(=O)[O-])cc4)c4nc(c(-c5ccc(S(=O)(=O)[O-])cc5)c5ccc2[nH]5)C=C4)C=C3)cc1
REMARK SMILES IDX 4 1 3 2 1 3 2 4 25 6 26 7 84 8 27 9 83 10 28 11 29 12 30 13
REMARK SMILES IDX 77 14 31 15 82 16 76 17 78 18 32 19 81 20 75 21 74 22 33 24
REMARK SMILES IDX 63 25 44 26 62 27 45 28 48 29 61 30 79 31 46 32 47 33 60 35
REMARK SMILES IDX 80 36 49 37 34 38 35 39 43 40 36 41 42 42 37 43 38 44 39 45
REMARK SMILES IDX 40 46 41 47 64 48 65 49 73 50 66 51 72 52 67 53 68 54 69 55
REMARK SMILES IDX 70 56 71 57 50 58 51 59 59 60 52 61 58 62 53 63 54 64 55 65
REMARK SMILES IDX 56 66 57 67 5 68 6 69 7 70 8 71 9 73 10 74 16 75 24 76 17 77
REMARK SMILES IDX 19 78 23 79 18 80 20 81 22 82 21 83 11 84 12 85 15 86 13 87
REMARK SMILES IDX 14 88
REMARK H PARENT 3 5 78 23 48 34 7 72
REMARK Flexibility Score: inf
ROOT
ATOM      1  C   UNL A   1      35.281  29.680  27.860  1.00  0.00     0.118 C 
ENDROOT
BRANCH   1   2
ATOM      2  N   UNL A   1      35.380  29.932  29.295  1.00  0.00    -0.352 N 
ATOM      3  O   UNL A   1      36.223  29.800  31.376  1.00  0.00    -0.269 OA
ATOM      4  C   UNL A   1      36.422  29.727  30.166  1.00  0.00     0.251 C 
ATOM      5  H   UNL A   1      34.567  30.310  29.704  1.00  0.00     0.163 HD
BRANCH   4   6
ATOM      6  C   UNL A   1      37.772  29.409  29.654  1.00  0.00     0.039 A 
ATOM      7  C   UNL A   1      38.742  28.877  30.502  1.00  0.00     0.014 A 
ATOM      8  C   UNL A   1      38.068  29.618  28.303  1.00  0.00     0.014 A 
ATOM      9  C   UNL A   1      40.046  28.727  30.053  1.00  0.00     0.010 A 
ATOM     10  C   UNL A   1      39.355  29.351  27.822  1.00  0.00     0.010 A 
ATOM     11  C   UNL A   1      40.365  28.934  28.702  1.00  0.00    -0.014 A 
BRANCH  11  12
ATOM     12  C   UNL A   1      41.745  28.632  28.245  1.00  0.00     0.031 A 
ATOM     13  C   UNL A   1      42.821  29.683  28.243  1.00  0.00     0.074 A 
ATOM     14  C   UNL A   1      42.036  27.362  27.893  1.00  0.00     0.049 A 
ATOM     15  N   UNL A   1      44.087  29.557  27.936  1.00  0.00    -0.248 NA
ATOM     16  C   UNL A   1      42.431  31.051  28.625  1.00  0.00     0.031 C 
ATOM     17  C   UNL A   1      41.070  26.259  27.846  1.00  0.00     0.029 A 
ATOM     18  N   UNL A   1      43.224  26.773  27.549  1.00  0.00    -0.354 N 
ATOM     19  C   UNL A   1      44.644  30.824  28.077  1.00  0.00     0.074 A 
ATOM     20  C   UNL A   1      43.570  31.712  28.467  1.00  0.00     0.031 C 
ATOM     21  C   UNL A   1      41.715  25.119  27.563  1.00  0.00     0.029 A 
ATOM     22  C   UNL A   1      43.123  25.418  27.336  1.00  0.00     0.049 A 
ATOM     23  H   UNL A   1      44.070  27.271  27.464  1.00  0.00     0.167 HD
ATOM     24  C   UNL A   1      45.933  31.206  27.905  1.00  0.00     0.031 A 
ATOM     25  C   UNL A   1      44.053  24.512  26.981  1.00  0.00     0.031 A 
ATOM     26  C   UNL A   1      46.995  30.317  27.512  1.00  0.00     0.049 A 
ATOM     27  C   UNL A   1      45.467  24.970  26.781  1.00  0.00     0.074 A 
ATOM     28  C   UNL A   1      48.333  30.610  27.306  1.00  0.00     0.029 A 
ATOM     29  N   UNL A   1      46.844  28.960  27.269  1.00  0.00    -0.354 N 
ATOM     30  N   UNL A   1      45.970  26.172  26.926  1.00  0.00    -0.248 NA
ATOM     31  C   UNL A   1      46.439  23.949  26.370  1.00  0.00     0.031 C 
ATOM     32  C   UNL A   1      48.982  29.438  26.901  1.00  0.00     0.029 A 
ATOM     33  C   UNL A   1      48.060  28.404  26.905  1.00  0.00     0.049 A 
ATOM     34  H   UNL A   1      45.997  28.463  27.344  1.00  0.00     0.167 HD
ATOM     35  C   UNL A   1      47.322  26.052  26.631  1.00  0.00     0.074 A 
ATOM     36  C   UNL A   1      47.561  24.654  26.331  1.00  0.00     0.031 C 
ATOM     37  C   UNL A   1      48.276  27.013  26.600  1.00  0.00     0.031 A 
BRANCH  24  38
ATOM     38  C   UNL A   1      46.267  32.659  28.128  1.00  0.00    -0.014 A 
ATOM     39  C   UNL A   1      46.683  33.120  29.390  1.00  0.00     0.010 A 
ATOM     40  C   UNL A   1      46.219  33.565  27.052  1.00  0.00     0.010 A 
ATOM     41  C   UNL A   1      47.015  34.466  29.579  1.00  0.00     0.020 A 
ATOM     42  C   UNL A   1      46.574  34.906  27.231  1.00  0.00     0.020 A 
ATOM     43  C   UNL A   1      46.956  35.350  28.498  1.00  0.00     0.054 A 
BRANCH  43  44
ATOM     44  S   UNL A   1      47.421  37.084  28.767  1.00  0.00     0.124 S 
ATOM     45  O   UNL A   1      46.531  37.780  27.841  1.00  0.00    -0.237 OA
ATOM     46  O   UNL A   1      47.129  37.278  30.184  1.00  0.00    -0.237 OA
ATOM     47  O   UNL A   1      48.839  37.122  28.415  1.00  0.00    -0.744 OA
ENDBRANCH  43  44
ENDBRANCH  24  38
BRANCH  25  48
ATOM     48  C   UNL A   1      43.659  23.095  26.764  1.00  0.00    -0.014 A 
ATOM     49  C   UNL A   1      43.024  22.357  27.776  1.00  0.00     0.010 A 
ATOM     50  C   UNL A   1      43.909  22.480  25.522  1.00  0.00     0.010 A 
ATOM     51  C   UNL A   1      42.665  21.022  27.559  1.00  0.00     0.020 A 
ATOM     52  C   UNL A   1      43.524  21.158  25.290  1.00  0.00     0.020 A 
ATOM     53  C   UNL A   1      42.920  20.431  26.318  1.00  0.00     0.054 A 
BRANCH  53  54
ATOM     54  S   UNL A   1      42.414  18.713  26.038  1.00  0.00     0.124 S 
ATOM     55  O   UNL A   1      43.315  18.304  24.965  1.00  0.00    -0.237 OA
ATOM     56  O   UNL A   1      42.658  18.093  27.338  1.00  0.00    -0.237 OA
ATOM     57  O   UNL A   1      41.005  18.828  25.667  1.00  0.00    -0.744 OA
ENDBRANCH  53  54
ENDBRANCH  25  48
BRANCH  37  58
ATOM     58  C   UNL A   1      49.672  26.572  26.249  1.00  0.00    -0.014 A 
ATOM     59  C   UNL A   1      50.521  26.012  27.220  1.00  0.00     0.010 A 
ATOM     60  C   UNL A   1      50.130  26.705  24.927  1.00  0.00     0.010 A 
ATOM     61  C   UNL A   1      51.822  25.633  26.883  1.00  0.00     0.020 A 
ATOM     62  C   UNL A   1      51.421  26.301  24.580  1.00  0.00     0.020 A 
ATOM     63  C   UNL A   1      52.266  25.785  25.565  1.00  0.00     0.054 A 
BRANCH  63  64
ATOM     64  S   UNL A   1      53.952  25.267  25.146  1.00  0.00     0.124 S 
ATOM     65  O   UNL A   1      54.204  26.021  23.921  1.00  0.00    -0.237 OA
ATOM     66  O   UNL A   1      54.720  25.690  26.315  1.00  0.00    -0.237 OA
ATOM     67  O   UNL A   1      53.837  23.820  24.976  1.00  0.00    -0.744 OA
ENDBRANCH  63  64
ENDBRANCH  37  58
ENDBRANCH  11  12
ENDBRANCH   4   6
ENDBRANCH   1   2
BRANCH   1  68
ATOM     68  C   UNL A   1      34.168  30.481  27.200  1.00  0.00     0.042 C 
BRANCH  68  69
ATOM     69  C   UNL A   1      33.384  29.683  26.171  1.00  0.00     0.117 C 
BRANCH  69  70
ATOM     70  N   UNL A   1      33.031  28.358  26.655  1.00  0.00    -0.355 N 
ATOM     71  C   UNL A   1      32.731  27.196  26.012  1.00  0.00     0.231 C 
ATOM     72  H   UNL A   1      33.005  28.287  27.637  1.00  0.00     0.163 HD
ATOM     73  O   UNL A   1      32.277  26.306  26.740  1.00  0.00    -0.274 OA
BRANCH  71  74
ATOM     74  C   UNL A   1      32.904  27.001  24.467  1.00  0.00     0.084 C 
ATOM     75  C   UNL A   1      34.126  27.816  23.964  1.00  0.00     0.064 C 
ATOM     76  C   UNL A   1      31.600  27.460  23.794  1.00  0.00     0.010 A 
ATOM     77  C   UNL A   1      33.893  28.449  22.598  1.00  0.00     0.231 C 
ATOM     78  C   UNL A   1      31.585  28.530  22.893  1.00  0.00     0.123 A 
ATOM     79  C   UNL A   1      30.364  26.875  24.139  1.00  0.00     0.009 A 
ATOM     80  O   UNL A   1      32.707  29.230  22.543  1.00  0.00    -0.493 OA
ATOM     81  C   UNL A   1      30.384  29.014  22.369  1.00  0.00     0.047 A 
ATOM     82  C   UNL A   1      29.164  27.347  23.604  1.00  0.00     0.001 A 
ATOM     83  C   UNL A   1      29.173  28.419  22.718  1.00  0.00     0.004 A 
BRANCH  74  84
ATOM     84  C   UNL A   1      33.132  25.460  24.170  1.00  0.00     0.009 C 
ATOM     85  C   UNL A   1      33.018  25.031  22.699  1.00  0.00     0.005 C 
ATOM     86  C   UNL A   1      34.508  24.884  24.583  1.00  0.00     0.005 C 
ATOM     87  C   UNL A   1      33.616  23.634  22.691  1.00  0.00     0.000 C 
ATOM     88  C   UNL A   1      34.822  23.747  23.611  1.00  0.00     0.000 C 
ENDBRANCH  74  84
ENDBRANCH  71  74
ENDBRANCH  69  70
ENDBRANCH  68  69
ENDBRANCH   1  68
TORSDOF 14
ENDMDL
MODEL 2
REMARK VINA RESULT:     -12.0      6.803     12.331
REMARK SMILES O=C(NCCCNC(=O)[C@]1(C2CCCC2)CCOc2ccccc21)c1ccc(-c2c3nc(c(-c4ccc(S(=O)(=O)[O-])cc4)c4ccc([nH]4)c(-c4ccc(S(=O)(=O)[O-])cc4)c4nc(c(-c5ccc(S(=O)(=O)[O-])cc5)c5ccc2[nH]5)C=C4)C=C3)cc1
REMARK SMILES IDX 4 1 3 2 1 3 2 4 25 6 26 7 84 8 27 9 83 10 28 11 29 12 30 13
REMARK SMILES IDX 77 14 31 15 82 16 76 17 78 18 32 19 81 20 75 21 74 22 33 24
REMARK SMILES IDX 63 25 44 26 62 27 45 28 48 29 61 30 79 31 46 32 47 33 60 35
REMARK SMILES IDX 80 36 49 37 34 38 35 39 43 40 36 41 42 42 37 43 38 44 39 45
REMARK SMILES IDX 40 46 41 47 64 48 65 49 73 50 66 51 72 52 67 53 68 54 69 55
REMARK SMILES IDX 70 56 71 57 50 58 51 59 59 60 52 61 58 62 53 63 54 64 55 65
REMARK SMILES IDX 56 66 57 67 5 68 6 69 7 70 8 71 9 73 10 74 16 75 24 76 17 77
REMARK SMILES IDX 19 78 23 79 18 80 20 81 22 82 21 83 11 84 12 85 15 86 13 87
REMARK SMILES IDX 14 88
REMARK H PARENT 3 5 78 23 48 34 7 72
REMARK Flexibility Score: inf
ROOT
ATOM      1  C   UNL A   1      38.822  24.073  26.458  1.00  0.00     0.118 C 
ENDROOT
BRANCH   1   2
ATOM      2  N   UNL A   1      40.051  24.491  25.790  1.00  0.00    -0.352 N 
ATOM      3  O   UNL A   1      41.721  25.869  25.181  1.00  0.00    -0.269 OA
ATOM      4  C   UNL A   1      40.852  25.587  26.003  1.00  0.00     0.251 C 
ATOM      5  H   UNL A   1      40.354  23.890  25.071  1.00  0.00     0.163 HD
BRANCH   4   6
ATOM      6  C   UNL A   1      40.663  26.428  27.203  1.00  0.00     0.039 A 
ATOM      7  C   UNL A   1      41.265  27.682  27.288  1.00  0.00     0.014 A 
ATOM      8  C   UNL A   1      39.851  25.974  28.248  1.00  0.00     0.014 A 
ATOM      9  C   UNL A   1      41.210  28.397  28.476  1.00  0.00     0.010 A 
ATOM     10  C   UNL A   1      39.699  26.753  29.401  1.00  0.00     0.010 A 
ATOM     11  C   UNL A   1      40.405  27.957  29.538  1.00  0.00    -0.014 A 
BRANCH  11  12
ATOM     12  C   UNL A   1      40.276  28.824  30.737  1.00  0.00     0.031 A 
ATOM     13  C   UNL A   1      41.207  28.689  31.910  1.00  0.00     0.074 A 
ATOM     14  C   UNL A   1      39.339  29.795  30.722  1.00  0.00     0.049 A 
ATOM     15  N   UNL A   1      41.263  29.414  32.998  1.00  0.00    -0.248 NA
ATOM     16  C   UNL A   1      42.197  27.600  31.865  1.00  0.00     0.031 C 
ATOM     17  C   UNL A   1      38.371  30.016  29.642  1.00  0.00     0.029 A 
ATOM     18  N   UNL A   1      39.069  30.800  31.615  1.00  0.00    -0.354 N 
ATOM     19  C   UNL A   1      42.282  28.867  33.771  1.00  0.00     0.074 A 
ATOM     20  C   UNL A   1      42.797  27.729  33.042  1.00  0.00     0.031 C 
ATOM     21  C   UNL A   1      37.664  31.124  29.902  1.00  0.00     0.029 A 
ATOM     22  C   UNL A   1      38.073  31.652  31.197  1.00  0.00     0.049 A 
ATOM     23  H   UNL A   1      39.543  30.902  32.472  1.00  0.00     0.167 HD
ATOM     24  C   UNL A   1      42.748  29.283  34.974  1.00  0.00     0.031 A 
ATOM     25  C   UNL A   1      37.534  32.731  31.792  1.00  0.00     0.031 A 
ATOM     26  C   UNL A   1      42.227  30.415  35.697  1.00  0.00     0.049 A 
ATOM     27  C   UNL A   1      38.059  33.156  33.131  1.00  0.00     0.074 A 
ATOM     28  C   UNL A   1      42.629  30.913  36.925  1.00  0.00     0.029 A 
ATOM     29  N   UNL A   1      41.193  31.229  35.257  1.00  0.00    -0.354 N 
ATOM     30  N   UNL A   1      39.028  32.626  33.840  1.00  0.00    -0.248 NA
ATOM     31  C   UNL A   1      37.420  34.323  33.751  1.00  0.00     0.031 C 
ATOM     32  C   UNL A   1      41.812  32.003  37.245  1.00  0.00     0.029 A 
ATOM     33  C   UNL A   1      40.937  32.217  36.193  1.00  0.00     0.049 A 
ATOM     34  H   UNL A   1      40.712  31.121  34.405  1.00  0.00     0.167 HD
ATOM     35  C   UNL A   1      39.120  33.401  34.988  1.00  0.00     0.074 A 
ATOM     36  C   UNL A   1      38.131  34.453  34.863  1.00  0.00     0.031 C 
ATOM     37  C   UNL A   1      39.942  33.250  36.055  1.00  0.00     0.031 A 
BRANCH  24  38
ATOM     38  C   UNL A   1      43.876  28.500  35.596  1.00  0.00    -0.014 A 
ATOM     39  C   UNL A   1      45.218  28.842  35.348  1.00  0.00     0.010 A 
ATOM     40  C   UNL A   1      43.593  27.444  36.482  1.00  0.00     0.010 A 
ATOM     41  C   UNL A   1      46.255  28.124  35.950  1.00  0.00     0.020 A 
ATOM     42  C   UNL A   1      44.628  26.740  37.107  1.00  0.00     0.020 A 
ATOM     43  C   UNL A   1      45.953  27.076  36.825  1.00  0.00     0.054 A 
BRANCH  43  44
ATOM     44  S   UNL A   1      47.320  26.181  37.615  1.00  0.00     0.124 S 
ATOM     45  O   UNL A   1      46.923  26.206  39.020  1.00  0.00    -0.237 OA
ATOM     46  O   UNL A   1      47.262  24.873  36.969  1.00  0.00    -0.237 OA
ATOM     47  O   UNL A   1      48.496  26.983  37.286  1.00  0.00    -0.744 OA
ENDBRANCH  43  44
ENDBRANCH  24  38
BRANCH  25  48
ATOM     48  C   UNL A   1      36.414  33.456  31.134  1.00  0.00    -0.014 A 
ATOM     49  C   UNL A   1      35.205  33.686  31.810  1.00  0.00     0.010 A 
ATOM     50  C   UNL A   1      36.567  33.937  29.820  1.00  0.00     0.010 A 
ATOM     51  C   UNL A   1      34.158  34.364  31.176  1.00  0.00     0.020 A 
ATOM     52  C   UNL A   1      35.536  34.642  29.194  1.00  0.00     0.020 A 
ATOM     53  C   UNL A   1      34.331  34.836  29.871  1.00  0.00     0.054 A 
BRANCH  53  54
ATOM     54  S   UNL A   1      32.980  35.746  29.076  1.00  0.00     0.124 S 
ATOM     55  O   UNL A   1      32.373  34.716  28.239  1.00  0.00    -0.237 OA
ATOM     56  O   UNL A   1      32.179  36.188  30.215  1.00  0.00    -0.237 OA
ATOM     57  O   UNL A   1      33.667  36.816  28.356  1.00  0.00    -0.744 OA
ENDBRANCH  53  54
ENDBRANCH  25  48
BRANCH  37  58
ATOM     58  C   UNL A   1      39.814  34.265  37.159  1.00  0.00    -0.014 A 
ATOM     59  C   UNL A   1      40.384  35.544  37.037  1.00  0.00     0.010 A 
ATOM     60  C   UNL A   1      39.098  33.937  38.324  1.00  0.00     0.010 A 
ATOM     61  C   UNL A   1      40.279  36.464  38.082  1.00  0.00     0.020 A 
ATOM     62  C   UNL A   1      38.968  34.865  39.359  1.00  0.00     0.020 A 
ATOM     63  C   UNL A   1      39.575  36.116  39.240  1.00  0.00     0.054 A 
BRANCH  63  64
ATOM     64  S   UNL A   1      39.434  37.334  40.576  1.00  0.00     0.124 S 
ATOM     65  O   UNL A   1      40.834  37.581  40.910  1.00  0.00    -0.237 OA
ATOM     66  O   UNL A   1      38.737  38.444  39.928  1.00  0.00    -0.237 OA
ATOM     67  O   UNL A   1      38.661  36.636  41.600  1.00  0.00    -0.744 OA
ENDBRANCH  63  64
ENDBRANCH  37  58
ENDBRANCH  11  12
ENDBRANCH   4   6
ENDBRANCH   1   2
BRANCH   1  68
ATOM     68  C   UNL A   1      38.228  22.810  25.853  1.00  0.00     0.042 C 
BRANCH  68  69
ATOM     69  C   UNL A   1      36.709  22.778  25.901  1.00  0.00     0.117 C 
BRANCH  69  70
ATOM     70  N   UNL A   1      36.109  23.639  24.894  1.00  0.00    -0.355 N 
ATOM     71  C   UNL A   1      34.815  23.936  24.593  1.00  0.00     0.231 C 
ATOM     72  H   UNL A   1      36.765  24.096  24.320  1.00  0.00     0.163 HD
ATOM     73  O   UNL A   1      34.660  24.555  23.534  1.00  0.00    -0.274 OA
BRANCH  71  74
ATOM     74  C   UNL A   1      33.604  23.499  25.487  1.00  0.00     0.084 C 
ATOM     75  C   UNL A   1      34.037  23.448  26.978  1.00  0.00     0.064 C 
ATOM     76  C   UNL A   1      33.131  22.124  24.987  1.00  0.00     0.010 A 
ATOM     77  C   UNL A   1      33.409  22.287  27.736  1.00  0.00     0.231 C 
ATOM     78  C   UNL A   1      33.174  20.996  25.813  1.00  0.00     0.123 A 
ATOM     79  C   UNL A   1      32.731  21.942  23.647  1.00  0.00     0.009 A 
ATOM     80  O   UNL A   1      33.621  21.031  27.105  1.00  0.00    -0.493 OA
ATOM     81  C   UNL A   1      32.847  19.730  25.321  1.00  0.00     0.047 A 
ATOM     82  C   UNL A   1      32.389  20.679  23.158  1.00  0.00     0.001 A 
ATOM     83  C   UNL A   1      32.449  19.571  23.995  1.00  0.00     0.004 A 
BRANCH  74  84
ATOM     84  C   UNL A   1      32.432  24.553  25.309  1.00  0.00     0.009 C 
ATOM     85  C   UNL A   1      31.047  24.114  25.809  1.00  0.00     0.005 C 
ATOM     86  C   UNL A   1      32.630  25.916  26.015  1.00  0.00     0.005 C 
ATOM     87  C   UNL A   1      30.253  25.410  25.830  1.00  0.00     0.000 C 
ATOM     88  C   UNL A   1      31.237  26.433  26.374  1.00  0.00     0.000 C 
ENDBRANCH  74  84
ENDBRANCH  71  74
ENDBRANCH  69  70
ENDBRANCH  68  69
ENDBRANCH   1  68
TORSDOF 14
ENDMDL
MODEL 3
REMARK VINA RESULT:     -12.0      2.623      9.013
REMARK SMILES O=C(NCCCNC(=O)[C@]1(C2CCCC2)CCOc2ccccc21)c1ccc(-c2c3nc(c(-c4ccc(S(=O)(=O)[O-])cc4)c4ccc([nH]4)c(-c4ccc(S(=O)(=O)[O-])cc4)c4nc(c(-c5ccc(S(=O)(=O)[O-])cc5)c5ccc2[nH]5)C=C4)C=C3)cc1
REMARK SMILES IDX 4 1 3 2 1 3 2 4 25 6 26 7 84 8 27 9 83 10 28 11 29 12 30 13
REMARK SMILES IDX 77 14 31 15 82 16 76 17 78 18 32 19 81 20 75 21 74 22 33 24
REMARK SMILES IDX 63 25 44 26 62 27 45 28 48 29 61 30 79 31 46 32 47 33 60 35
REMARK SMILES IDX 80 36 49 37 34 38 35 39 43 40 36 41 42 42 37 43 38 44 39 45
REMARK SMILES IDX 40 46 41 47 64 48 65 49 73 50 66 51 72 52 67 53 68 54 69 55
REMARK SMILES IDX 70 56 71 57 50 58 51 59 59 60 52 61 58 62 53 63 54 64 55 65
REMARK SMILES IDX 56 66 57 67 5 68 6 69 7 70 8 71 9 73 10 74 16 75 24 76 17 77
REMARK SMILES IDX 19 78 23 79 18 80 20 81 22 82 21 83 11 84 12 85 15 86 13 87
REMARK SMILES IDX 14 88
REMARK H PARENT 3 5 78 23 48 34 7 72
REMARK Flexibility Score: inf
ROOT
ATOM      1  C   UNL A   1      39.288  20.463  26.008  1.00  0.00     0.118 C 
ENDROOT
BRANCH   1   2
ATOM      2  N   UNL A   1      40.396  19.516  26.089  1.00  0.00    -0.352 N 
ATOM      3  O   UNL A   1      42.529  18.803  26.045  1.00  0.00    -0.269 OA
ATOM      4  C   UNL A   1      41.746  19.734  26.220  1.00  0.00     0.251 C 
ATOM      5  H   UNL A   1      40.133  18.568  26.042  1.00  0.00     0.163 HD
BRANCH   4   6
ATOM      6  C   UNL A   1      42.257  21.080  26.554  1.00  0.00     0.039 A 
ATOM      7  C   UNL A   1      42.427  22.039  25.557  1.00  0.00     0.014 A 
ATOM      8  C   UNL A   1      42.545  21.402  27.885  1.00  0.00     0.014 A 
ATOM      9  C   UNL A   1      43.050  23.243  25.853  1.00  0.00     0.010 A 
ATOM     10  C   UNL A   1      43.062  22.663  28.201  1.00  0.00     0.010 A 
ATOM     11  C   UNL A   1      43.350  23.583  27.182  1.00  0.00    -0.014 A 
BRANCH  11  12
ATOM     12  C   UNL A   1      43.895  24.937  27.461  1.00  0.00     0.031 A 
ATOM     13  C   UNL A   1      45.341  25.268  27.219  1.00  0.00     0.074 A 
ATOM     14  C   UNL A   1      43.039  25.894  27.875  1.00  0.00     0.049 A 
ATOM     15  N   UNL A   1      45.950  26.419  27.351  1.00  0.00    -0.248 NA
ATOM     16  C   UNL A   1      46.222  24.173  26.780  1.00  0.00     0.031 C 
ATOM     17  C   UNL A   1      41.613  25.687  28.154  1.00  0.00     0.029 A 
ATOM     18  N   UNL A   1      43.224  27.234  28.094  1.00  0.00    -0.354 N 
ATOM     19  C   UNL A   1      47.283  26.189  27.024  1.00  0.00     0.074 A 
ATOM     20  C   UNL A   1      47.400  24.780  26.717  1.00  0.00     0.031 C 
ATOM     21  C   UNL A   1      41.043  26.865  28.439  1.00  0.00     0.029 A 
ATOM     22  C   UNL A   1      42.070  27.899  28.436  1.00  0.00     0.049 A 
ATOM     23  H   UNL A   1      44.100  27.678  28.015  1.00  0.00     0.167 HD
ATOM     24  C   UNL A   1      48.308  27.073  26.977  1.00  0.00     0.031 A 
ATOM     25  C   UNL A   1      41.856  29.194  28.730  1.00  0.00     0.031 A 
ATOM     26  C   UNL A   1      48.184  28.474  27.288  1.00  0.00     0.049 A 
ATOM     27  C   UNL A   1      43.015  30.146  28.686  1.00  0.00     0.074 A 
ATOM     28  C   UNL A   1      49.166  29.451  27.275  1.00  0.00     0.029 A 
ATOM     29  N   UNL A   1      47.005  29.101  27.666  1.00  0.00    -0.354 N 
ATOM     30  N   UNL A   1      44.264  29.905  28.368  1.00  0.00    -0.248 NA
ATOM     31  C   UNL A   1      42.736  31.543  29.040  1.00  0.00     0.031 C 
ATOM     32  C   UNL A   1      48.588  30.659  27.682  1.00  0.00     0.029 A 
ATOM     33  C   UNL A   1      47.237  30.447  27.899  1.00  0.00     0.049 A 
ATOM     34  H   UNL A   1      46.132  28.655  27.756  1.00  0.00     0.167 HD
ATOM     35  C   UNL A   1      44.921  31.123  28.476  1.00  0.00     0.074 A 
ATOM     36  C   UNL A   1      43.924  32.103  28.858  1.00  0.00     0.031 C 
ATOM     37  C   UNL A   1      46.233  31.404  28.287  1.00  0.00     0.031 A 
BRANCH  24  38
ATOM     38  C   UNL A   1      49.666  26.549  26.584  1.00  0.00    -0.014 A 
ATOM     39  C   UNL A   1      50.567  26.076  27.555  1.00  0.00     0.010 A 
ATOM     40  C   UNL A   1      50.025  26.476  25.226  1.00  0.00     0.010 A 
ATOM     41  C   UNL A   1      51.814  25.568  27.177  1.00  0.00     0.020 A 
ATOM     42  C   UNL A   1      51.261  25.946  24.841  1.00  0.00     0.020 A 
ATOM     43  C   UNL A   1      52.153  25.508  25.822  1.00  0.00     0.054 A 
BRANCH  43  44
ATOM     44  S   UNL A   1      53.766  24.817  25.359  1.00  0.00     0.124 S 
ATOM     45  O   UNL A   1      54.121  25.632  24.200  1.00  0.00    -0.237 OA
ATOM     46  O   UNL A   1      54.569  25.046  26.557  1.00  0.00    -0.237 OA
ATOM     47  O   UNL A   1      53.473  23.415  25.068  1.00  0.00    -0.744 OA
ENDBRANCH  43  44
ENDBRANCH  24  38
BRANCH  25  48
ATOM     48  C   UNL A   1      40.496  29.649  29.122  1.00  0.00    -0.014 A 
ATOM     49  C   UNL A   1      39.455  29.713  28.181  1.00  0.00     0.010 A 
ATOM     50  C   UNL A   1      40.234  30.007  30.459  1.00  0.00     0.010 A 
ATOM     51  C   UNL A   1      38.182  30.149  28.563  1.00  0.00     0.020 A 
ATOM     52  C   UNL A   1      38.956  30.412  30.851  1.00  0.00     0.020 A 
ATOM     53  C   UNL A   1      37.942  30.497  29.896  1.00  0.00     0.054 A 
BRANCH  53  54
ATOM     54  S   UNL A   1      36.277  31.023  30.385  1.00  0.00     0.124 S 
ATOM     55  O   UNL A   1      35.918  30.009  31.371  1.00  0.00    -0.237 OA
ATOM     56  O   UNL A   1      36.508  32.365  30.912  1.00  0.00    -0.237 OA
ATOM     57  O   UNL A   1      35.524  30.975  29.133  1.00  0.00    -0.744 OA
ENDBRANCH  53  54
ENDBRANCH  25  48
BRANCH  37  58
ATOM     58  C   UNL A   1      46.653  32.837  28.472  1.00  0.00    -0.014 A 
ATOM     59  C   UNL A   1      47.092  33.309  29.721  1.00  0.00     0.010 A 
ATOM     60  C   UNL A   1      46.623  33.716  27.375  1.00  0.00     0.010 A 
ATOM     61  C   UNL A   1      47.452  34.649  29.881  1.00  0.00     0.020 A 
ATOM     62  C   UNL A   1      47.009  35.050  27.525  1.00  0.00     0.020 A 
ATOM     63  C   UNL A   1      47.403  35.513  28.782  1.00  0.00     0.054 A 
BRANCH  63  64
ATOM     64  S   UNL A   1      47.894  37.244  29.008  1.00  0.00     0.124 S 
ATOM     65  O   UNL A   1      48.463  37.570  27.703  1.00  0.00    -0.237 OA
ATOM     66  O   UNL A   1      46.628  37.900  29.324  1.00  0.00    -0.237 OA
ATOM     67  O   UNL A   1      48.852  37.190  30.110  1.00  0.00    -0.744 OA
ENDBRANCH  63  64
ENDBRANCH  37  58
ENDBRANCH  11  12
ENDBRANCH   4   6
ENDBRANCH   1   2
BRANCH   1  68
ATOM     68  C   UNL A   1      38.244  20.055  24.979  1.00  0.00     0.042 C 
BRANCH  68  69
ATOM     69  C   UNL A   1      36.922  20.787  25.142  1.00  0.00     0.117 C 
BRANCH  69  70
ATOM     70  N   UNL A   1      36.809  21.926  24.245  1.00  0.00    -0.355 N 
ATOM     71  C   UNL A   1      35.833  22.857  24.062  1.00  0.00     0.231 C 
ATOM     72  H   UNL A   1      37.590  22.048  23.658  1.00  0.00     0.163 HD
ATOM     73  O   UNL A   1      35.982  23.572  23.064  1.00  0.00    -0.274 OA
BRANCH  71  74
ATOM     74  C   UNL A   1      34.592  22.998  25.009  1.00  0.00     0.084 C 
ATOM     75  C   UNL A   1      35.065  23.188  26.476  1.00  0.00     0.064 C 
ATOM     76  C   UNL A   1      33.741  21.727  24.849  1.00  0.00     0.010 A 
ATOM     77  C   UNL A   1      34.182  22.461  27.481  1.00  0.00     0.231 C 
ATOM     78  C   UNL A   1      33.514  20.863  25.925  1.00  0.00     0.123 A 
ATOM     79  C   UNL A   1      33.244  21.347  23.585  1.00  0.00     0.009 A 
ATOM     80  O   UNL A   1      34.014  21.083  27.179  1.00  0.00    -0.493 OA
ATOM     81  C   UNL A   1      32.834  19.656  25.749  1.00  0.00     0.047 A 
ATOM     82  C   UNL A   1      32.550  20.147  23.410  1.00  0.00     0.001 A 
ATOM     83  C   UNL A   1      32.345  19.299  24.494  1.00  0.00     0.004 A 
BRANCH  74  84
ATOM     84  C   UNL A   1      33.744  24.258  24.554  1.00  0.00     0.009 C 
ATOM     85  C   UNL A   1      32.247  24.224  24.899  1.00  0.00     0.005 C 
ATOM     86  C   UNL A   1      34.192  25.623  25.130  1.00  0.00     0.005 C 
ATOM     87  C   UNL A   1      31.799  25.658  24.668  1.00  0.00     0.000 C 
ATOM     88  C   UNL A   1      32.939  26.493  25.232  1.00  0.00     0.000 C 
ENDBRANCH  74  84
ENDBRANCH  71  74
ENDBRANCH  69  70
ENDBRANCH  68  69
ENDBRANCH   1  68
TORSDOF 14
ENDMDL
