MODEL 1
REMARK VINA RESULT:     -10.7      0.000      0.000
REMARK SMILES Nc1ccc(O)c(C(=O)NCCCNC(=O)c2ccc(-c3c4nc(c(-c5ccc(S(=O)(=O)[O-])cc5)c5ccc([nH]5)c(-c5ccc(S(=O)(=O)[O-])cc5)c5nc(c(-c6ccc(S(=O)(=O)[O-])cc6)c6ccc3[nH]6)C=C5)C=C4)cc2)c1
REMARK SMILES IDX 13 1 12 2 11 3 10 4 8 5 9 6 7 8 2 9 3 10 77 11 4 12 5 13
REMARK SMILES IDX 1 14 6 17 14 19 15 20 16 22 17 23 18 24 76 25 19 26 75 27
REMARK SMILES IDX 20 28 21 29 22 30 69 31 23 32 74 33 68 34 70 35 24 36 73 37
REMARK SMILES IDX 67 38 66 39 25 41 55 42 36 43 54 44 37 45 40 46 53 47 71 48
REMARK SMILES IDX 38 49 39 50 52 52 72 53 41 54 26 55 27 56 35 57 28 58 34 59
REMARK SMILES IDX 29 60 30 61 31 62 32 63 33 64 56 65 57 66 65 67 58 68 64 69
REMARK SMILES IDX 59 70 60 71 61 72 62 73 63 74 42 75 43 76 51 77 44 78 50 79
REMARK SMILES IDX 45 80 46 81 47 82 48 83 49 84
REMARK H PARENT 10 7 1 15 1 16 6 18 14 21 70 40 40 51
REMARK Flexibility Score: inf
ROOT
ATOM      1  C   UNL A   1      33.970  28.596  26.277  1.00  0.00     0.118 C 
ENDROOT
BRANCH   1   2
ATOM      2  C   UNL A   1      32.801  27.676  26.628  1.00  0.00     0.042 C 
BRANCH   2   3
ATOM      3  C   UNL A   1      31.615  27.843  25.680  1.00  0.00     0.118 C 
BRANCH   3   4
ATOM      4  N   UNL A   1      31.928  27.312  24.366  1.00  0.00    -0.352 N 
ATOM      5  C   UNL A   1      31.328  27.413  23.139  1.00  0.00     0.255 C 
ATOM      6  O   UNL A   1      31.897  26.847  22.199  1.00  0.00    -0.269 OA
ATOM      7  H   UNL A   1      32.743  26.762  24.354  1.00  0.00     0.163 HD
BRANCH   5   8
ATOM      8  C   UNL A   1      30.095  28.198  22.840  1.00  0.00     0.083 A 
ATOM      9  C   UNL A   1      27.685  28.605  22.944  1.00  0.00     0.032 A 
ATOM     10  C   UNL A   1      27.870  29.845  22.335  1.00  0.00     0.029 A 
ATOM     11  C   UNL A   1      28.798  27.784  23.171  1.00  0.00     0.043 A 
ATOM     12  C   UNL A   1      29.139  30.246  21.924  1.00  0.00     0.049 A 
ATOM     13  C   UNL A   1      30.239  29.432  22.177  1.00  0.00     0.128 A 
BRANCH   9  14
ATOM     14  N   UNL A   1      26.439  28.245  23.433  1.00  0.00    -0.399 N 
ATOM     15  H   UNL A   1      25.734  27.950  22.813  1.00  0.00     0.156 HD
ATOM     16  H   UNL A   1      26.260  28.285  24.400  1.00  0.00     0.156 HD
ENDBRANCH   9  14
BRANCH  13  17
ATOM     17  O   UNL A   1      31.444  29.923  21.741  1.00  0.00    -0.507 OA
ATOM     18  H   UNL A   1      31.566  30.847  21.647  1.00  0.00     0.293 HD
ENDBRANCH  13  17
ENDBRANCH   5   8
ENDBRANCH   3   4
ENDBRANCH   2   3
ENDBRANCH   1   2
BRANCH   1  19
ATOM     19  N   UNL A   1      33.813  29.920  26.870  1.00  0.00    -0.352 N 
ATOM     20  C   UNL A   1      34.598  30.569  27.793  1.00  0.00     0.251 C 
ATOM     21  H   UNL A   1      33.026  30.425  26.562  1.00  0.00     0.163 HD
ATOM     22  O   UNL A   1      34.172  31.570  28.357  1.00  0.00    -0.269 OA
BRANCH  20  23
ATOM     23  C   UNL A   1      35.946  30.052  28.106  1.00  0.00     0.039 A 
ATOM     24  C   UNL A   1      36.946  30.118  27.132  1.00  0.00     0.014 A 
ATOM     25  C   UNL A   1      36.216  29.491  29.356  1.00  0.00     0.014 A 
ATOM     26  C   UNL A   1      38.238  29.686  27.439  1.00  0.00     0.010 A 
ATOM     27  C   UNL A   1      37.518  29.131  29.684  1.00  0.00     0.010 A 
ATOM     28  C   UNL A   1      38.543  29.226  28.730  1.00  0.00    -0.014 A 
BRANCH  28  29
ATOM     29  C   UNL A   1      39.924  28.846  29.120  1.00  0.00     0.031 A 
ATOM     30  C   UNL A   1      40.831  29.864  29.756  1.00  0.00     0.074 A 
ATOM     31  C   UNL A   1      40.390  27.620  28.812  1.00  0.00     0.049 A 
ATOM     32  N   UNL A   1      42.102  29.768  30.047  1.00  0.00    -0.248 NA
ATOM     33  C   UNL A   1      40.236  31.172  30.082  1.00  0.00     0.031 C 
ATOM     34  C   UNL A   1      39.616  26.556  28.167  1.00  0.00     0.029 A 
ATOM     35  N   UNL A   1      41.634  27.065  28.982  1.00  0.00    -0.354 N 
ATOM     36  C   UNL A   1      42.465  31.006  30.565  1.00  0.00     0.074 A 
ATOM     37  C   UNL A   1      41.293  31.850  30.507  1.00  0.00     0.031 C 
ATOM     38  C   UNL A   1      40.396  25.474  28.012  1.00  0.00     0.029 A 
ATOM     39  C   UNL A   1      41.738  25.783  28.496  1.00  0.00     0.049 A 
ATOM     40  H   UNL A   1      42.381  27.540  29.411  1.00  0.00     0.167 HD
ATOM     41  C   UNL A   1      43.664  31.399  31.058  1.00  0.00     0.031 A 
ATOM     42  C   UNL A   1      42.798  24.954  28.426  1.00  0.00     0.031 A 
ATOM     43  C   UNL A   1      44.823  30.548  31.119  1.00  0.00     0.049 A 
ATOM     44  C   UNL A   1      44.126  25.420  28.957  1.00  0.00     0.074 A 
ATOM     45  C   UNL A   1      46.069  30.832  31.651  1.00  0.00     0.029 A 
ATOM     46  N   UNL A   1      44.882  29.252  30.630  1.00  0.00    -0.354 N 
ATOM     47  N   UNL A   1      44.435  26.575  29.500  1.00  0.00    -0.248 NA
ATOM     48  C   UNL A   1      45.247  24.474  28.872  1.00  0.00     0.031 C 
ATOM     49  C   UNL A   1      46.899  29.729  31.428  1.00  0.00     0.029 A 
ATOM     50  C   UNL A   1      46.151  28.732  30.822  1.00  0.00     0.049 A 
ATOM     51  H   UNL A   1      44.133  28.772  30.208  1.00  0.00     0.167 HD
ATOM     52  C   UNL A   1      45.777  26.480  29.852  1.00  0.00     0.074 A 
ATOM     53  C   UNL A   1      46.217  25.154  29.470  1.00  0.00     0.031 C 
ATOM     54  C   UNL A   1      46.570  27.406  30.443  1.00  0.00     0.031 A 
BRANCH  41  55
ATOM     55  C   UNL A   1      43.785  32.814  31.561  1.00  0.00    -0.014 A 
ATOM     56  C   UNL A   1      44.183  33.860  30.709  1.00  0.00     0.010 A 
ATOM     57  C   UNL A   1      43.451  33.111  32.896  1.00  0.00     0.010 A 
ATOM     58  C   UNL A   1      44.288  35.167  31.192  1.00  0.00     0.020 A 
ATOM     59  C   UNL A   1      43.523  34.423  33.375  1.00  0.00     0.020 A 
ATOM     60  C   UNL A   1      43.957  35.439  32.523  1.00  0.00     0.054 A 
BRANCH  60  61
ATOM     61  S   UNL A   1      44.079  37.150  33.113  1.00  0.00     0.124 S 
ATOM     62  O   UNL A   1      45.412  37.168  33.711  1.00  0.00    -0.237 OA
ATOM     63  O   UNL A   1      43.934  37.924  31.883  1.00  0.00    -0.237 OA
ATOM     64  O   UNL A   1      42.972  37.272  34.058  1.00  0.00    -0.744 OA
ENDBRANCH  60  61
ENDBRANCH  41  55
BRANCH  42  65
ATOM     65  C   UNL A   1      42.643  23.595  27.834  1.00  0.00    -0.014 A 
ATOM     66  C   UNL A   1      42.166  22.527  28.612  1.00  0.00     0.010 A 
ATOM     67  C   UNL A   1      42.960  23.366  26.482  1.00  0.00     0.010 A 
ATOM     68  C   UNL A   1      42.023  21.252  28.057  1.00  0.00     0.020 A 
ATOM     69  C   UNL A   1      42.789  22.101  25.914  1.00  0.00     0.020 A 
ATOM     70  C   UNL A   1      42.332  21.048  26.709  1.00  0.00     0.054 A 
BRANCH  70  71
ATOM     71  S   UNL A   1      42.089  19.397  25.997  1.00  0.00     0.124 S 
ATOM     72  O   UNL A   1      42.630  18.533  27.042  1.00  0.00    -0.237 OA
ATOM     73  O   UNL A   1      40.641  19.342  25.816  1.00  0.00    -0.237 OA
ATOM     74  O   UNL A   1      42.862  19.442  24.757  1.00  0.00    -0.744 OA
ENDBRANCH  70  71
ENDBRANCH  42  65
BRANCH  54  75
ATOM     75  C   UNL A   1      47.988  27.013  30.761  1.00  0.00    -0.014 A 
ATOM     76  C   UNL A   1      49.040  27.277  29.867  1.00  0.00     0.010 A 
ATOM     77  C   UNL A   1      48.281  26.451  32.018  1.00  0.00     0.010 A 
ATOM     78  C   UNL A   1      50.358  26.972  30.219  1.00  0.00     0.020 A 
ATOM     79  C   UNL A   1      49.600  26.172  32.385  1.00  0.00     0.020 A 
ATOM     80  C   UNL A   1      50.630  26.427  31.479  1.00  0.00     0.054 A 
BRANCH  80  81
ATOM     81  S   UNL A   1      52.356  26.112  31.939  1.00  0.00     0.124 S 
ATOM     82  O   UNL A   1      53.052  26.323  30.672  1.00  0.00    -0.237 OA
ATOM     83  O   UNL A   1      52.601  27.122  32.966  1.00  0.00    -0.237 OA
ATOM     84  O   UNL A   1      52.341  24.732  32.419  1.00  0.00    -0.744 OA
ENDBRANCH  80  81
ENDBRANCH  54  75
ENDBRANCH  28  29
ENDBRANCH  20  23
ENDBRANCH   1  19
TORSDOF 15
ENDMDL
MODEL 2
REMARK VINA RESULT:     -10.7      6.102     12.541
REMARK SMILES Nc1ccc(O)c(C(=O)NCCCNC(=O)c2ccc(-c3c4nc(c(-c5ccc(S(=O)(=O)[O-])cc5)c5ccc([nH]5)c(-c5ccc(S(=O)(=O)[O-])cc5)c5nc(c(-c6ccc(S(=O)(=O)[O-])cc6)c6ccc3[nH]6)C=C5)C=C4)cc2)c1
REMARK SMILES IDX 13 1 12 2 11 3 10 4 8 5 9 6 7 8 2 9 3 10 77 11 4 12 5 13
REMARK SMILES IDX 1 14 6 17 14 19 15 20 16 22 17 23 18 24 76 25 19 26 75 27
REMARK SMILES IDX 20 28 21 29 22 30 69 31 23 32 74 33 68 34 70 35 24 36 73 37
REMARK SMILES IDX 67 38 66 39 25 41 55 42 36 43 54 44 37 45 40 46 53 47 71 48
REMARK SMILES IDX 38 49 39 50 52 52 72 53 41 54 26 55 27 56 35 57 28 58 34 59
REMARK SMILES IDX 29 60 30 61 31 62 32 63 33 64 56 65 57 66 65 67 58 68 64 69
REMARK SMILES IDX 59 70 60 71 61 72 62 73 63 74 42 75 43 76 51 77 44 78 50 79
REMARK SMILES IDX 45 80 46 81 47 82 48 83 49 84
REMARK H PARENT 10 7 1 15 1 16 6 18 14 21 70 40 40 51
REMARK Flexibility Score: inf
ROOT
ATOM      1  C   UNL A   1      42.261  23.799  26.843  1.00  0.00     0.118 C 
ENDROOT
BRANCH   1   2
ATOM      2  C   UNL A   1      42.111  23.015  28.146  1.00  0.00     0.042 C 
BRANCH   2   3
ATOM      3  C   UNL A   1      42.881  21.696  28.133  1.00  0.00     0.118 C 
BRANCH   3   4
ATOM      4  N   UNL A   1      42.259  20.746  27.229  1.00  0.00    -0.352 N 
ATOM      5  C   UNL A   1      42.685  20.098  26.100  1.00  0.00     0.255 C 
ATOM      6  O   UNL A   1      41.886  19.308  25.583  1.00  0.00    -0.269 OA
ATOM      7  H   UNL A   1      41.335  20.519  27.480  1.00  0.00     0.163 HD
BRANCH   5   8
ATOM      8  C   UNL A   1      44.042  20.218  25.493  1.00  0.00     0.083 A 
ATOM      9  C   UNL A   1      45.821  21.445  24.346  1.00  0.00     0.032 A 
ATOM     10  C   UNL A   1      46.676  20.356  24.513  1.00  0.00     0.029 A 
ATOM     11  C   UNL A   1      44.505  21.356  24.819  1.00  0.00     0.043 A 
ATOM     12  C   UNL A   1      46.217  19.184  25.107  1.00  0.00     0.049 A 
ATOM     13  C   UNL A   1      44.915  19.118  25.594  1.00  0.00     0.128 A 
BRANCH   9  14
ATOM     14  N   UNL A   1      46.303  22.641  23.836  1.00  0.00    -0.399 N 
ATOM     15  H   UNL A   1      45.770  23.463  23.924  1.00  0.00     0.156 HD
ATOM     16  H   UNL A   1      47.178  22.666  23.386  1.00  0.00     0.156 HD
ENDBRANCH   9  14
BRANCH  13  17
ATOM     17  O   UNL A   1      44.564  17.923  26.171  1.00  0.00    -0.507 OA
ATOM     18  H   UNL A   1      44.968  17.129  25.884  1.00  0.00     0.293 HD
ENDBRANCH  13  17
ENDBRANCH   5   8
ENDBRANCH   3   4
ENDBRANCH   2   3
ENDBRANCH   1   2
BRANCH   1  19
ATOM     19  N   UNL A   1      40.975  24.004  26.184  1.00  0.00    -0.352 N 
ATOM     20  C   UNL A   1      39.897  24.759  26.576  1.00  0.00     0.251 C 
ATOM     21  H   UNL A   1      40.864  23.528  25.330  1.00  0.00     0.163 HD
ATOM     22  O   UNL A   1      38.815  24.610  26.019  1.00  0.00    -0.269 OA
BRANCH  20  23
ATOM     23  C   UNL A   1      40.044  25.741  27.670  1.00  0.00     0.039 A 
ATOM     24  C   UNL A   1      40.955  26.792  27.526  1.00  0.00     0.014 A 
ATOM     25  C   UNL A   1      39.294  25.615  28.840  1.00  0.00     0.014 A 
ATOM     26  C   UNL A   1      41.058  27.758  28.530  1.00  0.00     0.010 A 
ATOM     27  C   UNL A   1      39.343  26.615  29.803  1.00  0.00     0.010 A 
ATOM     28  C   UNL A   1      40.224  27.698  29.658  1.00  0.00    -0.014 A 
BRANCH  28  29
ATOM     29  C   UNL A   1      40.240  28.756  30.700  1.00  0.00     0.031 A 
ATOM     30  C   UNL A   1      41.153  28.626  31.888  1.00  0.00     0.074 A 
ATOM     31  C   UNL A   1      39.364  29.777  30.625  1.00  0.00     0.049 A 
ATOM     32  N   UNL A   1      41.220  29.369  32.962  1.00  0.00    -0.248 NA
ATOM     33  C   UNL A   1      42.096  27.494  31.880  1.00  0.00     0.031 C 
ATOM     34  C   UNL A   1      38.406  29.996  29.537  1.00  0.00     0.029 A 
ATOM     35  N   UNL A   1      39.121  30.815  31.490  1.00  0.00    -0.354 N 
ATOM     36  C   UNL A   1      42.190  28.783  33.767  1.00  0.00     0.074 A 
ATOM     37  C   UNL A   1      42.653  27.598  33.078  1.00  0.00     0.031 C 
ATOM     38  C   UNL A   1      37.694  31.105  29.792  1.00  0.00     0.029 A 
ATOM     39  C   UNL A   1      38.105  31.647  31.083  1.00  0.00     0.049 A 
ATOM     40  H   UNL A   1      39.628  30.951  32.323  1.00  0.00     0.167 HD
ATOM     41  C   UNL A   1      42.664  29.204  34.964  1.00  0.00     0.031 A 
ATOM     42  C   UNL A   1      37.549  32.715  31.689  1.00  0.00     0.031 A 
ATOM     43  C   UNL A   1      42.203  30.388  35.637  1.00  0.00     0.049 A 
ATOM     44  C   UNL A   1      38.074  33.149  33.031  1.00  0.00     0.074 A 
ATOM     45  C   UNL A   1      42.656  30.932  36.826  1.00  0.00     0.029 A 
ATOM     46  N   UNL A   1      41.182  31.211  35.184  1.00  0.00    -0.354 N 
ATOM     47  N   UNL A   1      39.035  32.617  33.749  1.00  0.00    -0.248 NA
ATOM     48  C   UNL A   1      37.445  34.327  33.643  1.00  0.00     0.031 C 
ATOM     49  C   UNL A   1      41.869  32.048  37.123  1.00  0.00     0.029 A 
ATOM     50  C   UNL A   1      40.973  32.242  36.084  1.00  0.00     0.049 A 
ATOM     51  H   UNL A   1      40.681  31.082  34.347  1.00  0.00     0.167 HD
ATOM     52  C   UNL A   1      39.149  33.417  34.881  1.00  0.00     0.074 A 
ATOM     53  C   UNL A   1      38.166  34.472  34.747  1.00  0.00     0.031 C 
ATOM     54  C   UNL A   1      39.995  33.291  35.932  1.00  0.00     0.031 A 
BRANCH  41  55
ATOM     55  C   UNL A   1      43.728  28.369  35.628  1.00  0.00    -0.014 A 
ATOM     56  C   UNL A   1      45.095  28.601  35.385  1.00  0.00     0.010 A 
ATOM     57  C   UNL A   1      43.359  27.366  36.544  1.00  0.00     0.010 A 
ATOM     58  C   UNL A   1      46.068  27.818  36.011  1.00  0.00     0.020 A 
ATOM     59  C   UNL A   1      44.331  26.602  37.196  1.00  0.00     0.020 A 
ATOM     60  C   UNL A   1      45.680  26.823  36.913  1.00  0.00     0.054 A 
BRANCH  60  61
ATOM     61  S   UNL A   1      46.968  25.841  37.727  1.00  0.00     0.124 S 
ATOM     62  O   UNL A   1      47.495  25.053  36.615  1.00  0.00    -0.237 OA
ATOM     63  O   UNL A   1      47.868  26.865  38.252  1.00  0.00    -0.237 OA
ATOM     64  O   UNL A   1      46.238  25.078  38.738  1.00  0.00    -0.744 OA
ENDBRANCH  60  61
ENDBRANCH  41  55
BRANCH  42  65
ATOM     65  C   UNL A   1      36.435  33.450  31.028  1.00  0.00    -0.014 A 
ATOM     66  C   UNL A   1      36.632  34.081  29.788  1.00  0.00     0.010 A 
ATOM     67  C   UNL A   1      35.164  33.511  31.630  1.00  0.00     0.010 A 
ATOM     68  C   UNL A   1      35.586  34.773  29.169  1.00  0.00     0.020 A 
ATOM     69  C   UNL A   1      34.107  34.174  31.000  1.00  0.00     0.020 A 
ATOM     70  C   UNL A   1      34.329  34.811  29.778  1.00  0.00     0.054 A 
BRANCH  70  71
ATOM     71  S   UNL A   1      32.973  35.670  28.930  1.00  0.00     0.124 S 
ATOM     72  O   UNL A   1      32.364  34.590  28.160  1.00  0.00    -0.237 OA
ATOM     73  O   UNL A   1      32.179  36.181  30.044  1.00  0.00    -0.237 OA
ATOM     74  O   UNL A   1      33.658  36.694  28.142  1.00  0.00    -0.744 OA
ENDBRANCH  70  71
ENDBRANCH  42  65
BRANCH  54  75
ATOM     75  C   UNL A   1      39.936  34.342  37.008  1.00  0.00    -0.014 A 
ATOM     76  C   UNL A   1      40.613  35.566  36.876  1.00  0.00     0.010 A 
ATOM     77  C   UNL A   1      39.114  34.130  38.131  1.00  0.00     0.010 A 
ATOM     78  C   UNL A   1      40.480  36.555  37.855  1.00  0.00     0.020 A 
ATOM     79  C   UNL A   1      38.955  35.127  39.096  1.00  0.00     0.020 A 
ATOM     80  C   UNL A   1      39.646  36.332  38.955  1.00  0.00     0.054 A 
BRANCH  80  81
ATOM     81  S   UNL A   1      39.432  37.661  40.171  1.00  0.00     0.124 S 
ATOM     82  O   UNL A   1      40.727  38.334  40.117  1.00  0.00    -0.237 OA
ATOM     83  O   UNL A   1      38.308  38.415  39.623  1.00  0.00    -0.237 OA
ATOM     84  O   UNL A   1      39.151  36.950  41.417  1.00  0.00    -0.744 OA
ENDBRANCH  80  81
ENDBRANCH  54  75
ENDBRANCH  28  29
ENDBRANCH  20  23
ENDBRANCH   1  19
TORSDOF 15
ENDMDL
MODEL 3
REMARK VINA RESULT:     -10.6      4.800      6.115
REMARK SMILES Nc1ccc(O)c(C(=O)NCCCNC(=O)c2ccc(-c3c4nc(c(-c5ccc(S(=O)(=O)[O-])cc5)c5ccc([nH]5)c(-c5ccc(S(=O)(=O)[O-])cc5)c5nc(c(-c6ccc(S(=O)(=O)[O-])cc6)c6ccc3[nH]6)C=C5)C=C4)cc2)c1
REMARK SMILES IDX 13 1 12 2 11 3 10 4 8 5 9 6 7 8 2 9 3 10 77 11 4 12 5 13
REMARK SMILES IDX 1 14 6 17 14 19 15 20 16 22 17 23 18 24 76 25 19 26 75 27
REMARK SMILES IDX 20 28 21 29 22 30 69 31 23 32 74 33 68 34 70 35 24 36 73 37
REMARK SMILES IDX 67 38 66 39 25 41 55 42 36 43 54 44 37 45 40 46 53 47 71 48
REMARK SMILES IDX 38 49 39 50 52 52 72 53 41 54 26 55 27 56 35 57 28 58 34 59
REMARK SMILES IDX 29 60 30 61 31 62 32 63 33 64 56 65 57 66 65 67 58 68 64 69
REMARK SMILES IDX 59 70 60 71 61 72 62 73 63 74 42 75 43 76 51 77 44 78 50 79
REMARK SMILES IDX 45 80 46 81 47 82 48 83 49 84
REMARK H PARENT 10 7 1 15 1 16 6 18 14 21 70 40 40 51
REMARK Flexibility Score: inf
ROOT
ATOM      1  C   UNL A   1      36.632  33.147  29.961  1.00  0.00     0.118 C 
ENDROOT
BRANCH   1   2
ATOM      2  C   UNL A   1      35.780  33.519  28.749  1.00  0.00     0.042 C 
BRANCH   2   3
ATOM      3  C   UNL A   1      34.302  33.180  28.941  1.00  0.00     0.118 C 
BRANCH   3   4
ATOM      4  N   UNL A   1      33.470  34.339  28.675  1.00  0.00    -0.352 N 
ATOM      5  C   UNL A   1      33.048  35.394  29.440  1.00  0.00     0.255 C 
ATOM      6  O   UNL A   1      32.357  36.245  28.871  1.00  0.00    -0.269 OA
ATOM      7  H   UNL A   1      33.138  34.374  27.750  1.00  0.00     0.163 HD
BRANCH   5   8
ATOM      8  C   UNL A   1      33.411  35.627  30.868  1.00  0.00     0.083 A 
ATOM      9  C   UNL A   1      34.051  34.882  33.109  1.00  0.00     0.032 A 
ATOM     10  C   UNL A   1      34.220  36.210  33.500  1.00  0.00     0.029 A 
ATOM     11  C   UNL A   1      33.626  34.605  31.802  1.00  0.00     0.043 A 
ATOM     12  C   UNL A   1      33.935  37.247  32.615  1.00  0.00     0.049 A 
ATOM     13  C   UNL A   1      33.538  36.957  31.313  1.00  0.00     0.128 A 
BRANCH   9  14
ATOM     14  N   UNL A   1      34.420  33.851  33.959  1.00  0.00    -0.399 N 
ATOM     15  H   UNL A   1      33.810  33.562  34.675  1.00  0.00     0.156 HD
ATOM     16  H   UNL A   1      35.292  33.408  33.845  1.00  0.00     0.156 HD
ENDBRANCH   9  14
BRANCH  13  17
ATOM     17  O   UNL A   1      33.291  38.048  30.519  1.00  0.00    -0.507 OA
ATOM     18  H   UNL A   1      32.586  38.030  29.903  1.00  0.00     0.293 HD
ENDBRANCH  13  17
ENDBRANCH   5   8
ENDBRANCH   3   4
ENDBRANCH   2   3
ENDBRANCH   1   2
BRANCH   1  19
ATOM     19  N   UNL A   1      36.094  31.989  30.666  1.00  0.00    -0.352 N 
ATOM     20  C   UNL A   1      36.593  30.713  30.771  1.00  0.00     0.251 C 
ATOM     21  H   UNL A   1      35.245  32.145  31.138  1.00  0.00     0.163 HD
ATOM     22  O   UNL A   1      35.878  29.812  31.194  1.00  0.00    -0.269 OA
BRANCH  20  23
ATOM     23  C   UNL A   1      37.986  30.432  30.366  1.00  0.00     0.039 A 
ATOM     24  C   UNL A   1      38.983  30.370  31.344  1.00  0.00     0.014 A 
ATOM     25  C   UNL A   1      38.307  30.244  29.021  1.00  0.00     0.014 A 
ATOM     26  C   UNL A   1      40.291  30.047  30.977  1.00  0.00     0.010 A 
ATOM     27  C   UNL A   1      39.592  29.849  28.666  1.00  0.00     0.010 A 
ATOM     28  C   UNL A   1      40.597  29.745  29.640  1.00  0.00    -0.014 A 
BRANCH  28  29
ATOM     29  C   UNL A   1      41.954  29.308  29.228  1.00  0.00     0.031 A 
ATOM     30  C   UNL A   1      43.075  30.308  29.150  1.00  0.00     0.074 A 
ATOM     31  C   UNL A   1      42.151  28.035  28.829  1.00  0.00     0.049 A 
ATOM     32  N   UNL A   1      44.288  30.153  28.691  1.00  0.00    -0.248 NA
ATOM     33  C   UNL A   1      42.782  31.670  29.628  1.00  0.00     0.031 C 
ATOM     34  C   UNL A   1      41.135  26.979  28.829  1.00  0.00     0.029 A 
ATOM     35  N   UNL A   1      43.269  27.416  28.327  1.00  0.00    -0.354 N 
ATOM     36  C   UNL A   1      44.896  31.399  28.798  1.00  0.00     0.074 A 
ATOM     37  C   UNL A   1      43.904  32.309  29.325  1.00  0.00     0.031 C 
ATOM     38  C   UNL A   1      41.680  25.842  28.367  1.00  0.00     0.029 A 
ATOM     39  C   UNL A   1      43.066  26.099  27.989  1.00  0.00     0.049 A 
ATOM     40  H   UNL A   1      44.134  27.873  28.220  1.00  0.00     0.167 HD
ATOM     41  C   UNL A   1      46.170  31.749  28.500  1.00  0.00     0.031 A 
ATOM     42  C   UNL A   1      43.893  25.201  27.419  1.00  0.00     0.031 A 
ATOM     43  C   UNL A   1      47.152  30.833  27.984  1.00  0.00     0.049 A 
ATOM     44  C   UNL A   1      45.297  25.620  27.071  1.00  0.00     0.074 A 
ATOM     45  C   UNL A   1      48.485  31.074  27.701  1.00  0.00     0.029 A 
ATOM     46  N   UNL A   1      46.910  29.504  27.669  1.00  0.00    -0.354 N 
ATOM     47  N   UNL A   1      45.872  26.787  27.238  1.00  0.00    -0.248 NA
ATOM     48  C   UNL A   1      46.165  24.601  26.465  1.00  0.00     0.031 C 
ATOM     49  C   UNL A   1      49.033  29.908  27.158  1.00  0.00     0.029 A 
ATOM     50  C   UNL A   1      48.061  28.920  27.169  1.00  0.00     0.049 A 
ATOM     51  H   UNL A   1      46.047  29.044  27.785  1.00  0.00     0.167 HD
ATOM     52  C   UNL A   1      47.179  26.633  26.789  1.00  0.00     0.074 A 
ATOM     53  C   UNL A   1      47.312  25.258  26.353  1.00  0.00     0.031 C 
ATOM     54  C   UNL A   1      48.179  27.546  26.748  1.00  0.00     0.031 A 
BRANCH  41  55
ATOM     55  C   UNL A   1      46.570  33.185  28.714  1.00  0.00    -0.014 A 
ATOM     56  C   UNL A   1      46.992  33.645  29.976  1.00  0.00     0.010 A 
ATOM     57  C   UNL A   1      46.568  34.080  27.628  1.00  0.00     0.010 A 
ATOM     58  C   UNL A   1      47.361  34.981  30.155  1.00  0.00     0.020 A 
ATOM     59  C   UNL A   1      46.967  35.409  27.796  1.00  0.00     0.020 A 
ATOM     60  C   UNL A   1      47.345  35.855  29.064  1.00  0.00     0.054 A 
BRANCH  60  61
ATOM     61  S   UNL A   1      47.853  37.576  29.325  1.00  0.00     0.124 S 
ATOM     62  O   UNL A   1      47.773  37.697  30.778  1.00  0.00    -0.237 OA
ATOM     63  O   UNL A   1      49.203  37.599  28.768  1.00  0.00    -0.237 OA
ATOM     64  O   UNL A   1      46.861  38.348  28.580  1.00  0.00    -0.744 OA
ENDBRANCH  60  61
ENDBRANCH  41  55
BRANCH  42  65
ATOM     65  C   UNL A   1      43.416  23.817  27.144  1.00  0.00    -0.014 A 
ATOM     66  C   UNL A   1      43.291  22.885  28.188  1.00  0.00     0.010 A 
ATOM     67  C   UNL A   1      43.069  23.428  25.836  1.00  0.00     0.010 A 
ATOM     68  C   UNL A   1      42.845  21.585  27.929  1.00  0.00     0.020 A 
ATOM     69  C   UNL A   1      42.593  22.140  25.578  1.00  0.00     0.020 A 
ATOM     70  C   UNL A   1      42.495  21.223  26.626  1.00  0.00     0.054 A 
BRANCH  70  71
ATOM     71  S   UNL A   1      41.869  19.546  26.324  1.00  0.00     0.124 S 
ATOM     72  O   UNL A   1      42.611  19.155  25.129  1.00  0.00    -0.237 OA
ATOM     73  O   UNL A   1      42.233  18.848  27.553  1.00  0.00    -0.237 OA
ATOM     74  O   UNL A   1      40.433  19.747  26.133  1.00  0.00    -0.744 OA
ENDBRANCH  70  71
ENDBRANCH  42  65
BRANCH  54  75
ATOM     75  C   UNL A   1      49.526  27.088  26.256  1.00  0.00    -0.014 A 
ATOM     76  C   UNL A   1      50.398  26.357  27.080  1.00  0.00     0.010 A 
ATOM     77  C   UNL A   1      49.883  27.319  24.914  1.00  0.00     0.010 A 
ATOM     78  C   UNL A   1      51.610  25.877  26.575  1.00  0.00     0.020 A 
ATOM     79  C   UNL A   1      51.079  26.816  24.397  1.00  0.00     0.020 A 
ATOM     80  C   UNL A   1      51.940  26.105  25.235  1.00  0.00     0.054 A 
BRANCH  80  81
ATOM     81  S   UNL A   1      53.482  25.406  24.585  1.00  0.00     0.124 S 
ATOM     82  O   UNL A   1      54.492  26.216  25.262  1.00  0.00    -0.237 OA
ATOM     83  O   UNL A   1      53.406  24.011  25.014  1.00  0.00    -0.237 OA
ATOM     84  O   UNL A   1      53.379  25.617  23.143  1.00  0.00    -0.744 OA
ENDBRANCH  80  81
ENDBRANCH  54  75
ENDBRANCH  28  29
ENDBRANCH  20  23
ENDBRANCH   1  19
TORSDOF 15
ENDMDL
