MODEL 1
REMARK VINA RESULT:     -11.1      0.000      0.000
REMARK SMILES Cc1nonc1C[C@@H](C(=O)NCCCNC(=O)c1ccc(-c2c3nc(c(-c4ccc(S(=O)(=O)[O-])cc4)c4ccc([nH]4)c(-c4ccc(S(=O)(=O)[O-])cc4)c4nc(c(-c5ccc(S(=O)(=O)[O-])cc5)c5ccc2[nH]5)C=C4)C=C3)cc1)c1ccccc1Br
REMARK SMILES IDX 13 1 12 2 11 3 9 4 10 5 8 7 7 8 6 9 1 10 2 11 3 12 4 13 5 14
REMARK SMILES IDX 78 15 79 16 83 17 80 18 82 19 84 20 81 21 14 22 15 23 16 24
REMARK SMILES IDX 17 26 18 27 19 28 77 29 20 30 76 31 21 32 22 33 23 34 70 35
REMARK SMILES IDX 24 36 75 37 69 38 71 39 25 40 74 41 68 42 67 43 26 45 56 46
REMARK SMILES IDX 37 47 55 48 38 49 41 50 54 51 72 52 39 53 40 54 53 56 73 57
REMARK SMILES IDX 42 58 27 59 28 60 36 61 29 62 35 63 30 64 31 65 32 66 33 67
REMARK SMILES IDX 34 68 57 69 58 70 66 71 59 72 65 73 60 74 61 75 62 76 63 77
REMARK SMILES IDX 64 78 43 79 44 80 52 81 45 82 51 83 46 84 47 85 48 86 49 87
REMARK SMILES IDX 50 88
REMARK H PARENT 11 6 15 25 71 44 41 55
REMARK Flexibility Score: inf
ROOT
ATOM      1  C   UNL A   1      33.775  28.178  25.797  1.00  0.00     0.042 C 
ENDROOT
BRANCH   1   2
ATOM      2  C   UNL A   1      34.368  26.786  25.569  1.00  0.00     0.117 C 
BRANCH   2   3
ATOM      3  N   UNL A   1      33.941  26.268  24.277  1.00  0.00    -0.355 N 
ATOM      4  C   UNL A   1      33.784  24.987  23.832  1.00  0.00     0.227 C 
ATOM      5  O   UNL A   1      33.791  24.812  22.610  1.00  0.00    -0.274 OA
ATOM      6  H   UNL A   1      33.728  26.960  23.610  1.00  0.00     0.163 HD
BRANCH   4   7
ATOM      7  C   UNL A   1      33.505  23.831  24.810  1.00  0.00     0.116 C 
BRANCH   7   8
ATOM      8  C   UNL A   1      33.088  24.454  26.167  1.00  0.00     0.080 C 
BRANCH   8   9
ATOM      9  C   UNL A   1      31.654  24.386  26.550  1.00  0.00     0.109 A 
ATOM     10  C   UNL A   1      30.514  26.321  25.195  1.00  0.00     0.073 C 
ATOM     11  C   UNL A   1      30.566  25.178  26.128  1.00  0.00     0.105 A 
ATOM     12  N   UNL A   1      29.442  24.713  26.676  1.00  0.00    -0.055 NA
ATOM     13  O   UNL A   1      29.824  23.575  27.375  1.00  0.00    -0.244 OA
ATOM     14  N   UNL A   1      31.197  23.369  27.282  1.00  0.00    -0.055 NA
ENDBRANCH   8   9
ENDBRANCH   7   8
BRANCH   7  15
ATOM     15  C   UNL A   1      34.775  22.928  24.944  1.00  0.00    -0.021 A 
ATOM     16  C   UNL A   1      36.069  23.500  24.959  1.00  0.00     0.006 A 
ATOM     17  C   UNL A   1      34.722  21.517  25.012  1.00  0.00     0.021 A 
ATOM     18  C   UNL A   1      37.232  22.725  24.921  1.00  0.00     0.000 A 
ATOM     19  C   UNL A   1      35.891  20.742  24.928  1.00  0.00     0.016 A 
ATOM     20  Br  UNL A   1      33.121  20.526  25.297  1.00  0.00    -0.051 Br
ATOM     21  C   UNL A   1      37.143  21.344  24.865  1.00  0.00     0.001 A 
ENDBRANCH   7  15
ENDBRANCH   4   7
ENDBRANCH   2   3
ENDBRANCH   1   2
BRANCH   1  22
ATOM     22  C   UNL A   1      33.330  28.436  27.234  1.00  0.00     0.118 C 
BRANCH  22  23
ATOM     23  N   UNL A   1      33.393  29.842  27.584  1.00  0.00    -0.352 N 
ATOM     24  C   UNL A   1      34.397  30.594  28.145  1.00  0.00     0.251 C 
ATOM     25  H   UNL A   1      32.573  30.347  27.384  1.00  0.00     0.163 HD
ATOM     26  O   UNL A   1      34.110  31.722  28.546  1.00  0.00    -0.269 OA
BRANCH  24  27
ATOM     27  C   UNL A   1      35.796  30.102  28.294  1.00  0.00     0.039 A 
ATOM     28  C   UNL A   1      36.188  29.621  29.550  1.00  0.00     0.014 A 
ATOM     29  C   UNL A   1      36.758  30.204  27.286  1.00  0.00     0.014 A 
ATOM     30  C   UNL A   1      37.516  29.240  29.785  1.00  0.00     0.010 A 
ATOM     31  C   UNL A   1      38.059  29.732  27.492  1.00  0.00     0.010 A 
ATOM     32  C   UNL A   1      38.468  29.282  28.755  1.00  0.00    -0.014 A 
BRANCH  32  33
ATOM     33  C   UNL A   1      39.893  28.929  29.014  1.00  0.00     0.031 A 
ATOM     34  C   UNL A   1      40.821  29.923  29.677  1.00  0.00     0.074 A 
ATOM     35  C   UNL A   1      40.370  27.720  28.653  1.00  0.00     0.049 A 
ATOM     36  N   UNL A   1      42.087  29.793  29.988  1.00  0.00    -0.248 NA
ATOM     37  C   UNL A   1      40.260  31.242  30.009  1.00  0.00     0.031 C 
ATOM     38  C   UNL A   1      39.605  26.677  27.967  1.00  0.00     0.029 A 
ATOM     39  N   UNL A   1      41.615  27.162  28.820  1.00  0.00    -0.354 N 
ATOM     40  C   UNL A   1      42.476  31.016  30.527  1.00  0.00     0.074 A 
ATOM     41  C   UNL A   1      41.327  31.890  30.454  1.00  0.00     0.031 C 
ATOM     42  C   UNL A   1      40.384  25.593  27.809  1.00  0.00     0.029 A 
ATOM     43  C   UNL A   1      41.710  25.872  28.351  1.00  0.00     0.049 A 
ATOM     44  H   UNL A   1      42.368  27.640  29.236  1.00  0.00     0.167 HD
ATOM     45  C   UNL A   1      43.670  31.379  31.057  1.00  0.00     0.031 A 
ATOM     46  C   UNL A   1      42.742  25.005  28.364  1.00  0.00     0.031 A 
ATOM     47  C   UNL A   1      44.810  30.506  31.163  1.00  0.00     0.049 A 
ATOM     48  C   UNL A   1      44.045  25.415  28.994  1.00  0.00     0.074 A 
ATOM     49  C   UNL A   1      46.045  30.766  31.733  1.00  0.00     0.029 A 
ATOM     50  N   UNL A   1      44.851  29.200  30.700  1.00  0.00    -0.354 N 
ATOM     51  N   UNL A   1      44.373  26.560  29.543  1.00  0.00    -0.248 NA
ATOM     52  C   UNL A   1      45.111  24.403  29.025  1.00  0.00     0.031 C 
ATOM     53  C   UNL A   1      46.844  29.627  31.585  1.00  0.00     0.029 A 
ATOM     54  C   UNL A   1      46.092  28.643  30.965  1.00  0.00     0.049 A 
ATOM     55  H   UNL A   1      44.109  28.736  30.250  1.00  0.00     0.167 HD
ATOM     56  C   UNL A   1      45.673  26.397  30.009  1.00  0.00     0.074 A 
ATOM     57  C   UNL A   1      46.065  25.039  29.692  1.00  0.00     0.031 C 
ATOM     58  C   UNL A   1      46.471  27.291  30.643  1.00  0.00     0.031 A 
BRANCH  45  59
ATOM     59  C   UNL A   1      43.802  32.791  31.567  1.00  0.00    -0.014 A 
ATOM     60  C   UNL A   1      43.537  33.104  32.914  1.00  0.00     0.010 A 
ATOM     61  C   UNL A   1      44.220  33.814  30.698  1.00  0.00     0.010 A 
ATOM     62  C   UNL A   1      43.639  34.421  33.369  1.00  0.00     0.020 A 
ATOM     63  C   UNL A   1      44.352  35.129  31.156  1.00  0.00     0.020 A 
ATOM     64  C   UNL A   1      44.040  35.427  32.484  1.00  0.00     0.054 A 
BRANCH  64  65
ATOM     65  S   UNL A   1      44.176  37.127  33.103  1.00  0.00     0.124 S 
ATOM     66  O   UNL A   1      44.458  37.871  31.878  1.00  0.00    -0.237 OA
ATOM     67  O   UNL A   1      42.861  37.364  33.692  1.00  0.00    -0.237 OA
ATOM     68  O   UNL A   1      45.280  37.061  34.059  1.00  0.00    -0.744 OA
ENDBRANCH  64  65
ENDBRANCH  45  59
BRANCH  46  69
ATOM     69  C   UNL A   1      42.572  23.642  27.793  1.00  0.00    -0.014 A 
ATOM     70  C   UNL A   1      42.263  22.553  28.627  1.00  0.00     0.010 A 
ATOM     71  C   UNL A   1      42.707  23.427  26.409  1.00  0.00     0.010 A 
ATOM     72  C   UNL A   1      42.110  21.271  28.092  1.00  0.00     0.020 A 
ATOM     73  C   UNL A   1      42.531  22.150  25.868  1.00  0.00     0.020 A 
ATOM     74  C   UNL A   1      42.245  21.077  26.714  1.00  0.00     0.054 A 
BRANCH  74  75
ATOM     75  S   UNL A   1      41.989  19.415  26.032  1.00  0.00     0.124 S 
ATOM     76  O   UNL A   1      40.553  19.411  25.774  1.00  0.00    -0.237 OA
ATOM     77  O   UNL A   1      42.844  19.421  24.849  1.00  0.00    -0.237 OA
ATOM     78  O   UNL A   1      42.436  18.533  27.108  1.00  0.00    -0.744 OA
ENDBRANCH  74  75
ENDBRANCH  46  69
BRANCH  58  79
ATOM     79  C   UNL A   1      47.833  26.816  31.071  1.00  0.00    -0.014 A 
ATOM     80  C   UNL A   1      48.948  26.931  30.221  1.00  0.00     0.010 A 
ATOM     81  C   UNL A   1      48.003  26.257  32.352  1.00  0.00     0.010 A 
ATOM     82  C   UNL A   1      50.197  26.451  30.626  1.00  0.00     0.020 A 
ATOM     83  C   UNL A   1      49.254  25.799  32.768  1.00  0.00     0.020 A 
ATOM     84  C   UNL A   1      50.340  25.878  31.894  1.00  0.00     0.054 A 
BRANCH  84  85
ATOM     85  S   UNL A   1      51.969  25.265  32.403  1.00  0.00     0.124 S 
ATOM     86  O   UNL A   1      52.064  25.762  33.773  1.00  0.00    -0.237 OA
ATOM     87  O   UNL A   1      51.828  23.817  32.269  1.00  0.00    -0.237 OA
ATOM     88  O   UNL A   1      52.886  25.886  31.450  1.00  0.00    -0.744 OA
ENDBRANCH  84  85
ENDBRANCH  58  79
ENDBRANCH  32  33
ENDBRANCH  24  27
ENDBRANCH  22  23
ENDBRANCH   1  22
TORSDOF 16
ENDMDL
MODEL 2
REMARK VINA RESULT:     -11.0      1.281      1.982
REMARK SMILES Cc1nonc1C[C@@H](C(=O)NCCCNC(=O)c1ccc(-c2c3nc(c(-c4ccc(S(=O)(=O)[O-])cc4)c4ccc([nH]4)c(-c4ccc(S(=O)(=O)[O-])cc4)c4nc(c(-c5ccc(S(=O)(=O)[O-])cc5)c5ccc2[nH]5)C=C4)C=C3)cc1)c1ccccc1Br
REMARK SMILES IDX 13 1 12 2 11 3 9 4 10 5 8 7 7 8 6 9 1 10 2 11 3 12 4 13 5 14
REMARK SMILES IDX 78 15 79 16 83 17 80 18 82 19 84 20 81 21 14 22 15 23 16 24
REMARK SMILES IDX 17 26 18 27 19 28 77 29 20 30 76 31 21 32 22 33 23 34 70 35
REMARK SMILES IDX 24 36 75 37 69 38 71 39 25 40 74 41 68 42 67 43 26 45 56 46
REMARK SMILES IDX 37 47 55 48 38 49 41 50 54 51 72 52 39 53 40 54 53 56 73 57
REMARK SMILES IDX 42 58 27 59 28 60 36 61 29 62 35 63 30 64 31 65 32 66 33 67
REMARK SMILES IDX 34 68 57 69 58 70 66 71 59 72 65 73 60 74 61 75 62 76 63 77
REMARK SMILES IDX 64 78 43 79 44 80 52 81 45 82 51 83 46 84 47 85 48 86 49 87
REMARK SMILES IDX 50 88
REMARK H PARENT 11 6 15 25 71 44 41 55
REMARK Flexibility Score: inf
ROOT
ATOM      1  C   UNL A   1      32.965  28.172  25.911  1.00  0.00     0.042 C 
ENDROOT
BRANCH   1   2
ATOM      2  C   UNL A   1      33.637  26.941  25.300  1.00  0.00     0.117 C 
BRANCH   2   3
ATOM      3  N   UNL A   1      33.383  25.772  26.129  1.00  0.00    -0.355 N 
ATOM      4  C   UNL A   1      32.797  24.574  25.835  1.00  0.00     0.227 C 
ATOM      5  O   UNL A   1      32.356  23.917  26.782  1.00  0.00    -0.274 OA
ATOM      6  H   UNL A   1      33.685  25.858  27.062  1.00  0.00     0.163 HD
BRANCH   4   7
ATOM      7  C   UNL A   1      32.785  24.023  24.397  1.00  0.00     0.116 C 
BRANCH   7   8
ATOM      8  C   UNL A   1      31.349  24.200  23.840  1.00  0.00     0.080 C 
BRANCH   8   9
ATOM      9  C   UNL A   1      30.974  25.533  23.301  1.00  0.00     0.109 A 
ATOM     10  C   UNL A   1      32.522  25.861  21.208  1.00  0.00     0.073 C 
ATOM     11  C   UNL A   1      31.471  26.228  22.179  1.00  0.00     0.105 A 
ATOM     12  N   UNL A   1      30.790  27.365  22.025  1.00  0.00    -0.055 NA
ATOM     13  O   UNL A   1      29.808  27.334  23.008  1.00  0.00    -0.244 OA
ATOM     14  N   UNL A   1      29.918  26.188  23.788  1.00  0.00    -0.055 NA
ENDBRANCH   8   9
ENDBRANCH   7   8
BRANCH   7  15
ATOM     15  C   UNL A   1      33.235  22.526  24.396  1.00  0.00    -0.021 A 
ATOM     16  C   UNL A   1      32.290  21.487  24.219  1.00  0.00     0.006 A 
ATOM     17  C   UNL A   1      34.570  22.115  24.610  1.00  0.00     0.021 A 
ATOM     18  C   UNL A   1      32.622  20.137  24.365  1.00  0.00     0.000 A 
ATOM     19  C   UNL A   1      34.892  20.760  24.801  1.00  0.00     0.016 A 
ATOM     20  Br  UNL A   1      36.062  23.298  24.587  1.00  0.00    -0.051 Br
ATOM     21  C   UNL A   1      33.916  19.774  24.696  1.00  0.00     0.001 A 
ENDBRANCH   7  15
ENDBRANCH   4   7
ENDBRANCH   2   3
ENDBRANCH   1   2
BRANCH   1  22
ATOM     22  C   UNL A   1      33.363  28.444  27.359  1.00  0.00     0.118 C 
BRANCH  22  23
ATOM     23  N   UNL A   1      33.464  29.863  27.643  1.00  0.00    -0.352 N 
ATOM     24  C   UNL A   1      34.490  30.614  28.163  1.00  0.00     0.251 C 
ATOM     25  H   UNL A   1      32.655  30.379  27.425  1.00  0.00     0.163 HD
ATOM     26  O   UNL A   1      34.234  31.766  28.513  1.00  0.00    -0.269 OA
BRANCH  24  27
ATOM     27  C   UNL A   1      35.877  30.094  28.327  1.00  0.00     0.039 A 
ATOM     28  C   UNL A   1      36.240  29.588  29.582  1.00  0.00     0.014 A 
ATOM     29  C   UNL A   1      36.856  30.191  27.337  1.00  0.00     0.014 A 
ATOM     30  C   UNL A   1      37.557  29.179  29.833  1.00  0.00     0.010 A 
ATOM     31  C   UNL A   1      38.145  29.692  27.556  1.00  0.00     0.010 A 
ATOM     32  C   UNL A   1      38.526  29.217  28.819  1.00  0.00    -0.014 A 
BRANCH  32  33
ATOM     33  C   UNL A   1      39.940  28.834  29.095  1.00  0.00     0.031 A 
ATOM     34  C   UNL A   1      40.873  29.798  29.792  1.00  0.00     0.074 A 
ATOM     35  C   UNL A   1      40.401  27.623  28.720  1.00  0.00     0.049 A 
ATOM     36  N   UNL A   1      42.131  29.640  30.122  1.00  0.00    -0.248 NA
ATOM     37  C   UNL A   1      40.331  31.122  30.139  1.00  0.00     0.031 C 
ATOM     38  C   UNL A   1      39.630  26.606  28.002  1.00  0.00     0.029 A 
ATOM     39  N   UNL A   1      41.633  27.040  28.898  1.00  0.00    -0.354 N 
ATOM     40  C   UNL A   1      42.532  30.845  30.689  1.00  0.00     0.074 A 
ATOM     41  C   UNL A   1      41.401  31.742  30.613  1.00  0.00     0.031 C 
ATOM     42  C   UNL A   1      40.392  25.512  27.836  1.00  0.00     0.029 A 
ATOM     43  C   UNL A   1      41.713  25.757  28.407  1.00  0.00     0.049 A 
ATOM     44  H   UNL A   1      42.387  27.497  29.335  1.00  0.00     0.167 HD
ATOM     45  C   UNL A   1      43.724  31.177  31.246  1.00  0.00     0.031 A 
ATOM     46  C   UNL A   1      42.729  24.872  28.421  1.00  0.00     0.031 A 
ATOM     47  C   UNL A   1      44.846  30.282  31.355  1.00  0.00     0.049 A 
ATOM     48  C   UNL A   1      44.028  25.246  29.080  1.00  0.00     0.074 A 
ATOM     49  C   UNL A   1      46.075  30.510  31.951  1.00  0.00     0.029 A 
ATOM     50  N   UNL A   1      44.872  28.984  30.869  1.00  0.00    -0.354 N 
ATOM     51  N   UNL A   1      44.367  26.375  29.655  1.00  0.00    -0.248 NA
ATOM     52  C   UNL A   1      45.075  24.215  29.110  1.00  0.00     0.031 C 
ATOM     53  C   UNL A   1      46.857  29.359  31.795  1.00  0.00     0.029 A 
ATOM     54  C   UNL A   1      46.098  28.401  31.145  1.00  0.00     0.049 A 
ATOM     55  H   UNL A   1      44.130  28.542  30.398  1.00  0.00     0.167 HD
ATOM     56  C   UNL A   1      45.656  26.181  30.140  1.00  0.00     0.074 A 
ATOM     57  C   UNL A   1      46.029  24.821  29.804  1.00  0.00     0.031 C 
ATOM     58  C   UNL A   1      46.459  27.048  30.804  1.00  0.00     0.031 A 
BRANCH  45  59
ATOM     59  C   UNL A   1      43.872  32.578  31.785  1.00  0.00    -0.014 A 
ATOM     60  C   UNL A   1      43.482  32.895  33.100  1.00  0.00     0.010 A 
ATOM     61  C   UNL A   1      44.431  33.583  30.978  1.00  0.00     0.010 A 
ATOM     62  C   UNL A   1      43.602  34.201  33.579  1.00  0.00     0.020 A 
ATOM     63  C   UNL A   1      44.580  34.887  31.463  1.00  0.00     0.020 A 
ATOM     64  C   UNL A   1      44.144  35.192  32.754  1.00  0.00     0.054 A 
BRANCH  64  65
ATOM     65  S   UNL A   1      44.299  36.878  33.404  1.00  0.00     0.124 S 
ATOM     66  O   UNL A   1      45.725  37.139  33.226  1.00  0.00    -0.237 OA
ATOM     67  O   UNL A   1      43.407  37.643  32.537  1.00  0.00    -0.237 OA
ATOM     68  O   UNL A   1      43.857  36.756  34.793  1.00  0.00    -0.744 OA
ENDBRANCH  64  65
ENDBRANCH  45  59
BRANCH  46  69
ATOM     69  C   UNL A   1      42.545  23.523  27.821  1.00  0.00    -0.014 A 
ATOM     70  C   UNL A   1      42.854  23.296  26.468  1.00  0.00     0.010 A 
ATOM     71  C   UNL A   1      42.069  22.454  28.602  1.00  0.00     0.010 A 
ATOM     72  C   UNL A   1      42.674  22.031  25.901  1.00  0.00     0.020 A 
ATOM     73  C   UNL A   1      41.912  21.181  28.045  1.00  0.00     0.020 A 
ATOM     74  C   UNL A   1      42.204  20.980  26.695  1.00  0.00     0.054 A 
BRANCH  74  75
ATOM     75  S   UNL A   1      42.030  19.332  25.954  1.00  0.00     0.124 S 
ATOM     76  O   UNL A   1      42.543  18.469  27.013  1.00  0.00    -0.237 OA
ATOM     77  O   UNL A   1      40.593  19.245  25.708  1.00  0.00    -0.237 OA
ATOM     78  O   UNL A   1      42.855  19.411  24.752  1.00  0.00    -0.744 OA
ENDBRANCH  74  75
ENDBRANCH  46  69
BRANCH  58  79
ATOM     79  C   UNL A   1      47.805  26.540  31.245  1.00  0.00    -0.014 A 
ATOM     80  C   UNL A   1      48.934  26.643  30.413  1.00  0.00     0.010 A 
ATOM     81  C   UNL A   1      47.944  25.964  32.522  1.00  0.00     0.010 A 
ATOM     82  C   UNL A   1      50.167  26.133  30.830  1.00  0.00     0.020 A 
ATOM     83  C   UNL A   1      49.180  25.476  32.951  1.00  0.00     0.020 A 
ATOM     84  C   UNL A   1      50.280  25.543  32.093  1.00  0.00     0.054 A 
BRANCH  84  85
ATOM     85  S   UNL A   1      51.889  24.892  32.619  1.00  0.00     0.124 S 
ATOM     86  O   UNL A   1      51.732  23.461  32.371  1.00  0.00    -0.237 OA
ATOM     87  O   UNL A   1      52.824  25.582  31.733  1.00  0.00    -0.237 OA
ATOM     88  O   UNL A   1      51.975  25.275  34.026  1.00  0.00    -0.744 OA
ENDBRANCH  84  85
ENDBRANCH  58  79
ENDBRANCH  32  33
ENDBRANCH  24  27
ENDBRANCH  22  23
ENDBRANCH   1  22
TORSDOF 16
ENDMDL
MODEL 3
REMARK VINA RESULT:     -10.8      3.263      4.268
REMARK SMILES Cc1nonc1C[C@@H](C(=O)NCCCNC(=O)c1ccc(-c2c3nc(c(-c4ccc(S(=O)(=O)[O-])cc4)c4ccc([nH]4)c(-c4ccc(S(=O)(=O)[O-])cc4)c4nc(c(-c5ccc(S(=O)(=O)[O-])cc5)c5ccc2[nH]5)C=C4)C=C3)cc1)c1ccccc1Br
REMARK SMILES IDX 13 1 12 2 11 3 9 4 10 5 8 7 7 8 6 9 1 10 2 11 3 12 4 13 5 14
REMARK SMILES IDX 78 15 79 16 83 17 80 18 82 19 84 20 81 21 14 22 15 23 16 24
REMARK SMILES IDX 17 26 18 27 19 28 77 29 20 30 76 31 21 32 22 33 23 34 70 35
REMARK SMILES IDX 24 36 75 37 69 38 71 39 25 40 74 41 68 42 67 43 26 45 56 46
REMARK SMILES IDX 37 47 55 48 38 49 41 50 54 51 72 52 39 53 40 54 53 56 73 57
REMARK SMILES IDX 42 58 27 59 28 60 36 61 29 62 35 63 30 64 31 65 32 66 33 67
REMARK SMILES IDX 34 68 57 69 58 70 66 71 59 72 65 73 60 74 61 75 62 76 63 77
REMARK SMILES IDX 64 78 43 79 44 80 52 81 45 82 51 83 46 84 47 85 48 86 49 87
REMARK SMILES IDX 50 88
REMARK H PARENT 11 6 15 25 71 44 41 55
REMARK Flexibility Score: inf
ROOT
ATOM      1  C   UNL A   1      34.220  30.776  27.469  1.00  0.00     0.042 C 
ENDROOT
BRANCH   1   2
ATOM      2  C   UNL A   1      34.302  29.319  27.010  1.00  0.00     0.117 C 
BRANCH   2   3
ATOM      3  N   UNL A   1      33.184  28.561  27.553  1.00  0.00    -0.355 N 
ATOM      4  C   UNL A   1      32.104  27.992  26.942  1.00  0.00     0.227 C 
ATOM      5  O   UNL A   1      31.121  27.751  27.647  1.00  0.00    -0.274 OA
ATOM      6  H   UNL A   1      33.210  28.437  28.529  1.00  0.00     0.163 HD
BRANCH   4   7
ATOM      7  C   UNL A   1      32.155  27.574  25.460  1.00  0.00     0.116 C 
BRANCH   7   8
ATOM      8  C   UNL A   1      30.696  27.494  24.945  1.00  0.00     0.080 C 
BRANCH   8   9
ATOM      9  C   UNL A   1      30.357  28.238  23.703  1.00  0.00     0.109 A 
ATOM     10  C   UNL A   1      27.775  27.881  23.404  1.00  0.00     0.073 C 
ATOM     11  C   UNL A   1      29.113  28.403  23.059  1.00  0.00     0.105 A 
ATOM     12  N   UNL A   1      29.263  29.213  22.010  1.00  0.00    -0.055 NA
ATOM     13  O   UNL A   1      30.591  29.620  22.054  1.00  0.00    -0.244 OA
ATOM     14  N   UNL A   1      31.261  29.022  23.115  1.00  0.00    -0.055 NA
ENDBRANCH   8   9
ENDBRANCH   7   8
BRANCH   7  15
ATOM     15  C   UNL A   1      32.904  26.208  25.317  1.00  0.00    -0.021 A 
ATOM     16  C   UNL A   1      32.828  25.232  26.339  1.00  0.00     0.006 A 
ATOM     17  C   UNL A   1      33.722  25.882  24.211  1.00  0.00     0.021 A 
ATOM     18  C   UNL A   1      33.601  24.068  26.323  1.00  0.00     0.000 A 
ATOM     19  C   UNL A   1      34.531  24.733  24.220  1.00  0.00     0.016 A 
ATOM     20  Br  UNL A   1      33.767  26.882  22.591  1.00  0.00    -0.051 Br
ATOM     21  C   UNL A   1      34.484  23.836  25.282  1.00  0.00     0.001 A 
ENDBRANCH   7  15
ENDBRANCH   4   7
ENDBRANCH   2   3
ENDBRANCH   1   2
BRANCH   1  22
ATOM     22  C   UNL A   1      35.503  31.301  28.107  1.00  0.00     0.118 C 
BRANCH  22  23
ATOM     23  N   UNL A   1      35.553  31.043  29.533  1.00  0.00    -0.352 N 
ATOM     24  C   UNL A   1      36.434  30.314  30.294  1.00  0.00     0.251 C 
ATOM     25  H   UNL A   1      34.827  31.464  30.046  1.00  0.00     0.163 HD
ATOM     26  O   UNL A   1      36.117  30.070  31.458  1.00  0.00    -0.269 OA
BRANCH  24  27
ATOM     27  C   UNL A   1      37.733  29.806  29.771  1.00  0.00     0.039 A 
ATOM     28  C   UNL A   1      38.698  29.400  30.703  1.00  0.00     0.014 A 
ATOM     29  C   UNL A   1      38.076  29.822  28.418  1.00  0.00     0.014 A 
ATOM     30  C   UNL A   1      39.977  29.010  30.282  1.00  0.00     0.010 A 
ATOM     31  C   UNL A   1      39.319  29.339  27.990  1.00  0.00     0.010 A 
ATOM     32  C   UNL A   1      40.301  28.965  28.917  1.00  0.00    -0.014 A 
BRANCH  32  33
ATOM     33  C   UNL A   1      41.675  28.603  28.468  1.00  0.00     0.031 A 
ATOM     34  C   UNL A   1      42.770  29.644  28.434  1.00  0.00     0.074 A 
ATOM     35  C   UNL A   1      41.952  27.340  28.081  1.00  0.00     0.049 A 
ATOM     36  N   UNL A   1      44.025  29.515  28.079  1.00  0.00    -0.248 NA
ATOM     37  C   UNL A   1      42.402  31.015  28.823  1.00  0.00     0.031 C 
ATOM     38  C   UNL A   1      40.988  26.240  28.020  1.00  0.00     0.029 A 
ATOM     39  N   UNL A   1      43.133  26.768  27.671  1.00  0.00    -0.354 N 
ATOM     40  C   UNL A   1      44.584  30.785  28.179  1.00  0.00     0.074 A 
ATOM     41  C   UNL A   1      43.522  31.680  28.579  1.00  0.00     0.031 C 
ATOM     42  C   UNL A   1      41.622  25.120  27.638  1.00  0.00     0.029 A 
ATOM     43  C   UNL A   1      43.029  25.424  27.396  1.00  0.00     0.049 A 
ATOM     44  H   UNL A   1      43.973  27.272  27.584  1.00  0.00     0.167 HD
ATOM     45  C   UNL A   1      45.868  31.176  27.981  1.00  0.00     0.031 A 
ATOM     46  C   UNL A   1      43.960  24.532  27.003  1.00  0.00     0.031 A 
ATOM     47  C   UNL A   1      46.939  30.287  27.615  1.00  0.00     0.049 A 
ATOM     48  C   UNL A   1      45.386  24.979  26.830  1.00  0.00     0.074 A 
ATOM     49  C   UNL A   1      48.282  30.579  27.444  1.00  0.00     0.029 A 
ATOM     50  N   UNL A   1      46.793  28.930  27.373  1.00  0.00    -0.354 N 
ATOM     51  N   UNL A   1      45.901  26.176  26.980  1.00  0.00    -0.248 NA
ATOM     52  C   UNL A   1      46.361  23.945  26.455  1.00  0.00     0.031 C 
ATOM     53  C   UNL A   1      48.942  29.404  27.068  1.00  0.00     0.029 A 
ATOM     54  C   UNL A   1      48.019  28.372  27.049  1.00  0.00     0.049 A 
ATOM     55  H   UNL A   1      45.944  28.435  27.425  1.00  0.00     0.167 HD
ATOM     56  C   UNL A   1      47.264  26.033  26.744  1.00  0.00     0.074 A 
ATOM     57  C   UNL A   1      47.495  24.631  26.458  1.00  0.00     0.031 C 
ATOM     58  C   UNL A   1      48.237  26.977  26.764  1.00  0.00     0.031 A 
BRANCH  45  59
ATOM     59  C   UNL A   1      46.184  32.639  28.162  1.00  0.00    -0.014 A 
ATOM     60  C   UNL A   1      46.076  33.543  27.088  1.00  0.00     0.010 A 
ATOM     61  C   UNL A   1      46.569  33.121  29.425  1.00  0.00     0.010 A 
ATOM     62  C   UNL A   1      46.396  34.892  27.263  1.00  0.00     0.020 A 
ATOM     63  C   UNL A   1      46.862  34.477  29.612  1.00  0.00     0.020 A 
ATOM     64  C   UNL A   1      46.793  35.349  28.523  1.00  0.00     0.054 A 
BRANCH  64  65
ATOM     65  S   UNL A   1      47.192  37.107  28.726  1.00  0.00     0.124 S 
ATOM     66  O   UNL A   1      45.863  37.709  28.808  1.00  0.00    -0.237 OA
ATOM     67  O   UNL A   1      47.966  37.123  29.964  1.00  0.00    -0.237 OA
ATOM     68  O   UNL A   1      47.950  37.432  27.519  1.00  0.00    -0.744 OA
ENDBRANCH  64  65
ENDBRANCH  45  59
BRANCH  46  69
ATOM     69  C   UNL A   1      43.578  23.111  26.783  1.00  0.00    -0.014 A 
ATOM     70  C   UNL A   1      42.901  22.392  27.784  1.00  0.00     0.010 A 
ATOM     71  C   UNL A   1      43.880  22.471  25.567  1.00  0.00     0.010 A 
ATOM     72  C   UNL A   1      42.549  21.054  27.582  1.00  0.00     0.020 A 
ATOM     73  C   UNL A   1      43.508  21.142  25.352  1.00  0.00     0.020 A 
ATOM     74  C   UNL A   1      42.855  20.437  26.365  1.00  0.00     0.054 A 
BRANCH  74  75
ATOM     75  S   UNL A   1      42.340  18.717  26.100  1.00  0.00     0.124 S 
ATOM     76  O   UNL A   1      43.252  18.286  25.045  1.00  0.00    -0.237 OA
ATOM     77  O   UNL A   1      42.562  18.114  27.412  1.00  0.00    -0.237 OA
ATOM     78  O   UNL A   1      40.938  18.838  25.709  1.00  0.00    -0.744 OA
ENDBRANCH  74  75
ENDBRANCH  46  69
BRANCH  58  79
ATOM     79  C   UNL A   1      49.647  26.517  26.506  1.00  0.00    -0.014 A 
ATOM     80  C   UNL A   1      50.462  26.038  27.548  1.00  0.00     0.010 A 
ATOM     81  C   UNL A   1      50.159  26.552  25.196  1.00  0.00     0.010 A 
ATOM     82  C   UNL A   1      51.779  25.649  27.290  1.00  0.00     0.020 A 
ATOM     83  C   UNL A   1      51.467  26.141  24.932  1.00  0.00     0.020 A 
ATOM     84  C   UNL A   1      52.277  25.712  25.986  1.00  0.00     0.054 A 
BRANCH  84  85
ATOM     85  S   UNL A   1      53.988  25.199  25.671  1.00  0.00     0.124 S 
ATOM     86  O   UNL A   1      54.682  25.722  26.845  1.00  0.00    -0.237 OA
ATOM     87  O   UNL A   1      53.883  23.743  25.603  1.00  0.00    -0.237 OA
ATOM     88  O   UNL A   1      54.319  25.853  24.407  1.00  0.00    -0.744 OA
ENDBRANCH  84  85
ENDBRANCH  58  79
ENDBRANCH  32  33
ENDBRANCH  24  27
ENDBRANCH  22  23
ENDBRANCH   1  22
TORSDOF 16
ENDMDL
