MODEL 1
REMARK VINA RESULT:     -12.5      0.000      0.000
REMARK SMILES C[C@@H](C(=O)NCc1ccc(F)cc1)n1cc(C(=O)NCCCNC(=O)c2ccc(-c3c4nc(c(-c5ccc(S(=O)(=O)[O-])cc5)c5ccc([nH]5)c(-c5ccc(S(=O)(=O)[O-])cc5)c5nc(c(-c6ccc(S(=O)(=O)[O-])cc6)c6ccc3[nH]6)C=C5)C=C4)cc2)cn1
REMARK SMILES IDX 20 1 19 2 17 3 18 4 16 6 14 7 15 8 87 9 86 10 2 11 1 12 3 13
REMARK SMILES IDX 4 14 5 15 6 17 7 18 8 19 13 20 9 21 12 22 10 23 11 24 21 25
REMARK SMILES IDX 22 26 23 27 24 28 25 30 26 31 27 32 85 33 28 34 84 35 29 36
REMARK SMILES IDX 30 37 31 38 78 39 32 40 83 41 77 42 79 43 33 44 82 45 76 46
REMARK SMILES IDX 75 47 34 49 64 50 45 51 63 52 46 53 49 54 62 55 80 56 47 57
REMARK SMILES IDX 48 58 61 60 81 61 50 62 35 63 36 64 44 65 37 66 43 67 38 68
REMARK SMILES IDX 39 69 40 70 41 71 42 72 65 73 66 74 74 75 67 76 73 77 68 78
REMARK SMILES IDX 69 79 70 80 71 81 72 82 51 83 52 84 60 85 53 86 59 87 54 88
REMARK SMILES IDX 55 89 56 90 57 91 58 92
REMARK H PARENT 19 5 5 16 23 29 79 48 49 59
REMARK Flexibility Score: inf
ROOT
ATOM      1  C   UNL A   1      37.854  22.678  25.744  1.00  0.00     0.118 C 
ENDROOT
BRANCH   1   2
ATOM      2  N   UNL A   1      37.466  22.696  24.347  1.00  0.00    -0.352 N 
ATOM      3  C   UNL A   1      36.245  22.857  23.732  1.00  0.00     0.254 C 
ATOM      4  O   UNL A   1      36.240  22.958  22.514  1.00  0.00    -0.269 OA
ATOM      5  H   UNL A   1      38.215  22.570  23.722  1.00  0.00     0.163 HD
BRANCH   3   6
ATOM      6  C   UNL A   1      35.003  22.896  24.489  1.00  0.00     0.077 A 
ATOM      7  N   UNL A   1      33.276  23.398  25.779  1.00  0.00    -0.260 N 
ATOM      8  C   UNL A   1      34.279  23.938  25.024  1.00  0.00     0.123 A 
ATOM      9  N   UNL A   1      33.163  22.065  25.593  1.00  0.00    -0.180 NA
ATOM     10  C   UNL A   1      34.249  21.758  24.877  1.00  0.00     0.149 A 
BRANCH   7  11
ATOM     11  C   UNL A   1      32.325  24.112  26.645  1.00  0.00     0.193 C 
ATOM     12  C   UNL A   1      32.381  25.617  26.393  1.00  0.00     0.044 C 
BRANCH  11  13
ATOM     13  C   UNL A   1      30.886  23.604  26.475  1.00  0.00     0.244 C 
ATOM     14  O   UNL A   1      30.185  23.212  27.412  1.00  0.00    -0.273 OA
ATOM     15  N   UNL A   1      30.283  23.590  25.251  1.00  0.00    -0.350 N 
ATOM     16  H   UNL A   1      29.312  23.430  25.281  1.00  0.00     0.163 HD
BRANCH  15  17
ATOM     17  C   UNL A   1      30.817  23.769  23.917  1.00  0.00     0.151 C 
BRANCH  17  18
ATOM     18  C   UNL A   1      30.676  25.213  23.492  1.00  0.00    -0.029 A 
ATOM     19  C   UNL A   1      31.608  25.804  22.624  1.00  0.00     0.008 A 
ATOM     20  C   UNL A   1      29.574  25.978  23.917  1.00  0.00     0.008 A 
ATOM     21  C   UNL A   1      31.409  27.097  22.137  1.00  0.00     0.039 A 
ATOM     22  C   UNL A   1      29.387  27.279  23.447  1.00  0.00     0.039 A 
ATOM     23  C   UNL A   1      30.299  27.821  22.550  1.00  0.00     0.123 A 
ATOM     24  F   UNL A   1      30.107  29.060  22.078  1.00  0.00    -0.207 F 
ENDBRANCH  17  18
ENDBRANCH  15  17
ENDBRANCH  11  13
ENDBRANCH   7  11
ENDBRANCH   3   6
ENDBRANCH   1   2
BRANCH   1  25
ATOM     25  C   UNL A   1      38.991  21.692  26.047  1.00  0.00     0.042 C 
BRANCH  25  26
ATOM     26  C   UNL A   1      40.125  22.369  26.804  1.00  0.00     0.118 C 
BRANCH  26  27
ATOM     27  N   UNL A   1      41.419  22.242  26.100  1.00  0.00    -0.352 N 
ATOM     28  C   UNL A   1      42.274  23.220  25.613  1.00  0.00     0.251 C 
ATOM     29  H   UNL A   1      41.721  21.316  25.954  1.00  0.00     0.163 HD
ATOM     30  O   UNL A   1      43.134  22.941  24.786  1.00  0.00    -0.269 OA
BRANCH  28  31
ATOM     31  C   UNL A   1      42.135  24.593  26.123  1.00  0.00     0.039 A 
ATOM     32  C   UNL A   1      41.309  25.563  25.544  1.00  0.00     0.014 A 
ATOM     33  C   UNL A   1      42.830  24.866  27.287  1.00  0.00     0.014 A 
ATOM     34  C   UNL A   1      41.171  26.788  26.199  1.00  0.00     0.010 A 
ATOM     35  C   UNL A   1      42.401  25.880  28.079  1.00  0.00     0.010 A 
ATOM     36  C   UNL A   1      41.731  26.926  27.476  1.00  0.00    -0.014 A 
BRANCH  36  37
ATOM     37  C   UNL A   1      41.614  28.112  28.305  1.00  0.00     0.031 A 
ATOM     38  C   UNL A   1      42.697  29.095  28.069  1.00  0.00     0.074 A 
ATOM     39  C   UNL A   1      40.452  28.416  28.934  1.00  0.00     0.049 A 
ATOM     40  N   UNL A   1      43.725  29.325  28.815  1.00  0.00    -0.248 NA
ATOM     41  C   UNL A   1      42.773  29.735  26.741  1.00  0.00     0.031 C 
ATOM     42  C   UNL A   1      39.165  27.699  28.895  1.00  0.00     0.029 A 
ATOM     43  N   UNL A   1      40.132  29.522  29.648  1.00  0.00    -0.354 N 
ATOM     44  C   UNL A   1      44.419  30.349  28.180  1.00  0.00     0.074 A 
ATOM     45  C   UNL A   1      43.958  30.345  26.816  1.00  0.00     0.031 C 
ATOM     46  C   UNL A   1      38.174  28.509  29.337  1.00  0.00     0.029 A 
ATOM     47  C   UNL A   1      38.769  29.731  29.848  1.00  0.00     0.049 A 
ATOM     48  H   UNL A   1      40.815  30.136  30.000  1.00  0.00     0.167 HD
ATOM     49  C   UNL A   1      45.055  31.320  28.895  1.00  0.00     0.031 A 
ATOM     50  C   UNL A   1      38.188  30.847  30.364  1.00  0.00     0.031 A 
ATOM     51  C   UNL A   1      45.089  30.982  30.298  1.00  0.00     0.049 A 
ATOM     52  C   UNL A   1      39.267  31.593  31.065  1.00  0.00     0.074 A 
ATOM     53  C   UNL A   1      45.596  29.933  31.038  1.00  0.00     0.029 A 
ATOM     54  N   UNL A   1      44.141  31.590  31.093  1.00  0.00    -0.354 N 
ATOM     55  N   UNL A   1      39.896  31.128  32.111  1.00  0.00    -0.248 NA
ATOM     56  C   UNL A   1      39.989  32.601  30.302  1.00  0.00     0.031 C 
ATOM     57  C   UNL A   1      44.602  29.673  32.027  1.00  0.00     0.029 A 
ATOM     58  C   UNL A   1      43.595  30.635  31.907  1.00  0.00     0.049 A 
ATOM     59  H   UNL A   1      43.899  32.545  31.077  1.00  0.00     0.167 HD
ATOM     60  C   UNL A   1      41.231  31.447  31.897  1.00  0.00     0.074 A 
ATOM     61  C   UNL A   1      41.216  32.421  30.804  1.00  0.00     0.031 C 
ATOM     62  C   UNL A   1      42.235  30.674  32.408  1.00  0.00     0.031 A 
BRANCH  49  63
ATOM     63  C   UNL A   1      45.223  32.752  28.435  1.00  0.00    -0.014 A 
ATOM     64  C   UNL A   1      46.510  33.323  28.515  1.00  0.00     0.010 A 
ATOM     65  C   UNL A   1      44.151  33.636  28.201  1.00  0.00     0.010 A 
ATOM     66  C   UNL A   1      46.698  34.709  28.481  1.00  0.00     0.020 A 
ATOM     67  C   UNL A   1      44.331  35.019  28.121  1.00  0.00     0.020 A 
ATOM     68  C   UNL A   1      45.600  35.549  28.304  1.00  0.00     0.054 A 
BRANCH  68  69
ATOM     69  S   UNL A   1      45.835  37.338  28.383  1.00  0.00     0.124 S 
ATOM     70  O   UNL A   1      45.103  37.683  29.597  1.00  0.00    -0.237 OA
ATOM     71  O   UNL A   1      47.289  37.453  28.464  1.00  0.00    -0.237 OA
ATOM     72  O   UNL A   1      45.244  37.816  27.135  1.00  0.00    -0.744 OA
ENDBRANCH  68  69
ENDBRANCH  49  63
BRANCH  50  73
ATOM     73  C   UNL A   1      36.884  31.476  30.004  1.00  0.00    -0.014 A 
ATOM     74  C   UNL A   1      36.027  32.010  30.987  1.00  0.00     0.010 A 
ATOM     75  C   UNL A   1      36.612  31.812  28.661  1.00  0.00     0.010 A 
ATOM     76  C   UNL A   1      34.980  32.892  30.646  1.00  0.00     0.020 A 
ATOM     77  C   UNL A   1      35.571  32.688  28.313  1.00  0.00     0.020 A 
ATOM     78  C   UNL A   1      34.772  33.243  29.311  1.00  0.00     0.054 A 
BRANCH  78  79
ATOM     79  S   UNL A   1      33.539  34.517  28.894  1.00  0.00     0.124 S 
ATOM     80  O   UNL A   1      32.950  34.819  30.195  1.00  0.00    -0.237 OA
ATOM     81  O   UNL A   1      34.357  35.577  28.311  1.00  0.00    -0.237 OA
ATOM     82  O   UNL A   1      32.648  33.840  27.954  1.00  0.00    -0.744 OA
ENDBRANCH  78  79
ENDBRANCH  50  73
BRANCH  62  83
ATOM     83  C   UNL A   1      41.900  29.626  33.444  1.00  0.00    -0.014 A 
ATOM     84  C   UNL A   1      41.634  28.273  33.149  1.00  0.00     0.010 A 
ATOM     85  C   UNL A   1      42.083  29.996  34.788  1.00  0.00     0.010 A 
ATOM     86  C   UNL A   1      41.558  27.319  34.180  1.00  0.00     0.020 A 
ATOM     87  C   UNL A   1      42.026  29.051  35.812  1.00  0.00     0.020 A 
ATOM     88  C   UNL A   1      41.761  27.717  35.507  1.00  0.00     0.054 A 
BRANCH  88  89
ATOM     89  S   UNL A   1      41.746  26.478  36.835  1.00  0.00     0.124 S 
ATOM     90  O   UNL A   1      40.487  26.761  37.519  1.00  0.00    -0.237 OA
ATOM     91  O   UNL A   1      41.795  25.214  36.104  1.00  0.00    -0.237 OA
ATOM     92  O   UNL A   1      42.951  26.781  37.607  1.00  0.00    -0.744 OA
ENDBRANCH  88  89
ENDBRANCH  62  83
ENDBRANCH  36  37
ENDBRANCH  28  31
ENDBRANCH  26  27
ENDBRANCH  25  26
ENDBRANCH   1  25
TORSDOF 17
ENDMDL
MODEL 2
REMARK VINA RESULT:     -12.4      2.829      9.398
REMARK SMILES C[C@@H](C(=O)NCc1ccc(F)cc1)n1cc(C(=O)NCCCNC(=O)c2ccc(-c3c4nc(c(-c5ccc(S(=O)(=O)[O-])cc5)c5ccc([nH]5)c(-c5ccc(S(=O)(=O)[O-])cc5)c5nc(c(-c6ccc(S(=O)(=O)[O-])cc6)c6ccc3[nH]6)C=C5)C=C4)cc2)cn1
REMARK SMILES IDX 20 1 19 2 17 3 18 4 16 6 14 7 15 8 87 9 86 10 2 11 1 12 3 13
REMARK SMILES IDX 4 14 5 15 6 17 7 18 8 19 13 20 9 21 12 22 10 23 11 24 21 25
REMARK SMILES IDX 22 26 23 27 24 28 25 30 26 31 27 32 85 33 28 34 84 35 29 36
REMARK SMILES IDX 30 37 31 38 78 39 32 40 83 41 77 42 79 43 33 44 82 45 76 46
REMARK SMILES IDX 75 47 34 49 64 50 45 51 63 52 46 53 49 54 62 55 80 56 47 57
REMARK SMILES IDX 48 58 61 60 81 61 50 62 35 63 36 64 44 65 37 66 43 67 38 68
REMARK SMILES IDX 39 69 40 70 41 71 42 72 65 73 66 74 74 75 67 76 73 77 68 78
REMARK SMILES IDX 69 79 70 80 71 81 72 82 51 83 52 84 60 85 53 86 59 87 54 88
REMARK SMILES IDX 55 89 56 90 57 91 58 92
REMARK H PARENT 19 5 5 16 23 29 79 48 49 59
REMARK Flexibility Score: inf
ROOT
ATOM      1  C   UNL A   1      33.062  27.525  24.330  1.00  0.00     0.118 C 
ENDROOT
BRANCH   1   2
ATOM      2  N   UNL A   1      32.064  27.281  25.354  1.00  0.00    -0.352 N 
ATOM      3  C   UNL A   1      31.690  26.138  26.023  1.00  0.00     0.254 C 
ATOM      4  O   UNL A   1      30.893  26.262  26.942  1.00  0.00    -0.269 OA
ATOM      5  H   UNL A   1      31.562  28.084  25.622  1.00  0.00     0.163 HD
BRANCH   3   6
ATOM      6  C   UNL A   1      32.205  24.828  25.653  1.00  0.00     0.077 A 
ATOM      7  N   UNL A   1      33.426  23.050  25.159  1.00  0.00    -0.260 N 
ATOM      8  C   UNL A   1      33.424  24.223  25.862  1.00  0.00     0.123 A 
ATOM      9  N   UNL A   1      32.201  22.743  24.681  1.00  0.00    -0.180 NA
ATOM     10  C   UNL A   1      31.490  23.849  24.916  1.00  0.00     0.149 A 
BRANCH   7  11
ATOM     11  C   UNL A   1      34.553  22.123  24.972  1.00  0.00     0.193 C 
ATOM     12  C   UNL A   1      34.056  20.712  24.666  1.00  0.00     0.044 C 
BRANCH  11  13
ATOM     13  C   UNL A   1      35.516  22.591  23.872  1.00  0.00     0.244 C 
ATOM     14  O   UNL A   1      35.153  23.186  22.853  1.00  0.00    -0.273 OA
ATOM     15  N   UNL A   1      36.862  22.395  23.982  1.00  0.00    -0.350 N 
ATOM     16  H   UNL A   1      37.399  22.895  23.325  1.00  0.00     0.163 HD
BRANCH  15  17
ATOM     17  C   UNL A   1      37.641  21.582  24.894  1.00  0.00     0.151 C 
BRANCH  17  18
ATOM     18  C   UNL A   1      38.446  22.467  25.818  1.00  0.00    -0.029 A 
ATOM     19  C   UNL A   1      38.013  23.765  26.132  1.00  0.00     0.008 A 
ATOM     20  C   UNL A   1      39.619  21.984  26.426  1.00  0.00     0.008 A 
ATOM     21  C   UNL A   1      38.692  24.534  27.079  1.00  0.00     0.039 A 
ATOM     22  C   UNL A   1      40.310  22.761  27.357  1.00  0.00     0.039 A 
ATOM     23  C   UNL A   1      39.831  24.024  27.685  1.00  0.00     0.123 A 
ATOM     24  F   UNL A   1      40.479  24.760  28.597  1.00  0.00    -0.207 F 
ENDBRANCH  17  18
ENDBRANCH  15  17
ENDBRANCH  11  13
ENDBRANCH   7  11
ENDBRANCH   3   6
ENDBRANCH   1   2
BRANCH   1  25
ATOM     25  C   UNL A   1      34.048  28.643  24.695  1.00  0.00     0.042 C 
BRANCH  25  26
ATOM     26  C   UNL A   1      34.203  28.777  26.203  1.00  0.00     0.118 C 
BRANCH  26  27
ATOM     27  N   UNL A   1      33.751  30.097  26.694  1.00  0.00    -0.352 N 
ATOM     28  C   UNL A   1      34.353  30.977  27.582  1.00  0.00     0.251 C 
ATOM     29  H   UNL A   1      32.886  30.399  26.332  1.00  0.00     0.163 HD
ATOM     30  O   UNL A   1      33.701  31.866  28.116  1.00  0.00    -0.269 OA
BRANCH  28  31
ATOM     31  C   UNL A   1      35.791  30.826  27.855  1.00  0.00     0.039 A 
ATOM     32  C   UNL A   1      36.599  31.841  28.378  1.00  0.00     0.014 A 
ATOM     33  C   UNL A   1      36.307  29.563  27.629  1.00  0.00     0.014 A 
ATOM     34  C   UNL A   1      37.919  31.529  28.709  1.00  0.00     0.010 A 
ATOM     35  C   UNL A   1      37.434  29.193  28.286  1.00  0.00     0.010 A 
ATOM     36  C   UNL A   1      38.319  30.187  28.655  1.00  0.00    -0.014 A 
BRANCH  36  37
ATOM     37  C   UNL A   1      39.634  29.702  29.031  1.00  0.00     0.031 A 
ATOM     38  C   UNL A   1      39.843  29.667  30.498  1.00  0.00     0.074 A 
ATOM     39  C   UNL A   1      40.411  29.027  28.149  1.00  0.00     0.049 A 
ATOM     40  N   UNL A   1      40.529  30.494  31.212  1.00  0.00    -0.248 NA
ATOM     41  C   UNL A   1      39.009  28.746  31.294  1.00  0.00     0.031 C 
ATOM     42  C   UNL A   1      40.112  28.645  26.758  1.00  0.00     0.029 A 
ATOM     43  N   UNL A   1      41.602  28.415  28.354  1.00  0.00    -0.354 N 
ATOM     44  C   UNL A   1      40.442  30.015  32.514  1.00  0.00     0.074 A 
ATOM     45  C   UNL A   1      39.294  29.147  32.535  1.00  0.00     0.031 C 
ATOM     46  C   UNL A   1      40.967  27.676  26.353  1.00  0.00     0.029 A 
ATOM     47  C   UNL A   1      41.975  27.491  27.381  1.00  0.00     0.049 A 
ATOM     48  H   UNL A   1      42.164  28.608  29.139  1.00  0.00     0.167 HD
ATOM     49  C   UNL A   1      41.498  30.103  33.372  1.00  0.00     0.031 A 
ATOM     50  C   UNL A   1      43.019  26.620  27.447  1.00  0.00     0.031 A 
ATOM     51  C   UNL A   1      42.541  30.933  32.816  1.00  0.00     0.049 A 
ATOM     52  C   UNL A   1      43.919  27.130  28.516  1.00  0.00     0.074 A 
ATOM     53  C   UNL A   1      42.622  32.242  32.387  1.00  0.00     0.029 A 
ATOM     54  N   UNL A   1      43.597  30.271  32.229  1.00  0.00    -0.354 N 
ATOM     55  N   UNL A   1      44.547  28.273  28.437  1.00  0.00    -0.248 NA
ATOM     56  C   UNL A   1      43.711  26.626  29.865  1.00  0.00     0.031 C 
ATOM     57  C   UNL A   1      43.417  32.188  31.205  1.00  0.00     0.029 A 
ATOM     58  C   UNL A   1      43.863  30.875  31.030  1.00  0.00     0.049 A 
ATOM     59  H   UNL A   1      44.076  29.497  32.606  1.00  0.00     0.167 HD
ATOM     60  C   UNL A   1      44.427  28.835  29.701  1.00  0.00     0.074 A 
ATOM     61  C   UNL A   1      43.968  27.740  30.559  1.00  0.00     0.031 C 
ATOM     62  C   UNL A   1      44.413  30.190  29.877  1.00  0.00     0.031 A 
BRANCH  49  63
ATOM     63  C   UNL A   1      41.803  29.099  34.463  1.00  0.00    -0.014 A 
ATOM     64  C   UNL A   1      42.500  29.555  35.601  1.00  0.00     0.010 A 
ATOM     65  C   UNL A   1      41.691  27.703  34.304  1.00  0.00     0.010 A 
ATOM     66  C   UNL A   1      43.149  28.665  36.464  1.00  0.00     0.020 A 
ATOM     67  C   UNL A   1      42.297  26.804  35.185  1.00  0.00     0.020 A 
ATOM     68  C   UNL A   1      43.059  27.294  36.235  1.00  0.00     0.054 A 
BRANCH  68  69
ATOM     69  S   UNL A   1      43.998  26.159  37.283  1.00  0.00     0.124 S 
ATOM     70  O   UNL A   1      45.373  26.563  37.002  1.00  0.00    -0.237 OA
ATOM     71  O   UNL A   1      43.499  26.488  38.615  1.00  0.00    -0.237 OA
ATOM     72  O   UNL A   1      43.617  24.840  36.786  1.00  0.00    -0.744 OA
ENDBRANCH  68  69
ENDBRANCH  49  63
BRANCH  50  73
ATOM     73  C   UNL A   1      43.112  25.229  26.918  1.00  0.00    -0.014 A 
ATOM     74  C   UNL A   1      42.914  24.947  25.551  1.00  0.00     0.010 A 
ATOM     75  C   UNL A   1      43.685  24.211  27.709  1.00  0.00     0.010 A 
ATOM     76  C   UNL A   1      43.326  23.721  24.988  1.00  0.00     0.020 A 
ATOM     77  C   UNL A   1      44.098  22.988  27.157  1.00  0.00     0.020 A 
ATOM     78  C   UNL A   1      43.937  22.756  25.793  1.00  0.00     0.054 A 
BRANCH  78  79
ATOM     79  S   UNL A   1      44.630  21.253  25.031  1.00  0.00     0.124 S 
ATOM     80  O   UNL A   1      44.518  21.545  23.605  1.00  0.00    -0.237 OA
ATOM     81  O   UNL A   1      45.989  21.222  25.563  1.00  0.00    -0.237 OA
ATOM     82  O   UNL A   1      43.755  20.187  25.515  1.00  0.00    -0.744 OA
ENDBRANCH  78  79
ENDBRANCH  50  73
BRANCH  62  83
ATOM     83  C   UNL A   1      44.809  31.084  28.725  1.00  0.00    -0.014 A 
ATOM     84  C   UNL A   1      43.930  31.507  27.707  1.00  0.00     0.010 A 
ATOM     85  C   UNL A   1      46.074  31.689  28.812  1.00  0.00     0.010 A 
ATOM     86  C   UNL A   1      44.314  32.515  26.805  1.00  0.00     0.020 A 
ATOM     87  C   UNL A   1      46.454  32.703  27.932  1.00  0.00     0.020 A 
ATOM     88  C   UNL A   1      45.575  33.110  26.929  1.00  0.00     0.054 A 
BRANCH  88  89
ATOM     89  S   UNL A   1      46.046  34.470  25.821  1.00  0.00     0.124 S 
ATOM     90  O   UNL A   1      45.245  34.199  24.629  1.00  0.00    -0.237 OA
ATOM     91  O   UNL A   1      45.663  35.658  26.579  1.00  0.00    -0.237 OA
ATOM     92  O   UNL A   1      47.487  34.295  25.649  1.00  0.00    -0.744 OA
ENDBRANCH  88  89
ENDBRANCH  62  83
ENDBRANCH  36  37
ENDBRANCH  28  31
ENDBRANCH  26  27
ENDBRANCH  25  26
ENDBRANCH   1  25
TORSDOF 17
ENDMDL
MODEL 3
REMARK VINA RESULT:     -12.2      2.159      2.961
REMARK SMILES C[C@@H](C(=O)NCc1ccc(F)cc1)n1cc(C(=O)NCCCNC(=O)c2ccc(-c3c4nc(c(-c5ccc(S(=O)(=O)[O-])cc5)c5ccc([nH]5)c(-c5ccc(S(=O)(=O)[O-])cc5)c5nc(c(-c6ccc(S(=O)(=O)[O-])cc6)c6ccc3[nH]6)C=C5)C=C4)cc2)cn1
REMARK SMILES IDX 20 1 19 2 17 3 18 4 16 6 14 7 15 8 87 9 86 10 2 11 1 12 3 13
REMARK SMILES IDX 4 14 5 15 6 17 7 18 8 19 13 20 9 21 12 22 10 23 11 24 21 25
REMARK SMILES IDX 22 26 23 27 24 28 25 30 26 31 27 32 85 33 28 34 84 35 29 36
REMARK SMILES IDX 30 37 31 38 78 39 32 40 83 41 77 42 79 43 33 44 82 45 76 46
REMARK SMILES IDX 75 47 34 49 64 50 45 51 63 52 46 53 49 54 62 55 80 56 47 57
REMARK SMILES IDX 48 58 61 60 81 61 50 62 35 63 36 64 44 65 37 66 43 67 38 68
REMARK SMILES IDX 39 69 40 70 41 71 42 72 65 73 66 74 74 75 67 76 73 77 68 78
REMARK SMILES IDX 69 79 70 80 71 81 72 82 51 83 52 84 60 85 53 86 59 87 54 88
REMARK SMILES IDX 55 89 56 90 57 91 58 92
REMARK H PARENT 19 5 5 16 23 29 79 48 49 59
REMARK Flexibility Score: inf
ROOT
ATOM      1  C   UNL A   1      35.337  21.679  26.037  1.00  0.00     0.118 C 
ENDROOT
BRANCH   1   2
ATOM      2  N   UNL A   1      34.216  20.772  25.882  1.00  0.00    -0.352 N 
ATOM      3  C   UNL A   1      32.985  20.922  25.286  1.00  0.00     0.254 C 
ATOM      4  O   UNL A   1      32.282  19.926  25.194  1.00  0.00    -0.269 OA
ATOM      5  H   UNL A   1      34.364  19.882  26.276  1.00  0.00     0.163 HD
BRANCH   3   6
ATOM      6  C   UNL A   1      32.522  22.210  24.791  1.00  0.00     0.077 A 
ATOM      7  N   UNL A   1      31.561  24.175  24.457  1.00  0.00    -0.260 N 
ATOM      8  C   UNL A   1      31.956  23.293  25.425  1.00  0.00     0.123 A 
ATOM      9  N   UNL A   1      32.034  23.837  23.239  1.00  0.00    -0.180 NA
ATOM     10  C   UNL A   1      32.546  22.617  23.432  1.00  0.00     0.149 A 
BRANCH   7  11
ATOM     11  C   UNL A   1      30.794  25.417  24.640  1.00  0.00     0.193 C 
ATOM     12  C   UNL A   1      30.063  25.416  25.980  1.00  0.00     0.044 C 
BRANCH  11  13
ATOM     13  C   UNL A   1      31.675  26.669  24.523  1.00  0.00     0.244 C 
ATOM     14  O   UNL A   1      32.556  26.964  25.335  1.00  0.00    -0.273 OA
ATOM     15  N   UNL A   1      31.546  27.527  23.469  1.00  0.00    -0.350 N 
ATOM     16  H   UNL A   1      32.275  28.183  23.390  1.00  0.00     0.163 HD
BRANCH  15  17
ATOM     17  C   UNL A   1      30.525  27.644  22.448  1.00  0.00     0.151 C 
BRANCH  17  18
ATOM     18  C   UNL A   1      29.595  28.790  22.774  1.00  0.00    -0.029 A 
ATOM     19  C   UNL A   1      28.217  28.695  22.521  1.00  0.00     0.008 A 
ATOM     20  C   UNL A   1      30.087  29.956  23.388  1.00  0.00     0.008 A 
ATOM     21  C   UNL A   1      27.346  29.705  22.934  1.00  0.00     0.039 A 
ATOM     22  C   UNL A   1      29.217  30.975  23.782  1.00  0.00     0.039 A 
ATOM     23  C   UNL A   1      27.853  30.832  23.563  1.00  0.00     0.123 A 
ATOM     24  F   UNL A   1      27.015  31.797  23.963  1.00  0.00    -0.207 F 
ENDBRANCH  17  18
ENDBRANCH  15  17
ENDBRANCH  11  13
ENDBRANCH   7  11
ENDBRANCH   3   6
ENDBRANCH   1   2
BRANCH   1  25
ATOM     25  C   UNL A   1      36.386  21.546  24.925  1.00  0.00     0.042 C 
BRANCH  25  26
ATOM     26  C   UNL A   1      37.667  22.288  25.280  1.00  0.00     0.118 C 
BRANCH  26  27
ATOM     27  N   UNL A   1      38.608  21.441  26.044  1.00  0.00    -0.352 N 
ATOM     28  C   UNL A   1      39.765  21.781  26.730  1.00  0.00     0.251 C 
ATOM     29  H   UNL A   1      38.376  20.484  26.071  1.00  0.00     0.163 HD
ATOM     30  O   UNL A   1      40.585  20.922  27.034  1.00  0.00    -0.269 OA
BRANCH  28  31
ATOM     31  C   UNL A   1      39.978  23.190  27.096  1.00  0.00     0.039 A 
ATOM     32  C   UNL A   1      38.983  24.172  27.038  1.00  0.00     0.014 A 
ATOM     33  C   UNL A   1      41.236  23.491  27.585  1.00  0.00     0.014 A 
ATOM     34  C   UNL A   1      39.283  25.443  27.533  1.00  0.00     0.010 A 
ATOM     35  C   UNL A   1      41.382  24.579  28.381  1.00  0.00     0.010 A 
ATOM     36  C   UNL A   1      40.498  25.626  28.206  1.00  0.00    -0.014 A 
BRANCH  36  37
ATOM     37  C   UNL A   1      40.917  26.868  28.830  1.00  0.00     0.031 A 
ATOM     38  C   UNL A   1      42.035  27.528  28.116  1.00  0.00     0.074 A 
ATOM     39  C   UNL A   1      40.127  27.501  29.731  1.00  0.00     0.049 A 
ATOM     40  N   UNL A   1      43.279  27.556  28.459  1.00  0.00    -0.248 NA
ATOM     41  C   UNL A   1      41.788  28.018  26.746  1.00  0.00     0.031 C 
ATOM     42  C   UNL A   1      38.785  27.125  30.209  1.00  0.00     0.029 A 
ATOM     43  N   UNL A   1      40.305  28.707  30.324  1.00  0.00    -0.354 N 
ATOM     44  C   UNL A   1      43.912  28.320  27.486  1.00  0.00     0.074 A 
ATOM     45  C   UNL A   1      43.027  28.319  26.351  1.00  0.00     0.031 C 
ATOM     46  C   UNL A   1      38.193  28.190  30.801  1.00  0.00     0.029 A 
ATOM     47  C   UNL A   1      39.165  29.263  30.900  1.00  0.00     0.049 A 
ATOM     48  H   UNL A   1      41.179  29.159  30.344  1.00  0.00     0.167 HD
ATOM     49  C   UNL A   1      44.940  29.158  27.804  1.00  0.00     0.031 A 
ATOM     50  C   UNL A   1      39.038  30.527  31.387  1.00  0.00     0.031 A 
ATOM     51  C   UNL A   1      45.377  28.939  29.162  1.00  0.00     0.049 A 
ATOM     52  C   UNL A   1      40.421  31.037  31.589  1.00  0.00     0.074 A 
ATOM     53  C   UNL A   1      45.876  27.861  29.866  1.00  0.00     0.029 A 
ATOM     54  N   UNL A   1      44.903  29.826  30.104  1.00  0.00    -0.354 N 
ATOM     55  N   UNL A   1      41.257  30.517  32.449  1.00  0.00    -0.248 NA
ATOM     56  C   UNL A   1      41.034  31.767  30.490  1.00  0.00     0.031 C 
ATOM     57  C   UNL A   1      45.245  27.938  31.142  1.00  0.00     0.029 A 
ATOM     58  C   UNL A   1      44.479  29.107  31.188  1.00  0.00     0.049 A 
ATOM     59  H   UNL A   1      44.873  30.806  30.012  1.00  0.00     0.167 HD
ATOM     60  C   UNL A   1      42.475  30.476  31.784  1.00  0.00     0.074 A 
ATOM     61  C   UNL A   1      42.292  31.331  30.608  1.00  0.00     0.031 C 
ATOM     62  C   UNL A   1      43.410  29.523  32.074  1.00  0.00     0.031 A 
BRANCH  49  63
ATOM     63  C   UNL A   1      45.235  30.461  27.093  1.00  0.00    -0.014 A 
ATOM     64  C   UNL A   1      46.581  30.757  26.791  1.00  0.00     0.010 A 
ATOM     65  C   UNL A   1      44.310  31.516  26.962  1.00  0.00     0.010 A 
ATOM     66  C   UNL A   1      46.993  32.060  26.491  1.00  0.00     0.020 A 
ATOM     67  C   UNL A   1      44.703  32.812  26.621  1.00  0.00     0.020 A 
ATOM     68  C   UNL A   1      46.050  33.084  26.430  1.00  0.00     0.054 A 
BRANCH  68  69
ATOM     69  S   UNL A   1      46.605  34.782  26.163  1.00  0.00     0.124 S 
ATOM     70  O   UNL A   1      47.728  34.589  25.250  1.00  0.00    -0.237 OA
ATOM     71  O   UNL A   1      45.418  35.406  25.585  1.00  0.00    -0.237 OA
ATOM     72  O   UNL A   1      46.957  35.242  27.504  1.00  0.00    -0.744 OA
ENDBRANCH  68  69
ENDBRANCH  49  63
BRANCH  50  73
ATOM     73  C   UNL A   1      37.850  31.428  31.353  1.00  0.00    -0.014 A 
ATOM     74  C   UNL A   1      36.540  30.925  31.492  1.00  0.00     0.010 A 
ATOM     75  C   UNL A   1      38.020  32.823  31.474  1.00  0.00     0.010 A 
ATOM     76  C   UNL A   1      35.458  31.775  31.800  1.00  0.00     0.020 A 
ATOM     77  C   UNL A   1      36.948  33.676  31.779  1.00  0.00     0.020 A 
ATOM     78  C   UNL A   1      35.673  33.145  31.963  1.00  0.00     0.054 A 
BRANCH  78  79
ATOM     79  S   UNL A   1      34.311  34.211  32.536  1.00  0.00     0.124 S 
ATOM     80  O   UNL A   1      33.495  33.283  33.315  1.00  0.00    -0.237 OA
ATOM     81  O   UNL A   1      35.008  35.237  33.306  1.00  0.00    -0.237 OA
ATOM     82  O   UNL A   1      33.697  34.683  31.296  1.00  0.00    -0.744 OA
ENDBRANCH  78  79
ENDBRANCH  50  73
BRANCH  62  83
ATOM     83  C   UNL A   1      43.236  28.679  33.316  1.00  0.00    -0.014 A 
ATOM     84  C   UNL A   1      43.666  29.061  34.604  1.00  0.00     0.010 A 
ATOM     85  C   UNL A   1      42.404  27.554  33.194  1.00  0.00     0.010 A 
ATOM     86  C   UNL A   1      43.266  28.330  35.736  1.00  0.00     0.020 A 
ATOM     87  C   UNL A   1      41.988  26.836  34.316  1.00  0.00     0.020 A 
ATOM     88  C   UNL A   1      42.423  27.224  35.582  1.00  0.00     0.054 A 
BRANCH  88  89
ATOM     89  S   UNL A   1      41.834  26.325  37.047  1.00  0.00     0.124 S 
ATOM     90  O   UNL A   1      41.701  24.959  36.548  1.00  0.00    -0.237 OA
ATOM     91  O   UNL A   1      42.906  26.540  38.016  1.00  0.00    -0.237 OA
ATOM     92  O   UNL A   1      40.573  26.987  37.378  1.00  0.00    -0.744 OA
ENDBRANCH  88  89
ENDBRANCH  62  83
ENDBRANCH  36  37
ENDBRANCH  28  31
ENDBRANCH  26  27
ENDBRANCH  25  26
ENDBRANCH   1  25
TORSDOF 17
ENDMDL
