MODEL 1
REMARK VINA RESULT:     -12.7      0.000      0.000
REMARK SMILES Cc1n[nH]c(C(=O)N2CCC(CCC(=O)NCCCNC(=O)c3ccc(-c4c5nc(c(-c6ccc(S(=O)(=O)[O-])cc6)c6ccc([nH]6)c(-c6ccc(S(=O)(=O)[O-])cc6)c6nc(c(-c7ccc(S(=O)(=O)[O-])cc7)c7ccc4[nH]7)C=C6)C=C5)cc3)CC2)n1
REMARK SMILES IDX 18 1 17 2 16 3 14 4 15 5 13 7 12 8 11 9 6 10 7 11 8 12 9 13
REMARK SMILES IDX 84 14 10 15 83 16 5 17 1 18 2 19 3 20 85 21 4 22 19 24 20 25
REMARK SMILES IDX 21 26 22 28 23 29 24 30 82 31 25 32 81 33 26 34 27 35 28 36
REMARK SMILES IDX 75 37 29 38 80 39 74 40 76 41 30 42 79 43 73 44 72 45 31 47
REMARK SMILES IDX 61 48 42 49 60 50 43 51 46 52 59 53 77 54 44 55 45 56 58 58
REMARK SMILES IDX 78 59 47 60 32 61 33 62 41 63 34 64 40 65 35 66 36 67 37 68
REMARK SMILES IDX 38 69 39 70 62 71 63 72 71 73 64 74 70 75 65 76 66 77 67 78
REMARK SMILES IDX 68 79 69 80 48 81 49 82 57 83 50 84 56 85 51 86 52 87 53 88
REMARK SMILES IDX 54 89 55 90
REMARK H PARENT 16 6 4 23 20 27 76 46 46 57
REMARK Flexibility Score: inf
ROOT
ATOM      1  C   UNL A   1      37.989  21.825  25.085  1.00  0.00     0.042 C 
ENDROOT
BRANCH   1   2
ATOM      2  C   UNL A   1      36.823  20.885  25.437  1.00  0.00     0.117 C 
BRANCH   2   3
ATOM      3  N   UNL A   1      35.811  21.574  26.228  1.00  0.00    -0.356 N 
ATOM      4  C   UNL A   1      34.738  22.331  25.859  1.00  0.00     0.220 C 
ATOM      5  O   UNL A   1      34.104  22.897  26.751  1.00  0.00    -0.275 OA
ATOM      6  H   UNL A   1      35.923  21.478  27.201  1.00  0.00     0.163 HD
BRANCH   4   7
ATOM      7  C   UNL A   1      34.291  22.449  24.407  1.00  0.00     0.100 C 
BRANCH   7   8
ATOM      8  C   UNL A   1      34.764  23.715  23.659  1.00  0.00     0.013 C 
BRANCH   8   9
ATOM      9  C   UNL A   1      33.747  24.856  23.726  1.00  0.00    -0.007 C 
ATOM     10  C   UNL A   1      32.220  28.750  23.705  1.00  0.00     0.291 C 
ATOM     11  O   UNL A   1      33.036  29.437  24.322  1.00  0.00    -0.265 OA
ATOM     12  N   UNL A   1      32.322  27.360  23.760  1.00  0.00    -0.336 N 
ATOM     13  C   UNL A   1      32.823  26.793  25.005  1.00  0.00     0.120 C 
ATOM     14  C   UNL A   1      32.169  26.470  22.602  1.00  0.00     0.120 C 
ATOM     15  C   UNL A   1      34.041  25.906  24.799  1.00  0.00     0.025 C 
ATOM     16  C   UNL A   1      33.405  25.561  22.406  1.00  0.00     0.025 C 
BRANCH  10  17
ATOM     17  C   UNL A   1      31.070  29.335  23.043  1.00  0.00     0.214 A 
ATOM     18  C   UNL A   1      27.584  29.792  22.714  1.00  0.00     0.092 C 
ATOM     19  C   UNL A   1      29.051  29.756  22.559  1.00  0.00     0.148 A 
ATOM     20  N   UNL A   1      29.683  29.997  21.406  1.00  0.00    -0.159 NA
ATOM     21  N   UNL A   1      29.867  29.382  23.588  1.00  0.00    -0.207 NA
ATOM     22  N   UNL A   1      30.957  29.716  21.735  1.00  0.00    -0.255 N 
ATOM     23  H   UNL A   1      31.716  29.778  21.110  1.00  0.00     0.192 HD
ENDBRANCH  10  17
ENDBRANCH   8   9
ENDBRANCH   7   8
ENDBRANCH   4   7
ENDBRANCH   2   3
ENDBRANCH   1   2
BRANCH   1  24
ATOM     24  C   UNL A   1      39.049  21.924  26.135  1.00  0.00     0.118 C 
BRANCH  24  25
ATOM     25  N   UNL A   1      40.419  21.700  25.651  1.00  0.00    -0.352 N 
ATOM     26  C   UNL A   1      41.525  22.543  25.841  1.00  0.00     0.251 C 
ATOM     27  H   UNL A   1      40.576  20.873  25.140  1.00  0.00     0.163 HD
ATOM     28  O   UNL A   1      42.520  22.442  25.162  1.00  0.00    -0.269 OA
BRANCH  26  29
ATOM     29  C   UNL A   1      41.400  23.568  26.905  1.00  0.00     0.039 A 
ATOM     30  C   UNL A   1      42.266  23.710  27.989  1.00  0.00     0.014 A 
ATOM     31  C   UNL A   1      40.470  24.547  26.641  1.00  0.00     0.014 A 
ATOM     32  C   UNL A   1      42.231  24.920  28.691  1.00  0.00     0.010 A 
ATOM     33  C   UNL A   1      40.832  25.812  26.957  1.00  0.00     0.010 A 
ATOM     34  C   UNL A   1      41.518  25.992  28.133  1.00  0.00    -0.014 A 
BRANCH  34  35
ATOM     35  C   UNL A   1      41.445  27.340  28.672  1.00  0.00     0.031 A 
ATOM     36  C   UNL A   1      42.522  28.243  28.230  1.00  0.00     0.074 A 
ATOM     37  C   UNL A   1      40.351  27.824  29.312  1.00  0.00     0.049 A 
ATOM     38  N   UNL A   1      43.593  28.546  28.879  1.00  0.00    -0.248 NA
ATOM     39  C   UNL A   1      42.500  28.728  26.842  1.00  0.00     0.031 C 
ATOM     40  C   UNL A   1      39.029  27.203  29.523  1.00  0.00     0.029 A 
ATOM     41  N   UNL A   1      40.162  29.065  29.824  1.00  0.00    -0.354 N 
ATOM     42  C   UNL A   1      44.253  29.476  28.091  1.00  0.00     0.074 A 
ATOM     43  C   UNL A   1      43.676  29.355  26.773  1.00  0.00     0.031 C 
ATOM     44  C   UNL A   1      38.130  28.145  29.884  1.00  0.00     0.029 A 
ATOM     45  C   UNL A   1      38.846  29.377  30.136  1.00  0.00     0.049 A 
ATOM     46  H   UNL A   1      40.904  29.697  29.964  1.00  0.00     0.167 HD
ATOM     47  C   UNL A   1      45.010  30.463  28.647  1.00  0.00     0.031 A 
ATOM     48  C   UNL A   1      38.377  30.575  30.566  1.00  0.00     0.031 A 
ATOM     49  C   UNL A   1      45.189  30.255  30.067  1.00  0.00     0.049 A 
ATOM     50  C   UNL A   1      39.544  31.296  31.137  1.00  0.00     0.074 A 
ATOM     51  C   UNL A   1      45.692  29.226  30.840  1.00  0.00     0.029 A 
ATOM     52  N   UNL A   1      44.398  31.005  30.912  1.00  0.00    -0.354 N 
ATOM     53  N   UNL A   1      40.198  30.878  32.187  1.00  0.00    -0.248 NA
ATOM     54  C   UNL A   1      40.286  32.192  30.263  1.00  0.00     0.031 C 
ATOM     55  C   UNL A   1      44.791  29.123  31.943  1.00  0.00     0.029 A 
ATOM     56  C   UNL A   1      43.847  30.147  31.832  1.00  0.00     0.049 A 
ATOM     57  H   UNL A   1      44.256  31.978  30.865  1.00  0.00     0.167 HD
ATOM     58  C   UNL A   1      41.538  31.093  31.889  1.00  0.00     0.074 A 
ATOM     59  C   UNL A   1      41.523  31.990  30.732  1.00  0.00     0.031 C 
ATOM     60  C   UNL A   1      42.526  30.307  32.415  1.00  0.00     0.031 A 
BRANCH  47  61
ATOM     61  C   UNL A   1      45.241  31.809  28.011  1.00  0.00    -0.014 A 
ATOM     62  C   UNL A   1      46.551  32.326  27.983  1.00  0.00     0.010 A 
ATOM     63  C   UNL A   1      44.197  32.694  27.671  1.00  0.00     0.010 A 
ATOM     64  C   UNL A   1      46.794  33.675  27.695  1.00  0.00     0.020 A 
ATOM     65  C   UNL A   1      44.431  34.027  27.336  1.00  0.00     0.020 A 
ATOM     66  C   UNL A   1      45.728  34.519  27.386  1.00  0.00     0.054 A 
BRANCH  66  67
ATOM     67  S   UNL A   1      46.039  36.279  27.121  1.00  0.00     0.124 S 
ATOM     68  O   UNL A   1      46.627  36.280  25.786  1.00  0.00    -0.237 OA
ATOM     69  O   UNL A   1      44.698  36.848  27.225  1.00  0.00    -0.237 OA
ATOM     70  O   UNL A   1      46.947  36.633  28.209  1.00  0.00    -0.744 OA
ENDBRANCH  66  67
ENDBRANCH  47  61
BRANCH  48  71
ATOM     71  C   UNL A   1      37.099  31.225  30.179  1.00  0.00    -0.014 A 
ATOM     72  C   UNL A   1      36.232  31.764  31.147  1.00  0.00     0.010 A 
ATOM     73  C   UNL A   1      36.858  31.562  28.830  1.00  0.00     0.010 A 
ATOM     74  C   UNL A   1      35.208  32.659  30.785  1.00  0.00     0.020 A 
ATOM     75  C   UNL A   1      35.837  32.447  28.460  1.00  0.00     0.020 A 
ATOM     76  C   UNL A   1      35.032  33.013  29.444  1.00  0.00     0.054 A 
BRANCH  76  77
ATOM     77  S   UNL A   1      33.836  34.311  29.006  1.00  0.00     0.124 S 
ATOM     78  O   UNL A   1      34.699  35.363  28.476  1.00  0.00    -0.237 OA
ATOM     79  O   UNL A   1      32.984  33.640  28.027  1.00  0.00    -0.237 OA
ATOM     80  O   UNL A   1      33.185  34.622  30.277  1.00  0.00    -0.744 OA
ENDBRANCH  76  77
ENDBRANCH  48  71
BRANCH  60  81
ATOM     81  C   UNL A   1      42.179  29.349  33.539  1.00  0.00    -0.014 A 
ATOM     82  C   UNL A   1      41.625  28.068  33.337  1.00  0.00     0.010 A 
ATOM     83  C   UNL A   1      42.600  29.693  34.836  1.00  0.00     0.010 A 
ATOM     84  C   UNL A   1      41.484  27.166  34.408  1.00  0.00     0.020 A 
ATOM     85  C   UNL A   1      42.479  28.795  35.902  1.00  0.00     0.020 A 
ATOM     86  C   UNL A   1      41.916  27.537  35.685  1.00  0.00     0.054 A 
BRANCH  86  87
ATOM     87  S   UNL A   1      41.788  26.351  37.054  1.00  0.00     0.124 S 
ATOM     88  O   UNL A   1      41.913  25.065  36.374  1.00  0.00    -0.237 OA
ATOM     89  O   UNL A   1      42.911  26.721  37.912  1.00  0.00    -0.237 OA
ATOM     90  O   UNL A   1      40.469  26.621  37.627  1.00  0.00    -0.744 OA
ENDBRANCH  86  87
ENDBRANCH  60  81
ENDBRANCH  34  35
ENDBRANCH  26  29
ENDBRANCH  24  25
ENDBRANCH   1  24
TORSDOF 16
ENDMDL
MODEL 2
REMARK VINA RESULT:     -12.3      3.024      7.597
REMARK SMILES Cc1n[nH]c(C(=O)N2CCC(CCC(=O)NCCCNC(=O)c3ccc(-c4c5nc(c(-c6ccc(S(=O)(=O)[O-])cc6)c6ccc([nH]6)c(-c6ccc(S(=O)(=O)[O-])cc6)c6nc(c(-c7ccc(S(=O)(=O)[O-])cc7)c7ccc4[nH]7)C=C6)C=C5)cc3)CC2)n1
REMARK SMILES IDX 18 1 17 2 16 3 14 4 15 5 13 7 12 8 11 9 6 10 7 11 8 12 9 13
REMARK SMILES IDX 84 14 10 15 83 16 5 17 1 18 2 19 3 20 85 21 4 22 19 24 20 25
REMARK SMILES IDX 21 26 22 28 23 29 24 30 82 31 25 32 81 33 26 34 27 35 28 36
REMARK SMILES IDX 75 37 29 38 80 39 74 40 76 41 30 42 79 43 73 44 72 45 31 47
REMARK SMILES IDX 61 48 42 49 60 50 43 51 46 52 59 53 77 54 44 55 45 56 58 58
REMARK SMILES IDX 78 59 47 60 32 61 33 62 41 63 34 64 40 65 35 66 36 67 37 68
REMARK SMILES IDX 38 69 39 70 62 71 63 72 71 73 64 74 70 75 65 76 66 77 67 78
REMARK SMILES IDX 68 79 69 80 48 81 49 82 57 83 50 84 56 85 51 86 52 87 53 88
REMARK SMILES IDX 54 89 55 90
REMARK H PARENT 16 6 4 23 20 27 76 46 46 57
REMARK Flexibility Score: inf
ROOT
ATOM      1  C   UNL A   1      37.793  20.519  25.009  1.00  0.00     0.042 C 
ENDROOT
BRANCH   1   2
ATOM      2  C   UNL A   1      36.707  21.562  25.328  1.00  0.00     0.117 C 
BRANCH   2   3
ATOM      3  N   UNL A   1      36.347  22.326  24.140  1.00  0.00    -0.356 N 
ATOM      4  C   UNL A   1      35.148  22.817  23.712  1.00  0.00     0.220 C 
ATOM      5  O   UNL A   1      35.110  23.339  22.596  1.00  0.00    -0.275 OA
ATOM      6  H   UNL A   1      37.102  22.522  23.540  1.00  0.00     0.163 HD
BRANCH   4   7
ATOM      7  C   UNL A   1      33.899  22.777  24.584  1.00  0.00     0.100 C 
BRANCH   7   8
ATOM      8  C   UNL A   1      33.867  23.779  25.758  1.00  0.00     0.013 C 
BRANCH   8   9
ATOM      9  C   UNL A   1      33.139  25.078  25.408  1.00  0.00    -0.007 C 
ATOM     10  C   UNL A   1      32.323  28.731  23.542  1.00  0.00     0.291 C 
ATOM     11  O   UNL A   1      33.409  29.306  23.434  1.00  0.00    -0.265 OA
ATOM     12  N   UNL A   1      32.231  27.601  24.354  1.00  0.00    -0.336 N 
ATOM     13  C   UNL A   1      33.090  27.574  25.531  1.00  0.00     0.120 C 
ATOM     14  C   UNL A   1      31.506  26.376  23.993  1.00  0.00     0.120 C 
ATOM     15  C   UNL A   1      33.983  26.343  25.577  1.00  0.00     0.025 C 
ATOM     16  C   UNL A   1      32.417  25.128  24.055  1.00  0.00     0.025 C 
BRANCH  10  17
ATOM     17  C   UNL A   1      31.107  29.276  22.971  1.00  0.00     0.214 A 
ATOM     18  C   UNL A   1      27.586  29.505  22.823  1.00  0.00     0.092 C 
ATOM     19  C   UNL A   1      29.043  29.583  22.604  1.00  0.00     0.148 A 
ATOM     20  N   UNL A   1      29.603  29.945  21.444  1.00  0.00    -0.159 NA
ATOM     21  N   UNL A   1      29.930  29.202  23.568  1.00  0.00    -0.207 NA
ATOM     22  N   UNL A   1      30.907  29.733  21.699  1.00  0.00    -0.255 N 
ATOM     23  H   UNL A   1      31.630  29.890  21.048  1.00  0.00     0.192 HD
ENDBRANCH  10  17
ENDBRANCH   8   9
ENDBRANCH   7   8
ENDBRANCH   4   7
ENDBRANCH   2   3
ENDBRANCH   1   2
BRANCH   1  24
ATOM     24  C   UNL A   1      39.073  20.702  25.760  1.00  0.00     0.118 C 
BRANCH  24  25
ATOM     25  N   UNL A   1      39.904  19.494  25.865  1.00  0.00    -0.352 N 
ATOM     26  C   UNL A   1      41.301  19.445  25.999  1.00  0.00     0.251 C 
ATOM     27  H   UNL A   1      39.432  18.630  25.837  1.00  0.00     0.163 HD
ATOM     28  O   UNL A   1      41.922  18.433  25.770  1.00  0.00    -0.269 OA
BRANCH  26  29
ATOM     29  C   UNL A   1      41.969  20.700  26.419  1.00  0.00     0.039 A 
ATOM     30  C   UNL A   1      42.349  21.733  25.563  1.00  0.00     0.014 A 
ATOM     31  C   UNL A   1      42.001  20.894  27.781  1.00  0.00     0.014 A 
ATOM     32  C   UNL A   1      42.630  22.978  26.136  1.00  0.00     0.010 A 
ATOM     33  C   UNL A   1      41.745  22.153  28.208  1.00  0.00     0.010 A 
ATOM     34  C   UNL A   1      42.287  23.183  27.481  1.00  0.00    -0.014 A 
BRANCH  34  35
ATOM     35  C   UNL A   1      42.421  24.432  28.214  1.00  0.00     0.031 A 
ATOM     36  C   UNL A   1      41.318  25.389  28.015  1.00  0.00     0.074 A 
ATOM     37  C   UNL A   1      43.332  24.617  29.202  1.00  0.00     0.049 A 
ATOM     38  N   UNL A   1      41.307  26.402  27.220  1.00  0.00    -0.248 NA
ATOM     39  C   UNL A   1      40.017  25.091  28.633  1.00  0.00     0.031 C 
ATOM     40  C   UNL A   1      44.274  23.657  29.810  1.00  0.00     0.029 A 
ATOM     41  N   UNL A   1      43.523  25.718  29.968  1.00  0.00    -0.354 N 
ATOM     42  C   UNL A   1      40.090  27.030  27.438  1.00  0.00     0.074 A 
ATOM     43  C   UNL A   1      39.260  26.059  28.110  1.00  0.00     0.031 C 
ATOM     44  C   UNL A   1      44.737  24.144  30.981  1.00  0.00     0.029 A 
ATOM     45  C   UNL A   1      44.301  25.519  31.100  1.00  0.00     0.049 A 
ATOM     46  H   UNL A   1      43.140  26.596  29.737  1.00  0.00     0.167 HD
ATOM     47  C   UNL A   1      39.960  28.380  27.311  1.00  0.00     0.031 A 
ATOM     48  C   UNL A   1      44.561  26.425  32.075  1.00  0.00     0.031 A 
ATOM     49  C   UNL A   1      41.144  28.973  26.729  1.00  0.00     0.049 A 
ATOM     50  C   UNL A   1      44.328  27.763  31.471  1.00  0.00     0.074 A 
ATOM     51  C   UNL A   1      41.848  28.779  25.556  1.00  0.00     0.029 A 
ATOM     52  N   UNL A   1      42.022  29.592  27.594  1.00  0.00    -0.354 N 
ATOM     53  N   UNL A   1      45.039  28.231  30.481  1.00  0.00    -0.248 NA
ATOM     54  C   UNL A   1      43.011  28.360  31.625  1.00  0.00     0.031 C 
ATOM     55  C   UNL A   1      43.222  28.822  25.943  1.00  0.00     0.029 A 
ATOM     56  C   UNL A   1      43.282  29.129  27.305  1.00  0.00     0.049 A 
ATOM     57  H   UNL A   1      41.788  30.247  28.291  1.00  0.00     0.167 HD
ATOM     58  C   UNL A   1      44.122  28.850  29.639  1.00  0.00     0.074 A 
ATOM     59  C   UNL A   1      42.906  28.978  30.443  1.00  0.00     0.031 C 
ATOM     60  C   UNL A   1      44.333  28.939  28.290  1.00  0.00     0.031 A 
BRANCH  47  61
ATOM     61  C   UNL A   1      38.957  29.207  28.073  1.00  0.00    -0.014 A 
ATOM     62  C   UNL A   1      37.723  29.502  27.461  1.00  0.00     0.010 A 
ATOM     63  C   UNL A   1      39.271  29.912  29.253  1.00  0.00     0.010 A 
ATOM     64  C   UNL A   1      36.881  30.501  27.968  1.00  0.00     0.020 A 
ATOM     65  C   UNL A   1      38.420  30.874  29.794  1.00  0.00     0.020 A 
ATOM     66  C   UNL A   1      37.244  31.189  29.126  1.00  0.00     0.054 A 
BRANCH  66  67
ATOM     67  S   UNL A   1      36.206  32.546  29.712  1.00  0.00     0.124 S 
ATOM     68  O   UNL A   1      36.679  32.713  31.083  1.00  0.00    -0.237 OA
ATOM     69  O   UNL A   1      36.551  33.621  28.786  1.00  0.00    -0.237 OA
ATOM     70  O   UNL A   1      34.849  32.022  29.575  1.00  0.00    -0.744 OA
ENDBRANCH  66  67
ENDBRANCH  47  61
BRANCH  48  71
ATOM     71  C   UNL A   1      44.636  26.169  33.536  1.00  0.00    -0.014 A 
ATOM     72  C   UNL A   1      45.675  26.705  34.319  1.00  0.00     0.010 A 
ATOM     73  C   UNL A   1      43.527  25.619  34.215  1.00  0.00     0.010 A 
ATOM     74  C   UNL A   1      45.575  26.751  35.722  1.00  0.00     0.020 A 
ATOM     75  C   UNL A   1      43.424  25.655  35.612  1.00  0.00     0.020 A 
ATOM     76  C   UNL A   1      44.438  26.246  36.358  1.00  0.00     0.054 A 
BRANCH  76  77
ATOM     77  S   UNL A   1      44.231  26.479  38.150  1.00  0.00     0.124 S 
ATOM     78  O   UNL A   1      42.785  26.363  38.314  1.00  0.00    -0.237 OA
ATOM     79  O   UNL A   1      45.020  25.383  38.707  1.00  0.00    -0.237 OA
ATOM     80  O   UNL A   1      44.778  27.813  38.389  1.00  0.00    -0.744 OA
ENDBRANCH  76  77
ENDBRANCH  48  71
BRANCH  60  81
ATOM     81  C   UNL A   1      45.701  28.588  27.738  1.00  0.00    -0.014 A 
ATOM     82  C   UNL A   1      46.765  29.507  27.631  1.00  0.00     0.010 A 
ATOM     83  C   UNL A   1      45.970  27.230  27.486  1.00  0.00     0.010 A 
ATOM     84  C   UNL A   1      48.055  29.078  27.269  1.00  0.00     0.020 A 
ATOM     85  C   UNL A   1      47.253  26.794  27.143  1.00  0.00     0.020 A 
ATOM     86  C   UNL A   1      48.290  27.721  27.030  1.00  0.00     0.054 A 
BRANCH  86  87
ATOM     87  S   UNL A   1      49.969  27.161  26.620  1.00  0.00     0.124 S 
ATOM     88  O   UNL A   1      49.873  25.714  26.792  1.00  0.00    -0.237 OA
ATOM     89  O   UNL A   1      50.139  27.621  25.243  1.00  0.00    -0.237 OA
ATOM     90  O   UNL A   1      50.813  27.844  27.599  1.00  0.00    -0.744 OA
ENDBRANCH  86  87
ENDBRANCH  60  81
ENDBRANCH  34  35
ENDBRANCH  26  29
ENDBRANCH  24  25
ENDBRANCH   1  24
TORSDOF 16
ENDMDL
MODEL 3
REMARK VINA RESULT:     -12.3      3.015      8.834
REMARK SMILES Cc1n[nH]c(C(=O)N2CCC(CCC(=O)NCCCNC(=O)c3ccc(-c4c5nc(c(-c6ccc(S(=O)(=O)[O-])cc6)c6ccc([nH]6)c(-c6ccc(S(=O)(=O)[O-])cc6)c6nc(c(-c7ccc(S(=O)(=O)[O-])cc7)c7ccc4[nH]7)C=C6)C=C5)cc3)CC2)n1
REMARK SMILES IDX 18 1 17 2 16 3 14 4 15 5 13 7 12 8 11 9 6 10 7 11 8 12 9 13
REMARK SMILES IDX 84 14 10 15 83 16 5 17 1 18 2 19 3 20 85 21 4 22 19 24 20 25
REMARK SMILES IDX 21 26 22 28 23 29 24 30 82 31 25 32 81 33 26 34 27 35 28 36
REMARK SMILES IDX 75 37 29 38 80 39 74 40 76 41 30 42 79 43 73 44 72 45 31 47
REMARK SMILES IDX 61 48 42 49 60 50 43 51 46 52 59 53 77 54 44 55 45 56 58 58
REMARK SMILES IDX 78 59 47 60 32 61 33 62 41 63 34 64 40 65 35 66 36 67 37 68
REMARK SMILES IDX 38 69 39 70 62 71 63 72 71 73 64 74 70 75 65 76 66 77 67 78
REMARK SMILES IDX 68 79 69 80 48 81 49 82 57 83 50 84 56 85 51 86 52 87 53 88
REMARK SMILES IDX 54 89 55 90
REMARK H PARENT 16 6 4 23 20 27 76 46 46 57
REMARK Flexibility Score: inf
ROOT
ATOM      1  C   UNL A   1      31.952  31.613  26.832  1.00  0.00     0.042 C 
ENDROOT
BRANCH   1   2
ATOM      2  C   UNL A   1      32.409  30.269  26.238  1.00  0.00     0.117 C 
BRANCH   2   3
ATOM      3  N   UNL A   1      31.674  29.157  26.827  1.00  0.00    -0.356 N 
ATOM      4  C   UNL A   1      31.943  27.820  26.871  1.00  0.00     0.220 C 
ATOM      5  O   UNL A   1      31.079  27.079  27.344  1.00  0.00    -0.275 OA
ATOM      6  H   UNL A   1      30.834  29.415  27.270  1.00  0.00     0.163 HD
BRANCH   4   7
ATOM      7  C   UNL A   1      33.275  27.246  26.405  1.00  0.00     0.100 C 
BRANCH   7   8
ATOM      8  C   UNL A   1      33.339  26.818  24.922  1.00  0.00     0.013 C 
BRANCH   8   9
ATOM      9  C   UNL A   1      33.560  25.314  24.750  1.00  0.00    -0.007 C 
ATOM     10  C   UNL A   1      34.573  21.369  25.702  1.00  0.00     0.291 C 
ATOM     11  O   UNL A   1      35.578  21.439  26.414  1.00  0.00    -0.265 OA
ATOM     12  N   UNL A   1      34.145  22.505  25.015  1.00  0.00    -0.336 N 
ATOM     13  C   UNL A   1      35.184  23.423  24.567  1.00  0.00     0.120 C 
ATOM     14  C   UNL A   1      32.745  22.933  24.911  1.00  0.00     0.120 C 
ATOM     15  C   UNL A   1      34.978  24.840  25.080  1.00  0.00     0.025 C 
ATOM     16  C   UNL A   1      32.545  24.379  25.422  1.00  0.00     0.025 C 
BRANCH  10  17
ATOM     17  C   UNL A   1      33.906  20.109  25.440  1.00  0.00     0.214 A 
ATOM     18  C   UNL A   1      32.800  17.591  23.225  1.00  0.00     0.092 C 
ATOM     19  C   UNL A   1      33.075  18.480  24.370  1.00  0.00     0.148 A 
ATOM     20  N   UNL A   1      32.358  18.483  25.499  1.00  0.00    -0.159 NA
ATOM     21  N   UNL A   1      34.049  19.434  24.312  1.00  0.00    -0.207 NA
ATOM     22  N   UNL A   1      32.897  19.527  26.155  1.00  0.00    -0.255 N 
ATOM     23  H   UNL A   1      32.601  19.833  27.043  1.00  0.00     0.192 HD
ENDBRANCH  10  17
ENDBRANCH   8   9
ENDBRANCH   7   8
ENDBRANCH   4   7
ENDBRANCH   2   3
ENDBRANCH   1   2
BRANCH   1  24
ATOM     24  C   UNL A   1      33.056  32.467  27.367  1.00  0.00     0.118 C 
BRANCH  24  25
ATOM     25  N   UNL A   1      32.665  33.845  27.700  1.00  0.00    -0.352 N 
ATOM     26  C   UNL A   1      33.151  34.621  28.763  1.00  0.00     0.251 C 
ATOM     27  H   UNL A   1      31.991  34.264  27.117  1.00  0.00     0.163 HD
ATOM     28  O   UNL A   1      32.565  35.607  29.145  1.00  0.00    -0.269 OA
BRANCH  26  29
ATOM     29  C   UNL A   1      34.410  34.160  29.398  1.00  0.00     0.039 A 
ATOM     30  C   UNL A   1      34.492  33.227  30.431  1.00  0.00     0.014 A 
ATOM     31  C   UNL A   1      35.552  34.556  28.741  1.00  0.00     0.014 A 
ATOM     32  C   UNL A   1      35.738  32.635  30.670  1.00  0.00     0.010 A 
ATOM     33  C   UNL A   1      36.528  33.624  28.632  1.00  0.00     0.010 A 
ATOM     34  C   UNL A   1      36.756  32.825  29.724  1.00  0.00    -0.014 A 
BRANCH  34  35
ATOM     35  C   UNL A   1      38.077  32.219  29.760  1.00  0.00     0.031 A 
ATOM     36  C   UNL A   1      38.127  30.815  29.316  1.00  0.00     0.074 A 
ATOM     37  C   UNL A   1      39.217  32.935  29.930  1.00  0.00     0.049 A 
ATOM     38  N   UNL A   1      38.140  29.766  30.064  1.00  0.00    -0.248 NA
ATOM     39  C   UNL A   1      37.965  30.532  27.882  1.00  0.00     0.031 C 
ATOM     40  C   UNL A   1      39.411  34.395  30.013  1.00  0.00     0.029 A 
ATOM     41  N   UNL A   1      40.494  32.482  29.948  1.00  0.00    -0.354 N 
ATOM     42  C   UNL A   1      38.262  28.693  29.194  1.00  0.00     0.074 A 
ATOM     43  C   UNL A   1      37.900  29.198  27.892  1.00  0.00     0.031 C 
ATOM     44  C   UNL A   1      40.713  34.699  29.823  1.00  0.00     0.029 A 
ATOM     45  C   UNL A   1      41.468  33.463  29.822  1.00  0.00     0.049 A 
ATOM     46  H   UNL A   1      40.715  31.527  30.046  1.00  0.00     0.167 HD
ATOM     47  C   UNL A   1      38.924  27.559  29.560  1.00  0.00     0.031 A 
ATOM     48  C   UNL A   1      42.805  33.269  29.713  1.00  0.00     0.031 A 
ATOM     49  C   UNL A   1      39.247  27.568  30.970  1.00  0.00     0.049 A 
ATOM     50  C   UNL A   1      43.076  31.921  30.275  1.00  0.00     0.074 A 
ATOM     51  C   UNL A   1      38.510  27.693  32.132  1.00  0.00     0.029 A 
ATOM     52  N   UNL A   1      40.542  27.896  31.312  1.00  0.00    -0.354 N 
ATOM     53  N   UNL A   1      42.867  31.615  31.528  1.00  0.00    -0.248 NA
ATOM     54  C   UNL A   1      43.099  30.792  29.358  1.00  0.00     0.031 C 
ATOM     55  C   UNL A   1      39.281  28.562  32.962  1.00  0.00     0.029 A 
ATOM     56  C   UNL A   1      40.481  28.844  32.304  1.00  0.00     0.049 A 
ATOM     57  H   UNL A   1      41.361  27.518  30.918  1.00  0.00     0.167 HD
ATOM     58  C   UNL A   1      42.308  30.343  31.501  1.00  0.00     0.074 A 
ATOM     59  C   UNL A   1      42.563  29.852  30.146  1.00  0.00     0.031 C 
ATOM     60  C   UNL A   1      41.443  29.918  32.473  1.00  0.00     0.031 A 
BRANCH  47  61
ATOM     61  C   UNL A   1      39.634  26.648  28.594  1.00  0.00    -0.014 A 
ATOM     62  C   UNL A   1      39.176  25.322  28.457  1.00  0.00     0.010 A 
ATOM     63  C   UNL A   1      40.878  26.958  28.007  1.00  0.00     0.010 A 
ATOM     64  C   UNL A   1      39.955  24.346  27.825  1.00  0.00     0.020 A 
ATOM     65  C   UNL A   1      41.641  26.006  27.334  1.00  0.00     0.020 A 
ATOM     66  C   UNL A   1      41.191  24.694  27.279  1.00  0.00     0.054 A 
BRANCH  66  67
ATOM     67  S   UNL A   1      42.237  23.408  26.560  1.00  0.00     0.124 S 
ATOM     68  O   UNL A   1      42.863  24.118  25.449  1.00  0.00    -0.237 OA
ATOM     69  O   UNL A   1      43.117  23.069  27.674  1.00  0.00    -0.237 OA
ATOM     70  O   UNL A   1      41.285  22.365  26.183  1.00  0.00    -0.744 OA
ENDBRANCH  66  67
ENDBRANCH  47  61
BRANCH  48  71
ATOM     71  C   UNL A   1      43.750  34.018  28.845  1.00  0.00    -0.014 A 
ATOM     72  C   UNL A   1      44.679  34.925  29.387  1.00  0.00     0.010 A 
ATOM     73  C   UNL A   1      43.924  33.636  27.497  1.00  0.00     0.010 A 
ATOM     74  C   UNL A   1      45.777  35.376  28.632  1.00  0.00     0.020 A 
ATOM     75  C   UNL A   1      45.012  34.086  26.736  1.00  0.00     0.020 A 
ATOM     76  C   UNL A   1      45.949  34.934  27.317  1.00  0.00     0.054 A 
BRANCH  76  77
ATOM     77  S   UNL A   1      47.466  35.369  26.413  1.00  0.00     0.124 S 
ATOM     78  O   UNL A   1      47.288  34.661  25.148  1.00  0.00    -0.237 OA
ATOM     79  O   UNL A   1      47.386  36.825  26.339  1.00  0.00    -0.237 OA
ATOM     80  O   UNL A   1      48.535  34.854  27.268  1.00  0.00    -0.744 OA
ENDBRANCH  76  77
ENDBRANCH  48  71
BRANCH  60  81
ATOM     81  C   UNL A   1      41.291  30.750  33.732  1.00  0.00    -0.014 A 
ATOM     82  C   UNL A   1      40.421  31.854  33.845  1.00  0.00     0.010 A 
ATOM     83  C   UNL A   1      41.922  30.282  34.899  1.00  0.00     0.010 A 
ATOM     84  C   UNL A   1      40.202  32.476  35.088  1.00  0.00     0.020 A 
ATOM     85  C   UNL A   1      41.697  30.885  36.140  1.00  0.00     0.020 A 
ATOM     86  C   UNL A   1      40.842  31.983  36.229  1.00  0.00     0.054 A 
BRANCH  86  87
ATOM     87  S   UNL A   1      40.513  32.751  37.842  1.00  0.00     0.124 S 
ATOM     88  O   UNL A   1      39.133  32.358  38.107  1.00  0.00    -0.237 OA
ATOM     89  O   UNL A   1      41.519  32.137  38.706  1.00  0.00    -0.237 OA
ATOM     90  O   UNL A   1      40.713  34.179  37.595  1.00  0.00    -0.744 OA
ENDBRANCH  86  87
ENDBRANCH  60  81
ENDBRANCH  34  35
ENDBRANCH  26  29
ENDBRANCH  24  25
ENDBRANCH   1  24
TORSDOF 16
ENDMDL
