MODEL 1
REMARK VINA RESULT:     -10.9      0.000      0.000
REMARK SMILES C[C@H](Sc1ccccn1)C(=O)N[C@H](C(=O)NCCCNC(=O)c1ccc(-c2c3nc(c(-c4ccc(S(=O)(=O)[O-])cc4)c4ccc([nH]4)c(-c4ccc(S(=O)(=O)[O-])cc4)c4nc(c(-c5ccc(S(=O)(=O)[O-])cc5)c5ccc2[nH]5)C=C4)C=C3)cc1)c1ccc(F)cc1
REMARK SMILES IDX 17 1 16 2 14 3 15 4 13 6 12 7 10 8 11 9 2 11 1 12 3 13 4 14
REMARK SMILES IDX 5 15 9 16 6 17 8 18 7 19 83 20 84 21 89 22 85 23 88 24 86 25
REMARK SMILES IDX 87 26 18 27 19 28 20 29 21 30 22 32 23 33 24 34 82 35 25 36
REMARK SMILES IDX 81 37 26 38 27 39 28 40 75 41 29 42 80 43 74 44 76 45 30 46
REMARK SMILES IDX 79 47 73 48 72 49 31 51 61 52 42 53 60 54 43 55 46 56 59 57
REMARK SMILES IDX 77 58 44 59 45 60 58 62 78 63 47 64 32 65 33 66 41 67 34 68
REMARK SMILES IDX 40 69 35 70 36 71 37 72 38 73 39 74 62 75 63 76 71 77 64 78
REMARK SMILES IDX 70 79 65 80 66 81 67 82 68 83 69 84 48 85 49 86 57 87 50 88
REMARK SMILES IDX 56 89 51 90 52 91 53 92 54 93 55 94
REMARK H PARENT 16 5 12 10 20 31 76 50 46 61
REMARK Flexibility Score: inf
ROOT
ATOM      1  C   UNL A   1      33.557  26.729  25.882  1.00  0.00     0.117 C 
ENDROOT
BRANCH   1   2
ATOM      2  N   UNL A   1      32.246  26.488  26.466  1.00  0.00    -0.354 N 
ATOM      3  C   UNL A   1      31.045  26.250  25.854  1.00  0.00     0.247 C 
ATOM      4  O   UNL A   1      30.113  25.861  26.565  1.00  0.00    -0.272 OA
ATOM      5  H   UNL A   1      32.219  26.498  27.450  1.00  0.00     0.163 HD
BRANCH   3   6
ATOM      6  C   UNL A   1      30.911  26.295  24.306  1.00  0.00     0.202 C 
BRANCH   6   7
ATOM      7  N   UNL A   1      30.485  24.987  23.798  1.00  0.00    -0.340 N 
ATOM      8  C   UNL A   1      31.135  23.892  23.348  1.00  0.00     0.234 C 
ATOM      9  O   UNL A   1      30.396  23.059  22.802  1.00  0.00    -0.274 OA
ATOM     10  H   UNL A   1      29.505  24.884  23.782  1.00  0.00     0.164 HD
BRANCH   8  11
ATOM     11  C   UNL A   1      32.621  23.564  23.499  1.00  0.00     0.139 C 
ATOM     12  C   UNL A   1      33.360  22.912  22.344  1.00  0.00     0.030 C 
BRANCH  11  13
ATOM     13  S   UNL A   1      32.946  22.661  25.045  1.00  0.00    -0.093 SA
BRANCH  13  14
ATOM     14  C   UNL A   1      34.731  22.634  25.093  1.00  0.00     0.097 A 
ATOM     15  C   UNL A   1      35.531  23.775  25.140  1.00  0.00     0.035 A 
ATOM     16  N   UNL A   1      35.264  21.392  25.060  1.00  0.00    -0.250 NA
ATOM     17  C   UNL A   1      36.915  23.635  25.230  1.00  0.00     0.004 A 
ATOM     18  C   UNL A   1      36.609  21.284  25.121  1.00  0.00     0.112 A 
ATOM     19  C   UNL A   1      37.468  22.363  25.222  1.00  0.00     0.020 A 
ENDBRANCH  13  14
ENDBRANCH  11  13
ENDBRANCH   8  11
ENDBRANCH   6   7
BRANCH   6  20
ATOM     20  C   UNL A   1      29.933  27.449  23.959  1.00  0.00    -0.016 A 
ATOM     21  C   UNL A   1      28.586  27.125  23.673  1.00  0.00     0.009 A 
ATOM     22  C   UNL A   1      30.322  28.793  23.790  1.00  0.00     0.009 A 
ATOM     23  C   UNL A   1      27.713  28.061  23.114  1.00  0.00     0.039 A 
ATOM     24  C   UNL A   1      29.445  29.730  23.230  1.00  0.00     0.039 A 
ATOM     25  C   UNL A   1      28.159  29.350  22.873  1.00  0.00     0.123 A 
ATOM     26  F   UNL A   1      27.343  30.235  22.287  1.00  0.00    -0.207 F 
ENDBRANCH   6  20
ENDBRANCH   3   6
ENDBRANCH   1   2
BRANCH   1  27
ATOM     27  C   UNL A   1      34.088  28.125  26.171  1.00  0.00     0.042 C 
BRANCH  27  28
ATOM     28  C   UNL A   1      33.643  28.673  27.519  1.00  0.00     0.118 C 
BRANCH  28  29
ATOM     29  N   UNL A   1      33.637  30.126  27.534  1.00  0.00    -0.352 N 
ATOM     30  C   UNL A   1      34.590  30.988  28.003  1.00  0.00     0.251 C 
ATOM     31  H   UNL A   1      32.833  30.549  27.153  1.00  0.00     0.163 HD
ATOM     32  O   UNL A   1      34.300  32.176  28.166  1.00  0.00    -0.269 OA
BRANCH  30  33
ATOM     33  C   UNL A   1      35.951  30.506  28.316  1.00  0.00     0.039 A 
ATOM     34  C   UNL A   1      36.265  30.192  29.639  1.00  0.00     0.014 A 
ATOM     35  C   UNL A   1      36.927  30.398  27.319  1.00  0.00     0.014 A 
ATOM     36  C   UNL A   1      37.548  29.744  29.957  1.00  0.00     0.010 A 
ATOM     37  C   UNL A   1      38.179  29.870  27.623  1.00  0.00     0.010 A 
ATOM     38  C   UNL A   1      38.510  29.564  28.950  1.00  0.00    -0.014 A 
BRANCH  38  39
ATOM     39  C   UNL A   1      39.873  29.081  29.284  1.00  0.00     0.031 A 
ATOM     40  C   UNL A   1      40.845  29.979  29.999  1.00  0.00     0.074 A 
ATOM     41  C   UNL A   1      40.249  27.843  28.910  1.00  0.00     0.049 A 
ATOM     42  N   UNL A   1      42.065  29.722  30.398  1.00  0.00    -0.248 NA
ATOM     43  C   UNL A   1      40.401  31.355  30.277  1.00  0.00     0.031 C 
ATOM     44  C   UNL A   1      39.421  26.902  28.151  1.00  0.00     0.029 A 
ATOM     45  N   UNL A   1      41.422  27.164  29.118  1.00  0.00    -0.354 N 
ATOM     46  C   UNL A   1      42.537  30.905  30.957  1.00  0.00     0.074 A 
ATOM     47  C   UNL A   1      41.495  31.894  30.791  1.00  0.00     0.031 C 
ATOM     48  C   UNL A   1      40.102  25.759  27.982  1.00  0.00     0.029 A 
ATOM     49  C   UNL A   1      41.421  25.894  28.595  1.00  0.00     0.049 A 
ATOM     50  H   UNL A   1      42.192  27.551  29.594  1.00  0.00     0.167 HD
ATOM     51  C   UNL A   1      43.723  31.143  31.570  1.00  0.00     0.031 A 
ATOM     52  C   UNL A   1      42.371  24.939  28.609  1.00  0.00     0.031 A 
ATOM     53  C   UNL A   1      44.753  30.153  31.734  1.00  0.00     0.049 A 
ATOM     54  C   UNL A   1      43.665  25.206  29.324  1.00  0.00     0.074 A 
ATOM     55  C   UNL A   1      45.959  30.267  32.404  1.00  0.00     0.029 A 
ATOM     56  N   UNL A   1      44.705  28.868  31.214  1.00  0.00    -0.354 N 
ATOM     57  N   UNL A   1      44.057  26.301  29.932  1.00  0.00    -0.248 NA
ATOM     58  C   UNL A   1      44.635  24.105  29.370  1.00  0.00     0.031 C 
ATOM     59  C   UNL A   1      46.662  29.067  32.244  1.00  0.00     0.029 A 
ATOM     60  C   UNL A   1      45.870  28.186  31.520  1.00  0.00     0.049 A 
ATOM     61  H   UNL A   1      43.950  28.495  30.702  1.00  0.00     0.167 HD
ATOM     62  C   UNL A   1      45.319  26.018  30.443  1.00  0.00     0.074 A 
ATOM     63  C   UNL A   1      45.611  24.642  30.092  1.00  0.00     0.031 C 
ATOM     64  C   UNL A   1      46.158  26.826  31.139  1.00  0.00     0.031 A 
BRANCH  51  65
ATOM     65  C   UNL A   1      43.960  32.540  32.084  1.00  0.00    -0.014 A 
ATOM     66  C   UNL A   1      43.583  32.912  33.389  1.00  0.00     0.010 A 
ATOM     67  C   UNL A   1      44.552  33.501  31.245  1.00  0.00     0.010 A 
ATOM     68  C   UNL A   1      43.724  34.234  33.817  1.00  0.00     0.020 A 
ATOM     69  C   UNL A   1      44.724  34.818  31.682  1.00  0.00     0.020 A 
ATOM     70  C   UNL A   1      44.282  35.183  32.955  1.00  0.00     0.054 A 
BRANCH  70  71
ATOM     71  S   UNL A   1      44.424  36.900  33.521  1.00  0.00     0.124 S 
ATOM     72  O   UNL A   1      45.518  36.806  34.486  1.00  0.00    -0.237 OA
ATOM     73  O   UNL A   1      44.735  37.622  32.291  1.00  0.00    -0.237 OA
ATOM     74  O   UNL A   1      43.111  37.186  34.093  1.00  0.00    -0.744 OA
ENDBRANCH  70  71
ENDBRANCH  51  65
BRANCH  52  75
ATOM     75  C   UNL A   1      42.100  23.638  27.943  1.00  0.00    -0.014 A 
ATOM     76  C   UNL A   1      42.495  23.417  26.613  1.00  0.00     0.010 A 
ATOM     77  C   UNL A   1      41.519  22.582  28.670  1.00  0.00     0.010 A 
ATOM     78  C   UNL A   1      42.324  22.161  26.024  1.00  0.00     0.020 A 
ATOM     79  C   UNL A   1      41.368  21.319  28.093  1.00  0.00     0.020 A 
ATOM     80  C   UNL A   1      41.772  21.116  26.771  1.00  0.00     0.054 A 
BRANCH  80  81
ATOM     81  S   UNL A   1      41.664  19.466  26.024  1.00  0.00     0.124 S 
ATOM     82  O   UNL A   1      40.248  19.379  25.682  1.00  0.00    -0.237 OA
ATOM     83  O   UNL A   1      42.583  19.571  24.893  1.00  0.00    -0.237 OA
ATOM     84  O   UNL A   1      42.107  18.576  27.095  1.00  0.00    -0.744 OA
ENDBRANCH  80  81
ENDBRANCH  52  75
BRANCH  64  85
ATOM     85  C   UNL A   1      47.478  26.239  31.563  1.00  0.00    -0.014 A 
ATOM     86  C   UNL A   1      47.639  25.661  32.835  1.00  0.00     0.010 A 
ATOM     87  C   UNL A   1      48.559  26.231  30.663  1.00  0.00     0.010 A 
ATOM     88  C   UNL A   1      48.869  25.117  33.212  1.00  0.00     0.020 A 
ATOM     89  C   UNL A   1      49.783  25.662  31.026  1.00  0.00     0.020 A 
ATOM     90  C   UNL A   1      49.935  25.123  32.306  1.00  0.00     0.054 A 
BRANCH  90  91
ATOM     91  S   UNL A   1      51.514  24.385  32.807  1.00  0.00     0.124 S 
ATOM     92  O   UNL A   1      51.371  24.324  34.259  1.00  0.00    -0.237 OA
ATOM     93  O   UNL A   1      51.498  23.096  32.118  1.00  0.00    -0.237 OA
ATOM     94  O   UNL A   1      52.510  25.333  32.316  1.00  0.00    -0.744 OA
ENDBRANCH  90  91
ENDBRANCH  64  85
ENDBRANCH  38  39
ENDBRANCH  30  33
ENDBRANCH  28  29
ENDBRANCH  27  28
ENDBRANCH   1  27
TORSDOF 18
ENDMDL
MODEL 2
REMARK VINA RESULT:     -10.6      4.260      6.378
REMARK SMILES C[C@H](Sc1ccccn1)C(=O)N[C@H](C(=O)NCCCNC(=O)c1ccc(-c2c3nc(c(-c4ccc(S(=O)(=O)[O-])cc4)c4ccc([nH]4)c(-c4ccc(S(=O)(=O)[O-])cc4)c4nc(c(-c5ccc(S(=O)(=O)[O-])cc5)c5ccc2[nH]5)C=C4)C=C3)cc1)c1ccc(F)cc1
REMARK SMILES IDX 17 1 16 2 14 3 15 4 13 6 12 7 10 8 11 9 2 11 1 12 3 13 4 14
REMARK SMILES IDX 5 15 9 16 6 17 8 18 7 19 83 20 84 21 89 22 85 23 88 24 86 25
REMARK SMILES IDX 87 26 18 27 19 28 20 29 21 30 22 32 23 33 24 34 82 35 25 36
REMARK SMILES IDX 81 37 26 38 27 39 28 40 75 41 29 42 80 43 74 44 76 45 30 46
REMARK SMILES IDX 79 47 73 48 72 49 31 51 61 52 42 53 60 54 43 55 46 56 59 57
REMARK SMILES IDX 77 58 44 59 45 60 58 62 78 63 47 64 32 65 33 66 41 67 34 68
REMARK SMILES IDX 40 69 35 70 36 71 37 72 38 73 39 74 62 75 63 76 71 77 64 78
REMARK SMILES IDX 70 79 65 80 66 81 67 82 68 83 69 84 48 85 49 86 57 87 50 88
REMARK SMILES IDX 56 89 51 90 52 91 53 92 54 93 55 94
REMARK H PARENT 16 5 12 10 20 31 76 50 46 61
REMARK Flexibility Score: inf
ROOT
ATOM      1  C   UNL A   1      31.767  30.386  26.566  1.00  0.00     0.117 C 
ENDROOT
BRANCH   1   2
ATOM      2  N   UNL A   1      33.004  29.929  25.953  1.00  0.00    -0.354 N 
ATOM      3  C   UNL A   1      33.235  28.843  25.152  1.00  0.00     0.247 C 
ATOM      4  O   UNL A   1      34.327  28.784  24.576  1.00  0.00    -0.272 OA
ATOM      5  H   UNL A   1      33.794  30.484  26.142  1.00  0.00     0.163 HD
BRANCH   3   6
ATOM      6  C   UNL A   1      32.106  27.821  24.841  1.00  0.00     0.202 C 
BRANCH   6   7
ATOM      7  N   UNL A   1      31.558  28.067  23.503  1.00  0.00    -0.340 N 
ATOM      8  C   UNL A   1      30.332  27.948  22.948  1.00  0.00     0.234 C 
ATOM      9  O   UNL A   1      30.327  28.055  21.713  1.00  0.00    -0.274 OA
ATOM     10  H   UNL A   1      32.235  28.393  22.865  1.00  0.00     0.164 HD
BRANCH   8  11
ATOM     11  C   UNL A   1      28.997  27.766  23.672  1.00  0.00     0.139 C 
ATOM     12  C   UNL A   1      28.609  26.390  24.183  1.00  0.00     0.030 C 
BRANCH  11  13
ATOM     13  S   UNL A   1      27.626  28.496  22.725  1.00  0.00    -0.093 SA
BRANCH  13  14
ATOM     14  C   UNL A   1      28.092  30.218  22.658  1.00  0.00     0.097 A 
ATOM     15  C   UNL A   1      28.548  30.950  23.754  1.00  0.00     0.035 A 
ATOM     16  N   UNL A   1      27.946  30.781  21.438  1.00  0.00    -0.250 NA
ATOM     17  C   UNL A   1      28.937  32.276  23.575  1.00  0.00     0.004 A 
ATOM     18  C   UNL A   1      28.304  32.076  21.297  1.00  0.00     0.112 A 
ATOM     19  C   UNL A   1      28.814  32.854  22.320  1.00  0.00     0.020 A 
ENDBRANCH  13  14
ENDBRANCH  11  13
ENDBRANCH   8  11
ENDBRANCH   6   7
BRANCH   6  20
ATOM     20  C   UNL A   1      32.704  26.400  25.019  1.00  0.00    -0.016 A 
ATOM     21  C   UNL A   1      32.082  25.521  25.936  1.00  0.00     0.009 A 
ATOM     22  C   UNL A   1      33.899  25.962  24.416  1.00  0.00     0.009 A 
ATOM     23  C   UNL A   1      32.695  24.331  26.337  1.00  0.00     0.039 A 
ATOM     24  C   UNL A   1      34.512  24.769  24.818  1.00  0.00     0.039 A 
ATOM     25  C   UNL A   1      33.919  23.978  25.792  1.00  0.00     0.123 A 
ATOM     26  F   UNL A   1      34.535  22.867  26.212  1.00  0.00    -0.207 F 
ENDBRANCH   6  20
ENDBRANCH   3   6
ENDBRANCH   1   2
BRANCH   1  27
ATOM     27  C   UNL A   1      31.698  31.899  26.709  1.00  0.00     0.042 C 
BRANCH  27  28
ATOM     28  C   UNL A   1      32.968  32.509  27.284  1.00  0.00     0.118 C 
BRANCH  28  29
ATOM     29  N   UNL A   1      32.747  33.865  27.756  1.00  0.00    -0.352 N 
ATOM     30  C   UNL A   1      33.310  34.511  28.824  1.00  0.00     0.251 C 
ATOM     31  H   UNL A   1      32.100  34.395  27.235  1.00  0.00     0.163 HD
ATOM     32  O   UNL A   1      32.810  35.566  29.222  1.00  0.00    -0.269 OA
BRANCH  30  33
ATOM     33  C   UNL A   1      34.498  33.950  29.498  1.00  0.00     0.039 A 
ATOM     34  C   UNL A   1      34.314  33.020  30.522  1.00  0.00     0.014 A 
ATOM     35  C   UNL A   1      35.788  34.366  29.154  1.00  0.00     0.014 A 
ATOM     36  C   UNL A   1      35.423  32.486  31.179  1.00  0.00     0.010 A 
ATOM     37  C   UNL A   1      36.896  33.769  29.750  1.00  0.00     0.010 A 
ATOM     38  C   UNL A   1      36.723  32.844  30.788  1.00  0.00    -0.014 A 
BRANCH  38  39
ATOM     39  C   UNL A   1      37.905  32.272  31.479  1.00  0.00     0.031 A 
ATOM     40  C   UNL A   1      38.329  32.798  32.824  1.00  0.00     0.074 A 
ATOM     41  C   UNL A   1      38.621  31.302  30.879  1.00  0.00     0.049 A 
ATOM     42  N   UNL A   1      39.315  32.405  33.590  1.00  0.00    -0.248 NA
ATOM     43  C   UNL A   1      37.564  33.933  33.366  1.00  0.00     0.031 C 
ATOM     44  C   UNL A   1      38.353  30.757  29.547  1.00  0.00     0.029 A 
ATOM     45  N   UNL A   1      39.720  30.604  31.311  1.00  0.00    -0.354 N 
ATOM     46  C   UNL A   1      39.298  33.252  34.692  1.00  0.00     0.074 A 
ATOM     47  C   UNL A   1      38.243  34.216  34.467  1.00  0.00     0.031 C 
ATOM     48  C   UNL A   1      39.245  29.789  29.282  1.00  0.00     0.029 A 
ATOM     49  C   UNL A   1      40.162  29.665  30.412  1.00  0.00     0.049 A 
ATOM     50  H   UNL A   1      40.151  30.763  32.182  1.00  0.00     0.167 HD
ATOM     51  C   UNL A   1      40.076  33.221  35.802  1.00  0.00     0.031 A 
ATOM     52  C   UNL A   1      41.188  28.795  30.486  1.00  0.00     0.031 A 
ATOM     53  C   UNL A   1      41.121  32.256  36.022  1.00  0.00     0.049 A 
ATOM     54  C   UNL A   1      42.017  28.748  31.737  1.00  0.00     0.074 A 
ATOM     55  C   UNL A   1      41.918  32.089  37.140  1.00  0.00     0.029 A 
ATOM     56  N   UNL A   1      41.523  31.303  35.098  1.00  0.00    -0.354 N 
ATOM     57  N   UNL A   1      41.926  29.494  32.813  1.00  0.00    -0.248 NA
ATOM     58  C   UNL A   1      43.076  27.732  31.793  1.00  0.00     0.031 C 
ATOM     59  C   UNL A   1      42.836  31.066  36.872  1.00  0.00     0.029 A 
ATOM     60  C   UNL A   1      42.575  30.561  35.607  1.00  0.00     0.049 A 
ATOM     61  H   UNL A   1      41.117  31.171  34.210  1.00  0.00     0.167 HD
ATOM     62  C   UNL A   1      42.910  29.032  33.680  1.00  0.00     0.074 A 
ATOM     63  C   UNL A   1      43.567  27.926  33.010  1.00  0.00     0.031 C 
ATOM     64  C   UNL A   1      43.237  29.482  34.917  1.00  0.00     0.031 A 
BRANCH  51  65
ATOM     65  C   UNL A   1      39.826  34.280  36.845  1.00  0.00    -0.014 A 
ATOM     66  C   UNL A   1      40.407  35.559  36.741  1.00  0.00     0.010 A 
ATOM     67  C   UNL A   1      39.015  33.989  37.955  1.00  0.00     0.010 A 
ATOM     68  C   UNL A   1      40.242  36.498  37.762  1.00  0.00     0.020 A 
ATOM     69  C   UNL A   1      38.821  34.937  38.964  1.00  0.00     0.020 A 
ATOM     70  C   UNL A   1      39.460  36.175  38.875  1.00  0.00     0.054 A 
BRANCH  70  71
ATOM     71  S   UNL A   1      39.287  37.398  40.204  1.00  0.00     0.124 S 
ATOM     72  O   UNL A   1      40.680  37.758  40.461  1.00  0.00    -0.237 OA
ATOM     73  O   UNL A   1      38.475  38.439  39.581  1.00  0.00    -0.237 OA
ATOM     74  O   UNL A   1      38.628  36.655  41.274  1.00  0.00    -0.744 OA
ENDBRANCH  70  71
ENDBRANCH  51  65
BRANCH  52  75
ATOM     75  C   UNL A   1      41.449  27.885  29.340  1.00  0.00    -0.014 A 
ATOM     76  C   UNL A   1      42.464  28.174  28.413  1.00  0.00     0.010 A 
ATOM     77  C   UNL A   1      40.736  26.677  29.222  1.00  0.00     0.010 A 
ATOM     78  C   UNL A   1      42.770  27.268  27.394  1.00  0.00     0.020 A 
ATOM     79  C   UNL A   1      41.054  25.758  28.219  1.00  0.00     0.020 A 
ATOM     80  C   UNL A   1      42.070  26.060  27.309  1.00  0.00     0.054 A 
BRANCH  80  81
ATOM     81  S   UNL A   1      42.560  24.850  26.049  1.00  0.00     0.124 S 
ATOM     82  O   UNL A   1      42.516  25.649  24.827  1.00  0.00    -0.237 OA
ATOM     83  O   UNL A   1      43.892  24.450  26.495  1.00  0.00    -0.237 OA
ATOM     84  O   UNL A   1      41.537  23.812  26.156  1.00  0.00    -0.744 OA
ENDBRANCH  80  81
ENDBRANCH  52  75
BRANCH  64  85
ATOM     85  C   UNL A   1      44.364  28.779  35.625  1.00  0.00    -0.014 A 
ATOM     86  C   UNL A   1      44.122  27.658  36.439  1.00  0.00     0.010 A 
ATOM     87  C   UNL A   1      45.687  29.222  35.441  1.00  0.00     0.010 A 
ATOM     88  C   UNL A   1      45.179  27.014  37.086  1.00  0.00     0.020 A 
ATOM     89  C   UNL A   1      46.750  28.563  36.065  1.00  0.00     0.020 A 
ATOM     90  C   UNL A   1      46.487  27.472  36.897  1.00  0.00     0.054 A 
BRANCH  90  91
ATOM     91  S   UNL A   1      47.847  26.602  37.724  1.00  0.00     0.124 S 
ATOM     92  O   UNL A   1      48.865  26.568  36.677  1.00  0.00    -0.237 OA
ATOM     93  O   UNL A   1      48.141  27.472  38.860  1.00  0.00    -0.237 OA
ATOM     94  O   UNL A   1      47.267  25.307  38.073  1.00  0.00    -0.744 OA
ENDBRANCH  90  91
ENDBRANCH  64  85
ENDBRANCH  38  39
ENDBRANCH  30  33
ENDBRANCH  28  29
ENDBRANCH  27  28
ENDBRANCH   1  27
TORSDOF 18
ENDMDL
MODEL 3
REMARK VINA RESULT:     -10.4      4.465     10.074
REMARK SMILES C[C@H](Sc1ccccn1)C(=O)N[C@H](C(=O)NCCCNC(=O)c1ccc(-c2c3nc(c(-c4ccc(S(=O)(=O)[O-])cc4)c4ccc([nH]4)c(-c4ccc(S(=O)(=O)[O-])cc4)c4nc(c(-c5ccc(S(=O)(=O)[O-])cc5)c5ccc2[nH]5)C=C4)C=C3)cc1)c1ccc(F)cc1
REMARK SMILES IDX 17 1 16 2 14 3 15 4 13 6 12 7 10 8 11 9 2 11 1 12 3 13 4 14
REMARK SMILES IDX 5 15 9 16 6 17 8 18 7 19 83 20 84 21 89 22 85 23 88 24 86 25
REMARK SMILES IDX 87 26 18 27 19 28 20 29 21 30 22 32 23 33 24 34 82 35 25 36
REMARK SMILES IDX 81 37 26 38 27 39 28 40 75 41 29 42 80 43 74 44 76 45 30 46
REMARK SMILES IDX 79 47 73 48 72 49 31 51 61 52 42 53 60 54 43 55 46 56 59 57
REMARK SMILES IDX 77 58 44 59 45 60 58 62 78 63 47 64 32 65 33 66 41 67 34 68
REMARK SMILES IDX 40 69 35 70 36 71 37 72 38 73 39 74 62 75 63 76 71 77 64 78
REMARK SMILES IDX 70 79 65 80 66 81 67 82 68 83 69 84 48 85 49 86 57 87 50 88
REMARK SMILES IDX 56 89 51 90 52 91 53 92 54 93 55 94
REMARK H PARENT 16 5 12 10 20 31 76 50 46 61
REMARK Flexibility Score: inf
ROOT
ATOM      1  C   UNL A   1      36.834  23.509  24.839  1.00  0.00     0.117 C 
ENDROOT
BRANCH   1   2
ATOM      2  N   UNL A   1      35.947  24.584  25.256  1.00  0.00    -0.354 N 
ATOM      3  C   UNL A   1      34.591  24.706  25.112  1.00  0.00     0.247 C 
ATOM      4  O   UNL A   1      34.032  25.611  25.740  1.00  0.00    -0.272 OA
ATOM      5  H   UNL A   1      36.388  25.338  25.710  1.00  0.00     0.163 HD
BRANCH   3   6
ATOM      6  C   UNL A   1      33.768  23.641  24.335  1.00  0.00     0.202 C 
BRANCH   6   7
ATOM      7  N   UNL A   1      32.510  23.364  25.037  1.00  0.00    -0.340 N 
ATOM      8  C   UNL A   1      31.899  22.240  25.471  1.00  0.00     0.234 C 
ATOM      9  O   UNL A   1      30.727  22.415  25.836  1.00  0.00    -0.274 OA
ATOM     10  H   UNL A   1      31.996  24.180  25.237  1.00  0.00     0.164 HD
BRANCH   8  11
ATOM     11  C   UNL A   1      32.508  20.844  25.610  1.00  0.00     0.139 C 
ATOM     12  C   UNL A   1      33.831  20.678  26.336  1.00  0.00     0.030 C 
BRANCH  11  13
ATOM     13  S   UNL A   1      32.555  19.980  24.010  1.00  0.00    -0.093 SA
BRANCH  13  14
ATOM     14  C   UNL A   1      33.129  18.355  24.478  1.00  0.00     0.097 A 
ATOM     15  C   UNL A   1      34.411  17.873  24.224  1.00  0.00     0.035 A 
ATOM     16  N   UNL A   1      32.194  17.599  25.098  1.00  0.00    -0.250 NA
ATOM     17  C   UNL A   1      34.768  16.606  24.684  1.00  0.00     0.004 A 
ATOM     18  C   UNL A   1      32.557  16.365  25.509  1.00  0.00     0.112 A 
ATOM     19  C   UNL A   1      33.823  15.834  25.342  1.00  0.00     0.020 A 
ENDBRANCH  13  14
ENDBRANCH  11  13
ENDBRANCH   8  11
ENDBRANCH   6   7
BRANCH   6  20
ATOM     20  C   UNL A   1      33.573  24.169  22.889  1.00  0.00    -0.016 A 
ATOM     21  C   UNL A   1      33.353  25.555  22.704  1.00  0.00     0.009 A 
ATOM     22  C   UNL A   1      33.482  23.344  21.750  1.00  0.00     0.009 A 
ATOM     23  C   UNL A   1      32.925  26.068  21.478  1.00  0.00     0.039 A 
ATOM     24  C   UNL A   1      33.052  23.862  20.521  1.00  0.00     0.039 A 
ATOM     25  C   UNL A   1      32.753  25.211  20.403  1.00  0.00     0.123 A 
ATOM     26  F   UNL A   1      32.291  25.690  19.242  1.00  0.00    -0.207 F 
ENDBRANCH   6  20
ENDBRANCH   3   6
ENDBRANCH   1   2
BRANCH   1  27
ATOM     27  C   UNL A   1      37.783  23.062  25.941  1.00  0.00     0.042 C 
BRANCH  27  28
ATOM     28  C   UNL A   1      38.542  24.211  26.588  1.00  0.00     0.118 C 
BRANCH  28  29
ATOM     29  N   UNL A   1      39.815  24.454  25.930  1.00  0.00    -0.352 N 
ATOM     30  C   UNL A   1      40.694  25.488  26.104  1.00  0.00     0.251 C 
ATOM     31  H   UNL A   1      40.082  23.779  25.264  1.00  0.00     0.163 HD
ATOM     32  O   UNL A   1      41.592  25.662  25.277  1.00  0.00    -0.269 OA
BRANCH  30  33
ATOM     33  C   UNL A   1      40.568  26.392  27.265  1.00  0.00     0.039 A 
ATOM     34  C   UNL A   1      41.324  27.565  27.289  1.00  0.00     0.014 A 
ATOM     35  C   UNL A   1      39.740  26.071  28.346  1.00  0.00     0.014 A 
ATOM     36  C   UNL A   1      41.227  28.429  28.382  1.00  0.00     0.010 A 
ATOM     37  C   UNL A   1      39.579  26.973  29.394  1.00  0.00     0.010 A 
ATOM     38  C   UNL A   1      40.342  28.147  29.435  1.00  0.00    -0.014 A 
BRANCH  38  39
ATOM     39  C   UNL A   1      40.232  29.066  30.595  1.00  0.00     0.031 A 
ATOM     40  C   UNL A   1      41.156  28.919  31.773  1.00  0.00     0.074 A 
ATOM     41  C   UNL A   1      39.273  30.013  30.604  1.00  0.00     0.049 A 
ATOM     42  N   UNL A   1      41.226  29.645  32.861  1.00  0.00    -0.248 NA
ATOM     43  C   UNL A   1      42.104  27.794  31.741  1.00  0.00     0.031 C 
ATOM     44  C   UNL A   1      38.273  30.211  29.552  1.00  0.00     0.029 A 
ATOM     45  N   UNL A   1      38.984  30.984  31.528  1.00  0.00    -0.354 N 
ATOM     46  C   UNL A   1      42.212  29.054  33.645  1.00  0.00     0.074 A 
ATOM     47  C   UNL A   1      42.667  27.879  32.936  1.00  0.00     0.031 C 
ATOM     48  C   UNL A   1      37.499  31.257  29.877  1.00  0.00     0.029 A 
ATOM     49  C   UNL A   1      37.929  31.786  31.168  1.00  0.00     0.049 A 
ATOM     50  H   UNL A   1      39.484  31.093  32.369  1.00  0.00     0.167 HD
ATOM     51  C   UNL A   1      42.707  29.463  34.839  1.00  0.00     0.031 A 
ATOM     52  C   UNL A   1      37.369  32.835  31.803  1.00  0.00     0.031 A 
ATOM     53  C   UNL A   1      42.252  30.636  35.537  1.00  0.00     0.049 A 
ATOM     54  C   UNL A   1      37.954  33.297  33.107  1.00  0.00     0.074 A 
ATOM     55  C   UNL A   1      42.736  31.180  36.713  1.00  0.00     0.029 A 
ATOM     56  N   UNL A   1      41.198  31.439  35.129  1.00  0.00    -0.354 N 
ATOM     57  N   UNL A   1      38.951  32.784  33.789  1.00  0.00    -0.248 NA
ATOM     58  C   UNL A   1      37.351  34.488  33.718  1.00  0.00     0.031 C 
ATOM     59  C   UNL A   1      41.940  32.284  37.043  1.00  0.00     0.029 A 
ATOM     60  C   UNL A   1      40.995  32.459  36.043  1.00  0.00     0.049 A 
ATOM     61  H   UNL A   1      40.672  31.304  34.307  1.00  0.00     0.167 HD
ATOM     62  C   UNL A   1      39.102  33.596  34.907  1.00  0.00     0.074 A 
ATOM     63  C   UNL A   1      38.109  34.646  34.795  1.00  0.00     0.031 C 
ATOM     64  C   UNL A   1      39.984  33.481  35.932  1.00  0.00     0.031 A 
BRANCH  51  65
ATOM     65  C   UNL A   1      43.785  28.612  35.461  1.00  0.00    -0.014 A 
ATOM     66  C   UNL A   1      45.145  28.823  35.164  1.00  0.00     0.010 A 
ATOM     67  C   UNL A   1      43.432  27.574  36.341  1.00  0.00     0.010 A 
ATOM     68  C   UNL A   1      46.123  27.967  35.675  1.00  0.00     0.020 A 
ATOM     69  C   UNL A   1      44.412  26.734  36.880  1.00  0.00     0.020 A 
ATOM     70  C   UNL A   1      45.748  26.917  36.520  1.00  0.00     0.054 A 
BRANCH  70  71
ATOM     71  S   UNL A   1      47.032  25.799  37.145  1.00  0.00     0.124 S 
ATOM     72  O   UNL A   1      46.884  24.649  36.255  1.00  0.00    -0.237 OA
ATOM     73  O   UNL A   1      48.254  26.577  36.965  1.00  0.00    -0.237 OA
ATOM     74  O   UNL A   1      46.643  25.567  38.533  1.00  0.00    -0.744 OA
ENDBRANCH  70  71
ENDBRANCH  51  65
BRANCH  52  75
ATOM     75  C   UNL A   1      36.209  33.523  31.178  1.00  0.00    -0.014 A 
ATOM     76  C   UNL A   1      35.076  33.853  31.940  1.00  0.00     0.010 A 
ATOM     77  C   UNL A   1      36.272  33.928  29.832  1.00  0.00     0.010 A 
ATOM     78  C   UNL A   1      34.031  34.586  31.371  1.00  0.00     0.020 A 
ATOM     79  C   UNL A   1      35.239  34.680  29.266  1.00  0.00     0.020 A 
ATOM     80  C   UNL A   1      34.123  35.004  30.040  1.00  0.00     0.054 A 
BRANCH  80  81
ATOM     81  S   UNL A   1      32.806  36.049  29.357  1.00  0.00     0.124 S 
ATOM     82  O   UNL A   1      31.900  36.178  30.494  1.00  0.00    -0.237 OA
ATOM     83  O   UNL A   1      33.528  37.262  28.982  1.00  0.00    -0.237 OA
ATOM     84  O   UNL A   1      32.296  35.265  28.234  1.00  0.00    -0.744 OA
ENDBRANCH  80  81
ENDBRANCH  52  75
BRANCH  64  85
ATOM     85  C   UNL A   1      39.908  34.518  37.020  1.00  0.00    -0.014 A 
ATOM     86  C   UNL A   1      40.659  35.705  36.942  1.00  0.00     0.010 A 
ATOM     87  C   UNL A   1      39.045  34.322  38.113  1.00  0.00     0.010 A 
ATOM     88  C   UNL A   1      40.574  36.661  37.958  1.00  0.00     0.020 A 
ATOM     89  C   UNL A   1      38.937  35.288  39.117  1.00  0.00     0.020 A 
ATOM     90  C   UNL A   1      39.716  36.445  39.041  1.00  0.00     0.054 A 
BRANCH  90  91
ATOM     91  S   UNL A   1      39.601  37.713  40.332  1.00  0.00     0.124 S 
ATOM     92  O   UNL A   1      38.635  38.645  39.756  1.00  0.00    -0.237 OA
ATOM     93  O   UNL A   1      39.130  36.953  41.487  1.00  0.00    -0.237 OA
ATOM     94  O   UNL A   1      40.967  38.219  40.442  1.00  0.00    -0.744 OA
ENDBRANCH  90  91
ENDBRANCH  64  85
ENDBRANCH  38  39
ENDBRANCH  30  33
ENDBRANCH  28  29
ENDBRANCH  27  28
ENDBRANCH   1  27
TORSDOF 18
ENDMDL
