MODEL 1
REMARK VINA RESULT:      -9.0      0.000      0.000
REMARK SMILES Cc1c(C[NH2+]C[C@@H]2CCCO2)c(C(=O)NCCCNC(=O)c2ccc(-c3c4nc(c(-c5ccc(S(=O)(=O)[O-])cc5)c5ccc([nH]5)c(-c5ccc(S(=O)(=O)[O-])cc5)c5nc(c(-c6ccc(S(=O)(=O)[O-])cc6)c6ccc3[nH]6)C=C5)C=C4)cc2)c(C)n1Cc1ccc(F)cc1
REMARK SMILES IDX 16 1 15 2 13 3 14 4 12 6 1 7 2 8 3 9 84 10 82 11 83 12 4 13
REMARK SMILES IDX 5 14 6 17 7 18 8 19 11 20 9 21 10 22 85 23 86 24 87 25 92 26
REMARK SMILES IDX 88 27 91 28 89 29 90 30 17 31 18 32 19 33 20 34 21 36 22 37
REMARK SMILES IDX 23 38 81 39 24 40 80 41 25 42 26 43 27 44 74 45 28 46 79 47
REMARK SMILES IDX 73 48 75 49 29 50 78 51 72 52 71 53 30 55 60 56 41 57 59 58
REMARK SMILES IDX 42 59 45 60 58 61 76 62 43 63 44 64 57 66 77 67 46 68 31 69
REMARK SMILES IDX 32 70 40 71 33 72 39 73 34 74 35 75 36 76 37 77 38 78 61 79
REMARK SMILES IDX 62 80 70 81 63 82 69 83 64 84 65 85 66 86 67 87 68 88 47 89
REMARK SMILES IDX 48 90 56 91 49 92 55 93 50 94 51 95 52 96 53 97 54 98
REMARK H PARENT 15 5 5 15 5 16 19 35 75 54 45 65
REMARK Flexibility Score: inf
ROOT
ATOM      1  C   UNL A   1      43.883  23.368  30.629  1.00  0.00     0.118 C 
ENDROOT
BRANCH   1   2
ATOM      2  N   UNL A   1      44.557  23.070  29.382  1.00  0.00    -0.352 N 
ATOM      3  C   UNL A   1      44.338  23.196  28.035  1.00  0.00     0.253 C 
ATOM      4  O   UNL A   1      45.243  22.676  27.373  1.00  0.00    -0.269 OA
ATOM      5  H   UNL A   1      45.432  22.652  29.553  1.00  0.00     0.163 HD
BRANCH   3   6
ATOM      6  C   UNL A   1      43.147  23.778  27.371  1.00  0.00     0.069 A 
ATOM      7  C   UNL A   1      39.462  23.805  26.528  1.00  0.00     0.065 C 
ATOM      8  C   UNL A   1      40.916  24.007  26.797  1.00  0.00     0.025 A 
ATOM      9  C   UNL A   1      41.809  23.185  27.479  1.00  0.00     0.040 A 
ATOM     10  N   UNL A   1      41.632  25.119  26.398  1.00  0.00    -0.343 N 
ATOM     11  C   UNL A   1      42.981  24.770  26.396  1.00  0.00     0.028 A 
ATOM     12  C   UNL A   1      43.926  25.351  25.403  1.00  0.00     0.065 C 
BRANCH   9  13
ATOM     13  C   UNL A   1      41.449  21.871  28.143  1.00  0.00     0.300 C 
BRANCH  13  14
ATOM     14  N   UNL A   1      41.113  20.919  27.085  1.00  0.00    -0.340 N 
ATOM     15  H   UNL A   1      41.100  21.418  26.196  1.00  0.00     0.346 HD
ATOM     16  H   UNL A   1      40.204  20.519  27.321  1.00  0.00     0.346 HD
BRANCH  14  17
ATOM     17  C   UNL A   1      42.056  19.804  26.977  1.00  0.00     0.293 C 
BRANCH  17  18
ATOM     18  C   UNL A   1      42.830  19.651  25.652  1.00  0.00     0.173 C 
ATOM     19  C   UNL A   1      43.944  18.615  25.637  1.00  0.00     0.040 C 
ATOM     20  O   UNL A   1      43.428  20.893  25.242  1.00  0.00    -0.372 OA
ATOM     21  C   UNL A   1      44.816  19.107  24.509  1.00  0.00     0.031 C 
ATOM     22  C   UNL A   1      44.685  20.613  24.616  1.00  0.00     0.161 C 
ENDBRANCH  17  18
ENDBRANCH  14  17
ENDBRANCH  13  14
ENDBRANCH   9  13
BRANCH  10  23
ATOM     23  C   UNL A   1      41.044  26.343  25.836  1.00  0.00     0.157 C 
BRANCH  23  24
ATOM     24  C   UNL A   1      40.311  27.230  26.828  1.00  0.00    -0.028 A 
ATOM     25  C   UNL A   1      39.564  26.646  27.870  1.00  0.00     0.008 A 
ATOM     26  C   UNL A   1      40.245  28.626  26.681  1.00  0.00     0.008 A 
ATOM     27  C   UNL A   1      38.779  27.432  28.721  1.00  0.00     0.039 A 
ATOM     28  C   UNL A   1      39.457  29.411  27.526  1.00  0.00     0.039 A 
ATOM     29  C   UNL A   1      38.726  28.807  28.536  1.00  0.00     0.123 A 
ATOM     30  F   UNL A   1      37.954  29.555  29.334  1.00  0.00    -0.207 F 
ENDBRANCH  23  24
ENDBRANCH  10  23
ENDBRANCH   3   6
ENDBRANCH   1   2
BRANCH   1  31
ATOM     31  C   UNL A   1      44.479  24.550  31.404  1.00  0.00     0.042 C 
BRANCH  31  32
ATOM     32  C   UNL A   1      44.629  24.332  32.930  1.00  0.00     0.118 C 
BRANCH  32  33
ATOM     33  N   UNL A   1      46.015  24.252  33.368  1.00  0.00    -0.352 N 
ATOM     34  C   UNL A   1      46.832  25.211  33.940  1.00  0.00     0.251 C 
ATOM     35  H   UNL A   1      46.438  23.373  33.235  1.00  0.00     0.163 HD
ATOM     36  O   UNL A   1      48.017  24.912  34.088  1.00  0.00    -0.269 OA
BRANCH  34  37
ATOM     37  C   UNL A   1      46.376  26.612  34.260  1.00  0.00     0.039 A 
ATOM     38  C   UNL A   1      45.711  26.811  35.464  1.00  0.00     0.014 A 
ATOM     39  C   UNL A   1      46.316  27.668  33.333  1.00  0.00     0.014 A 
ATOM     40  C   UNL A   1      45.061  28.047  35.755  1.00  0.00     0.010 A 
ATOM     41  C   UNL A   1      45.587  28.899  33.605  1.00  0.00     0.010 A 
ATOM     42  C   UNL A   1      44.920  29.134  34.826  1.00  0.00    -0.014 A 
BRANCH  42  43
ATOM     43  C   UNL A   1      43.618  30.033  35.024  1.00  0.00     0.031 A 
ATOM     44  C   UNL A   1      42.563  29.218  34.355  1.00  0.00     0.074 A 
ATOM     45  C   UNL A   1      43.181  31.271  35.474  1.00  0.00     0.049 A 
ATOM     46  N   UNL A   1      42.705  28.890  33.103  1.00  0.00    -0.248 NA
ATOM     47  C   UNL A   1      41.577  28.432  35.094  1.00  0.00     0.031 C 
ATOM     48  C   UNL A   1      43.983  32.404  35.960  1.00  0.00     0.029 A 
ATOM     49  N   UNL A   1      41.873  31.822  35.614  1.00  0.00    -0.354 N 
ATOM     50  C   UNL A   1      41.691  28.015  32.811  1.00  0.00     0.074 A 
ATOM     51  C   UNL A   1      41.152  27.630  34.111  1.00  0.00     0.031 C 
ATOM     52  C   UNL A   1      43.194  33.402  36.460  1.00  0.00     0.029 A 
ATOM     53  C   UNL A   1      41.775  33.079  36.309  1.00  0.00     0.049 A 
ATOM     54  H   UNL A   1      41.078  31.366  35.253  1.00  0.00     0.167 HD
ATOM     55  C   UNL A   1      40.997  28.266  31.666  1.00  0.00     0.031 A 
ATOM     56  C   UNL A   1      40.658  33.831  36.663  1.00  0.00     0.031 A 
ATOM     57  C   UNL A   1      39.797  29.011  31.942  1.00  0.00     0.049 A 
ATOM     58  C   UNL A   1      39.634  33.482  35.666  1.00  0.00     0.074 A 
ATOM     59  C   UNL A   1      38.763  28.815  32.834  1.00  0.00     0.029 A 
ATOM     60  N   UNL A   1      39.797  30.352  31.608  1.00  0.00    -0.354 N 
ATOM     61  N   UNL A   1      39.686  33.936  34.452  1.00  0.00    -0.248 NA
ATOM     62  C   UNL A   1      38.437  32.720  36.005  1.00  0.00     0.031 C 
ATOM     63  C   UNL A   1      38.487  30.097  33.357  1.00  0.00     0.029 A 
ATOM     64  C   UNL A   1      39.098  31.063  32.565  1.00  0.00     0.049 A 
ATOM     65  H   UNL A   1      40.229  30.741  30.813  1.00  0.00     0.167 HD
ATOM     66  C   UNL A   1      38.839  33.108  33.777  1.00  0.00     0.074 A 
ATOM     67  C   UNL A   1      37.917  32.611  34.781  1.00  0.00     0.031 C 
ATOM     68  C   UNL A   1      39.318  32.490  32.667  1.00  0.00     0.031 A 
BRANCH  55  69
ATOM     69  C   UNL A   1      41.849  28.477  30.445  1.00  0.00    -0.014 A 
ATOM     70  C   UNL A   1      42.476  27.364  29.867  1.00  0.00     0.010 A 
ATOM     71  C   UNL A   1      42.129  29.758  29.919  1.00  0.00     0.010 A 
ATOM     72  C   UNL A   1      43.388  27.532  28.819  1.00  0.00     0.020 A 
ATOM     73  C   UNL A   1      43.051  29.933  28.885  1.00  0.00     0.020 A 
ATOM     74  C   UNL A   1      43.681  28.816  28.343  1.00  0.00     0.054 A 
BRANCH  74  75
ATOM     75  S   UNL A   1      44.939  28.990  27.050  1.00  0.00     0.124 S 
ATOM     76  O   UNL A   1      45.913  27.964  27.411  1.00  0.00    -0.237 OA
ATOM     77  O   UNL A   1      44.176  28.722  25.838  1.00  0.00    -0.237 OA
ATOM     78  O   UNL A   1      45.420  30.366  27.206  1.00  0.00    -0.744 OA
ENDBRANCH  74  75
ENDBRANCH  55  69
BRANCH  56  79
ATOM     79  C   UNL A   1      40.129  35.012  37.526  1.00  0.00    -0.014 A 
ATOM     80  C   UNL A   1      39.265  34.729  38.642  1.00  0.00     0.010 A 
ATOM     81  C   UNL A   1      40.739  36.276  37.576  1.00  0.00     0.010 A 
ATOM     82  C   UNL A   1      39.159  35.544  39.792  1.00  0.00     0.020 A 
ATOM     83  C   UNL A   1      40.604  37.131  38.718  1.00  0.00     0.020 A 
ATOM     84  C   UNL A   1      39.866  36.734  39.841  1.00  0.00     0.054 A 
BRANCH  84  85
ATOM     85  S   UNL A   1      39.927  37.654  41.427  1.00  0.00     0.124 S 
ATOM     86  O   UNL A   1      41.359  37.835  41.649  1.00  0.00    -0.237 OA
ATOM     87  O   UNL A   1      39.184  38.874  41.116  1.00  0.00    -0.237 OA
ATOM     88  O   UNL A   1      39.260  36.759  42.370  1.00  0.00    -0.744 OA
ENDBRANCH  84  85
ENDBRANCH  56  79
BRANCH  68  89
ATOM     89  C   UNL A   1      40.215  33.307  31.741  1.00  0.00    -0.014 A 
ATOM     90  C   UNL A   1      39.770  34.086  30.646  1.00  0.00     0.010 A 
ATOM     91  C   UNL A   1      41.605  33.223  31.936  1.00  0.00     0.010 A 
ATOM     92  C   UNL A   1      40.666  34.674  29.739  1.00  0.00     0.020 A 
ATOM     93  C   UNL A   1      42.508  33.846  31.062  1.00  0.00     0.020 A 
ATOM     94  C   UNL A   1      42.035  34.536  29.947  1.00  0.00     0.054 A 
BRANCH  94  95
ATOM     95  S   UNL A   1      43.186  35.238  28.731  1.00  0.00     0.124 S 
ATOM     96  O   UNL A   1      44.260  35.753  29.581  1.00  0.00    -0.237 OA
ATOM     97  O   UNL A   1      43.543  34.082  27.914  1.00  0.00    -0.237 OA
ATOM     98  O   UNL A   1      42.395  36.264  28.058  1.00  0.00    -0.744 OA
ENDBRANCH  94  95
ENDBRANCH  68  89
ENDBRANCH  42  43
ENDBRANCH  34  37
ENDBRANCH  32  33
ENDBRANCH  31  32
ENDBRANCH   1  31
TORSDOF 19
ENDMDL
MODEL 2
REMARK VINA RESULT:      -8.7      7.011     14.872
REMARK SMILES Cc1c(C[NH2+]C[C@@H]2CCCO2)c(C(=O)NCCCNC(=O)c2ccc(-c3c4nc(c(-c5ccc(S(=O)(=O)[O-])cc5)c5ccc([nH]5)c(-c5ccc(S(=O)(=O)[O-])cc5)c5nc(c(-c6ccc(S(=O)(=O)[O-])cc6)c6ccc3[nH]6)C=C5)C=C4)cc2)c(C)n1Cc1ccc(F)cc1
REMARK SMILES IDX 16 1 15 2 13 3 14 4 12 6 1 7 2 8 3 9 84 10 82 11 83 12 4 13
REMARK SMILES IDX 5 14 6 17 7 18 8 19 11 20 9 21 10 22 85 23 86 24 87 25 92 26
REMARK SMILES IDX 88 27 91 28 89 29 90 30 17 31 18 32 19 33 20 34 21 36 22 37
REMARK SMILES IDX 23 38 81 39 24 40 80 41 25 42 26 43 27 44 74 45 28 46 79 47
REMARK SMILES IDX 73 48 75 49 29 50 78 51 72 52 71 53 30 55 60 56 41 57 59 58
REMARK SMILES IDX 42 59 45 60 58 61 76 62 43 63 44 64 57 66 77 67 46 68 31 69
REMARK SMILES IDX 32 70 40 71 33 72 39 73 34 74 35 75 36 76 37 77 38 78 61 79
REMARK SMILES IDX 62 80 70 81 63 82 69 83 64 84 65 85 66 86 67 87 68 88 47 89
REMARK SMILES IDX 48 90 56 91 49 92 55 93 50 94 51 95 52 96 53 97 54 98
REMARK H PARENT 15 5 5 15 5 16 19 35 75 54 45 65
REMARK Flexibility Score: inf
ROOT
ATOM      1  C   UNL A   1      43.482  39.133  27.597  1.00  0.00     0.118 C 
ENDROOT
BRANCH   1   2
ATOM      2  N   UNL A   1      44.612  39.160  26.692  1.00  0.00    -0.352 N 
ATOM      3  C   UNL A   1      45.197  40.019  25.798  1.00  0.00     0.253 C 
ATOM      4  O   UNL A   1      46.137  39.485  25.198  1.00  0.00    -0.269 OA
ATOM      5  H   UNL A   1      45.107  38.310  26.729  1.00  0.00     0.163 HD
BRANCH   3   6
ATOM      6  C   UNL A   1      44.760  41.394  25.459  1.00  0.00     0.069 A 
ATOM      7  C   UNL A   1      45.259  45.140  25.367  1.00  0.00     0.065 C 
ATOM      8  C   UNL A   1      44.905  43.694  25.248  1.00  0.00     0.025 A 
ATOM      9  C   UNL A   1      45.572  42.581  25.752  1.00  0.00     0.040 A 
ATOM     10  N   UNL A   1      43.804  43.218  24.564  1.00  0.00    -0.343 N 
ATOM     11  C   UNL A   1      43.538  41.936  25.041  1.00  0.00     0.028 A 
ATOM     12  C   UNL A   1      42.143  41.422  25.132  1.00  0.00     0.065 C 
BRANCH   9  13
ATOM     13  C   UNL A   1      46.872  42.622  26.530  1.00  0.00     0.300 C 
BRANCH  13  14
ATOM     14  N   UNL A   1      46.537  42.839  27.936  1.00  0.00    -0.340 N 
ATOM     15  H   UNL A   1      45.579  43.186  27.989  1.00  0.00     0.346 HD
ATOM     16  H   UNL A   1      47.214  43.509  28.304  1.00  0.00     0.346 HD
BRANCH  14  17
ATOM     17  C   UNL A   1      46.639  41.632  28.758  1.00  0.00     0.293 C 
BRANCH  17  18
ATOM     18  C   UNL A   1      45.525  41.379  29.794  1.00  0.00     0.173 C 
ATOM     19  C   UNL A   1      44.252  42.196  29.628  1.00  0.00     0.040 C 
ATOM     20  O   UNL A   1      45.985  41.616  31.136  1.00  0.00    -0.372 OA
ATOM     21  C   UNL A   1      43.674  42.163  31.021  1.00  0.00     0.031 C 
ATOM     22  C   UNL A   1      44.911  42.177  31.897  1.00  0.00     0.161 C 
ENDBRANCH  17  18
ENDBRANCH  14  17
ENDBRANCH  13  14
ENDBRANCH   9  13
BRANCH  10  23
ATOM     23  C   UNL A   1      42.937  44.026  23.694  1.00  0.00     0.157 C 
BRANCH  23  24
ATOM     24  C   UNL A   1      43.023  43.707  22.211  1.00  0.00    -0.028 A 
ATOM     25  C   UNL A   1      44.212  43.974  21.504  1.00  0.00     0.008 A 
ATOM     26  C   UNL A   1      41.912  43.262  21.473  1.00  0.00     0.008 A 
ATOM     27  C   UNL A   1      44.278  43.808  20.117  1.00  0.00     0.039 A 
ATOM     28  C   UNL A   1      41.975  43.101  20.087  1.00  0.00     0.039 A 
ATOM     29  C   UNL A   1      43.156  43.381  19.420  1.00  0.00     0.123 A 
ATOM     30  F   UNL A   1      43.212  43.248  18.089  1.00  0.00    -0.207 F 
ENDBRANCH  23  24
ENDBRANCH  10  23
ENDBRANCH   3   6
ENDBRANCH   1   2
BRANCH   1  31
ATOM     31  C   UNL A   1      42.303  38.279  27.112  1.00  0.00     0.042 C 
BRANCH  31  32
ATOM     32  C   UNL A   1      42.284  36.819  27.631  1.00  0.00     0.118 C 
BRANCH  32  33
ATOM     33  N   UNL A   1      43.231  36.579  28.710  1.00  0.00    -0.352 N 
ATOM     34  C   UNL A   1      43.847  35.409  29.117  1.00  0.00     0.251 C 
ATOM     35  H   UNL A   1      43.469  37.377  29.235  1.00  0.00     0.163 HD
ATOM     36  O   UNL A   1      44.505  35.463  30.158  1.00  0.00    -0.269 OA
BRANCH  34  37
ATOM     37  C   UNL A   1      43.648  34.079  28.436  1.00  0.00     0.039 A 
ATOM     38  C   UNL A   1      43.476  32.962  29.245  1.00  0.00     0.014 A 
ATOM     39  C   UNL A   1      43.900  33.829  27.075  1.00  0.00     0.014 A 
ATOM     40  C   UNL A   1      43.493  31.644  28.702  1.00  0.00     0.010 A 
ATOM     41  C   UNL A   1      43.992  32.479  26.537  1.00  0.00     0.010 A 
ATOM     42  C   UNL A   1      43.802  31.330  27.334  1.00  0.00    -0.014 A 
BRANCH  42  43
ATOM     43  C   UNL A   1      44.483  29.906  27.101  1.00  0.00     0.031 A 
ATOM     44  C   UNL A   1      43.318  29.052  26.731  1.00  0.00     0.074 A 
ATOM     45  C   UNL A   1      45.681  29.215  27.220  1.00  0.00     0.049 A 
ATOM     46  N   UNL A   1      42.314  28.947  27.554  1.00  0.00    -0.248 NA
ATOM     47  C   UNL A   1      43.040  28.636  25.358  1.00  0.00     0.031 C 
ATOM     48  C   UNL A   1      46.956  29.683  27.783  1.00  0.00     0.029 A 
ATOM     49  N   UNL A   1      46.052  27.890  26.847  1.00  0.00    -0.354 N 
ATOM     50  C   UNL A   1      41.335  28.253  26.890  1.00  0.00     0.074 A 
ATOM     51  C   UNL A   1      41.764  28.257  25.495  1.00  0.00     0.031 C 
ATOM     52  C   UNL A   1      47.956  28.771  27.593  1.00  0.00     0.029 A 
ATOM     53  C   UNL A   1      47.452  27.564  26.938  1.00  0.00     0.049 A 
ATOM     54  H   UNL A   1      45.386  27.232  26.544  1.00  0.00     0.167 HD
ATOM     55  C   UNL A   1      40.758  27.230  27.579  1.00  0.00     0.031 A 
ATOM     56  C   UNL A   1      48.134  26.401  26.590  1.00  0.00     0.031 A 
ATOM     57  C   UNL A   1      41.377  25.972  27.250  1.00  0.00     0.049 A 
ATOM     58  C   UNL A   1      47.138  25.325  26.718  1.00  0.00     0.074 A 
ATOM     59  C   UNL A   1      41.651  25.355  26.048  1.00  0.00     0.029 A 
ATOM     60  N   UNL A   1      42.227  25.424  28.191  1.00  0.00    -0.354 N 
ATOM     61  N   UNL A   1      46.761  24.884  27.878  1.00  0.00    -0.248 NA
ATOM     62  C   UNL A   1      46.612  24.602  25.565  1.00  0.00     0.031 C 
ATOM     63  C   UNL A   1      42.946  24.813  26.203  1.00  0.00     0.029 A 
ATOM     64  C   UNL A   1      43.290  24.816  27.550  1.00  0.00     0.049 A 
ATOM     65  H   UNL A   1      42.097  25.461  29.167  1.00  0.00     0.167 HD
ATOM     66  C   UNL A   1      45.605  24.219  27.594  1.00  0.00     0.074 A 
ATOM     67  C   UNL A   1      45.723  23.836  26.201  1.00  0.00     0.031 C 
ATOM     68  C   UNL A   1      44.498  24.556  28.305  1.00  0.00     0.031 A 
BRANCH  55  69
ATOM     69  C   UNL A   1      40.276  27.588  28.956  1.00  0.00    -0.014 A 
ATOM     70  C   UNL A   1      38.895  27.688  29.177  1.00  0.00     0.010 A 
ATOM     71  C   UNL A   1      41.154  27.930  30.010  1.00  0.00     0.010 A 
ATOM     72  C   UNL A   1      38.406  28.156  30.402  1.00  0.00     0.020 A 
ATOM     73  C   UNL A   1      40.672  28.413  31.229  1.00  0.00     0.020 A 
ATOM     74  C   UNL A   1      39.298  28.529  31.416  1.00  0.00     0.054 A 
BRANCH  74  75
ATOM     75  S   UNL A   1      38.620  29.218  32.949  1.00  0.00     0.124 S 
ATOM     76  O   UNL A   1      38.384  30.615  32.595  1.00  0.00    -0.237 OA
ATOM     77  O   UNL A   1      37.419  28.416  33.144  1.00  0.00    -0.237 OA
ATOM     78  O   UNL A   1      39.688  29.013  33.933  1.00  0.00    -0.744 OA
ENDBRANCH  74  75
ENDBRANCH  55  69
BRANCH  56  79
ATOM     79  C   UNL A   1      49.527  25.760  26.333  1.00  0.00    -0.014 A 
ATOM     80  C   UNL A   1      50.219  26.060  25.107  1.00  0.00     0.010 A 
ATOM     81  C   UNL A   1      50.353  25.255  27.352  1.00  0.00     0.010 A 
ATOM     82  C   UNL A   1      51.625  26.037  24.962  1.00  0.00     0.020 A 
ATOM     83  C   UNL A   1      51.775  25.186  27.201  1.00  0.00     0.020 A 
ATOM     84  C   UNL A   1      52.406  25.634  26.032  1.00  0.00     0.054 A 
BRANCH  84  85
ATOM     85  S   UNL A   1      54.224  25.851  25.923  1.00  0.00     0.124 S 
ATOM     86  O   UNL A   1      54.654  25.743  27.314  1.00  0.00    -0.237 OA
ATOM     87  O   UNL A   1      54.626  24.743  25.057  1.00  0.00    -0.237 OA
ATOM     88  O   UNL A   1      54.377  27.176  25.326  1.00  0.00    -0.744 OA
ENDBRANCH  84  85
ENDBRANCH  56  79
BRANCH  68  89
ATOM     89  C   UNL A   1      44.676  24.830  29.795  1.00  0.00    -0.014 A 
ATOM     90  C   UNL A   1      44.446  23.895  30.834  1.00  0.00     0.010 A 
ATOM     91  C   UNL A   1      45.022  26.136  30.183  1.00  0.00     0.010 A 
ATOM     92  C   UNL A   1      44.469  24.267  32.187  1.00  0.00     0.020 A 
ATOM     93  C   UNL A   1      45.094  26.506  31.534  1.00  0.00     0.020 A 
ATOM     94  C   UNL A   1      44.779  25.580  32.528  1.00  0.00     0.054 A 
BRANCH  94  95
ATOM     95  S   UNL A   1      44.736  26.071  34.276  1.00  0.00     0.124 S 
ATOM     96  O   UNL A   1      44.014  27.341  34.224  1.00  0.00    -0.237 OA
ATOM     97  O   UNL A   1      44.013  24.970  34.906  1.00  0.00    -0.237 OA
ATOM     98  O   UNL A   1      46.146  26.185  34.638  1.00  0.00    -0.744 OA
ENDBRANCH  94  95
ENDBRANCH  68  89
ENDBRANCH  42  43
ENDBRANCH  34  37
ENDBRANCH  32  33
ENDBRANCH  31  32
ENDBRANCH   1  31
TORSDOF 19
ENDMDL
MODEL 3
REMARK VINA RESULT:      -8.7      7.654     15.145
REMARK SMILES Cc1c(C[NH2+]C[C@@H]2CCCO2)c(C(=O)NCCCNC(=O)c2ccc(-c3c4nc(c(-c5ccc(S(=O)(=O)[O-])cc5)c5ccc([nH]5)c(-c5ccc(S(=O)(=O)[O-])cc5)c5nc(c(-c6ccc(S(=O)(=O)[O-])cc6)c6ccc3[nH]6)C=C5)C=C4)cc2)c(C)n1Cc1ccc(F)cc1
REMARK SMILES IDX 16 1 15 2 13 3 14 4 12 6 1 7 2 8 3 9 84 10 82 11 83 12 4 13
REMARK SMILES IDX 5 14 6 17 7 18 8 19 11 20 9 21 10 22 85 23 86 24 87 25 92 26
REMARK SMILES IDX 88 27 91 28 89 29 90 30 17 31 18 32 19 33 20 34 21 36 22 37
REMARK SMILES IDX 23 38 81 39 24 40 80 41 25 42 26 43 27 44 74 45 28 46 79 47
REMARK SMILES IDX 73 48 75 49 29 50 78 51 72 52 71 53 30 55 60 56 41 57 59 58
REMARK SMILES IDX 42 59 45 60 58 61 76 62 43 63 44 64 57 66 77 67 46 68 31 69
REMARK SMILES IDX 32 70 40 71 33 72 39 73 34 74 35 75 36 76 37 77 38 78 61 79
REMARK SMILES IDX 62 80 70 81 63 82 69 83 64 84 65 85 66 86 67 87 68 88 47 89
REMARK SMILES IDX 48 90 56 91 49 92 55 93 50 94 51 95 52 96 53 97 54 98
REMARK H PARENT 15 5 5 15 5 16 19 35 75 54 45 65
REMARK Flexibility Score: inf
ROOT
ATOM      1  C   UNL A   1      43.488  39.474  27.601  1.00  0.00     0.118 C 
ENDROOT
BRANCH   1   2
ATOM      2  N   UNL A   1      44.599  39.533  26.674  1.00  0.00    -0.352 N 
ATOM      3  C   UNL A   1      45.064  40.345  25.672  1.00  0.00     0.253 C 
ATOM      4  O   UNL A   1      46.060  39.864  25.119  1.00  0.00    -0.269 OA
ATOM      5  H   UNL A   1      45.198  38.762  26.801  1.00  0.00     0.163 HD
BRANCH   3   6
ATOM      6  C   UNL A   1      44.453  41.603  25.181  1.00  0.00     0.069 A 
ATOM      7  C   UNL A   1      44.517  45.327  24.535  1.00  0.00     0.065 C 
ATOM      8  C   UNL A   1      44.324  43.850  24.645  1.00  0.00     0.025 A 
ATOM      9  C   UNL A   1      45.142  42.897  25.244  1.00  0.00     0.040 A 
ATOM     10  N   UNL A   1      43.243  43.168  24.120  1.00  0.00    -0.343 N 
ATOM     11  C   UNL A   1      43.154  41.948  24.789  1.00  0.00     0.028 A 
ATOM     12  C   UNL A   1      41.835  41.312  25.057  1.00  0.00     0.065 C 
BRANCH   9  13
ATOM     13  C   UNL A   1      46.475  43.185  25.906  1.00  0.00     0.300 C 
BRANCH  13  14
ATOM     14  N   UNL A   1      47.511  43.068  24.881  1.00  0.00    -0.340 N 
ATOM     15  H   UNL A   1      47.104  42.615  24.063  1.00  0.00     0.346 HD
ATOM     16  H   UNL A   1      48.273  42.525  25.288  1.00  0.00     0.346 HD
BRANCH  14  17
ATOM     17  C   UNL A   1      48.075  44.354  24.467  1.00  0.00     0.293 C 
BRANCH  17  18
ATOM     18  C   UNL A   1      48.320  44.571  22.960  1.00  0.00     0.173 C 
ATOM     19  C   UNL A   1      47.147  45.116  22.157  1.00  0.00     0.040 C 
ATOM     20  O   UNL A   1      48.726  43.355  22.307  1.00  0.00    -0.372 OA
ATOM     21  C   UNL A   1      47.489  44.667  20.758  1.00  0.00     0.031 C 
ATOM     22  C   UNL A   1      48.167  43.332  20.990  1.00  0.00     0.161 C 
ENDBRANCH  17  18
ENDBRANCH  14  17
ENDBRANCH  13  14
ENDBRANCH   9  13
BRANCH  10  23
ATOM     23  C   UNL A   1      42.238  43.747  23.217  1.00  0.00     0.157 C 
BRANCH  23  24
ATOM     24  C   UNL A   1      42.520  43.577  21.733  1.00  0.00    -0.028 A 
ATOM     25  C   UNL A   1      43.802  43.870  21.226  1.00  0.00     0.008 A 
ATOM     26  C   UNL A   1      41.512  43.251  20.810  1.00  0.00     0.008 A 
ATOM     27  C   UNL A   1      44.055  43.843  19.851  1.00  0.00     0.039 A 
ATOM     28  C   UNL A   1      41.762  43.230  19.436  1.00  0.00     0.039 A 
ATOM     29  C   UNL A   1      43.030  43.532  18.967  1.00  0.00     0.123 A 
ATOM     30  F   UNL A   1      43.267  43.532  17.649  1.00  0.00    -0.207 F 
ENDBRANCH  23  24
ENDBRANCH  10  23
ENDBRANCH   3   6
ENDBRANCH   1   2
BRANCH   1  31
ATOM     31  C   UNL A   1      42.338  38.563  27.153  1.00  0.00     0.042 C 
BRANCH  31  32
ATOM     32  C   UNL A   1      42.448  37.085  27.607  1.00  0.00     0.118 C 
BRANCH  32  33
ATOM     33  N   UNL A   1      43.476  36.866  28.613  1.00  0.00    -0.352 N 
ATOM     34  C   UNL A   1      44.078  35.695  29.040  1.00  0.00     0.251 C 
ATOM     35  H   UNL A   1      43.793  37.683  29.063  1.00  0.00     0.163 HD
ATOM     36  O   UNL A   1      44.827  35.781  30.014  1.00  0.00    -0.269 OA
BRANCH  34  37
ATOM     37  C   UNL A   1      43.764  34.338  28.464  1.00  0.00     0.039 A 
ATOM     38  C   UNL A   1      43.736  33.260  29.342  1.00  0.00     0.014 A 
ATOM     39  C   UNL A   1      43.776  34.025  27.093  1.00  0.00     0.014 A 
ATOM     40  C   UNL A   1      43.660  31.919  28.864  1.00  0.00     0.010 A 
ATOM     41  C   UNL A   1      43.775  32.651  26.610  1.00  0.00     0.010 A 
ATOM     42  C   UNL A   1      43.726  31.541  27.479  1.00  0.00    -0.014 A 
BRANCH  42  43
ATOM     43  C   UNL A   1      44.357  30.103  27.196  1.00  0.00     0.031 A 
ATOM     44  C   UNL A   1      43.165  29.305  26.793  1.00  0.00     0.074 A 
ATOM     45  C   UNL A   1      45.530  29.366  27.294  1.00  0.00     0.049 A 
ATOM     46  N   UNL A   1      42.155  29.206  27.609  1.00  0.00    -0.248 NA
ATOM     47  C   UNL A   1      42.877  28.948  25.405  1.00  0.00     0.031 C 
ATOM     48  C   UNL A   1      46.819  29.769  27.877  1.00  0.00     0.029 A 
ATOM     49  N   UNL A   1      45.855  28.043  26.874  1.00  0.00    -0.354 N 
ATOM     50  C   UNL A   1      41.154  28.572  26.918  1.00  0.00     0.074 A 
ATOM     51  C   UNL A   1      41.589  28.611  25.526  1.00  0.00     0.031 C 
ATOM     52  C   UNL A   1      47.787  28.829  27.656  1.00  0.00     0.029 A 
ATOM     53  C   UNL A   1      47.243  27.665  26.957  1.00  0.00     0.049 A 
ATOM     54  H   UNL A   1      45.168  27.420  26.546  1.00  0.00     0.167 HD
ATOM     55  C   UNL A   1      40.539  27.545  27.568  1.00  0.00     0.031 A 
ATOM     56  C   UNL A   1      47.884  26.491  26.568  1.00  0.00     0.031 A 
ATOM     57  C   UNL A   1      41.114  26.279  27.196  1.00  0.00     0.049 A 
ATOM     58  C   UNL A   1      46.851  25.448  26.655  1.00  0.00     0.074 A 
ATOM     59  C   UNL A   1      41.371  25.696  25.973  1.00  0.00     0.029 A 
ATOM     60  N   UNL A   1      41.941  25.667  28.119  1.00  0.00    -0.354 N 
ATOM     61  N   UNL A   1      46.454  24.978  27.798  1.00  0.00    -0.248 NA
ATOM     62  C   UNL A   1      46.304  24.786  25.476  1.00  0.00     0.031 C 
ATOM     63  C   UNL A   1      42.645  25.103  26.111  1.00  0.00     0.029 A 
ATOM     64  C   UNL A   1      42.984  25.046  27.459  1.00  0.00     0.049 A 
ATOM     65  H   UNL A   1      41.808  25.674  29.095  1.00  0.00     0.167 HD
ATOM     66  C   UNL A   1      45.277  24.366  27.487  1.00  0.00     0.074 A 
ATOM     67  C   UNL A   1      45.386  24.029  26.081  1.00  0.00     0.031 C 
ATOM     68  C   UNL A   1      44.179  24.716  28.207  1.00  0.00     0.031 A 
BRANCH  55  69
ATOM     69  C   UNL A   1      40.065  27.870  28.957  1.00  0.00    -0.014 A 
ATOM     70  C   UNL A   1      38.694  28.081  29.163  1.00  0.00     0.010 A 
ATOM     71  C   UNL A   1      40.949  28.076  30.039  1.00  0.00     0.010 A 
ATOM     72  C   UNL A   1      38.225  28.524  30.405  1.00  0.00     0.020 A 
ATOM     73  C   UNL A   1      40.489  28.535  31.276  1.00  0.00     0.020 A 
ATOM     74  C   UNL A   1      39.127  28.762  31.450  1.00  0.00     0.054 A 
BRANCH  74  75
ATOM     75  S   UNL A   1      38.484  29.425  33.010  1.00  0.00     0.124 S 
ATOM     76  O   UNL A   1      38.180  30.811  32.666  1.00  0.00    -0.237 OA
ATOM     77  O   UNL A   1      37.324  28.577  33.251  1.00  0.00    -0.237 OA
ATOM     78  O   UNL A   1      39.597  29.262  33.950  1.00  0.00    -0.744 OA
ENDBRANCH  74  75
ENDBRANCH  55  69
BRANCH  56  79
ATOM     79  C   UNL A   1      49.255  25.811  26.292  1.00  0.00    -0.014 A 
ATOM     80  C   UNL A   1      49.913  26.049  25.035  1.00  0.00     0.010 A 
ATOM     81  C   UNL A   1      50.103  25.327  27.303  1.00  0.00     0.010 A 
ATOM     82  C   UNL A   1      51.312  25.991  24.846  1.00  0.00     0.020 A 
ATOM     83  C   UNL A   1      51.518  25.221  27.109  1.00  0.00     0.020 A 
ATOM     84  C   UNL A   1      52.119  25.611  25.905  1.00  0.00     0.054 A 
BRANCH  84  85
ATOM     85  S   UNL A   1      53.937  25.784  25.730  1.00  0.00     0.124 S 
ATOM     86  O   UNL A   1      54.435  25.381  27.042  1.00  0.00    -0.237 OA
ATOM     87  O   UNL A   1      54.241  24.863  24.636  1.00  0.00    -0.237 OA
ATOM     88  O   UNL A   1      54.118  27.197  25.404  1.00  0.00    -0.744 OA
ENDBRANCH  84  85
ENDBRANCH  56  79
BRANCH  68  89
ATOM     89  C   UNL A   1      44.361  24.929  29.706  1.00  0.00    -0.014 A 
ATOM     90  C   UNL A   1      44.395  23.904  30.682  1.00  0.00     0.010 A 
ATOM     91  C   UNL A   1      44.425  26.253  30.175  1.00  0.00     0.010 A 
ATOM     92  C   UNL A   1      44.397  24.187  32.058  1.00  0.00     0.020 A 
ATOM     93  C   UNL A   1      44.475  26.545  31.547  1.00  0.00     0.020 A 
ATOM     94  C   UNL A   1      44.422  25.512  32.481  1.00  0.00     0.054 A 
BRANCH  94  95
ATOM     95  S   UNL A   1      44.352  25.870  34.260  1.00  0.00     0.124 S 
ATOM     96  O   UNL A   1      43.276  24.990  34.712  1.00  0.00    -0.237 OA
ATOM     97  O   UNL A   1      45.689  25.503  34.719  1.00  0.00    -0.237 OA
ATOM     98  O   UNL A   1      44.039  27.295  34.314  1.00  0.00    -0.744 OA
ENDBRANCH  94  95
ENDBRANCH  68  89
ENDBRANCH  42  43
ENDBRANCH  34  37
ENDBRANCH  32  33
ENDBRANCH  31  32
ENDBRANCH   1  31
TORSDOF 19
ENDMDL
