MODEL 1
REMARK VINA RESULT:     -11.6      0.000      0.000
REMARK SMILES NS(=O)(=O)c1ccc(/N=C/c2ccc(O)c(C(=O)NCCCNC(=O)c3ccc(-c4c5nc(c(-c6ccc(S(=O)(=O)[O-])cc6)c6ccc([nH]6)c(-c6ccc(S(=O)(=O)[O-])cc6)c6nc(c(-c7ccc(S(=O)(=O)[O-])cc7)c7ccc4[nH]7)C=C6)C=C5)cc3)c2)cc1
REMARK SMILES IDX 20 1 19 2 17 3 18 4 16 6 11 7 12 8 86 9 13 10 14 11 10 12
REMARK SMILES IDX 9 13 8 14 5 15 6 16 88 17 7 18 87 19 2 20 3 21 4 22 1 23
REMARK SMILES IDX 15 26 21 28 22 29 23 30 24 31 25 33 26 34 27 35 85 36 28 37
REMARK SMILES IDX 84 38 29 39 30 40 31 41 78 42 32 43 83 44 77 45 79 46 33 47
REMARK SMILES IDX 82 48 76 49 75 50 34 52 64 53 45 54 63 55 46 56 49 57 62 58
REMARK SMILES IDX 80 59 47 60 48 61 61 63 81 64 50 65 35 66 36 67 44 68 37 69
REMARK SMILES IDX 43 70 38 71 39 72 40 73 41 74 42 75 65 76 66 77 74 78 67 79
REMARK SMILES IDX 73 80 68 81 69 82 70 83 71 84 72 85 51 86 52 87 60 88 53 89
REMARK SMILES IDX 59 90 54 91 55 92 56 93 57 94 58 95
REMARK H PARENT 19 5 1 24 1 25 15 27 23 32 79 51 49 62
REMARK Flexibility Score: inf
ROOT
ATOM      1  C   UNL A   1      37.189  21.566  24.900  1.00  0.00     0.118 C 
ENDROOT
BRANCH   1   2
ATOM      2  N   UNL A   1      36.292  21.666  26.048  1.00  0.00    -0.352 N 
ATOM      3  C   UNL A   1      34.922  21.660  26.178  1.00  0.00     0.255 C 
ATOM      4  O   UNL A   1      34.443  21.806  27.306  1.00  0.00    -0.269 OA
ATOM      5  H   UNL A   1      36.765  21.756  26.907  1.00  0.00     0.163 HD
BRANCH   3   6
ATOM      6  C   UNL A   1      33.975  21.565  25.036  1.00  0.00     0.082 A 
ATOM      7  C   UNL A   1      32.396  22.584  23.505  1.00  0.00    -0.006 A 
ATOM      8  C   UNL A   1      31.924  21.334  23.113  1.00  0.00     0.013 A 
ATOM      9  C   UNL A   1      33.484  22.688  24.377  1.00  0.00     0.027 A 
ATOM     10  C   UNL A   1      32.525  20.188  23.636  1.00  0.00     0.047 A 
ATOM     11  C   UNL A   1      33.526  20.305  24.605  1.00  0.00     0.128 A 
BRANCH   7  12
ATOM     12  C   UNL A   1      31.664  23.815  23.134  1.00  0.00     0.119 C 
ATOM     13  N   UNL A   1      31.864  24.905  23.802  1.00  0.00    -0.256 NA
BRANCH  13  14
ATOM     14  C   UNL A   1      31.097  26.051  23.552  1.00  0.00     0.063 A 
ATOM     15  C   UNL A   1      29.405  28.216  22.979  1.00  0.00     0.082 A 
ATOM     16  C   UNL A   1      28.897  27.100  23.644  1.00  0.00     0.024 A 
ATOM     17  C   UNL A   1      30.740  28.247  22.568  1.00  0.00     0.024 A 
ATOM     18  C   UNL A   1      29.746  26.024  23.923  1.00  0.00     0.030 A 
ATOM     19  C   UNL A   1      31.578  27.163  22.850  1.00  0.00     0.030 A 
BRANCH  15  20
ATOM     20  S   UNL A   1      28.377  29.605  22.606  1.00  0.00     0.238 S 
ATOM     21  O   UNL A   1      28.383  29.811  21.179  1.00  0.00    -0.207 OA
ATOM     22  O   UNL A   1      28.690  30.654  23.550  1.00  0.00    -0.207 OA
BRANCH  20  23
ATOM     23  N   UNL A   1      26.819  29.097  22.978  1.00  0.00    -0.225 NA
ATOM     24  H   UNL A   1      26.189  29.345  22.216  1.00  0.00     0.137 HD
ATOM     25  H   UNL A   1      26.510  29.551  23.837  1.00  0.00     0.137 HD
ENDBRANCH  20  23
ENDBRANCH  15  20
ENDBRANCH  13  14
ENDBRANCH   7  12
BRANCH  11  26
ATOM     26  O   UNL A   1      34.022  19.125  25.098  1.00  0.00    -0.507 OA
ATOM     27  H   UNL A   1      33.675  18.765  25.891  1.00  0.00     0.293 HD
ENDBRANCH  11  26
ENDBRANCH   3   6
ENDBRANCH   1   2
BRANCH   1  28
ATOM     28  C   UNL A   1      38.197  20.432  24.987  1.00  0.00     0.042 C 
BRANCH  28  29
ATOM     29  C   UNL A   1      39.201  20.546  26.121  1.00  0.00     0.118 C 
BRANCH  29  30
ATOM     30  N   UNL A   1      40.269  19.556  26.041  1.00  0.00    -0.352 N 
ATOM     31  C   UNL A   1      41.636  19.688  26.051  1.00  0.00     0.251 C 
ATOM     32  H   UNL A   1      39.953  18.627  25.966  1.00  0.00     0.163 HD
ATOM     33  O   UNL A   1      42.325  18.708  25.770  1.00  0.00    -0.269 OA
BRANCH  31  34
ATOM     34  C   UNL A   1      42.292  20.978  26.371  1.00  0.00     0.039 A 
ATOM     35  C   UNL A   1      42.629  21.841  25.323  1.00  0.00     0.014 A 
ATOM     36  C   UNL A   1      42.624  21.330  27.680  1.00  0.00     0.014 A 
ATOM     37  C   UNL A   1      43.233  23.072  25.596  1.00  0.00     0.010 A 
ATOM     38  C   UNL A   1      43.126  22.599  27.960  1.00  0.00     0.010 A 
ATOM     39  C   UNL A   1      43.450  23.481  26.921  1.00  0.00    -0.014 A 
BRANCH  39  40
ATOM     40  C   UNL A   1      44.020  24.818  27.236  1.00  0.00     0.031 A 
ATOM     41  C   UNL A   1      43.130  25.931  27.729  1.00  0.00     0.074 A 
ATOM     42  C   UNL A   1      45.330  25.049  27.020  1.00  0.00     0.049 A 
ATOM     43  N   UNL A   1      43.441  27.171  28.014  1.00  0.00    -0.248 NA
ATOM     44  C   UNL A   1      41.700  25.623  27.896  1.00  0.00     0.031 C 
ATOM     45  C   UNL A   1      46.287  24.075  26.488  1.00  0.00     0.029 A 
ATOM     46  N   UNL A   1      46.087  26.178  27.215  1.00  0.00    -0.354 N 
ATOM     47  C   UNL A   1      42.249  27.791  28.369  1.00  0.00     0.074 A 
ATOM     48  C   UNL A   1      41.199  26.808  28.215  1.00  0.00     0.031 C 
ATOM     49  C   UNL A   1      47.505  24.636  26.432  1.00  0.00     0.029 A 
ATOM     50  C   UNL A   1      47.412  26.021  26.882  1.00  0.00     0.049 A 
ATOM     51  H   UNL A   1      45.715  27.022  27.560  1.00  0.00     0.167 HD
ATOM     52  C   UNL A   1      42.045  29.058  28.805  1.00  0.00     0.031 A 
ATOM     53  C   UNL A   1      48.438  26.891  26.929  1.00  0.00     0.031 A 
ATOM     54  C   UNL A   1      43.095  30.026  28.980  1.00  0.00     0.049 A 
ATOM     55  C   UNL A   1      48.191  28.286  27.437  1.00  0.00     0.074 A 
ATOM     56  C   UNL A   1      43.002  31.311  29.485  1.00  0.00     0.029 A 
ATOM     57  N   UNL A   1      44.427  29.818  28.656  1.00  0.00    -0.354 N 
ATOM     58  N   UNL A   1      47.067  28.826  27.844  1.00  0.00    -0.248 NA
ATOM     59  C   UNL A   1      49.353  29.181  27.506  1.00  0.00     0.031 C 
ATOM     60  C   UNL A   1      44.270  31.899  29.416  1.00  0.00     0.029 A 
ATOM     61  C   UNL A   1      45.162  30.959  28.927  1.00  0.00     0.049 A 
ATOM     62  H   UNL A   1      44.795  28.982  28.288  1.00  0.00     0.167 HD
ATOM     63  C   UNL A   1      47.392  30.119  28.240  1.00  0.00     0.074 A 
ATOM     64  C   UNL A   1      48.820  30.269  28.045  1.00  0.00     0.031 C 
ATOM     65  C   UNL A   1      46.582  31.095  28.721  1.00  0.00     0.031 A 
BRANCH  52  66
ATOM     66  C   UNL A   1      40.632  29.471  29.125  1.00  0.00    -0.014 A 
ATOM     67  C   UNL A   1      39.697  29.726  28.104  1.00  0.00     0.010 A 
ATOM     68  C   UNL A   1      40.215  29.555  30.467  1.00  0.00     0.010 A 
ATOM     69  C   UNL A   1      38.384  30.090  28.420  1.00  0.00     0.020 A 
ATOM     70  C   UNL A   1      38.896  29.890  30.786  1.00  0.00     0.020 A 
ATOM     71  C   UNL A   1      37.992  30.169  29.758  1.00  0.00     0.054 A 
BRANCH  71  72
ATOM     72  S   UNL A   1      36.273  30.608  30.135  1.00  0.00     0.124 S 
ATOM     73  O   UNL A   1      36.046  29.890  31.388  1.00  0.00    -0.237 OA
ATOM     74  O   UNL A   1      36.332  32.063  30.249  1.00  0.00    -0.237 OA
ATOM     75  O   UNL A   1      35.525  30.106  28.986  1.00  0.00    -0.744 OA
ENDBRANCH  71  72
ENDBRANCH  52  66
BRANCH  53  76
ATOM     76  C   UNL A   1      49.799  26.464  26.499  1.00  0.00    -0.014 A 
ATOM     77  C   UNL A   1      50.692  25.884  27.417  1.00  0.00     0.010 A 
ATOM     78  C   UNL A   1      50.207  26.633  25.162  1.00  0.00     0.010 A 
ATOM     79  C   UNL A   1      51.976  25.504  27.013  1.00  0.00     0.020 A 
ATOM     80  C   UNL A   1      51.479  26.227  24.749  1.00  0.00     0.020 A 
ATOM     81  C   UNL A   1      52.361  25.677  25.681  1.00  0.00     0.054 A 
BRANCH  81  82
ATOM     82  S   UNL A   1      54.017  25.140  25.172  1.00  0.00     0.124 S 
ATOM     83  O   UNL A   1      54.270  25.993  24.015  1.00  0.00    -0.237 OA
ATOM     84  O   UNL A   1      54.820  25.428  26.358  1.00  0.00    -0.237 OA
ATOM     85  O   UNL A   1      53.839  23.720  24.876  1.00  0.00    -0.744 OA
ENDBRANCH  81  82
ENDBRANCH  53  76
BRANCH  65  86
ATOM     86  C   UNL A   1      47.228  32.401  29.100  1.00  0.00    -0.014 A 
ATOM     87  C   UNL A   1      47.777  32.600  30.379  1.00  0.00     0.010 A 
ATOM     88  C   UNL A   1      47.318  33.432  28.146  1.00  0.00     0.010 A 
ATOM     89  C   UNL A   1      48.364  33.824  30.711  1.00  0.00     0.020 A 
ATOM     90  C   UNL A   1      47.932  34.645  28.465  1.00  0.00     0.020 A 
ATOM     91  C   UNL A   1      48.435  34.840  29.753  1.00  0.00     0.054 A 
BRANCH  91  92
ATOM     92  S   UNL A   1      49.224  36.410  30.202  1.00  0.00     0.124 S 
ATOM     93  O   UNL A   1      48.078  37.312  30.282  1.00  0.00    -0.237 OA
ATOM     94  O   UNL A   1      49.866  36.094  31.475  1.00  0.00    -0.237 OA
ATOM     95  O   UNL A   1      50.142  36.665  29.094  1.00  0.00    -0.744 OA
ENDBRANCH  91  92
ENDBRANCH  65  86
ENDBRANCH  39  40
ENDBRANCH  31  34
ENDBRANCH  29  30
ENDBRANCH  28  29
ENDBRANCH   1  28
TORSDOF 18
ENDMDL
MODEL 2
REMARK VINA RESULT:     -11.4      1.218      8.207
REMARK SMILES NS(=O)(=O)c1ccc(/N=C/c2ccc(O)c(C(=O)NCCCNC(=O)c3ccc(-c4c5nc(c(-c6ccc(S(=O)(=O)[O-])cc6)c6ccc([nH]6)c(-c6ccc(S(=O)(=O)[O-])cc6)c6nc(c(-c7ccc(S(=O)(=O)[O-])cc7)c7ccc4[nH]7)C=C6)C=C5)cc3)c2)cc1
REMARK SMILES IDX 20 1 19 2 17 3 18 4 16 6 11 7 12 8 86 9 13 10 14 11 10 12
REMARK SMILES IDX 9 13 8 14 5 15 6 16 88 17 7 18 87 19 2 20 3 21 4 22 1 23
REMARK SMILES IDX 15 26 21 28 22 29 23 30 24 31 25 33 26 34 27 35 85 36 28 37
REMARK SMILES IDX 84 38 29 39 30 40 31 41 78 42 32 43 83 44 77 45 79 46 33 47
REMARK SMILES IDX 82 48 76 49 75 50 34 52 64 53 45 54 63 55 46 56 49 57 62 58
REMARK SMILES IDX 80 59 47 60 48 61 61 63 81 64 50 65 35 66 36 67 44 68 37 69
REMARK SMILES IDX 43 70 38 71 39 72 40 73 41 74 42 75 65 76 66 77 74 78 67 79
REMARK SMILES IDX 73 80 68 81 69 82 70 83 71 84 72 85 51 86 52 87 60 88 53 89
REMARK SMILES IDX 59 90 54 91 55 92 56 93 57 94 58 95
REMARK H PARENT 19 5 1 24 1 25 15 27 23 32 79 51 49 62
REMARK Flexibility Score: inf
ROOT
ATOM      1  C   UNL A   1      37.257  21.075  24.618  1.00  0.00     0.118 C 
ENDROOT
BRANCH   1   2
ATOM      2  N   UNL A   1      37.574  22.369  25.218  1.00  0.00    -0.352 N 
ATOM      3  C   UNL A   1      36.802  23.381  25.739  1.00  0.00     0.255 C 
ATOM      4  O   UNL A   1      37.371  24.397  26.147  1.00  0.00    -0.269 OA
ATOM      5  H   UNL A   1      38.539  22.555  25.258  1.00  0.00     0.163 HD
BRANCH   3   6
ATOM      6  C   UNL A   1      35.315  23.364  25.773  1.00  0.00     0.082 A 
ATOM      7  C   UNL A   1      33.177  24.442  25.397  1.00  0.00    -0.006 A 
ATOM      8  C   UNL A   1      32.523  23.479  26.161  1.00  0.00     0.013 A 
ATOM      9  C   UNL A   1      34.542  24.319  25.120  1.00  0.00     0.027 A 
ATOM     10  C   UNL A   1      33.259  22.413  26.682  1.00  0.00     0.047 A 
ATOM     11  C   UNL A   1      34.646  22.370  26.506  1.00  0.00     0.128 A 
BRANCH   7  12
ATOM     12  C   UNL A   1      32.481  25.685  24.997  1.00  0.00     0.119 C 
ATOM     13  N   UNL A   1      31.299  25.617  24.473  1.00  0.00    -0.256 NA
BRANCH  13  14
ATOM     14  C   UNL A   1      30.669  26.765  23.974  1.00  0.00     0.063 A 
ATOM     15  C   UNL A   1      29.268  28.933  22.872  1.00  0.00     0.082 A 
ATOM     16  C   UNL A   1      28.562  27.877  23.449  1.00  0.00     0.024 A 
ATOM     17  C   UNL A   1      30.663  28.901  22.810  1.00  0.00     0.024 A 
ATOM     18  C   UNL A   1      29.268  26.799  23.993  1.00  0.00     0.030 A 
ATOM     19  C   UNL A   1      31.357  27.815  23.354  1.00  0.00     0.030 A 
BRANCH  15  20
ATOM     20  S   UNL A   1      28.427  30.322  22.174  1.00  0.00     0.238 S 
ATOM     21  O   UNL A   1      27.385  30.733  23.082  1.00  0.00    -0.207 OA
ATOM     22  O   UNL A   1      28.181  30.036  20.779  1.00  0.00    -0.207 OA
BRANCH  20  23
ATOM     23  N   UNL A   1      29.559  31.565  22.199  1.00  0.00    -0.225 NA
ATOM     24  H   UNL A   1      29.962  31.676  21.269  1.00  0.00     0.137 HD
ATOM     25  H   UNL A   1      30.297  31.338  22.865  1.00  0.00     0.137 HD
ENDBRANCH  20  23
ENDBRANCH  15  20
ENDBRANCH  13  14
ENDBRANCH   7  12
BRANCH  11  26
ATOM     26  O   UNL A   1      35.291  21.313  27.096  1.00  0.00    -0.507 OA
ATOM     27  H   UNL A   1      35.761  20.698  26.570  1.00  0.00     0.293 HD
ENDBRANCH  11  26
ENDBRANCH   3   6
ENDBRANCH   1   2
BRANCH   1  28
ATOM     28  C   UNL A   1      38.208  19.954  25.003  1.00  0.00     0.042 C 
BRANCH  28  29
ATOM     29  C   UNL A   1      39.176  20.285  26.125  1.00  0.00     0.118 C 
BRANCH  29  30
ATOM     30  N   UNL A   1      40.385  19.470  26.097  1.00  0.00    -0.352 N 
ATOM     31  C   UNL A   1      41.715  19.811  26.122  1.00  0.00     0.251 C 
ATOM     32  H   UNL A   1      40.217  18.501  26.051  1.00  0.00     0.163 HD
ATOM     33  O   UNL A   1      42.552  18.941  25.888  1.00  0.00    -0.269 OA
BRANCH  31  34
ATOM     34  C   UNL A   1      42.158  21.197  26.406  1.00  0.00     0.039 A 
ATOM     35  C   UNL A   1      42.488  21.542  27.722  1.00  0.00     0.014 A 
ATOM     36  C   UNL A   1      42.206  22.173  25.411  1.00  0.00     0.014 A 
ATOM     37  C   UNL A   1      42.926  22.836  28.017  1.00  0.00     0.010 A 
ATOM     38  C   UNL A   1      42.743  23.429  25.684  1.00  0.00     0.010 A 
ATOM     39  C   UNL A   1      43.097  23.782  26.993  1.00  0.00    -0.014 A 
BRANCH  39  40
ATOM     40  C   UNL A   1      43.634  25.140  27.274  1.00  0.00     0.031 A 
ATOM     41  C   UNL A   1      45.087  25.454  27.024  1.00  0.00     0.074 A 
ATOM     42  C   UNL A   1      42.826  26.075  27.814  1.00  0.00     0.049 A 
ATOM     43  N   UNL A   1      45.741  26.566  27.248  1.00  0.00    -0.248 NA
ATOM     44  C   UNL A   1      45.924  24.371  26.480  1.00  0.00     0.031 C 
ATOM     45  C   UNL A   1      41.416  25.880  28.161  1.00  0.00     0.029 A 
ATOM     46  N   UNL A   1      43.075  27.377  28.171  1.00  0.00    -0.354 N 
ATOM     47  C   UNL A   1      47.061  26.310  26.895  1.00  0.00     0.074 A 
ATOM     48  C   UNL A   1      47.129  24.923  26.490  1.00  0.00     0.031 C 
ATOM     49  C   UNL A   1      40.917  27.027  28.648  1.00  0.00     0.029 A 
ATOM     50  C   UNL A   1      41.978  28.028  28.689  1.00  0.00     0.049 A 
ATOM     51  H   UNL A   1      43.955  27.805  28.068  1.00  0.00     0.167 HD
ATOM     52  C   UNL A   1      48.119  27.155  26.886  1.00  0.00     0.031 A 
ATOM     53  C   UNL A   1      41.840  29.286  29.147  1.00  0.00     0.031 A 
ATOM     54  C   UNL A   1      48.044  28.541  27.266  1.00  0.00     0.049 A 
ATOM     55  C   UNL A   1      43.025  30.213  29.108  1.00  0.00     0.074 A 
ATOM     56  C   UNL A   1      49.042  29.500  27.222  1.00  0.00     0.029 A 
ATOM     57  N   UNL A   1      46.909  29.167  27.759  1.00  0.00    -0.354 N 
ATOM     58  N   UNL A   1      44.245  29.970  28.693  1.00  0.00    -0.248 NA
ATOM     59  C   UNL A   1      42.808  31.586  29.582  1.00  0.00     0.031 C 
ATOM     60  C   UNL A   1      48.524  30.692  27.740  1.00  0.00     0.029 A 
ATOM     61  C   UNL A   1      47.188  30.492  28.046  1.00  0.00     0.049 A 
ATOM     62  H   UNL A   1      46.035  28.733  27.885  1.00  0.00     0.167 HD
ATOM     63  C   UNL A   1      44.937  31.169  28.836  1.00  0.00     0.074 A 
ATOM     64  C   UNL A   1      43.991  32.137  29.352  1.00  0.00     0.031 C 
ATOM     65  C   UNL A   1      46.237  31.443  28.565  1.00  0.00     0.031 A 
BRANCH  52  66
ATOM     66  C   UNL A   1      49.454  26.607  26.451  1.00  0.00    -0.014 A 
ATOM     67  C   UNL A   1      49.862  26.663  25.105  1.00  0.00     0.010 A 
ATOM     68  C   UNL A   1      50.338  26.075  27.409  1.00  0.00     0.010 A 
ATOM     69  C   UNL A   1      51.111  26.167  24.721  1.00  0.00     0.020 A 
ATOM     70  C   UNL A   1      51.599  25.605  27.034  1.00  0.00     0.020 A 
ATOM     71  C   UNL A   1      51.973  25.642  25.688  1.00  0.00     0.054 A 
BRANCH  71  72
ATOM     72  S   UNL A   1      53.602  25.040  25.166  1.00  0.00     0.124 S 
ATOM     73  O   UNL A   1      53.447  23.593  25.303  1.00  0.00    -0.237 OA
ATOM     74  O   UNL A   1      53.699  25.532  23.793  1.00  0.00    -0.237 OA
ATOM     75  O   UNL A   1      54.523  25.660  26.114  1.00  0.00    -0.744 OA
ENDBRANCH  71  72
ENDBRANCH  52  66
BRANCH  53  76
ATOM     76  C   UNL A   1      40.524  29.749  29.669  1.00  0.00    -0.014 A 
ATOM     77  C   UNL A   1      39.494  30.123  28.787  1.00  0.00     0.010 A 
ATOM     78  C   UNL A   1      40.293  29.815  31.056  1.00  0.00     0.010 A 
ATOM     79  C   UNL A   1      38.268  30.578  29.281  1.00  0.00     0.020 A 
ATOM     80  C   UNL A   1      39.057  30.240  31.552  1.00  0.00     0.020 A 
ATOM     81  C   UNL A   1      38.057  30.632  30.662  1.00  0.00     0.054 A 
BRANCH  81  82
ATOM     82  S   UNL A   1      36.444  31.188  31.278  1.00  0.00     0.124 S 
ATOM     83  O   UNL A   1      36.067  30.094  32.169  1.00  0.00    -0.237 OA
ATOM     84  O   UNL A   1      36.774  32.452  31.932  1.00  0.00    -0.237 OA
ATOM     85  O   UNL A   1      35.639  31.312  30.065  1.00  0.00    -0.744 OA
ENDBRANCH  81  82
ENDBRANCH  53  76
BRANCH  65  86
ATOM     86  C   UNL A   1      46.705  32.855  28.793  1.00  0.00    -0.014 A 
ATOM     87  C   UNL A   1      47.121  33.291  30.063  1.00  0.00     0.010 A 
ATOM     88  C   UNL A   1      46.764  33.749  27.708  1.00  0.00     0.010 A 
ATOM     89  C   UNL A   1      47.544  34.609  30.254  1.00  0.00     0.020 A 
ATOM     90  C   UNL A   1      47.216  35.059  27.888  1.00  0.00     0.020 A 
ATOM     91  C   UNL A   1      47.585  35.486  29.165  1.00  0.00     0.054 A 
BRANCH  91  92
ATOM     92  S   UNL A   1      48.160  37.185  29.434  1.00  0.00     0.124 S 
ATOM     93  O   UNL A   1      46.902  37.920  29.525  1.00  0.00    -0.237 OA
ATOM     94  O   UNL A   1      48.916  37.075  30.679  1.00  0.00    -0.237 OA
ATOM     95  O   UNL A   1      48.964  37.469  28.247  1.00  0.00    -0.744 OA
ENDBRANCH  91  92
ENDBRANCH  65  86
ENDBRANCH  39  40
ENDBRANCH  31  34
ENDBRANCH  29  30
ENDBRANCH  28  29
ENDBRANCH   1  28
TORSDOF 18
ENDMDL
MODEL 3
REMARK VINA RESULT:     -10.9      3.430      8.769
REMARK SMILES NS(=O)(=O)c1ccc(/N=C/c2ccc(O)c(C(=O)NCCCNC(=O)c3ccc(-c4c5nc(c(-c6ccc(S(=O)(=O)[O-])cc6)c6ccc([nH]6)c(-c6ccc(S(=O)(=O)[O-])cc6)c6nc(c(-c7ccc(S(=O)(=O)[O-])cc7)c7ccc4[nH]7)C=C6)C=C5)cc3)c2)cc1
REMARK SMILES IDX 20 1 19 2 17 3 18 4 16 6 11 7 12 8 86 9 13 10 14 11 10 12
REMARK SMILES IDX 9 13 8 14 5 15 6 16 88 17 7 18 87 19 2 20 3 21 4 22 1 23
REMARK SMILES IDX 15 26 21 28 22 29 23 30 24 31 25 33 26 34 27 35 85 36 28 37
REMARK SMILES IDX 84 38 29 39 30 40 31 41 78 42 32 43 83 44 77 45 79 46 33 47
REMARK SMILES IDX 82 48 76 49 75 50 34 52 64 53 45 54 63 55 46 56 49 57 62 58
REMARK SMILES IDX 80 59 47 60 48 61 61 63 81 64 50 65 35 66 36 67 44 68 37 69
REMARK SMILES IDX 43 70 38 71 39 72 40 73 41 74 42 75 65 76 66 77 74 78 67 79
REMARK SMILES IDX 73 80 68 81 69 82 70 83 71 84 72 85 51 86 52 87 60 88 53 89
REMARK SMILES IDX 59 90 54 91 55 92 56 93 57 94 58 95
REMARK H PARENT 19 5 1 24 1 25 15 27 23 32 79 51 49 62
REMARK Flexibility Score: inf
ROOT
ATOM      1  C   UNL A   1      35.878  32.015  31.786  1.00  0.00     0.118 C 
ENDROOT
BRANCH   1   2
ATOM      2  N   UNL A   1      36.639  32.637  30.707  1.00  0.00    -0.352 N 
ATOM      3  C   UNL A   1      36.296  33.109  29.461  1.00  0.00     0.255 C 
ATOM      4  O   UNL A   1      37.191  33.556  28.739  1.00  0.00    -0.269 OA
ATOM      5  H   UNL A   1      37.596  32.740  30.912  1.00  0.00     0.163 HD
BRANCH   3   6
ATOM      6  C   UNL A   1      34.922  33.047  28.894  1.00  0.00     0.082 A 
ATOM      7  C   UNL A   1      33.206  31.899  27.625  1.00  0.00    -0.006 A 
ATOM      8  C   UNL A   1      32.458  33.068  27.522  1.00  0.00     0.013 A 
ATOM      9  C   UNL A   1      34.371  31.870  28.397  1.00  0.00     0.027 A 
ATOM     10  C   UNL A   1      32.911  34.222  28.164  1.00  0.00     0.047 A 
ATOM     11  C   UNL A   1      34.144  34.215  28.825  1.00  0.00     0.128 A 
BRANCH   7  12
ATOM     12  C   UNL A   1      32.871  30.715  26.803  1.00  0.00     0.119 C 
ATOM     13  N   UNL A   1      33.818  30.038  26.239  1.00  0.00    -0.256 NA
BRANCH  13  14
ATOM     14  C   UNL A   1      33.523  28.989  25.358  1.00  0.00     0.063 A 
ATOM     15  C   UNL A   1      33.138  26.824  23.614  1.00  0.00     0.082 A 
ATOM     16  C   UNL A   1      33.818  26.628  24.816  1.00  0.00     0.024 A 
ATOM     17  C   UNL A   1      32.679  28.095  23.259  1.00  0.00     0.024 A 
ATOM     18  C   UNL A   1      34.008  27.714  25.678  1.00  0.00     0.030 A 
ATOM     19  C   UNL A   1      32.880  29.172  24.128  1.00  0.00     0.030 A 
BRANCH  15  20
ATOM     20  S   UNL A   1      32.865  25.487  22.490  1.00  0.00     0.238 S 
ATOM     21  O   UNL A   1      31.455  25.190  22.460  1.00  0.00    -0.207 OA
ATOM     22  O   UNL A   1      33.872  24.481  22.745  1.00  0.00    -0.207 OA
BRANCH  20  23
ATOM     23  N   UNL A   1      33.221  26.122  20.975  1.00  0.00    -0.225 NA
ATOM     24  H   UNL A   1      33.107  25.398  20.267  1.00  0.00     0.137 HD
ATOM     25  H   UNL A   1      34.184  26.458  20.965  1.00  0.00     0.137 HD
ENDBRANCH  20  23
ENDBRANCH  15  20
ENDBRANCH  13  14
ENDBRANCH   7  12
BRANCH  11  26
ATOM     26  O   UNL A   1      34.531  35.407  29.381  1.00  0.00    -0.507 OA
ATOM     27  H   UNL A   1      34.310  36.214  28.961  1.00  0.00     0.293 HD
ENDBRANCH  11  26
ENDBRANCH   3   6
ENDBRANCH   1   2
BRANCH   1  28
ATOM     28  C   UNL A   1      36.632  30.934  32.545  1.00  0.00     0.042 C 
BRANCH  28  29
ATOM     29  C   UNL A   1      37.341  29.910  31.676  1.00  0.00     0.118 C 
BRANCH  29  30
ATOM     30  N   UNL A   1      36.576  29.534  30.494  1.00  0.00    -0.352 N 
ATOM     31  C   UNL A   1      36.969  29.212  29.218  1.00  0.00     0.251 C 
ATOM     32  H   UNL A   1      35.603  29.506  30.636  1.00  0.00     0.163 HD
ATOM     33  O   UNL A   1      36.112  29.122  28.341  1.00  0.00    -0.269 OA
BRANCH  31  34
ATOM     34  C   UNL A   1      38.395  28.991  28.875  1.00  0.00     0.039 A 
ATOM     35  C   UNL A   1      38.844  29.351  27.600  1.00  0.00     0.014 A 
ATOM     36  C   UNL A   1      39.282  28.390  29.768  1.00  0.00     0.014 A 
ATOM     37  C   UNL A   1      40.186  29.171  27.254  1.00  0.00     0.010 A 
ATOM     38  C   UNL A   1      40.639  28.309  29.463  1.00  0.00     0.010 A 
ATOM     39  C   UNL A   1      41.107  28.685  28.197  1.00  0.00    -0.014 A 
BRANCH  39  40
ATOM     40  C   UNL A   1      42.553  28.557  27.874  1.00  0.00     0.031 A 
ATOM     41  C   UNL A   1      43.485  29.727  28.065  1.00  0.00     0.074 A 
ATOM     42  C   UNL A   1      43.017  27.405  27.350  1.00  0.00     0.049 A 
ATOM     43  N   UNL A   1      44.764  29.814  27.799  1.00  0.00    -0.248 NA
ATOM     44  C   UNL A   1      42.901  30.971  28.595  1.00  0.00     0.031 C 
ATOM     45  C   UNL A   1      42.207  26.218  27.059  1.00  0.00     0.029 A 
ATOM     46  N   UNL A   1      44.283  27.041  26.963  1.00  0.00    -0.354 N 
ATOM     47  C   UNL A   1      45.128  31.120  28.106  1.00  0.00     0.074 A 
ATOM     48  C   UNL A   1      43.928  31.806  28.530  1.00  0.00     0.031 C 
ATOM     49  C   UNL A   1      43.000  25.250  26.573  1.00  0.00     0.029 A 
ATOM     50  C   UNL A   1      44.365  25.757  26.476  1.00  0.00     0.049 A 
ATOM     51  H   UNL A   1      45.059  27.643  27.026  1.00  0.00     0.167 HD
ATOM     52  C   UNL A   1      46.355  31.694  28.061  1.00  0.00     0.031 A 
ATOM     53  C   UNL A   1      45.417  25.063  26.003  1.00  0.00     0.031 A 
ATOM     54  C   UNL A   1      47.552  31.002  27.663  1.00  0.00     0.049 A 
ATOM     55  C   UNL A   1      46.773  25.715  25.983  1.00  0.00     0.074 A 
ATOM     56  C   UNL A   1      48.854  31.473  27.653  1.00  0.00     0.029 A 
ATOM     57  N   UNL A   1      47.596  29.695  27.203  1.00  0.00    -0.354 N 
ATOM     58  N   UNL A   1      47.108  26.927  26.355  1.00  0.00    -0.248 NA
ATOM     59  C   UNL A   1      47.893  24.900  25.495  1.00  0.00     0.031 C 
ATOM     60  C   UNL A   1      49.677  30.467  27.136  1.00  0.00     0.029 A 
ATOM     61  C   UNL A   1      48.898  29.350  26.883  1.00  0.00     0.049 A 
ATOM     62  H   UNL A   1      46.816  29.100  27.116  1.00  0.00     0.167 HD
ATOM     63  C   UNL A   1      48.484  27.012  26.167  1.00  0.00     0.074 A 
ATOM     64  C   UNL A   1      48.918  25.722  25.672  1.00  0.00     0.031 C 
ATOM     65  C   UNL A   1      49.313  28.064  26.385  1.00  0.00     0.031 A 
BRANCH  52  66
ATOM     66  C   UNL A   1      46.467  33.144  28.455  1.00  0.00    -0.014 A 
ATOM     67  C   UNL A   1      47.006  33.523  29.699  1.00  0.00     0.010 A 
ATOM     68  C   UNL A   1      46.078  34.147  27.548  1.00  0.00     0.010 A 
ATOM     69  C   UNL A   1      47.120  34.874  30.041  1.00  0.00     0.020 A 
ATOM     70  C   UNL A   1      46.218  35.499  27.874  1.00  0.00     0.020 A 
ATOM     71  C   UNL A   1      46.726  35.854  29.126  1.00  0.00     0.054 A 
BRANCH  71  72
ATOM     72  S   UNL A   1      46.921  37.598  29.583  1.00  0.00     0.124 S 
ATOM     73  O   UNL A   1      46.598  37.574  31.007  1.00  0.00    -0.237 OA
ATOM     74  O   UNL A   1      48.323  37.857  29.262  1.00  0.00    -0.237 OA
ATOM     75  O   UNL A   1      45.953  38.290  28.737  1.00  0.00    -0.744 OA
ENDBRANCH  71  72
ENDBRANCH  52  66
BRANCH  53  76
ATOM     76  C   UNL A   1      45.234  23.665  25.523  1.00  0.00    -0.014 A 
ATOM     77  C   UNL A   1      45.479  22.576  26.379  1.00  0.00     0.010 A 
ATOM     78  C   UNL A   1      44.808  23.416  24.205  1.00  0.00     0.010 A 
ATOM     79  C   UNL A   1      45.327  21.265  25.918  1.00  0.00     0.020 A 
ATOM     80  C   UNL A   1      44.626  22.106  23.751  1.00  0.00     0.020 A 
ATOM     81  C   UNL A   1      44.900  21.038  24.606  1.00  0.00     0.054 A 
BRANCH  81  82
ATOM     82  S   UNL A   1      44.671  19.329  24.044  1.00  0.00     0.124 S 
ATOM     83  O   UNL A   1      44.589  19.495  22.596  1.00  0.00    -0.237 OA
ATOM     84  O   UNL A   1      45.877  18.670  24.538  1.00  0.00    -0.237 OA
ATOM     85  O   UNL A   1      43.431  18.918  24.699  1.00  0.00    -0.744 OA
ENDBRANCH  81  82
ENDBRANCH  53  76
BRANCH  65  86
ATOM     86  C   UNL A   1      50.779  27.851  26.117  1.00  0.00    -0.014 A 
ATOM     87  C   UNL A   1      51.622  27.277  27.086  1.00  0.00     0.010 A 
ATOM     88  C   UNL A   1      51.312  28.197  24.862  1.00  0.00     0.010 A 
ATOM     89  C   UNL A   1      52.982  27.096  26.819  1.00  0.00     0.020 A 
ATOM     90  C   UNL A   1      52.665  27.988  24.581  1.00  0.00     0.020 A 
ATOM     91  C   UNL A   1      53.495  27.456  25.569  1.00  0.00     0.054 A 
BRANCH  91  92
ATOM     92  S   UNL A   1      55.258  27.189  25.239  1.00  0.00     0.124 S 
ATOM     93  O   UNL A   1      55.218  26.305  24.077  1.00  0.00    -0.237 OA
ATOM     94  O   UNL A   1      55.746  28.542  24.984  1.00  0.00    -0.237 OA
ATOM     95  O   UNL A   1      55.752  26.577  26.471  1.00  0.00    -0.744 OA
ENDBRANCH  91  92
ENDBRANCH  65  86
ENDBRANCH  39  40
ENDBRANCH  31  34
ENDBRANCH  29  30
ENDBRANCH  28  29
ENDBRANCH   1  28
TORSDOF 18
ENDMDL
