MODEL 1
REMARK VINA RESULT:     -11.0      0.000      0.000
REMARK SMILES C[C@]([NH3+])(C(=O)N1[C@@H](C(=O)NCCCNC(=O)c2ccc(-c3c4nc(c(-c5ccc(S(=O)(=O)[O-])cc5)c5ccc([nH]5)c(-c5ccc(S(=O)(=O)[O-])cc5)c5nc(c(-c6ccc(S(=O)(=O)[O-])cc6)c6ccc3[nH]6)C=C5)C=C4)cc2)C[C@H]2CCCC[C@@H]21)C(F)(F)F
REMARK SMILES IDX 12 1 11 2 10 3 8 4 9 5 7 7 6 8 83 9 77 10 78 11 82 12 79 13
REMARK SMILES IDX 81 14 80 15 4 16 5 17 2 18 1 19 84 20 85 21 86 22 87 23 3 24
REMARK SMILES IDX 13 28 14 29 15 30 16 32 17 33 18 34 76 35 19 36 75 37 20 38
REMARK SMILES IDX 21 39 22 40 69 41 23 42 74 43 68 44 70 45 24 46 73 47 67 48
REMARK SMILES IDX 66 49 25 51 55 52 36 53 54 54 37 55 40 56 53 57 71 58 38 59
REMARK SMILES IDX 39 60 52 62 72 63 41 64 26 65 27 66 35 67 28 68 34 69 29 70
REMARK SMILES IDX 30 71 31 72 32 73 33 74 56 75 57 76 65 77 58 78 64 79 59 80
REMARK SMILES IDX 60 81 61 82 62 83 63 84 42 85 43 86 51 87 44 88 50 89 45 90
REMARK SMILES IDX 46 91 47 92 48 93 49 94
REMARK H PARENT 10 6 3 25 3 26 3 27 14 31 70 50 40 61
REMARK Flexibility Score: inf
ROOT
ATOM      1  C   UNL A   1      32.135  27.902  27.497  1.00  0.00     0.042 C 
ENDROOT
BRANCH   1   2
ATOM      2  C   UNL A   1      31.713  26.952  26.378  1.00  0.00     0.117 C 
BRANCH   2   3
ATOM      3  N   UNL A   1      31.186  25.714  26.925  1.00  0.00    -0.354 N 
ATOM      4  C   UNL A   1      31.511  24.412  26.705  1.00  0.00     0.242 C 
ATOM      5  O   UNL A   1      30.761  23.567  27.205  1.00  0.00    -0.273 OA
ATOM      6  H   UNL A   1      30.458  25.841  27.575  1.00  0.00     0.163 HD
BRANCH   4   7
ATOM      7  C   UNL A   1      32.798  24.007  25.936  1.00  0.00     0.175 C 
ATOM      8  N   UNL A   1      32.500  23.645  24.530  1.00  0.00    -0.322 N 
ATOM      9  C   UNL A   1      32.247  22.215  24.461  1.00  0.00     0.089 C 
ATOM     10  C   UNL A   1      33.275  22.674  26.580  1.00  0.00     0.041 C 
ATOM     11  C   UNL A   1      33.330  21.700  25.409  1.00  0.00     0.014 C 
ATOM     12  C   UNL A   1      32.399  21.505  23.115  1.00  0.00     0.025 C 
ATOM     13  C   UNL A   1      33.135  20.225  25.703  1.00  0.00     0.006 C 
ATOM     14  C   UNL A   1      32.307  19.984  23.299  1.00  0.00     0.002 C 
ATOM     15  C   UNL A   1      33.241  19.444  24.387  1.00  0.00     0.000 C 
BRANCH   8  16
ATOM     16  C   UNL A   1      32.104  24.489  23.506  1.00  0.00     0.294 C 
ATOM     17  O   UNL A   1      30.905  24.579  23.234  1.00  0.00    -0.267 OA
BRANCH  16  18
ATOM     18  C   UNL A   1      33.187  25.114  22.580  1.00  0.00     0.267 C 
ATOM     19  C   UNL A   1      32.682  25.093  21.129  1.00  0.00     0.100 C 
BRANCH  18  20
ATOM     20  C   UNL A   1      33.372  26.589  23.041  1.00  0.00     0.453 C 
ATOM     21  F   UNL A   1      34.012  27.332  22.108  1.00  0.00    -0.164 F 
ATOM     22  F   UNL A   1      32.159  27.175  23.236  1.00  0.00    -0.164 F 
ATOM     23  F   UNL A   1      34.036  26.693  24.213  1.00  0.00    -0.164 F 
ENDBRANCH  18  20
BRANCH  18  24
ATOM     24  N   UNL A   1      34.467  24.349  22.614  1.00  0.00    -0.337 N 
ATOM     25  H   UNL A   1      34.774  24.160  21.660  1.00  0.00     0.345 HD
ATOM     26  H   UNL A   1      34.324  23.468  23.105  1.00  0.00     0.345 HD
ATOM     27  H   UNL A   1      35.178  24.898  23.098  1.00  0.00     0.345 HD
ENDBRANCH  18  24
ENDBRANCH  16  18
ENDBRANCH   8  16
ENDBRANCH   4   7
ENDBRANCH   2   3
ENDBRANCH   1   2
BRANCH   1  28
ATOM     28  C   UNL A   1      33.504  28.534  27.298  1.00  0.00     0.118 C 
BRANCH  28  29
ATOM     29  N   UNL A   1      33.489  29.969  27.516  1.00  0.00    -0.352 N 
ATOM     30  C   UNL A   1      34.443  30.777  28.086  1.00  0.00     0.251 C 
ATOM     31  H   UNL A   1      32.675  30.431  27.213  1.00  0.00     0.163 HD
ATOM     32  O   UNL A   1      34.145  31.935  28.381  1.00  0.00    -0.269 OA
BRANCH  30  33
ATOM     33  C   UNL A   1      35.804  30.266  28.364  1.00  0.00     0.039 A 
ATOM     34  C   UNL A   1      36.754  30.278  27.340  1.00  0.00     0.014 A 
ATOM     35  C   UNL A   1      36.146  29.757  29.620  1.00  0.00     0.014 A 
ATOM     36  C   UNL A   1      38.058  29.844  27.595  1.00  0.00     0.010 A 
ATOM     37  C   UNL A   1      37.467  29.417  29.899  1.00  0.00     0.010 A 
ATOM     38  C   UNL A   1      38.437  29.445  28.886  1.00  0.00    -0.014 A 
BRANCH  38  39
ATOM     39  C   UNL A   1      39.836  29.048  29.199  1.00  0.00     0.031 A 
ATOM     40  C   UNL A   1      40.781  30.040  29.825  1.00  0.00     0.074 A 
ATOM     41  C   UNL A   1      40.274  27.818  28.863  1.00  0.00     0.049 A 
ATOM     42  N   UNL A   1      42.052  29.903  30.109  1.00  0.00    -0.248 NA
ATOM     43  C   UNL A   1      40.236  31.369  30.152  1.00  0.00     0.031 C 
ATOM     44  C   UNL A   1      39.468  26.778  28.218  1.00  0.00     0.029 A 
ATOM     45  N   UNL A   1      41.508  27.235  29.010  1.00  0.00    -0.354 N 
ATOM     46  C   UNL A   1      42.459  31.128  30.627  1.00  0.00     0.074 A 
ATOM     47  C   UNL A   1      41.316  32.012  30.571  1.00  0.00     0.031 C 
ATOM     48  C   UNL A   1      40.219  25.679  28.050  1.00  0.00     0.029 A 
ATOM     49  C   UNL A   1      41.572  25.948  28.527  1.00  0.00     0.049 A 
ATOM     50  H   UNL A   1      42.275  27.695  29.420  1.00  0.00     0.167 HD
ATOM     51  C   UNL A   1      43.670  31.480  31.122  1.00  0.00     0.031 A 
ATOM     52  C   UNL A   1      42.604  25.084  28.464  1.00  0.00     0.031 A 
ATOM     53  C   UNL A   1      44.802  30.595  31.182  1.00  0.00     0.049 A 
ATOM     54  C   UNL A   1      43.945  25.507  28.998  1.00  0.00     0.074 A 
ATOM     55  C   UNL A   1      46.055  30.838  31.718  1.00  0.00     0.029 A 
ATOM     56  N   UNL A   1      44.823  29.300  30.687  1.00  0.00    -0.354 N 
ATOM     57  N   UNL A   1      44.291  26.646  29.549  1.00  0.00    -0.248 NA
ATOM     58  C   UNL A   1      45.034  24.524  28.911  1.00  0.00     0.031 C 
ATOM     59  C   UNL A   1      46.853  29.712  31.491  1.00  0.00     0.029 A 
ATOM     60  C   UNL A   1      46.077  28.741  30.878  1.00  0.00     0.049 A 
ATOM     61  H   UNL A   1      44.061  28.844  30.264  1.00  0.00     0.167 HD
ATOM     62  C   UNL A   1      45.630  26.506  29.898  1.00  0.00     0.074 A 
ATOM     63  C   UNL A   1      46.025  25.167  29.513  1.00  0.00     0.031 C 
ATOM     64  C   UNL A   1      46.457  27.406  30.488  1.00  0.00     0.031 A 
BRANCH  51  65
ATOM     65  C   UNL A   1      43.834  32.890  31.630  1.00  0.00    -0.014 A 
ATOM     66  C   UNL A   1      43.499  33.232  32.953  1.00  0.00     0.010 A 
ATOM     67  C   UNL A   1      44.373  33.879  30.786  1.00  0.00     0.010 A 
ATOM     68  C   UNL A   1      43.658  34.544  33.409  1.00  0.00     0.020 A 
ATOM     69  C   UNL A   1      44.564  35.185  31.247  1.00  0.00     0.020 A 
ATOM     70  C   UNL A   1      44.189  35.513  32.552  1.00  0.00     0.054 A 
BRANCH  70  71
ATOM     71  S   UNL A   1      44.404  37.201  33.178  1.00  0.00     0.124 S 
ATOM     72  O   UNL A   1      45.859  37.314  33.243  1.00  0.00    -0.237 OA
ATOM     73  O   UNL A   1      43.757  38.009  32.148  1.00  0.00    -0.237 OA
ATOM     74  O   UNL A   1      43.724  37.182  34.471  1.00  0.00    -0.744 OA
ENDBRANCH  70  71
ENDBRANCH  51  65
BRANCH  52  75
ATOM     75  C   UNL A   1      42.405  23.730  27.876  1.00  0.00    -0.014 A 
ATOM     76  C   UNL A   1      42.734  23.479  26.532  1.00  0.00     0.010 A 
ATOM     77  C   UNL A   1      41.899  22.677  28.661  1.00  0.00     0.010 A 
ATOM     78  C   UNL A   1      42.545  22.209  25.979  1.00  0.00     0.020 A 
ATOM     79  C   UNL A   1      41.737  21.398  28.122  1.00  0.00     0.020 A 
ATOM     80  C   UNL A   1      42.051  21.175  26.780  1.00  0.00     0.054 A 
BRANCH  80  81
ATOM     81  S   UNL A   1      41.862  19.523  26.053  1.00  0.00     0.124 S 
ATOM     82  O   UNL A   1      40.427  19.464  25.798  1.00  0.00    -0.237 OA
ATOM     83  O   UNL A   1      42.714  19.601  24.869  1.00  0.00    -0.237 OA
ATOM     84  O   UNL A   1      42.348  18.628  27.102  1.00  0.00    -0.744 OA
ENDBRANCH  80  81
ENDBRANCH  52  75
BRANCH  64  85
ATOM     85  C   UNL A   1      47.865  26.966  30.787  1.00  0.00    -0.014 A 
ATOM     86  C   UNL A   1      48.928  27.275  29.920  1.00  0.00     0.010 A 
ATOM     87  C   UNL A   1      48.139  26.292  31.992  1.00  0.00     0.010 A 
ATOM     88  C   UNL A   1      50.234  26.894  30.240  1.00  0.00     0.020 A 
ATOM     89  C   UNL A   1      49.446  25.937  32.331  1.00  0.00     0.020 A 
ATOM     90  C   UNL A   1      50.485  26.230  31.446  1.00  0.00     0.054 A 
BRANCH  90  91
ATOM     91  S   UNL A   1      52.197  25.797  31.864  1.00  0.00     0.124 S 
ATOM     92  O   UNL A   1      52.860  25.897  30.567  1.00  0.00    -0.237 OA
ATOM     93  O   UNL A   1      52.559  26.826  32.836  1.00  0.00    -0.237 OA
ATOM     94  O   UNL A   1      52.090  24.445  32.408  1.00  0.00    -0.744 OA
ENDBRANCH  90  91
ENDBRANCH  64  85
ENDBRANCH  38  39
ENDBRANCH  30  33
ENDBRANCH  28  29
ENDBRANCH   1  28
TORSDOF 17
ENDMDL
MODEL 2
REMARK VINA RESULT:     -10.5      2.969      7.569
REMARK SMILES C[C@]([NH3+])(C(=O)N1[C@@H](C(=O)NCCCNC(=O)c2ccc(-c3c4nc(c(-c5ccc(S(=O)(=O)[O-])cc5)c5ccc([nH]5)c(-c5ccc(S(=O)(=O)[O-])cc5)c5nc(c(-c6ccc(S(=O)(=O)[O-])cc6)c6ccc3[nH]6)C=C5)C=C4)cc2)C[C@H]2CCCC[C@@H]21)C(F)(F)F
REMARK SMILES IDX 12 1 11 2 10 3 8 4 9 5 7 7 6 8 83 9 77 10 78 11 82 12 79 13
REMARK SMILES IDX 81 14 80 15 4 16 5 17 2 18 1 19 84 20 85 21 86 22 87 23 3 24
REMARK SMILES IDX 13 28 14 29 15 30 16 32 17 33 18 34 76 35 19 36 75 37 20 38
REMARK SMILES IDX 21 39 22 40 69 41 23 42 74 43 68 44 70 45 24 46 73 47 67 48
REMARK SMILES IDX 66 49 25 51 55 52 36 53 54 54 37 55 40 56 53 57 71 58 38 59
REMARK SMILES IDX 39 60 52 62 72 63 41 64 26 65 27 66 35 67 28 68 34 69 29 70
REMARK SMILES IDX 30 71 31 72 32 73 33 74 56 75 57 76 65 77 58 78 64 79 59 80
REMARK SMILES IDX 60 81 61 82 62 83 63 84 42 85 43 86 51 87 44 88 50 89 45 90
REMARK SMILES IDX 46 91 47 92 48 93 49 94
REMARK H PARENT 10 6 3 25 3 26 3 27 14 31 70 50 40 61
REMARK Flexibility Score: inf
ROOT
ATOM      1  C   UNL A   1      36.592  23.283  24.238  1.00  0.00     0.042 C 
ENDROOT
BRANCH   1   2
ATOM      2  C   UNL A   1      35.211  22.714  23.915  1.00  0.00     0.117 C 
BRANCH   2   3
ATOM      3  N   UNL A   1      34.639  23.379  22.758  1.00  0.00    -0.354 N 
ATOM      4  C   UNL A   1      33.752  24.404  22.644  1.00  0.00     0.242 C 
ATOM      5  O   UNL A   1      33.330  24.640  21.507  1.00  0.00    -0.273 OA
ATOM      6  H   UNL A   1      34.951  23.021  21.895  1.00  0.00     0.163 HD
BRANCH   4   7
ATOM      7  C   UNL A   1      33.355  25.282  23.861  1.00  0.00     0.175 C 
ATOM      8  N   UNL A   1      31.963  25.012  24.295  1.00  0.00    -0.322 N 
ATOM      9  C   UNL A   1      31.072  25.925  23.596  1.00  0.00     0.089 C 
ATOM     10  C   UNL A   1      33.313  26.745  23.334  1.00  0.00     0.041 C 
ATOM     11  C   UNL A   1      31.898  27.210  23.657  1.00  0.00     0.014 C 
ATOM     12  C   UNL A   1      29.691  26.203  24.191  1.00  0.00     0.025 C 
ATOM     13  C   UNL A   1      31.287  28.287  22.780  1.00  0.00     0.006 C 
ATOM     14  C   UNL A   1      29.003  27.347  23.434  1.00  0.00     0.002 C 
ATOM     15  C   UNL A   1      29.877  28.599  23.296  1.00  0.00     0.000 C 
BRANCH   8  16
ATOM     16  C   UNL A   1      31.475  23.869  24.907  1.00  0.00     0.294 C 
ATOM     17  O   UNL A   1      30.899  23.022  24.221  1.00  0.00    -0.267 OA
BRANCH  16  18
ATOM     18  C   UNL A   1      31.458  23.793  26.461  1.00  0.00     0.267 C 
ATOM     19  C   UNL A   1      30.193  23.047  26.914  1.00  0.00     0.100 C 
BRANCH  18  20
ATOM     20  C   UNL A   1      32.716  22.980  26.882  1.00  0.00     0.453 C 
ATOM     21  F   UNL A   1      32.905  21.898  26.090  1.00  0.00    -0.164 F 
ATOM     22  F   UNL A   1      33.833  23.747  26.762  1.00  0.00    -0.164 F 
ATOM     23  F   UNL A   1      32.671  22.575  28.170  1.00  0.00    -0.164 F 
ENDBRANCH  18  20
BRANCH  18  24
ATOM     24  N   UNL A   1      31.424  25.144  27.091  1.00  0.00    -0.337 N 
ATOM     25  H   UNL A   1      31.908  25.812  26.490  1.00  0.00     0.345 HD
ATOM     26  H   UNL A   1      31.885  25.108  27.999  1.00  0.00     0.345 HD
ATOM     27  H   UNL A   1      30.454  25.438  27.213  1.00  0.00     0.345 HD
ENDBRANCH  18  24
ENDBRANCH  16  18
ENDBRANCH   8  16
ENDBRANCH   4   7
ENDBRANCH   2   3
ENDBRANCH   1   2
BRANCH   1  28
ATOM     28  C   UNL A   1      37.001  23.140  25.696  1.00  0.00     0.118 C 
BRANCH  28  29
ATOM     29  N   UNL A   1      37.950  22.059  25.901  1.00  0.00    -0.352 N 
ATOM     30  C   UNL A   1      39.264  22.113  26.296  1.00  0.00     0.251 C 
ATOM     31  H   UNL A   1      37.600  21.156  25.732  1.00  0.00     0.163 HD
ATOM     32  O   UNL A   1      39.960  21.102  26.196  1.00  0.00    -0.269 OA
BRANCH  30  33
ATOM     33  C   UNL A   1      39.850  23.370  26.816  1.00  0.00     0.039 A 
ATOM     34  C   UNL A   1      40.513  23.349  28.046  1.00  0.00     0.014 A 
ATOM     35  C   UNL A   1      39.736  24.571  26.111  1.00  0.00     0.014 A 
ATOM     36  C   UNL A   1      41.115  24.514  28.532  1.00  0.00     0.010 A 
ATOM     37  C   UNL A   1      40.417  25.704  26.548  1.00  0.00     0.010 A 
ATOM     38  C   UNL A   1      41.106  25.692  27.770  1.00  0.00    -0.014 A 
BRANCH  38  39
ATOM     39  C   UNL A   1      41.800  26.923  28.232  1.00  0.00     0.031 A 
ATOM     40  C   UNL A   1      41.004  28.093  28.748  1.00  0.00     0.074 A 
ATOM     41  C   UNL A   1      43.142  27.014  28.127  1.00  0.00     0.049 A 
ATOM     42  N   UNL A   1      41.423  29.273  29.131  1.00  0.00    -0.248 NA
ATOM     43  C   UNL A   1      39.542  27.926  28.821  1.00  0.00     0.031 C 
ATOM     44  C   UNL A   1      44.024  25.965  27.608  1.00  0.00     0.029 A 
ATOM     45  N   UNL A   1      43.999  28.039  28.444  1.00  0.00    -0.354 N 
ATOM     46  C   UNL A   1      40.281  29.990  29.469  1.00  0.00     0.074 A 
ATOM     47  C   UNL A   1      39.149  29.134  29.198  1.00  0.00     0.031 C 
ATOM     48  C   UNL A   1      45.296  26.390  27.669  1.00  0.00     0.029 A 
ATOM     49  C   UNL A   1      45.319  27.756  28.181  1.00  0.00     0.049 A 
ATOM     50  H   UNL A   1      43.696  28.895  28.824  1.00  0.00     0.167 HD
ATOM     51  C   UNL A   1      40.185  31.242  29.977  1.00  0.00     0.031 A 
ATOM     52  C   UNL A   1      46.424  28.513  28.324  1.00  0.00     0.031 A 
ATOM     53  C   UNL A   1      41.316  32.088  30.252  1.00  0.00     0.049 A 
ATOM     54  C   UNL A   1      46.289  29.910  28.867  1.00  0.00     0.074 A 
ATOM     55  C   UNL A   1      41.326  33.350  30.820  1.00  0.00     0.029 A 
ATOM     56  N   UNL A   1      42.635  31.763  29.975  1.00  0.00    -0.354 N 
ATOM     57  N   UNL A   1      45.206  30.545  29.248  1.00  0.00    -0.248 NA
ATOM     58  C   UNL A   1      47.527  30.690  29.010  1.00  0.00     0.031 C 
ATOM     59  C   UNL A   1      42.646  33.813  30.829  1.00  0.00     0.029 A 
ATOM     60  C   UNL A   1      43.466  32.812  30.332  1.00  0.00     0.049 A 
ATOM     61  H   UNL A   1      42.937  30.912  29.583  1.00  0.00     0.167 HD
ATOM     62  C   UNL A   1      45.635  31.788  29.700  1.00  0.00     0.074 A 
ATOM     63  C   UNL A   1      47.077  31.808  29.562  1.00  0.00     0.031 C 
ATOM     64  C   UNL A   1      44.900  32.819  30.188  1.00  0.00     0.031 A 
BRANCH  51  65
ATOM     65  C   UNL A   1      38.804  31.777  30.260  1.00  0.00    -0.014 A 
ATOM     66  C   UNL A   1      38.151  31.503  31.476  1.00  0.00     0.010 A 
ATOM     67  C   UNL A   1      38.167  32.604  29.316  1.00  0.00     0.010 A 
ATOM     68  C   UNL A   1      36.871  32.007  31.723  1.00  0.00     0.020 A 
ATOM     69  C   UNL A   1      36.901  33.137  29.572  1.00  0.00     0.020 A 
ATOM     70  C   UNL A   1      36.253  32.820  30.768  1.00  0.00     0.054 A 
BRANCH  70  71
ATOM     71  S   UNL A   1      34.602  33.478  31.127  1.00  0.00     0.124 S 
ATOM     72  O   UNL A   1      34.113  32.535  32.130  1.00  0.00    -0.237 OA
ATOM     73  O   UNL A   1      34.893  34.822  31.618  1.00  0.00    -0.237 OA
ATOM     74  O   UNL A   1      33.917  33.425  29.837  1.00  0.00    -0.744 OA
ENDBRANCH  70  71
ENDBRANCH  51  65
BRANCH  52  75
ATOM     75  C   UNL A   1      47.757  27.962  27.951  1.00  0.00    -0.014 A 
ATOM     76  C   UNL A   1      48.561  27.324  28.913  1.00  0.00     0.010 A 
ATOM     77  C   UNL A   1      48.225  28.058  26.627  1.00  0.00     0.010 A 
ATOM     78  C   UNL A   1      49.813  26.810  28.563  1.00  0.00     0.020 A 
ATOM     79  C   UNL A   1      49.463  27.518  26.266  1.00  0.00     0.020 A 
ATOM     80  C   UNL A   1      50.255  26.907  27.241  1.00  0.00     0.054 A 
BRANCH  80  81
ATOM     81  S   UNL A   1      51.861  26.186  26.802  1.00  0.00     0.124 S 
ATOM     82  O   UNL A   1      51.495  24.818  26.451  1.00  0.00    -0.237 OA
ATOM     83  O   UNL A   1      52.292  27.031  25.691  1.00  0.00    -0.237 OA
ATOM     84  O   UNL A   1      52.648  26.330  28.025  1.00  0.00    -0.744 OA
ENDBRANCH  80  81
ENDBRANCH  52  75
BRANCH  64  85
ATOM     85  C   UNL A   1      45.641  34.048  30.644  1.00  0.00    -0.014 A 
ATOM     86  C   UNL A   1      46.139  34.158  31.955  1.00  0.00     0.010 A 
ATOM     87  C   UNL A   1      45.904  35.079  29.723  1.00  0.00     0.010 A 
ATOM     88  C   UNL A   1      46.861  35.290  32.343  1.00  0.00     0.020 A 
ATOM     89  C   UNL A   1      46.652  36.198  30.098  1.00  0.00     0.020 A 
ATOM     90  C   UNL A   1      47.116  36.301  31.410  1.00  0.00     0.054 A 
BRANCH  90  91
ATOM     91  S   UNL A   1      48.105  37.733  31.924  1.00  0.00     0.124 S 
ATOM     92  O   UNL A   1      47.802  37.815  33.350  1.00  0.00    -0.237 OA
ATOM     93  O   UNL A   1      49.465  37.316  31.594  1.00  0.00    -0.237 OA
ATOM     94  O   UNL A   1      47.580  38.827  31.111  1.00  0.00    -0.744 OA
ENDBRANCH  90  91
ENDBRANCH  64  85
ENDBRANCH  38  39
ENDBRANCH  30  33
ENDBRANCH  28  29
ENDBRANCH   1  28
TORSDOF 17
ENDMDL
MODEL 3
REMARK VINA RESULT:     -10.5      3.144      8.909
REMARK SMILES C[C@]([NH3+])(C(=O)N1[C@@H](C(=O)NCCCNC(=O)c2ccc(-c3c4nc(c(-c5ccc(S(=O)(=O)[O-])cc5)c5ccc([nH]5)c(-c5ccc(S(=O)(=O)[O-])cc5)c5nc(c(-c6ccc(S(=O)(=O)[O-])cc6)c6ccc3[nH]6)C=C5)C=C4)cc2)C[C@H]2CCCC[C@@H]21)C(F)(F)F
REMARK SMILES IDX 12 1 11 2 10 3 8 4 9 5 7 7 6 8 83 9 77 10 78 11 82 12 79 13
REMARK SMILES IDX 81 14 80 15 4 16 5 17 2 18 1 19 84 20 85 21 86 22 87 23 3 24
REMARK SMILES IDX 13 28 14 29 15 30 16 32 17 33 18 34 76 35 19 36 75 37 20 38
REMARK SMILES IDX 21 39 22 40 69 41 23 42 74 43 68 44 70 45 24 46 73 47 67 48
REMARK SMILES IDX 66 49 25 51 55 52 36 53 54 54 37 55 40 56 53 57 71 58 38 59
REMARK SMILES IDX 39 60 52 62 72 63 41 64 26 65 27 66 35 67 28 68 34 69 29 70
REMARK SMILES IDX 30 71 31 72 32 73 33 74 56 75 57 76 65 77 58 78 64 79 59 80
REMARK SMILES IDX 60 81 61 82 62 83 63 84 42 85 43 86 51 87 44 88 50 89 45 90
REMARK SMILES IDX 46 91 47 92 48 93 49 94
REMARK H PARENT 10 6 3 25 3 26 3 27 14 31 70 50 40 61
REMARK Flexibility Score: inf
ROOT
ATOM      1  C   UNL A   1      36.651  23.576  24.438  1.00  0.00     0.042 C 
ENDROOT
BRANCH   1   2
ATOM      2  C   UNL A   1      35.364  22.871  24.013  1.00  0.00     0.117 C 
BRANCH   2   3
ATOM      3  N   UNL A   1      34.783  23.517  22.850  1.00  0.00    -0.354 N 
ATOM      4  C   UNL A   1      33.862  24.511  22.727  1.00  0.00     0.242 C 
ATOM      5  O   UNL A   1      33.445  24.734  21.585  1.00  0.00    -0.273 OA
ATOM      6  H   UNL A   1      35.117  23.171  21.990  1.00  0.00     0.163 HD
BRANCH   4   7
ATOM      7  C   UNL A   1      33.420  25.372  23.940  1.00  0.00     0.175 C 
ATOM      8  N   UNL A   1      32.012  25.101  24.315  1.00  0.00    -0.322 N 
ATOM      9  C   UNL A   1      31.151  26.026  23.596  1.00  0.00     0.089 C 
ATOM     10  C   UNL A   1      33.402  26.842  23.433  1.00  0.00     0.041 C 
ATOM     11  C   UNL A   1      31.977  27.308  23.707  1.00  0.00     0.014 C 
ATOM     12  C   UNL A   1      29.749  26.300  24.141  1.00  0.00     0.025 C 
ATOM     13  C   UNL A   1      31.404  28.399  22.823  1.00  0.00     0.006 C 
ATOM     14  C   UNL A   1      29.094  27.458  23.373  1.00  0.00     0.002 C 
ATOM     15  C   UNL A   1      29.976  28.709  23.288  1.00  0.00     0.000 C 
BRANCH   8  16
ATOM     16  C   UNL A   1      31.498  23.951  24.892  1.00  0.00     0.294 C 
ATOM     17  O   UNL A   1      30.897  23.142  24.181  1.00  0.00    -0.267 OA
BRANCH  16  18
ATOM     18  C   UNL A   1      31.485  23.824  26.442  1.00  0.00     0.267 C 
ATOM     19  C   UNL A   1      30.213  23.078  26.875  1.00  0.00     0.100 C 
BRANCH  18  20
ATOM     20  C   UNL A   1      32.734  22.982  26.832  1.00  0.00     0.453 C 
ATOM     21  F   UNL A   1      33.857  23.738  26.877  1.00  0.00    -0.164 F 
ATOM     22  F   UNL A   1      32.575  22.452  28.075  1.00  0.00    -0.164 F 
ATOM     23  F   UNL A   1      32.944  21.939  25.999  1.00  0.00    -0.164 F 
ENDBRANCH  18  20
BRANCH  18  24
ATOM     24  N   UNL A   1      31.469  25.153  27.117  1.00  0.00    -0.337 N 
ATOM     25  H   UNL A   1      31.866  25.064  28.052  1.00  0.00     0.345 HD
ATOM     26  H   UNL A   1      30.508  25.488  27.186  1.00  0.00     0.345 HD
ATOM     27  H   UNL A   1      32.022  25.817  26.574  1.00  0.00     0.345 HD
ENDBRANCH  18  24
ENDBRANCH  16  18
ENDBRANCH   8  16
ENDBRANCH   4   7
ENDBRANCH   2   3
ENDBRANCH   1   2
BRANCH   1  28
ATOM     28  C   UNL A   1      37.008  23.395  25.905  1.00  0.00     0.118 C 
BRANCH  28  29
ATOM     29  N   UNL A   1      37.874  22.251  26.127  1.00  0.00    -0.352 N 
ATOM     30  C   UNL A   1      39.215  22.213  26.422  1.00  0.00     0.251 C 
ATOM     31  H   UNL A   1      37.437  21.373  26.054  1.00  0.00     0.163 HD
ATOM     32  O   UNL A   1      39.812  21.138  26.352  1.00  0.00    -0.269 OA
BRANCH  30  33
ATOM     33  C   UNL A   1      39.945  23.445  26.798  1.00  0.00     0.039 A 
ATOM     34  C   UNL A   1      39.902  24.547  25.940  1.00  0.00     0.014 A 
ATOM     35  C   UNL A   1      40.687  23.518  27.981  1.00  0.00     0.014 A 
ATOM     36  C   UNL A   1      40.545  25.735  26.299  1.00  0.00     0.010 A 
ATOM     37  C   UNL A   1      41.244  24.729  28.382  1.00  0.00     0.010 A 
ATOM     38  C   UNL A   1      41.190  25.850  27.540  1.00  0.00    -0.014 A 
BRANCH  38  39
ATOM     39  C   UNL A   1      41.818  27.125  27.976  1.00  0.00     0.031 A 
ATOM     40  C   UNL A   1      43.299  27.338  27.799  1.00  0.00     0.074 A 
ATOM     41  C   UNL A   1      41.070  28.065  28.588  1.00  0.00     0.049 A 
ATOM     42  N   UNL A   1      44.038  28.350  28.176  1.00  0.00    -0.248 NA
ATOM     43  C   UNL A   1      44.054  26.262  27.135  1.00  0.00     0.031 C 
ATOM     44  C   UNL A   1      39.632  27.964  28.853  1.00  0.00     0.029 A 
ATOM     45  N   UNL A   1      41.415  29.288  29.106  1.00  0.00    -0.354 N 
ATOM     46  C   UNL A   1      45.341  28.025  27.814  1.00  0.00     0.074 A 
ATOM     47  C   UNL A   1      45.300  26.701  27.235  1.00  0.00     0.031 C 
ATOM     48  C   UNL A   1      39.216  29.087  29.458  1.00  0.00     0.029 A 
ATOM     49  C   UNL A   1      40.360  29.967  29.670  1.00  0.00     0.049 A 
ATOM     50  H   UNL A   1      42.333  29.645  29.078  1.00  0.00     0.167 HD
ATOM     51  C   UNL A   1      46.467  28.768  27.935  1.00  0.00     0.031 A 
ATOM     52  C   UNL A   1      40.317  31.158  30.299  1.00  0.00     0.031 A 
ATOM     53  C   UNL A   1      46.500  30.089  28.506  1.00  0.00     0.049 A 
ATOM     54  C   UNL A   1      41.585  31.955  30.443  1.00  0.00     0.074 A 
ATOM     55  C   UNL A   1      47.581  30.947  28.622  1.00  0.00     0.029 A 
ATOM     56  N   UNL A   1      45.410  30.741  29.061  1.00  0.00    -0.354 N 
ATOM     57  N   UNL A   1      42.795  31.661  30.029  1.00  0.00    -0.248 NA
ATOM     58  C   UNL A   1      41.482  33.251  31.129  1.00  0.00     0.031 C 
ATOM     59  C   UNL A   1      47.156  32.092  29.303  1.00  0.00     0.029 A 
ATOM     60  C   UNL A   1      45.797  31.978  29.548  1.00  0.00     0.049 A 
ATOM     61  H   UNL A   1      44.496  30.379  29.102  1.00  0.00     0.167 HD
ATOM     62  C   UNL A   1      43.591  32.746  30.382  1.00  0.00     0.074 A 
ATOM     63  C   UNL A   1      42.721  33.709  31.026  1.00  0.00     0.031 C 
ATOM     64  C   UNL A   1      44.921  32.928  30.188  1.00  0.00     0.031 A 
BRANCH  51  65
ATOM     65  C   UNL A   1      47.759  28.165  27.448  1.00  0.00    -0.014 A 
ATOM     66  C   UNL A   1      48.631  27.499  28.330  1.00  0.00     0.010 A 
ATOM     67  C   UNL A   1      48.088  28.224  26.081  1.00  0.00     0.010 A 
ATOM     68  C   UNL A   1      49.826  26.944  27.863  1.00  0.00     0.020 A 
ATOM     69  C   UNL A   1      49.266  27.642  25.604  1.00  0.00     0.020 A 
ATOM     70  C   UNL A   1      50.137  27.021  26.502  1.00  0.00     0.054 A 
BRANCH  70  71
ATOM     71  S   UNL A   1      51.683  26.271  25.923  1.00  0.00     0.124 S 
ATOM     72  O   UNL A   1      51.589  26.465  24.478  1.00  0.00    -0.237 OA
ATOM     73  O   UNL A   1      52.700  27.073  26.599  1.00  0.00    -0.237 OA
ATOM     74  O   UNL A   1      51.587  24.884  26.371  1.00  0.00    -0.744 OA
ENDBRANCH  70  71
ENDBRANCH  51  65
BRANCH  52  75
ATOM     75  C   UNL A   1      39.025  31.671  30.834  1.00  0.00    -0.014 A 
ATOM     76  C   UNL A   1      38.619  31.356  32.143  1.00  0.00     0.010 A 
ATOM     77  C   UNL A   1      38.199  32.491  30.043  1.00  0.00     0.010 A 
ATOM     78  C   UNL A   1      37.405  31.835  32.644  1.00  0.00     0.020 A 
ATOM     79  C   UNL A   1      36.999  32.997  30.550  1.00  0.00     0.020 A 
ATOM     80  C   UNL A   1      36.604  32.656  31.845  1.00  0.00     0.054 A 
BRANCH  80  81
ATOM     81  S   UNL A   1      35.058  33.307  32.537  1.00  0.00     0.124 S 
ATOM     82  O   UNL A   1      35.150  34.725  32.208  1.00  0.00    -0.237 OA
ATOM     83  O   UNL A   1      34.044  32.551  31.806  1.00  0.00    -0.237 OA
ATOM     84  O   UNL A   1      35.156  32.987  33.960  1.00  0.00    -0.744 OA
ENDBRANCH  80  81
ENDBRANCH  52  75
BRANCH  64  85
ATOM     85  C   UNL A   1      45.519  34.232  30.644  1.00  0.00    -0.014 A 
ATOM     86  C   UNL A   1      46.083  34.370  31.925  1.00  0.00     0.010 A 
ATOM     87  C   UNL A   1      45.580  35.317  29.749  1.00  0.00     0.010 A 
ATOM     88  C   UNL A   1      46.671  35.577  32.311  1.00  0.00     0.020 A 
ATOM     89  C   UNL A   1      46.195  36.515  30.120  1.00  0.00     0.020 A 
ATOM     90  C   UNL A   1      46.727  36.641  31.404  1.00  0.00     0.054 A 
BRANCH  90  91
ATOM     91  S   UNL A   1      47.547  38.178  31.911  1.00  0.00     0.124 S 
ATOM     92  O   UNL A   1      47.146  39.100  30.853  1.00  0.00    -0.237 OA
ATOM     93  O   UNL A   1      46.961  38.435  33.225  1.00  0.00    -0.237 OA
ATOM     94  O   UNL A   1      48.965  37.825  31.927  1.00  0.00    -0.744 OA
ENDBRANCH  90  91
ENDBRANCH  64  85
ENDBRANCH  38  39
ENDBRANCH  30  33
ENDBRANCH  28  29
ENDBRANCH   1  28
TORSDOF 17
ENDMDL
