MODEL 1
REMARK VINA RESULT:     -12.6      0.000      0.000
REMARK SMILES C=CCN1C(=O)/C(=C/c2ccccn2)S/C1=[NH+]\c1ccc(C(=O)NCCCNC(=O)c2ccc(-c3c4nc(c(-c5ccc(S(=O)(=O)[O-])cc5)c5ccc([nH]5)c(-c5ccc(S(=O)(=O)[O-])cc5)c5nc(c(-c6ccc(S(=O)(=O)[O-])cc6)c6ccc3[nH]6)C=C5)C=C4)cc2)cc1
REMARK SMILES IDX 26 1 25 2 24 3 22 4 23 5 21 7 18 8 19 9 92 10 20 11 91 12
REMARK SMILES IDX 17 13 4 14 5 15 16 16 6 17 7 18 15 19 8 20 3 22 2 23 1 24
REMARK SMILES IDX 9 25 10 26 14 27 11 28 13 29 12 30 27 31 28 32 29 33 30 35
REMARK SMILES IDX 31 36 32 37 90 38 33 39 89 40 34 41 35 42 36 43 83 44 37 45
REMARK SMILES IDX 88 46 82 47 84 48 38 49 87 50 81 51 80 52 39 54 69 55 50 56
REMARK SMILES IDX 68 57 51 58 54 59 67 60 85 61 52 62 53 63 66 65 86 66 55 67
REMARK SMILES IDX 40 68 41 69 49 70 42 71 48 72 43 73 44 74 45 75 46 76 47 77
REMARK SMILES IDX 70 78 71 79 79 80 72 81 78 82 73 83 74 84 75 85 76 86 77 87
REMARK SMILES IDX 56 88 57 89 65 90 58 91 64 92 59 93 60 94 61 95 62 96 63 97
REMARK H PARENT 24 6 17 21 28 34 84 53 54 64
REMARK Flexibility Score: inf
ROOT
ATOM      1  C   UNL A   1      43.850  23.152  26.477  1.00  0.00     0.042 C 
ENDROOT
BRANCH   1   2
ATOM      2  C   UNL A   1      42.767  22.298  25.820  1.00  0.00     0.118 C 
BRANCH   2   3
ATOM      3  N   UNL A   1      42.277  21.280  26.732  1.00  0.00    -0.352 N 
ATOM      4  C   UNL A   1      41.008  20.878  27.060  1.00  0.00     0.251 C 
ATOM      5  O   UNL A   1      40.886  19.911  27.813  1.00  0.00    -0.269 OA
ATOM      6  H   UNL A   1      42.988  20.786  27.201  1.00  0.00     0.163 HD
BRANCH   4   7
ATOM      7  C   UNL A   1      39.786  21.520  26.503  1.00  0.00     0.040 A 
ATOM      8  C   UNL A   1      37.461  22.836  25.603  1.00  0.00     0.125 A 
ATOM      9  C   UNL A   1      38.306  23.455  26.523  1.00  0.00     0.052 A 
ATOM     10  C   UNL A   1      37.829  21.596  25.076  1.00  0.00     0.052 A 
ATOM     11  C   UNL A   1      39.457  22.800  26.974  1.00  0.00     0.018 A 
ATOM     12  C   UNL A   1      38.986  20.947  25.513  1.00  0.00     0.018 A 
BRANCH   8  13
ATOM     13  N   UNL A   1      36.308  23.486  25.146  1.00  0.00    -0.234 N 
ATOM     14  N   UNL A   1      34.139  23.391  24.289  1.00  0.00    -0.182 N 
ATOM     15  C   UNL A   1      33.103  22.553  23.937  1.00  0.00     0.349 C 
ATOM     16  C   UNL A   1      35.248  22.808  24.846  1.00  0.00     0.324 C 
ATOM     17  O   UNL A   1      32.025  22.886  23.455  1.00  0.00    -0.240 OA
ATOM     18  C   UNL A   1      33.453  21.146  24.267  1.00  0.00     0.111 C 
ATOM     19  S   UNL A   1      34.981  21.091  25.055  1.00  0.00     0.007 SA
ATOM     20  C   UNL A   1      32.658  20.116  23.948  1.00  0.00     0.052 C 
ATOM     21  H   UNL A   1      36.305  24.466  25.051  1.00  0.00     0.313 HD
BRANCH  14  22
ATOM     22  C   UNL A   1      34.048  24.820  24.063  1.00  0.00     0.275 C 
BRANCH  22  23
ATOM     23  C   UNL A   1      33.827  25.517  25.375  1.00  0.00     0.011 C 
ATOM     24  C   UNL A   1      33.644  26.838  25.502  1.00  0.00     0.008 C 
ENDBRANCH  22  23
ENDBRANCH  14  22
BRANCH  20  25
ATOM     25  C   UNL A   1      32.912  18.715  24.276  1.00  0.00     0.064 A 
ATOM     26  C   UNL A   1      33.576  17.870  23.390  1.00  0.00     0.028 A 
ATOM     27  N   UNL A   1      32.499  18.318  25.499  1.00  0.00    -0.257 NA
ATOM     28  C   UNL A   1      33.786  16.546  23.759  1.00  0.00     0.004 A 
ATOM     29  C   UNL A   1      32.708  17.023  25.826  1.00  0.00     0.111 A 
ATOM     30  C   UNL A   1      33.336  16.107  24.998  1.00  0.00     0.020 A 
ENDBRANCH  20  25
ENDBRANCH   8  13
ENDBRANCH   4   7
ENDBRANCH   2   3
ENDBRANCH   1   2
BRANCH   1  31
ATOM     31  C   UNL A   1      43.498  24.636  26.526  1.00  0.00     0.118 C 
BRANCH  31  32
ATOM     32  N   UNL A   1      42.443  24.974  25.580  1.00  0.00    -0.352 N 
ATOM     33  C   UNL A   1      41.318  25.738  25.754  1.00  0.00     0.251 C 
ATOM     34  H   UNL A   1      42.556  24.596  24.678  1.00  0.00     0.163 HD
ATOM     35  O   UNL A   1      40.429  25.699  24.907  1.00  0.00    -0.269 OA
BRANCH  33  36
ATOM     36  C   UNL A   1      41.171  26.600  26.947  1.00  0.00     0.039 A 
ATOM     37  C   UNL A   1      41.836  27.829  26.979  1.00  0.00     0.014 A 
ATOM     38  C   UNL A   1      40.418  26.183  28.048  1.00  0.00     0.014 A 
ATOM     39  C   UNL A   1      41.712  28.655  28.098  1.00  0.00     0.010 A 
ATOM     40  C   UNL A   1      40.228  27.042  29.125  1.00  0.00     0.010 A 
ATOM     41  C   UNL A   1      40.887  28.279  29.171  1.00  0.00    -0.014 A 
BRANCH  41  42
ATOM     42  C   UNL A   1      40.716  29.155  30.357  1.00  0.00     0.031 A 
ATOM     43  C   UNL A   1      41.614  28.988  31.555  1.00  0.00     0.074 A 
ATOM     44  C   UNL A   1      39.721  30.064  30.379  1.00  0.00     0.049 A 
ATOM     45  N   UNL A   1      41.591  29.623  32.699  1.00  0.00    -0.248 NA
ATOM     46  C   UNL A   1      42.658  27.953  31.465  1.00  0.00     0.031 C 
ATOM     47  C   UNL A   1      38.767  30.299  29.292  1.00  0.00     0.029 A 
ATOM     48  N   UNL A   1      39.345  30.956  31.350  1.00  0.00    -0.354 N 
ATOM     49  C   UNL A   1      42.601  29.055  33.467  1.00  0.00     0.074 A 
ATOM     50  C   UNL A   1      43.177  27.986  32.682  1.00  0.00     0.031 C 
ATOM     51  C   UNL A   1      37.941  31.297  29.643  1.00  0.00     0.029 A 
ATOM     52  C   UNL A   1      38.272  31.739  30.994  1.00  0.00     0.049 A 
ATOM     53  H   UNL A   1      39.802  31.030  32.219  1.00  0.00     0.167 HD
ATOM     54  C   UNL A   1      43.027  29.406  34.705  1.00  0.00     0.031 A 
ATOM     55  C   UNL A   1      37.625  32.700  31.679  1.00  0.00     0.031 A 
ATOM     56  C   UNL A   1      42.446  30.469  35.481  1.00  0.00     0.049 A 
ATOM     57  C   UNL A   1      38.095  33.055  33.063  1.00  0.00     0.074 A 
ATOM     58  C   UNL A   1      42.828  30.933  36.728  1.00  0.00     0.029 A 
ATOM     59  N   UNL A   1      41.356  31.232  35.088  1.00  0.00    -0.354 N 
ATOM     60  N   UNL A   1      39.089  32.545  33.751  1.00  0.00    -0.248 NA
ATOM     61  C   UNL A   1      37.365  34.124  33.756  1.00  0.00     0.031 C 
ATOM     62  C   UNL A   1      41.931  31.935  37.114  1.00  0.00     0.029 A 
ATOM     63  C   UNL A   1      41.036  32.147  36.076  1.00  0.00     0.049 A 
ATOM     64  H   UNL A   1      40.880  31.137  34.231  1.00  0.00     0.167 HD
ATOM     65  C   UNL A   1      39.126  33.257  34.946  1.00  0.00     0.074 A 
ATOM     66  C   UNL A   1      38.061  34.238  34.879  1.00  0.00     0.031 C 
ATOM     67  C   UNL A   1      39.971  33.116  35.997  1.00  0.00     0.031 A 
BRANCH  54  68
ATOM     68  C   UNL A   1      44.167  28.613  35.295  1.00  0.00    -0.014 A 
ATOM     69  C   UNL A   1      43.932  27.459  36.065  1.00  0.00     0.010 A 
ATOM     70  C   UNL A   1      45.494  29.022  35.069  1.00  0.00     0.010 A 
ATOM     71  C   UNL A   1      44.997  26.763  36.646  1.00  0.00     0.020 A 
ATOM     72  C   UNL A   1      46.565  28.309  35.620  1.00  0.00     0.020 A 
ATOM     73  C   UNL A   1      46.306  27.198  36.425  1.00  0.00     0.054 A 
BRANCH  73  74
ATOM     74  S   UNL A   1      47.667  26.279  37.195  1.00  0.00     0.124 S 
ATOM     75  O   UNL A   1      47.003  25.043  37.600  1.00  0.00    -0.237 OA
ATOM     76  O   UNL A   1      48.625  26.147  36.100  1.00  0.00    -0.237 OA
ATOM     77  O   UNL A   1      48.094  27.144  38.293  1.00  0.00    -0.744 OA
ENDBRANCH  73  74
ENDBRANCH  54  68
BRANCH  55  78
ATOM     78  C   UNL A   1      36.482  33.417  31.047  1.00  0.00    -0.014 A 
ATOM     79  C   UNL A   1      35.416  33.888  31.834  1.00  0.00     0.010 A 
ATOM     80  C   UNL A   1      36.468  33.659  29.662  1.00  0.00     0.010 A 
ATOM     81  C   UNL A   1      34.353  34.579  31.246  1.00  0.00     0.020 A 
ATOM     82  C   UNL A   1      35.421  34.376  29.074  1.00  0.00     0.020 A 
ATOM     83  C   UNL A   1      34.365  34.825  29.870  1.00  0.00     0.054 A 
BRANCH  83  84
ATOM     84  S   UNL A   1      33.005  35.780  29.142  1.00  0.00     0.124 S 
ATOM     85  O   UNL A   1      33.704  36.944  28.606  1.00  0.00    -0.237 OA
ATOM     86  O   UNL A   1      32.466  34.852  28.151  1.00  0.00    -0.237 OA
ATOM     87  O   UNL A   1      32.126  36.045  30.279  1.00  0.00    -0.744 OA
ENDBRANCH  83  84
ENDBRANCH  55  78
BRANCH  67  88
ATOM     88  C   UNL A   1      39.812  34.076  37.148  1.00  0.00    -0.014 A 
ATOM     89  C   UNL A   1      40.461  35.324  37.163  1.00  0.00     0.010 A 
ATOM     90  C   UNL A   1      38.952  33.739  38.211  1.00  0.00     0.010 A 
ATOM     91  C   UNL A   1      40.282  36.199  38.238  1.00  0.00     0.020 A 
ATOM     92  C   UNL A   1      38.745  34.625  39.270  1.00  0.00     0.020 A 
ATOM     93  C   UNL A   1      39.424  35.844  39.284  1.00  0.00     0.054 A 
BRANCH  93  94
ATOM     94  S   UNL A   1      39.178  37.016  40.647  1.00  0.00     0.124 S 
ATOM     95  O   UNL A   1      38.242  37.971  40.062  1.00  0.00    -0.237 OA
ATOM     96  O   UNL A   1      38.632  36.166  41.703  1.00  0.00    -0.237 OA
ATOM     97  O   UNL A   1      40.519  37.535  40.906  1.00  0.00    -0.744 OA
ENDBRANCH  93  94
ENDBRANCH  67  88
ENDBRANCH  41  42
ENDBRANCH  33  36
ENDBRANCH  31  32
ENDBRANCH   1  31
TORSDOF 17
ENDMDL
MODEL 2
REMARK VINA RESULT:     -12.5      5.879     12.745
REMARK SMILES C=CCN1C(=O)/C(=C/c2ccccn2)S/C1=[NH+]\c1ccc(C(=O)NCCCNC(=O)c2ccc(-c3c4nc(c(-c5ccc(S(=O)(=O)[O-])cc5)c5ccc([nH]5)c(-c5ccc(S(=O)(=O)[O-])cc5)c5nc(c(-c6ccc(S(=O)(=O)[O-])cc6)c6ccc3[nH]6)C=C5)C=C4)cc2)cc1
REMARK SMILES IDX 26 1 25 2 24 3 22 4 23 5 21 7 18 8 19 9 92 10 20 11 91 12
REMARK SMILES IDX 17 13 4 14 5 15 16 16 6 17 7 18 15 19 8 20 3 22 2 23 1 24
REMARK SMILES IDX 9 25 10 26 14 27 11 28 13 29 12 30 27 31 28 32 29 33 30 35
REMARK SMILES IDX 31 36 32 37 90 38 33 39 89 40 34 41 35 42 36 43 83 44 37 45
REMARK SMILES IDX 88 46 82 47 84 48 38 49 87 50 81 51 80 52 39 54 69 55 50 56
REMARK SMILES IDX 68 57 51 58 54 59 67 60 85 61 52 62 53 63 66 65 86 66 55 67
REMARK SMILES IDX 40 68 41 69 49 70 42 71 48 72 43 73 44 74 45 75 46 76 47 77
REMARK SMILES IDX 70 78 71 79 79 80 72 81 78 82 73 83 74 84 75 85 76 86 77 87
REMARK SMILES IDX 56 88 57 89 65 90 58 91 64 92 59 93 60 94 61 95 62 96 63 97
REMARK H PARENT 24 6 17 21 28 34 84 53 54 64
REMARK Flexibility Score: inf
ROOT
ATOM      1  C   UNL A   1      36.843  33.582  30.986  1.00  0.00     0.042 C 
ENDROOT
BRANCH   1   2
ATOM      2  C   UNL A   1      35.365  33.528  30.606  1.00  0.00     0.118 C 
BRANCH   2   3
ATOM      3  N   UNL A   1      35.104  34.299  29.403  1.00  0.00    -0.352 N 
ATOM      4  C   UNL A   1      34.617  33.941  28.172  1.00  0.00     0.251 C 
ATOM      5  O   UNL A   1      34.411  34.834  27.351  1.00  0.00    -0.269 OA
ATOM      6  H   UNL A   1      35.314  35.258  29.488  1.00  0.00     0.163 HD
BRANCH   4   7
ATOM      7  C   UNL A   1      34.278  32.537  27.813  1.00  0.00     0.040 A 
ATOM      8  C   UNL A   1      33.804  29.861  27.060  1.00  0.00     0.125 A 
ATOM      9  C   UNL A   1      35.105  30.303  27.299  1.00  0.00     0.052 A 
ATOM     10  C   UNL A   1      32.741  30.740  27.281  1.00  0.00     0.052 A 
ATOM     11  C   UNL A   1      35.340  31.632  27.668  1.00  0.00     0.018 A 
ATOM     12  C   UNL A   1      32.973  32.063  27.664  1.00  0.00     0.018 A 
BRANCH   8  13
ATOM     13  N   UNL A   1      33.560  28.532  26.693  1.00  0.00    -0.234 N 
ATOM     14  N   UNL A   1      32.303  26.960  25.512  1.00  0.00    -0.182 N 
ATOM     15  C   UNL A   1      31.264  26.786  24.623  1.00  0.00     0.349 C 
ATOM     16  C   UNL A   1      32.652  28.250  25.816  1.00  0.00     0.324 C 
ATOM     17  O   UNL A   1      30.829  25.717  24.208  1.00  0.00    -0.240 OA
ATOM     18  C   UNL A   1      30.748  28.109  24.181  1.00  0.00     0.111 C 
ATOM     19  S   UNL A   1      31.698  29.368  24.865  1.00  0.00     0.007 SA
ATOM     20  C   UNL A   1      29.679  28.230  23.381  1.00  0.00     0.052 C 
ATOM     21  H   UNL A   1      34.083  27.808  27.106  1.00  0.00     0.313 HD
BRANCH  14  22
ATOM     22  C   UNL A   1      32.977  25.818  26.098  1.00  0.00     0.275 C 
BRANCH  22  23
ATOM     23  C   UNL A   1      34.159  25.449  25.248  1.00  0.00     0.011 C 
ATOM     24  C   UNL A   1      34.892  24.342  25.423  1.00  0.00     0.008 C 
ENDBRANCH  22  23
ENDBRANCH  14  22
BRANCH  20  25
ATOM     25  C   UNL A   1      29.141  29.489  22.871  1.00  0.00     0.064 A 
ATOM     26  C   UNL A   1      28.292  30.281  23.640  1.00  0.00     0.028 A 
ATOM     27  N   UNL A   1      29.554  29.841  21.634  1.00  0.00    -0.257 NA
ATOM     28  C   UNL A   1      27.810  31.467  23.098  1.00  0.00     0.004 A 
ATOM     29  C   UNL A   1      29.061  30.995  21.129  1.00  0.00     0.111 A 
ATOM     30  C   UNL A   1      28.193  31.830  21.812  1.00  0.00     0.020 A 
ENDBRANCH  20  25
ENDBRANCH   8  13
ENDBRANCH   4   7
ENDBRANCH   2   3
ENDBRANCH   1   2
BRANCH   1  31
ATOM     31  C   UNL A   1      37.315  32.346  31.745  1.00  0.00     0.118 C 
BRANCH  31  32
ATOM     32  N   UNL A   1      36.411  31.219  31.558  1.00  0.00    -0.352 N 
ATOM     33  C   UNL A   1      36.587  30.060  30.847  1.00  0.00     0.251 C 
ATOM     34  H   UNL A   1      35.542  31.301  32.012  1.00  0.00     0.163 HD
ATOM     35  O   UNL A   1      35.615  29.347  30.610  1.00  0.00    -0.269 OA
BRANCH  33  36
ATOM     36  C   UNL A   1      37.930  29.668  30.367  1.00  0.00     0.039 A 
ATOM     37  C   UNL A   1      38.257  29.879  29.024  1.00  0.00     0.014 A 
ATOM     38  C   UNL A   1      38.850  29.053  31.222  1.00  0.00     0.014 A 
ATOM     39  C   UNL A   1      39.518  29.512  28.551  1.00  0.00     0.010 A 
ATOM     40  C   UNL A   1      40.134  28.766  30.770  1.00  0.00     0.010 A 
ATOM     41  C   UNL A   1      40.477  28.975  29.426  1.00  0.00    -0.014 A 
BRANCH  41  42
ATOM     42  C   UNL A   1      41.834  28.607  28.952  1.00  0.00     0.031 A 
ATOM     43  C   UNL A   1      42.925  29.643  28.906  1.00  0.00     0.074 A 
ATOM     44  C   UNL A   1      42.070  27.355  28.511  1.00  0.00     0.049 A 
ATOM     45  N   UNL A   1      44.158  29.527  28.481  1.00  0.00    -0.248 NA
ATOM     46  C   UNL A   1      42.580  30.995  29.377  1.00  0.00     0.031 C 
ATOM     47  C   UNL A   1      41.085  26.271  28.477  1.00  0.00     0.029 A 
ATOM     48  N   UNL A   1      43.211  26.784  28.007  1.00  0.00    -0.354 N 
ATOM     49  C   UNL A   1      44.726  30.788  28.616  1.00  0.00     0.074 A 
ATOM     50  C   UNL A   1      43.688  31.667  29.107  1.00  0.00     0.031 C 
ATOM     51  C   UNL A   1      41.676  25.158  28.012  1.00  0.00     0.029 A 
ATOM     52  C   UNL A   1      43.062  25.459  27.671  1.00  0.00     0.049 A 
ATOM     53  H   UNL A   1      44.056  27.277  27.896  1.00  0.00     0.167 HD
ATOM     54  C   UNL A   1      46.002  31.176  28.377  1.00  0.00     0.031 A 
ATOM     55  C   UNL A   1      43.942  24.586  27.144  1.00  0.00     0.031 A 
ATOM     56  C   UNL A   1      47.028  30.296  27.886  1.00  0.00     0.049 A 
ATOM     57  C   UNL A   1      45.345  25.044  26.859  1.00  0.00     0.074 A 
ATOM     58  C   UNL A   1      48.363  30.577  27.648  1.00  0.00     0.029 A 
ATOM     59  N   UNL A   1      46.835  28.963  27.551  1.00  0.00    -0.354 N 
ATOM     60  N   UNL A   1      45.880  26.227  27.047  1.00  0.00    -0.248 NA
ATOM     61  C   UNL A   1      46.267  24.045  26.303  1.00  0.00     0.031 C 
ATOM     62  C   UNL A   1      48.961  29.431  27.113  1.00  0.00     0.029 A 
ATOM     63  C   UNL A   1      48.018  28.414  27.087  1.00  0.00     0.049 A 
ATOM     64  H   UNL A   1      45.982  28.479  27.634  1.00  0.00     0.167 HD
ATOM     65  C   UNL A   1      47.212  26.105  26.666  1.00  0.00     0.074 A 
ATOM     66  C   UNL A   1      47.401  24.731  26.247  1.00  0.00     0.031 C 
ATOM     67  C   UNL A   1      48.191  27.044  26.671  1.00  0.00     0.031 A 
BRANCH  54  68
ATOM     68  C   UNL A   1      46.345  32.623  28.629  1.00  0.00    -0.014 A 
ATOM     69  C   UNL A   1      46.206  33.594  27.619  1.00  0.00     0.010 A 
ATOM     70  C   UNL A   1      46.802  33.023  29.898  1.00  0.00     0.010 A 
ATOM     71  C   UNL A   1      46.574  34.922  27.854  1.00  0.00     0.020 A 
ATOM     72  C   UNL A   1      47.139  34.358  30.148  1.00  0.00     0.020 A 
ATOM     73  C   UNL A   1      47.045  35.294  29.116  1.00  0.00     0.054 A 
BRANCH  73  74
ATOM     74  S   UNL A   1      47.519  37.023  29.390  1.00  0.00     0.124 S 
ATOM     75  O   UNL A   1      47.666  37.067  30.843  1.00  0.00    -0.237 OA
ATOM     76  O   UNL A   1      48.761  37.139  28.630  1.00  0.00    -0.237 OA
ATOM     77  O   UNL A   1      46.390  37.782  28.856  1.00  0.00    -0.744 OA
ENDBRANCH  73  74
ENDBRANCH  54  68
BRANCH  55  78
ATOM     78  C   UNL A   1      43.523  23.180  26.886  1.00  0.00    -0.014 A 
ATOM     79  C   UNL A   1      43.655  22.624  25.601  1.00  0.00     0.010 A 
ATOM     80  C   UNL A   1      43.020  22.380  27.928  1.00  0.00     0.010 A 
ATOM     81  C   UNL A   1      43.283  21.298  25.361  1.00  0.00     0.020 A 
ATOM     82  C   UNL A   1      42.675  21.045  27.699  1.00  0.00     0.020 A 
ATOM     83  C   UNL A   1      42.801  20.515  26.414  1.00  0.00     0.054 A 
BRANCH  83  84
ATOM     84  S   UNL A   1      42.386  18.778  26.090  1.00  0.00     0.124 S 
ATOM     85  O   UNL A   1      40.982  18.867  25.701  1.00  0.00    -0.237 OA
ATOM     86  O   UNL A   1      43.319  18.427  25.022  1.00  0.00    -0.237 OA
ATOM     87  O   UNL A   1      42.641  18.121  27.371  1.00  0.00    -0.744 OA
ENDBRANCH  83  84
ENDBRANCH  55  78
BRANCH  67  88
ATOM     88  C   UNL A   1      49.573  26.608  26.254  1.00  0.00    -0.014 A 
ATOM     89  C   UNL A   1      50.043  26.803  24.943  1.00  0.00     0.010 A 
ATOM     90  C   UNL A   1      50.432  26.037  27.212  1.00  0.00     0.010 A 
ATOM     91  C   UNL A   1      51.334  26.402  24.590  1.00  0.00     0.020 A 
ATOM     92  C   UNL A   1      51.734  25.666  26.871  1.00  0.00     0.020 A 
ATOM     93  C   UNL A   1      52.172  25.837  25.557  1.00  0.00     0.054 A 
BRANCH  93  94
ATOM     94  S   UNL A   1      53.857  25.361  25.082  1.00  0.00     0.124 S 
ATOM     95  O   UNL A   1      54.103  26.223  23.930  1.00  0.00    -0.237 OA
ATOM     96  O   UNL A   1      54.628  25.681  26.282  1.00  0.00    -0.237 OA
ATOM     97  O   UNL A   1      53.745  23.936  24.783  1.00  0.00    -0.744 OA
ENDBRANCH  93  94
ENDBRANCH  67  88
ENDBRANCH  41  42
ENDBRANCH  33  36
ENDBRANCH  31  32
ENDBRANCH   1  31
TORSDOF 17
ENDMDL
MODEL 3
REMARK VINA RESULT:     -12.5      2.785      9.817
REMARK SMILES C=CCN1C(=O)/C(=C/c2ccccn2)S/C1=[NH+]\c1ccc(C(=O)NCCCNC(=O)c2ccc(-c3c4nc(c(-c5ccc(S(=O)(=O)[O-])cc5)c5ccc([nH]5)c(-c5ccc(S(=O)(=O)[O-])cc5)c5nc(c(-c6ccc(S(=O)(=O)[O-])cc6)c6ccc3[nH]6)C=C5)C=C4)cc2)cc1
REMARK SMILES IDX 26 1 25 2 24 3 22 4 23 5 21 7 18 8 19 9 92 10 20 11 91 12
REMARK SMILES IDX 17 13 4 14 5 15 16 16 6 17 7 18 15 19 8 20 3 22 2 23 1 24
REMARK SMILES IDX 9 25 10 26 14 27 11 28 13 29 12 30 27 31 28 32 29 33 30 35
REMARK SMILES IDX 31 36 32 37 90 38 33 39 89 40 34 41 35 42 36 43 83 44 37 45
REMARK SMILES IDX 88 46 82 47 84 48 38 49 87 50 81 51 80 52 39 54 69 55 50 56
REMARK SMILES IDX 68 57 51 58 54 59 67 60 85 61 52 62 53 63 66 65 86 66 55 67
REMARK SMILES IDX 40 68 41 69 49 70 42 71 48 72 43 73 44 74 45 75 46 76 47 77
REMARK SMILES IDX 70 78 71 79 79 80 72 81 78 82 73 83 74 84 75 85 76 86 77 87
REMARK SMILES IDX 56 88 57 89 65 90 58 91 64 92 59 93 60 94 61 95 62 96 63 97
REMARK H PARENT 24 6 17 21 28 34 84 53 54 64
REMARK Flexibility Score: inf
ROOT
ATOM      1  C   UNL A   1      33.133  28.229  25.193  1.00  0.00     0.042 C 
ENDROOT
BRANCH   1   2
ATOM      2  C   UNL A   1      32.210  27.236  25.898  1.00  0.00     0.118 C 
BRANCH   2   3
ATOM      3  N   UNL A   1      30.907  27.186  25.259  1.00  0.00    -0.352 N 
ATOM      4  C   UNL A   1      30.172  26.142  24.758  1.00  0.00     0.251 C 
ATOM      5  O   UNL A   1      29.038  26.382  24.343  1.00  0.00    -0.269 OA
ATOM      6  H   UNL A   1      30.470  28.064  25.169  1.00  0.00     0.163 HD
BRANCH   4   7
ATOM      7  C   UNL A   1      30.663  24.737  24.749  1.00  0.00     0.040 A 
ATOM      8  C   UNL A   1      31.564  22.073  24.549  1.00  0.00     0.125 A 
ATOM      9  C   UNL A   1      31.651  22.926  23.451  1.00  0.00     0.052 A 
ATOM     10  C   UNL A   1      31.103  22.582  25.766  1.00  0.00     0.052 A 
ATOM     11  C   UNL A   1      31.199  24.248  23.548  1.00  0.00     0.018 A 
ATOM     12  C   UNL A   1      30.667  23.904  25.869  1.00  0.00     0.018 A 
BRANCH   8  13
ATOM     13  N   UNL A   1      32.016  20.750  24.461  1.00  0.00    -0.234 N 
ATOM     14  N   UNL A   1      33.764  19.205  24.494  1.00  0.00    -0.182 N 
ATOM     15  C   UNL A   1      35.121  19.043  24.680  1.00  0.00     0.349 C 
ATOM     16  C   UNL A   1      33.258  20.465  24.680  1.00  0.00     0.324 C 
ATOM     17  O   UNL A   1      35.750  17.994  24.589  1.00  0.00    -0.240 OA
ATOM     18  C   UNL A   1      35.739  20.340  25.063  1.00  0.00     0.111 C 
ATOM     19  S   UNL A   1      34.524  21.544  25.227  1.00  0.00     0.007 SA
ATOM     20  C   UNL A   1      37.062  20.483  25.219  1.00  0.00     0.052 C 
ATOM     21  H   UNL A   1      31.383  20.033  24.229  1.00  0.00     0.313 HD
BRANCH  14  22
ATOM     22  C   UNL A   1      32.929  18.086  24.107  1.00  0.00     0.275 C 
BRANCH  22  23
ATOM     23  C   UNL A   1      32.524  17.321  25.335  1.00  0.00     0.011 C 
ATOM     24  C   UNL A   1      32.901  16.062  25.594  1.00  0.00     0.008 C 
ENDBRANCH  22  23
ENDBRANCH  14  22
BRANCH  20  25
ATOM     25  C   UNL A   1      37.739  21.711  25.635  1.00  0.00     0.064 A 
ATOM     26  C   UNL A   1      37.089  22.942  25.611  1.00  0.00     0.028 A 
ATOM     27  N   UNL A   1      39.006  21.557  26.075  1.00  0.00    -0.257 NA
ATOM     28  C   UNL A   1      37.787  24.075  26.016  1.00  0.00     0.004 A 
ATOM     29  C   UNL A   1      39.663  22.677  26.453  1.00  0.00     0.111 A 
ATOM     30  C   UNL A   1      39.105  23.945  26.438  1.00  0.00     0.020 A 
ENDBRANCH  20  25
ENDBRANCH   8  13
ENDBRANCH   4   7
ENDBRANCH   2   3
ENDBRANCH   1   2
BRANCH   1  31
ATOM     31  C   UNL A   1      34.216  28.796  26.105  1.00  0.00     0.118 C 
BRANCH  31  32
ATOM     32  N   UNL A   1      33.895  30.143  26.555  1.00  0.00    -0.352 N 
ATOM     33  C   UNL A   1      34.432  30.879  27.580  1.00  0.00     0.251 C 
ATOM     34  H   UNL A   1      33.184  30.594  26.045  1.00  0.00     0.163 HD
ATOM     35  O   UNL A   1      33.855  31.897  27.954  1.00  0.00    -0.269 OA
BRANCH  33  36
ATOM     36  C   UNL A   1      35.690  30.456  28.231  1.00  0.00     0.039 A 
ATOM     37  C   UNL A   1      36.908  30.852  27.672  1.00  0.00     0.014 A 
ATOM     38  C   UNL A   1      35.675  29.634  29.362  1.00  0.00     0.014 A 
ATOM     39  C   UNL A   1      38.107  30.459  28.270  1.00  0.00     0.010 A 
ATOM     40  C   UNL A   1      36.866  29.313  30.004  1.00  0.00     0.010 A 
ATOM     41  C   UNL A   1      38.096  29.706  29.457  1.00  0.00    -0.014 A 
BRANCH  41  42
ATOM     42  C   UNL A   1      39.357  29.303  30.127  1.00  0.00     0.031 A 
ATOM     43  C   UNL A   1      39.823  30.031  31.360  1.00  0.00     0.074 A 
ATOM     44  C   UNL A   1      40.111  28.320  29.596  1.00  0.00     0.049 A 
ATOM     45  N   UNL A   1      40.918  29.858  32.057  1.00  0.00    -0.248 NA
ATOM     46  C   UNL A   1      38.960  31.113  31.860  1.00  0.00     0.031 C 
ATOM     47  C   UNL A   1      39.780  27.561  28.387  1.00  0.00     0.029 A 
ATOM     48  N   UNL A   1      41.309  27.792  30.003  1.00  0.00    -0.354 N 
ATOM     49  C   UNL A   1      40.881  30.816  33.064  1.00  0.00     0.074 A 
ATOM     50  C   UNL A   1      39.688  31.605  32.851  1.00  0.00     0.031 C 
ATOM     51  C   UNL A   1      40.735  26.641  28.173  1.00  0.00     0.029 A 
ATOM     52  C   UNL A   1      41.766  26.776  29.197  1.00  0.00     0.049 A 
ATOM     53  H   UNL A   1      41.795  28.110  30.798  1.00  0.00     0.167 HD
ATOM     54  C   UNL A   1      41.748  31.008  34.087  1.00  0.00     0.031 A 
ATOM     55  C   UNL A   1      42.890  26.038  29.272  1.00  0.00     0.031 A 
ATOM     56  C   UNL A   1      42.935  30.220  34.290  1.00  0.00     0.049 A 
ATOM     57  C   UNL A   1      43.854  26.286  30.399  1.00  0.00     0.074 A 
ATOM     58  C   UNL A   1      43.859  30.305  35.317  1.00  0.00     0.029 A 
ATOM     59  N   UNL A   1      43.366  29.205  33.447  1.00  0.00    -0.354 N 
ATOM     60  N   UNL A   1      43.774  27.159  31.374  1.00  0.00    -0.248 NA
ATOM     61  C   UNL A   1      45.054  25.439  30.442  1.00  0.00     0.031 C 
ATOM     62  C   UNL A   1      44.880  29.382  35.061  1.00  0.00     0.029 A 
ATOM     63  C   UNL A   1      44.554  28.672  33.916  1.00  0.00     0.049 A 
ATOM     64  H   UNL A   1      42.894  28.908  32.635  1.00  0.00     0.167 HD
ATOM     65  C   UNL A   1      44.896  26.943  32.169  1.00  0.00     0.074 A 
ATOM     66  C   UNL A   1      45.630  25.850  31.563  1.00  0.00     0.031 C 
ATOM     67  C   UNL A   1      45.276  27.585  33.301  1.00  0.00     0.031 A 
BRANCH  54  68
ATOM     68  C   UNL A   1      41.445  32.129  35.051  1.00  0.00    -0.014 A 
ATOM     69  C   UNL A   1      40.665  31.911  36.202  1.00  0.00     0.010 A 
ATOM     70  C   UNL A   1      41.958  33.417  34.810  1.00  0.00     0.010 A 
ATOM     71  C   UNL A   1      40.353  32.970  37.059  1.00  0.00     0.020 A 
ATOM     72  C   UNL A   1      41.677  34.472  35.684  1.00  0.00     0.020 A 
ATOM     73  C   UNL A   1      40.855  34.246  36.790  1.00  0.00     0.054 A 
BRANCH  73  74
ATOM     74  S   UNL A   1      40.430  35.602  37.917  1.00  0.00     0.124 S 
ATOM     75  O   UNL A   1      41.740  35.976  38.444  1.00  0.00    -0.237 OA
ATOM     76  O   UNL A   1      39.811  36.578  37.026  1.00  0.00    -0.237 OA
ATOM     77  O   UNL A   1      39.526  34.980  38.883  1.00  0.00    -0.744 OA
ENDBRANCH  73  74
ENDBRANCH  54  68
BRANCH  55  78
ATOM     78  C   UNL A   1      43.143  24.971  28.263  1.00  0.00    -0.014 A 
ATOM     79  C   UNL A   1      43.778  25.280  27.046  1.00  0.00     0.010 A 
ATOM     80  C   UNL A   1      42.780  23.638  28.524  1.00  0.00     0.010 A 
ATOM     81  C   UNL A   1      44.035  24.278  26.107  1.00  0.00     0.020 A 
ATOM     82  C   UNL A   1      43.062  22.628  27.600  1.00  0.00     0.020 A 
ATOM     83  C   UNL A   1      43.681  22.956  26.393  1.00  0.00     0.054 A 
BRANCH  83  84
ATOM     84  S   UNL A   1      44.085  21.663  25.185  1.00  0.00     0.124 S 
ATOM     85  O   UNL A   1      43.045  20.672  25.439  1.00  0.00    -0.237 OA
ATOM     86  O   UNL A   1      43.984  22.379  23.916  1.00  0.00    -0.237 OA
ATOM     87  O   UNL A   1      45.441  21.260  25.557  1.00  0.00    -0.744 OA
ENDBRANCH  83  84
ENDBRANCH  55  78
BRANCH  67  88
ATOM     88  C   UNL A   1      46.523  27.094  33.992  1.00  0.00    -0.014 A 
ATOM     89  C   UNL A   1      46.479  26.061  34.945  1.00  0.00     0.010 A 
ATOM     90  C   UNL A   1      47.768  27.647  33.638  1.00  0.00     0.010 A 
ATOM     91  C   UNL A   1      47.654  25.616  35.557  1.00  0.00     0.020 A 
ATOM     92  C   UNL A   1      48.947  27.183  34.223  1.00  0.00     0.020 A 
ATOM     93  C   UNL A   1      48.881  26.180  35.191  1.00  0.00     0.054 A 
BRANCH  93  94
ATOM     94  S   UNL A   1      50.396  25.557  35.972  1.00  0.00     0.124 S 
ATOM     95  O   UNL A   1      49.979  25.404  37.363  1.00  0.00    -0.237 OA
ATOM     96  O   UNL A   1      50.639  24.312  35.248  1.00  0.00    -0.237 OA
ATOM     97  O   UNL A   1      51.373  26.615  35.727  1.00  0.00    -0.744 OA
ENDBRANCH  93  94
ENDBRANCH  67  88
ENDBRANCH  41  42
ENDBRANCH  33  36
ENDBRANCH  31  32
ENDBRANCH   1  31
TORSDOF 17
ENDMDL
