MODEL 1
REMARK VINA RESULT:     -10.9      0.000      0.000
REMARK SMILES O=C(NCCCNC(=O)C1([C@@H]2CCCC[C@H]2O)CCOCC1)c1ccc(-c2c3nc(c(-c4ccc(S(=O)(=O)[O-])cc4)c4ccc([nH]4)c(-c4ccc(S(=O)(=O)[O-])cc4)c4nc(c(-c5ccc(S(=O)(=O)[O-])cc5)c5ccc2[nH]5)C=C4)C=C3)cc1
REMARK SMILES IDX 4 1 3 2 1 3 2 4 23 6 24 7 82 8 25 9 81 10 26 11 27 12 28 13
REMARK SMILES IDX 75 14 29 15 80 16 74 17 76 18 30 19 79 20 73 21 72 22 31 24
REMARK SMILES IDX 61 25 42 26 60 27 43 28 46 29 59 30 77 31 44 32 45 33 58 35
REMARK SMILES IDX 78 36 47 37 32 38 33 39 41 40 34 41 40 42 35 43 36 44 37 45
REMARK SMILES IDX 38 46 39 47 62 48 63 49 71 50 64 51 70 52 65 53 66 54 67 55
REMARK SMILES IDX 68 56 69 57 48 58 49 59 57 60 50 61 56 62 51 63 52 64 53 65
REMARK SMILES IDX 54 66 55 67 5 68 6 69 7 70 8 71 9 73 10 74 18 75 22 76 19 77
REMARK SMILES IDX 21 78 20 79 11 80 12 81 16 82 13 83 15 84 14 85 17 86
REMARK H PARENT 3 5 76 23 46 34 7 72 17 87
REMARK Flexibility Score: inf
ROOT
ATOM      1  C   UNL A   1      33.476  28.652  27.339  1.00  0.00     0.118 C 
ENDROOT
BRANCH   1   2
ATOM      2  N   UNL A   1      33.582  30.065  27.659  1.00  0.00    -0.352 N 
ATOM      3  O   UNL A   1      34.349  31.847  28.786  1.00  0.00    -0.269 OA
ATOM      4  C   UNL A   1      34.581  30.737  28.317  1.00  0.00     0.251 C 
ATOM      5  H   UNL A   1      32.826  30.622  27.360  1.00  0.00     0.163 HD
BRANCH   4   6
ATOM      6  C   UNL A   1      35.929  30.140  28.450  1.00  0.00     0.039 A 
ATOM      7  C   UNL A   1      36.863  30.242  27.414  1.00  0.00     0.014 A 
ATOM      8  C   UNL A   1      36.303  29.571  29.672  1.00  0.00     0.014 A 
ATOM      9  C   UNL A   1      38.140  29.712  27.570  1.00  0.00     0.010 A 
ATOM     10  C   UNL A   1      37.609  29.105  29.854  1.00  0.00     0.010 A 
ATOM     11  C   UNL A   1      38.538  29.179  28.806  1.00  0.00    -0.014 A 
BRANCH  11  12
ATOM     12  C   UNL A   1      39.968  28.857  29.033  1.00  0.00     0.031 A 
ATOM     13  C   UNL A   1      40.550  27.536  28.624  1.00  0.00     0.074 A 
ATOM     14  C   UNL A   1      40.735  29.783  29.646  1.00  0.00     0.049 A 
ATOM     15  N   UNL A   1      41.775  27.102  28.775  1.00  0.00    -0.248 NA
ATOM     16  C   UNL A   1      39.648  26.574  27.970  1.00  0.00     0.031 C 
ATOM     17  C   UNL A   1      40.264  31.092  30.112  1.00  0.00     0.029 A 
ATOM     18  N   UNL A   1      42.063  29.771  29.987  1.00  0.00    -0.354 N 
ATOM     19  C   UNL A   1      41.790  25.812  28.259  1.00  0.00     0.074 A 
ATOM     20  C   UNL A   1      40.448  25.529  27.795  1.00  0.00     0.031 C 
ATOM     21  C   UNL A   1      41.290  31.762  30.657  1.00  0.00     0.029 A 
ATOM     22  C   UNL A   1      42.474  30.913  30.635  1.00  0.00     0.049 A 
ATOM     23  H   UNL A   1      42.666  29.018  29.786  1.00  0.00     0.167 HD
ATOM     24  C   UNL A   1      42.830  24.949  28.184  1.00  0.00     0.031 A 
ATOM     25  C   UNL A   1      43.659  31.232  31.185  1.00  0.00     0.031 A 
ATOM     26  C   UNL A   1      44.163  25.248  28.640  1.00  0.00     0.049 A 
ATOM     27  C   UNL A   1      44.783  30.240  31.112  1.00  0.00     0.074 A 
ATOM     28  C   UNL A   1      45.302  24.468  28.531  1.00  0.00     0.029 A 
ATOM     29  N   UNL A   1      44.533  26.404  29.309  1.00  0.00    -0.354 N 
ATOM     30  N   UNL A   1      44.798  29.061  30.539  1.00  0.00    -0.248 NA
ATOM     31  C   UNL A   1      46.044  30.613  31.766  1.00  0.00     0.031 C 
ATOM     32  C   UNL A   1      46.347  25.127  29.186  1.00  0.00     0.029 A 
ATOM     33  C   UNL A   1      45.870  26.338  29.661  1.00  0.00     0.049 A 
ATOM     34  H   UNL A   1      43.933  27.160  29.505  1.00  0.00     0.167 HD
ATOM     35  C   UNL A   1      46.070  28.551  30.764  1.00  0.00     0.074 A 
ATOM     36  C   UNL A   1      46.804  29.561  31.499  1.00  0.00     0.031 C 
ATOM     37  C   UNL A   1      46.581  27.349  30.403  1.00  0.00     0.031 A 
BRANCH  24  38
ATOM     38  C   UNL A   1      42.581  23.581  27.610  1.00  0.00    -0.014 A 
ATOM     39  C   UNL A   1      42.867  23.293  26.264  1.00  0.00     0.010 A 
ATOM     40  C   UNL A   1      42.152  22.542  28.457  1.00  0.00     0.010 A 
ATOM     41  C   UNL A   1      42.716  21.992  25.774  1.00  0.00     0.020 A 
ATOM     42  C   UNL A   1      42.017  21.237  27.975  1.00  0.00     0.020 A 
ATOM     43  C   UNL A   1      42.293  20.971  26.633  1.00  0.00     0.054 A 
BRANCH  43  44
ATOM     44  S   UNL A   1      42.162  19.283  25.983  1.00  0.00     0.124 S 
ATOM     45  O   UNL A   1      40.726  19.163  25.745  1.00  0.00    -0.237 OA
ATOM     46  O   UNL A   1      42.994  19.335  24.784  1.00  0.00    -0.237 OA
ATOM     47  O   UNL A   1      42.685  18.452  27.065  1.00  0.00    -0.744 OA
ENDBRANCH  43  44
ENDBRANCH  24  38
BRANCH  25  48
ATOM     48  C   UNL A   1      43.821  32.524  31.903  1.00  0.00    -0.014 A 
ATOM     49  C   UNL A   1      43.562  32.621  33.280  1.00  0.00     0.010 A 
ATOM     50  C   UNL A   1      44.245  33.669  31.204  1.00  0.00     0.010 A 
ATOM     51  C   UNL A   1      43.704  33.846  33.941  1.00  0.00     0.020 A 
ATOM     52  C   UNL A   1      44.417  34.886  31.864  1.00  0.00     0.020 A 
ATOM     53  C   UNL A   1      44.128  34.972  33.227  1.00  0.00     0.054 A 
BRANCH  53  54
ATOM     54  S   UNL A   1      44.343  36.543  34.106  1.00  0.00     0.124 S 
ATOM     55  O   UNL A   1      45.742  36.853  33.832  1.00  0.00    -0.237 OA
ATOM     56  O   UNL A   1      43.363  37.410  33.456  1.00  0.00    -0.237 OA
ATOM     57  O   UNL A   1      44.036  36.201  35.493  1.00  0.00    -0.744 OA
ENDBRANCH  53  54
ENDBRANCH  25  48
BRANCH  37  58
ATOM     58  C   UNL A   1      48.000  27.059  30.801  1.00  0.00    -0.014 A 
ATOM     59  C   UNL A   1      49.070  27.467  29.985  1.00  0.00     0.010 A 
ATOM     60  C   UNL A   1      48.268  26.428  32.028  1.00  0.00     0.010 A 
ATOM     61  C   UNL A   1      50.387  27.232  30.383  1.00  0.00     0.020 A 
ATOM     62  C   UNL A   1      49.585  26.213  32.440  1.00  0.00     0.020 A 
ATOM     63  C   UNL A   1      50.637  26.608  31.609  1.00  0.00     0.054 A 
BRANCH  63  64
ATOM     64  S   UNL A   1      52.357  26.369  32.132  1.00  0.00     0.124 S 
ATOM     65  O   UNL A   1      52.272  25.129  32.898  1.00  0.00    -0.237 OA
ATOM     66  O   UNL A   1      53.070  26.276  30.859  1.00  0.00    -0.237 OA
ATOM     67  O   UNL A   1      52.650  27.567  32.916  1.00  0.00    -0.744 OA
ENDBRANCH  63  64
ENDBRANCH  37  58
ENDBRANCH  11  12
ENDBRANCH   4   6
ENDBRANCH   1   2
BRANCH   1  68
ATOM     68  C   UNL A   1      33.928  28.371  25.910  1.00  0.00     0.042 C 
BRANCH  68  69
ATOM     69  C   UNL A   1      32.880  27.647  25.075  1.00  0.00     0.117 C 
BRANCH  69  70
ATOM     70  N   UNL A   1      32.161  26.618  25.815  1.00  0.00    -0.356 N 
ATOM     71  C   UNL A   1      32.319  25.304  26.090  1.00  0.00     0.226 C 
ATOM     72  H   UNL A   1      31.340  26.976  26.224  1.00  0.00     0.163 HD
ATOM     73  O   UNL A   1      31.477  24.857  26.885  1.00  0.00    -0.274 OA
BRANCH  71  74
ATOM     74  C   UNL A   1      33.384  24.351  25.502  1.00  0.00     0.059 C 
ATOM     75  C   UNL A   1      33.422  23.158  26.522  1.00  0.00     0.046 C 
ATOM     76  C   UNL A   1      34.823  24.930  25.529  1.00  0.00     0.046 C 
ATOM     77  C   UNL A   1      34.565  22.186  26.270  1.00  0.00     0.161 C 
ATOM     78  C   UNL A   1      35.927  23.887  25.366  1.00  0.00     0.161 C 
ATOM     79  O   UNL A   1      35.812  22.867  26.351  1.00  0.00    -0.381 OA
BRANCH  74  80
ATOM     80  C   UNL A   1      32.999  23.849  24.038  1.00  0.00     0.033 C 
ATOM     81  C   UNL A   1      33.779  24.510  22.878  1.00  0.00     0.007 C 
ATOM     82  C   UNL A   1      31.492  23.778  23.667  1.00  0.00     0.118 C 
ATOM     83  C   UNL A   1      33.181  25.821  22.370  1.00  0.00     0.001 C 
ATOM     84  C   UNL A   1      30.886  25.060  23.091  1.00  0.00     0.032 C 
ATOM     85  C   UNL A   1      31.722  25.671  21.972  1.00  0.00     0.003 C 
BRANCH  82  86
ATOM     86  O   UNL A   1      31.348  22.714  22.706  1.00  0.00    -0.393 OA
ATOM     87  H   UNL A   1      30.539  22.214  22.896  1.00  0.00     0.210 HD
ENDBRANCH  82  86
ENDBRANCH  74  80
ENDBRANCH  71  74
ENDBRANCH  69  70
ENDBRANCH  68  69
ENDBRANCH   1  68
TORSDOF 15
ENDMDL
MODEL 2
REMARK VINA RESULT:     -10.8      0.733      8.423
REMARK SMILES O=C(NCCCNC(=O)C1([C@@H]2CCCC[C@H]2O)CCOCC1)c1ccc(-c2c3nc(c(-c4ccc(S(=O)(=O)[O-])cc4)c4ccc([nH]4)c(-c4ccc(S(=O)(=O)[O-])cc4)c4nc(c(-c5ccc(S(=O)(=O)[O-])cc5)c5ccc2[nH]5)C=C4)C=C3)cc1
REMARK SMILES IDX 4 1 3 2 1 3 2 4 23 6 24 7 82 8 25 9 81 10 26 11 27 12 28 13
REMARK SMILES IDX 75 14 29 15 80 16 74 17 76 18 30 19 79 20 73 21 72 22 31 24
REMARK SMILES IDX 61 25 42 26 60 27 43 28 46 29 59 30 77 31 44 32 45 33 58 35
REMARK SMILES IDX 78 36 47 37 32 38 33 39 41 40 34 41 40 42 35 43 36 44 37 45
REMARK SMILES IDX 38 46 39 47 62 48 63 49 71 50 64 51 70 52 65 53 66 54 67 55
REMARK SMILES IDX 68 56 69 57 48 58 49 59 57 60 50 61 56 62 51 63 52 64 53 65
REMARK SMILES IDX 54 66 55 67 5 68 6 69 7 70 8 71 9 73 10 74 18 75 22 76 19 77
REMARK SMILES IDX 21 78 20 79 11 80 12 81 16 82 13 83 15 84 14 85 17 86
REMARK H PARENT 3 5 76 23 46 34 7 72 17 87
REMARK Flexibility Score: inf
ROOT
ATOM      1  C   UNL A   1      33.534  28.591  27.215  1.00  0.00     0.118 C 
ENDROOT
BRANCH   1   2
ATOM      2  N   UNL A   1      33.584  30.003  27.558  1.00  0.00    -0.352 N 
ATOM      3  O   UNL A   1      34.242  31.788  28.747  1.00  0.00    -0.269 OA
ATOM      4  C   UNL A   1      34.528  30.692  28.277  1.00  0.00     0.251 C 
ATOM      5  H   UNL A   1      32.829  30.543  27.228  1.00  0.00     0.163 HD
BRANCH   4   6
ATOM      6  C   UNL A   1      35.883  30.130  28.473  1.00  0.00     0.039 A 
ATOM      7  C   UNL A   1      36.829  30.165  27.444  1.00  0.00     0.014 A 
ATOM      8  C   UNL A   1      36.249  29.665  29.740  1.00  0.00     0.014 A 
ATOM      9  C   UNL A   1      38.112  29.670  27.656  1.00  0.00     0.010 A 
ATOM     10  C   UNL A   1      37.560  29.235  29.975  1.00  0.00     0.010 A 
ATOM     11  C   UNL A   1      38.502  29.242  28.935  1.00  0.00    -0.014 A 
BRANCH  11  12
ATOM     12  C   UNL A   1      39.934  28.963  29.205  1.00  0.00     0.031 A 
ATOM     13  C   UNL A   1      40.845  30.011  29.771  1.00  0.00     0.074 A 
ATOM     14  C   UNL A   1      40.407  27.736  28.901  1.00  0.00     0.049 A 
ATOM     15  N   UNL A   1      42.122  29.923  30.042  1.00  0.00    -0.248 NA
ATOM     16  C   UNL A   1      40.257  31.328  30.067  1.00  0.00     0.031 C 
ATOM     17  C   UNL A   1      39.613  26.647  28.318  1.00  0.00     0.029 A 
ATOM     18  N   UNL A   1      41.659  27.194  29.033  1.00  0.00    -0.354 N 
ATOM     19  C   UNL A   1      42.499  31.173  30.516  1.00  0.00     0.074 A 
ATOM     20  C   UNL A   1      41.316  32.008  30.491  1.00  0.00     0.031 C 
ATOM     21  C   UNL A   1      40.392  25.567  28.164  1.00  0.00     0.029 A 
ATOM     22  C   UNL A   1      41.749  25.899  28.578  1.00  0.00     0.049 A 
ATOM     23  H   UNL A   1      42.422  27.685  29.418  1.00  0.00     0.167 HD
ATOM     24  C   UNL A   1      43.722  31.580  30.930  1.00  0.00     0.031 A 
ATOM     25  C   UNL A   1      42.809  25.079  28.469  1.00  0.00     0.031 A 
ATOM     26  C   UNL A   1      44.888  30.736  30.959  1.00  0.00     0.049 A 
ATOM     27  C   UNL A   1      44.157  25.572  28.908  1.00  0.00     0.074 A 
ATOM     28  C   UNL A   1      46.152  31.036  31.440  1.00  0.00     0.029 A 
ATOM     29  N   UNL A   1      44.944  29.441  30.470  1.00  0.00    -0.354 N 
ATOM     30  N   UNL A   1      44.471  26.729  29.437  1.00  0.00    -0.248 NA
ATOM     31  C   UNL A   1      45.291  24.658  28.727  1.00  0.00     0.031 C 
ATOM     32  C   UNL A   1      46.985  29.941  31.188  1.00  0.00     0.029 A 
ATOM     33  C   UNL A   1      46.229  28.944  30.594  1.00  0.00     0.049 A 
ATOM     34  H   UNL A   1      44.180  28.947  30.091  1.00  0.00     0.167 HD
ATOM     35  C   UNL A   1      45.842  26.682  29.653  1.00  0.00     0.074 A 
ATOM     36  C   UNL A   1      46.291  25.372  29.224  1.00  0.00     0.031 C 
ATOM     37  C   UNL A   1      46.659  27.641  30.151  1.00  0.00     0.031 A 
BRANCH  24  38
ATOM     38  C   UNL A   1      43.886  33.010  31.368  1.00  0.00    -0.014 A 
ATOM     39  C   UNL A   1      43.770  33.376  32.721  1.00  0.00     0.010 A 
ATOM     40  C   UNL A   1      44.264  33.984  30.425  1.00  0.00     0.010 A 
ATOM     41  C   UNL A   1      44.017  34.693  33.119  1.00  0.00     0.020 A 
ATOM     42  C   UNL A   1      44.529  35.298  30.822  1.00  0.00     0.020 A 
ATOM     43  C   UNL A   1      44.397  35.646  32.167  1.00  0.00     0.054 A 
BRANCH  43  44
ATOM     44  S   UNL A   1      44.768  37.332  32.722  1.00  0.00     0.124 S 
ATOM     45  O   UNL A   1      45.776  37.096  33.753  1.00  0.00    -0.237 OA
ATOM     46  O   UNL A   1      45.256  37.972  31.504  1.00  0.00    -0.237 OA
ATOM     47  O   UNL A   1      43.483  37.828  33.211  1.00  0.00    -0.744 OA
ENDBRANCH  43  44
ENDBRANCH  24  38
BRANCH  25  48
ATOM     48  C   UNL A   1      42.644  23.730  27.864  1.00  0.00    -0.014 A 
ATOM     49  C   UNL A   1      42.778  23.539  26.479  1.00  0.00     0.010 A 
ATOM     50  C   UNL A   1      42.358  22.622  28.684  1.00  0.00     0.010 A 
ATOM     51  C   UNL A   1      42.607  22.267  25.921  1.00  0.00     0.020 A 
ATOM     52  C   UNL A   1      42.215  21.347  28.136  1.00  0.00     0.020 A 
ATOM     53  C   UNL A   1      42.324  21.180  26.755  1.00  0.00     0.054 A 
BRANCH  53  54
ATOM     54  S   UNL A   1      42.141  19.532  26.020  1.00  0.00     0.124 S 
ATOM     55  O   UNL A   1      40.718  19.502  25.697  1.00  0.00    -0.237 OA
ATOM     56  O   UNL A   1      43.049  19.588  24.877  1.00  0.00    -0.237 OA
ATOM     57  O   UNL A   1      42.560  18.633  27.093  1.00  0.00    -0.744 OA
ENDBRANCH  53  54
ENDBRANCH  25  48
BRANCH  37  58
ATOM     58  C   UNL A   1      48.121  27.311  30.257  1.00  0.00    -0.014 A 
ATOM     59  C   UNL A   1      49.006  27.639  29.214  1.00  0.00     0.010 A 
ATOM     60  C   UNL A   1      48.624  26.723  31.431  1.00  0.00     0.010 A 
ATOM     61  C   UNL A   1      50.369  27.367  29.338  1.00  0.00     0.020 A 
ATOM     62  C   UNL A   1      49.990  26.472  31.567  1.00  0.00     0.020 A 
ATOM     63  C   UNL A   1      50.854  26.787  30.514  1.00  0.00     0.054 A 
BRANCH  63  64
ATOM     64  S   UNL A   1      52.637  26.500  30.675  1.00  0.00     0.124 S 
ATOM     65  O   UNL A   1      53.101  27.772  31.222  1.00  0.00    -0.237 OA
ATOM     66  O   UNL A   1      52.699  25.361  31.590  1.00  0.00    -0.237 OA
ATOM     67  O   UNL A   1      53.067  26.216  29.308  1.00  0.00    -0.744 OA
ENDBRANCH  63  64
ENDBRANCH  37  58
ENDBRANCH  11  12
ENDBRANCH   4   6
ENDBRANCH   1   2
BRANCH   1  68
ATOM     68  C   UNL A   1      32.107  28.056  27.272  1.00  0.00     0.042 C 
BRANCH  68  69
ATOM     69  C   UNL A   1      31.783  27.077  26.151  1.00  0.00     0.117 C 
BRANCH  69  70
ATOM     70  N   UNL A   1      31.351  25.771  26.631  1.00  0.00    -0.356 N 
ATOM     71  C   UNL A   1      31.815  24.501  26.596  1.00  0.00     0.226 C 
ATOM     72  H   UNL A   1      30.492  25.828  27.107  1.00  0.00     0.163 HD
ATOM     73  O   UNL A   1      31.136  23.705  27.262  1.00  0.00    -0.274 OA
BRANCH  71  74
ATOM     74  C   UNL A   1      33.038  23.978  25.810  1.00  0.00     0.059 C 
ATOM     75  C   UNL A   1      33.437  22.664  26.570  1.00  0.00     0.046 C 
ATOM     76  C   UNL A   1      34.290  24.886  25.923  1.00  0.00     0.046 C 
ATOM     77  C   UNL A   1      34.762  22.078  26.107  1.00  0.00     0.161 C 
ATOM     78  C   UNL A   1      35.601  24.207  25.534  1.00  0.00     0.161 C 
ATOM     79  O   UNL A   1      35.808  23.025  26.298  1.00  0.00    -0.381 OA
BRANCH  74  80
ATOM     80  C   UNL A   1      32.687  23.680  24.282  1.00  0.00     0.033 C 
ATOM     81  C   UNL A   1      33.364  24.609  23.247  1.00  0.00     0.007 C 
ATOM     82  C   UNL A   1      31.192  23.493  23.903  1.00  0.00     0.118 C 
ATOM     83  C   UNL A   1      32.609  25.905  22.961  1.00  0.00     0.001 C 
ATOM     84  C   UNL A   1      30.431  24.772  23.544  1.00  0.00     0.032 C 
ATOM     85  C   UNL A   1      31.170  25.652  22.542  1.00  0.00     0.003 C 
BRANCH  82  86
ATOM     86  O   UNL A   1      31.155  22.591  22.780  1.00  0.00    -0.393 OA
ATOM     87  H   UNL A   1      31.072  21.680  23.100  1.00  0.00     0.210 HD
ENDBRANCH  82  86
ENDBRANCH  74  80
ENDBRANCH  71  74
ENDBRANCH  69  70
ENDBRANCH  68  69
ENDBRANCH   1  68
TORSDOF 15
ENDMDL
MODEL 3
REMARK VINA RESULT:     -10.7      2.685      9.057
REMARK SMILES O=C(NCCCNC(=O)C1([C@@H]2CCCC[C@H]2O)CCOCC1)c1ccc(-c2c3nc(c(-c4ccc(S(=O)(=O)[O-])cc4)c4ccc([nH]4)c(-c4ccc(S(=O)(=O)[O-])cc4)c4nc(c(-c5ccc(S(=O)(=O)[O-])cc5)c5ccc2[nH]5)C=C4)C=C3)cc1
REMARK SMILES IDX 4 1 3 2 1 3 2 4 23 6 24 7 82 8 25 9 81 10 26 11 27 12 28 13
REMARK SMILES IDX 75 14 29 15 80 16 74 17 76 18 30 19 79 20 73 21 72 22 31 24
REMARK SMILES IDX 61 25 42 26 60 27 43 28 46 29 59 30 77 31 44 32 45 33 58 35
REMARK SMILES IDX 78 36 47 37 32 38 33 39 41 40 34 41 40 42 35 43 36 44 37 45
REMARK SMILES IDX 38 46 39 47 62 48 63 49 71 50 64 51 70 52 65 53 66 54 67 55
REMARK SMILES IDX 68 56 69 57 48 58 49 59 57 60 50 61 56 62 51 63 52 64 53 65
REMARK SMILES IDX 54 66 55 67 5 68 6 69 7 70 8 71 9 73 10 74 18 75 22 76 19 77
REMARK SMILES IDX 21 78 20 79 11 80 12 81 16 82 13 83 15 84 14 85 17 86
REMARK H PARENT 3 5 76 23 46 34 7 72 17 87
REMARK Flexibility Score: inf
ROOT
ATOM      1  C   UNL A   1      37.212  23.540  24.939  1.00  0.00     0.118 C 
ENDROOT
BRANCH   1   2
ATOM      2  N   UNL A   1      38.251  22.646  25.420  1.00  0.00    -0.352 N 
ATOM      3  O   UNL A   1      40.313  22.110  26.124  1.00  0.00    -0.269 OA
ATOM      4  C   UNL A   1      39.409  22.939  26.096  1.00  0.00     0.251 C 
ATOM      5  H   UNL A   1      38.104  21.690  25.233  1.00  0.00     0.163 HD
BRANCH   4   6
ATOM      6  C   UNL A   1      39.564  24.232  26.799  1.00  0.00     0.039 A 
ATOM      7  C   UNL A   1      39.094  24.398  28.106  1.00  0.00     0.014 A 
ATOM      8  C   UNL A   1      40.291  25.257  26.185  1.00  0.00     0.014 A 
ATOM      9  C   UNL A   1      39.283  25.607  28.768  1.00  0.00     0.010 A 
ATOM     10  C   UNL A   1      40.545  26.445  26.877  1.00  0.00     0.010 A 
ATOM     11  C   UNL A   1      40.049  26.625  28.178  1.00  0.00    -0.014 A 
BRANCH  11  12
ATOM     12  C   UNL A   1      40.456  27.796  28.992  1.00  0.00     0.031 A 
ATOM     13  C   UNL A   1      39.538  28.964  29.200  1.00  0.00     0.074 A 
ATOM     14  C   UNL A   1      41.696  27.795  29.525  1.00  0.00     0.049 A 
ATOM     15  N   UNL A   1      39.760  30.067  29.869  1.00  0.00    -0.248 NA
ATOM     16  C   UNL A   1      38.206  28.896  28.579  1.00  0.00     0.031 C 
ATOM     17  C   UNL A   1      42.682  26.721  29.361  1.00  0.00     0.029 A 
ATOM     18  N   UNL A   1      42.342  28.718  30.306  1.00  0.00    -0.354 N 
ATOM     19  C   UNL A   1      38.610  30.835  29.731  1.00  0.00     0.074 A 
ATOM     20  C   UNL A   1      37.692  30.075  28.909  1.00  0.00     0.031 C 
ATOM     21  C   UNL A   1      43.797  27.038  30.036  1.00  0.00     0.029 A 
ATOM     22  C   UNL A   1      43.629  28.358  30.630  1.00  0.00     0.049 A 
ATOM     23  H   UNL A   1      41.924  29.558  30.606  1.00  0.00     0.167 HD
ATOM     24  C   UNL A   1      38.353  32.061  30.245  1.00  0.00     0.031 A 
ATOM     25  C   UNL A   1      44.586  29.027  31.300  1.00  0.00     0.031 A 
ATOM     26  C   UNL A   1      39.272  32.801  31.069  1.00  0.00     0.049 A 
ATOM     27  C   UNL A   1      44.278  30.397  31.829  1.00  0.00     0.074 A 
ATOM     28  C   UNL A   1      39.068  34.015  31.704  1.00  0.00     0.029 A 
ATOM     29  N   UNL A   1      40.571  32.414  31.357  1.00  0.00    -0.354 N 
ATOM     30  N   UNL A   1      43.152  31.066  31.762  1.00  0.00    -0.248 NA
ATOM     31  C   UNL A   1      45.366  31.107  32.511  1.00  0.00     0.031 C 
ATOM     32  C   UNL A   1      40.263  34.389  32.326  1.00  0.00     0.029 A 
ATOM     33  C   UNL A   1      41.196  33.385  32.119  1.00  0.00     0.049 A 
ATOM     34  H   UNL A   1      40.988  31.571  31.062  1.00  0.00     0.167 HD
ATOM     35  C   UNL A   1      43.397  32.277  32.396  1.00  0.00     0.074 A 
ATOM     36  C   UNL A   1      44.768  32.236  32.864  1.00  0.00     0.031 C 
ATOM     37  C   UNL A   1      42.565  33.332  32.566  1.00  0.00     0.031 A 
BRANCH  24  38
ATOM     38  C   UNL A   1      37.034  32.706  29.918  1.00  0.00    -0.014 A 
ATOM     39  C   UNL A   1      35.946  32.628  30.804  1.00  0.00     0.010 A 
ATOM     40  C   UNL A   1      36.916  33.490  28.755  1.00  0.00     0.010 A 
ATOM     41  C   UNL A   1      34.758  33.313  30.526  1.00  0.00     0.020 A 
ATOM     42  C   UNL A   1      35.737  34.190  28.482  1.00  0.00     0.020 A 
ATOM     43  C   UNL A   1      34.662  34.091  29.366  1.00  0.00     0.054 A 
BRANCH  43  44
ATOM     44  S   UNL A   1      33.131  35.014  29.061  1.00  0.00     0.124 S 
ATOM     45  O   UNL A   1      32.516  35.024  30.386  1.00  0.00    -0.237 OA
ATOM     46  O   UNL A   1      33.622  36.306  28.590  1.00  0.00    -0.237 OA
ATOM     47  O   UNL A   1      32.434  34.211  28.058  1.00  0.00    -0.744 OA
ENDBRANCH  43  44
ENDBRANCH  24  38
BRANCH  25  48
ATOM     48  C   UNL A   1      45.940  28.431  31.451  1.00  0.00    -0.014 A 
ATOM     49  C   UNL A   1      46.256  27.632  32.562  1.00  0.00     0.010 A 
ATOM     50  C   UNL A   1      46.922  28.660  30.469  1.00  0.00     0.010 A 
ATOM     51  C   UNL A   1      47.538  27.089  32.699  1.00  0.00     0.020 A 
ATOM     52  C   UNL A   1      48.193  28.097  30.588  1.00  0.00     0.020 A 
ATOM     53  C   UNL A   1      48.500  27.328  31.711  1.00  0.00     0.054 A 
BRANCH  53  54
ATOM     54  S   UNL A   1      50.146  26.587  31.886  1.00  0.00     0.124 S 
ATOM     55  O   UNL A   1      50.890  27.252  30.822  1.00  0.00    -0.237 OA
ATOM     56  O   UNL A   1      50.521  26.958  33.249  1.00  0.00    -0.237 OA
ATOM     57  O   UNL A   1      49.900  25.161  31.684  1.00  0.00    -0.744 OA
ENDBRANCH  53  54
ENDBRANCH  25  48
BRANCH  37  58
ATOM     58  C   UNL A   1      43.116  34.531  33.284  1.00  0.00    -0.014 A 
ATOM     59  C   UNL A   1      43.641  35.619  32.564  1.00  0.00     0.010 A 
ATOM     60  C   UNL A   1      43.054  34.597  34.687  1.00  0.00     0.010 A 
ATOM     61  C   UNL A   1      44.111  36.747  33.237  1.00  0.00     0.020 A 
ATOM     62  C   UNL A   1      43.501  35.734  35.363  1.00  0.00     0.020 A 
ATOM     63  C   UNL A   1      44.037  36.799  34.633  1.00  0.00     0.054 A 
BRANCH  63  64
ATOM     64  S   UNL A   1      44.598  38.300  35.481  1.00  0.00     0.124 S 
ATOM     65  O   UNL A   1      43.956  38.169  36.786  1.00  0.00    -0.237 OA
ATOM     66  O   UNL A   1      46.052  38.148  35.477  1.00  0.00    -0.237 OA
ATOM     67  O   UNL A   1      44.090  39.382  34.642  1.00  0.00    -0.744 OA
ENDBRANCH  63  64
ENDBRANCH  37  58
ENDBRANCH  11  12
ENDBRANCH   4   6
ENDBRANCH   1   2
BRANCH   1  68
ATOM     68  C   UNL A   1      36.097  23.701  25.968  1.00  0.00     0.042 C 
BRANCH  68  69
ATOM     69  C   UNL A   1      34.719  23.346  25.427  1.00  0.00     0.117 C 
BRANCH  69  70
ATOM     70  N   UNL A   1      34.436  23.942  24.128  1.00  0.00    -0.356 N 
ATOM     71  C   UNL A   1      33.893  25.090  23.663  1.00  0.00     0.226 C 
ATOM     72  H   UNL A   1      34.716  23.352  23.392  1.00  0.00     0.163 HD
ATOM     73  O   UNL A   1      33.966  25.212  22.431  1.00  0.00    -0.274 OA
BRANCH  71  74
ATOM     74  C   UNL A   1      33.193  26.191  24.492  1.00  0.00     0.059 C 
ATOM     75  C   UNL A   1      33.289  27.463  23.578  1.00  0.00     0.046 C 
ATOM     76  C   UNL A   1      33.957  26.582  25.783  1.00  0.00     0.046 C 
ATOM     77  C   UNL A   1      32.856  28.742  24.279  1.00  0.00     0.161 C 
ATOM     78  C   UNL A   1      33.539  27.923  26.383  1.00  0.00     0.161 C 
ATOM     79  O   UNL A   1      33.667  28.969  25.427  1.00  0.00    -0.381 OA
BRANCH  74  80
ATOM     80  C   UNL A   1      31.675  25.824  24.817  1.00  0.00     0.033 C 
ATOM     81  C   UNL A   1      31.396  25.352  26.262  1.00  0.00     0.007 C 
ATOM     82  C   UNL A   1      30.920  24.899  23.821  1.00  0.00     0.118 C 
ATOM     83  C   UNL A   1      31.599  23.856  26.497  1.00  0.00     0.001 C 
ATOM     84  C   UNL A   1      31.052  23.396  24.077  1.00  0.00     0.032 C 
ATOM     85  C   UNL A   1      30.793  23.007  25.528  1.00  0.00     0.003 C 
BRANCH  82  86
ATOM     86  O   UNL A   1      29.529  25.268  23.880  1.00  0.00    -0.393 OA
ATOM     87  H   UNL A   1      29.416  26.161  23.518  1.00  0.00     0.210 HD
ENDBRANCH  82  86
ENDBRANCH  74  80
ENDBRANCH  71  74
ENDBRANCH  69  70
ENDBRANCH  68  69
ENDBRANCH   1  68
TORSDOF 15
ENDMDL
