MODEL 1
REMARK VINA RESULT:     -11.3      0.000      0.000
REMARK SMILES O=C(CS(=O)(=O)NCc1ccc(N2CCOCC2)nc1)NCCCNC(=O)c1ccc(-c2c3nc(c(-c4ccc(S(=O)(=O)[O-])cc4)c4ccc([nH]4)c(-c4ccc(S(=O)(=O)[O-])cc4)c4nc(c(-c5ccc(S(=O)(=O)[O-])cc5)c5ccc2[nH]5)C=C4)C=C3)cc1
REMARK SMILES IDX 22 1 21 2 1 3 2 4 3 6 4 7 5 8 6 9 7 10 8 12 9 13 10 14 20 15
REMARK SMILES IDX 11 16 19 17 12 18 13 19 14 20 18 21 15 22 17 23 16 24 23 25
REMARK SMILES IDX 24 26 25 27 26 28 27 30 28 31 29 32 87 33 30 34 86 35 31 36
REMARK SMILES IDX 32 37 33 38 80 39 34 40 85 41 79 42 81 43 35 44 84 45 78 46
REMARK SMILES IDX 77 47 36 49 66 50 47 51 65 52 48 53 51 54 64 55 82 56 49 57
REMARK SMILES IDX 50 58 63 60 83 61 52 62 37 63 38 64 46 65 39 66 45 67 40 68
REMARK SMILES IDX 41 69 42 70 43 71 44 72 67 73 68 74 76 75 69 76 75 77 70 78
REMARK SMILES IDX 71 79 72 80 73 81 74 82 53 83 54 84 62 85 55 86 61 87 56 88
REMARK SMILES IDX 57 89 58 90 59 91 60 92
REMARK H PARENT 21 5 7 11 25 29 81 48 51 59
REMARK Flexibility Score: inf
ROOT
ATOM      1  C   UNL A   1      31.399  26.997  26.618  1.00  0.00     0.117 C 
ENDROOT
BRANCH   1   2
ATOM      2  N   UNL A   1      32.264  26.776  25.474  1.00  0.00    -0.355 N 
ATOM      3  O   UNL A   1      30.636  27.149  23.911  1.00  0.00    -0.274 OA
ATOM      4  C   UNL A   1      31.811  26.896  24.178  1.00  0.00     0.236 C 
ATOM      5  H   UNL A   1      33.206  26.533  25.628  1.00  0.00     0.163 HD
BRANCH   4   6
ATOM      6  C   UNL A   1      32.793  26.627  23.085  1.00  0.00     0.253 C 
BRANCH   6   7
ATOM      7  S   UNL A   1      33.504  25.011  23.186  1.00  0.00     0.220 S 
ATOM      8  O   UNL A   1      33.626  24.495  21.837  1.00  0.00    -0.212 OA
ATOM      9  O   UNL A   1      34.670  25.105  24.034  1.00  0.00    -0.212 OA
BRANCH   7  10
ATOM     10  N   UNL A   1      32.449  24.062  24.050  1.00  0.00    -0.210 NA
ATOM     11  H   UNL A   1      32.104  23.366  23.389  1.00  0.00     0.141 HD
BRANCH  10  12
ATOM     12  C   UNL A   1      32.794  23.313  25.259  1.00  0.00     0.135 C 
BRANCH  12  13
ATOM     13  C   UNL A   1      33.005  21.834  25.132  1.00  0.00    -0.015 A 
ATOM     14  C   UNL A   1      34.287  21.328  24.944  1.00  0.00     0.010 A 
ATOM     15  C   UNL A   1      31.977  20.901  25.147  1.00  0.00     0.118 A 
ATOM     16  C   UNL A   1      34.489  19.951  24.908  1.00  0.00     0.047 A 
ATOM     17  N   UNL A   1      32.151  19.558  25.070  1.00  0.00    -0.239 NA
ATOM     18  C   UNL A   1      33.406  19.078  25.009  1.00  0.00     0.128 A 
BRANCH  18  19
ATOM     19  N   UNL A   1      33.615  17.720  24.989  1.00  0.00    -0.352 N 
ATOM     20  C   UNL A   1      32.481  16.793  24.982  1.00  0.00     0.146 C 
ATOM     21  C   UNL A   1      34.827  17.153  24.409  1.00  0.00     0.146 C 
ATOM     22  C   UNL A   1      32.870  15.501  25.710  1.00  0.00     0.181 C 
ATOM     23  C   UNL A   1      35.157  15.886  25.219  1.00  0.00     0.181 C 
ATOM     24  O   UNL A   1      34.081  14.930  25.178  1.00  0.00    -0.378 OA
ENDBRANCH  18  19
ENDBRANCH  12  13
ENDBRANCH  10  12
ENDBRANCH   7  10
ENDBRANCH   6   7
ENDBRANCH   4   6
ENDBRANCH   1   2
BRANCH   1  25
ATOM     25  C   UNL A   1      31.753  28.256  27.394  1.00  0.00     0.042 C 
BRANCH  25  26
ATOM     26  C   UNL A   1      33.236  28.616  27.356  1.00  0.00     0.118 C 
BRANCH  26  27
ATOM     27  N   UNL A   1      33.460  30.039  27.566  1.00  0.00    -0.352 N 
ATOM     28  C   UNL A   1      34.477  30.702  28.206  1.00  0.00     0.251 C 
ATOM     29  H   UNL A   1      32.766  30.624  27.186  1.00  0.00     0.163 HD
ATOM     30  O   UNL A   1      34.272  31.850  28.597  1.00  0.00    -0.269 OA
BRANCH  28  31
ATOM     31  C   UNL A   1      35.803  30.089  28.445  1.00  0.00     0.039 A 
ATOM     32  C   UNL A   1      36.717  30.106  27.386  1.00  0.00     0.014 A 
ATOM     33  C   UNL A   1      36.161  29.479  29.649  1.00  0.00     0.014 A 
ATOM     34  C   UNL A   1      38.007  29.617  27.568  1.00  0.00     0.010 A 
ATOM     35  C   UNL A   1      37.482  29.098  29.869  1.00  0.00     0.010 A 
ATOM     36  C   UNL A   1      38.421  29.184  28.835  1.00  0.00    -0.014 A 
BRANCH  36  37
ATOM     37  C   UNL A   1      39.852  28.896  29.088  1.00  0.00     0.031 A 
ATOM     38  C   UNL A   1      40.747  29.921  29.718  1.00  0.00     0.074 A 
ATOM     39  C   UNL A   1      40.339  27.697  28.704  1.00  0.00     0.049 A 
ATOM     40  N   UNL A   1      42.013  29.820  30.035  1.00  0.00    -0.248 NA
ATOM     41  C   UNL A   1      40.159  31.238  30.012  1.00  0.00     0.031 C 
ATOM     42  C   UNL A   1      39.567  26.650  28.025  1.00  0.00     0.029 A 
ATOM     43  N   UNL A   1      41.586  27.147  28.840  1.00  0.00    -0.354 N 
ATOM     44  C   UNL A   1      42.373  31.056  30.555  1.00  0.00     0.074 A 
ATOM     45  C   UNL A   1      41.210  31.910  30.460  1.00  0.00     0.031 C 
ATOM     46  C   UNL A   1      40.339  25.567  27.860  1.00  0.00     0.029 A 
ATOM     47  C   UNL A   1      41.672  25.857  28.371  1.00  0.00     0.049 A 
ATOM     48  H   UNL A   1      42.348  27.630  29.237  1.00  0.00     0.167 HD
ATOM     49  C   UNL A   1      43.560  31.437  31.084  1.00  0.00     0.031 A 
ATOM     50  C   UNL A   1      42.710  25.000  28.359  1.00  0.00     0.031 A 
ATOM     51  C   UNL A   1      44.711  30.574  31.167  1.00  0.00     0.049 A 
ATOM     52  C   UNL A   1      44.014  25.445  28.957  1.00  0.00     0.074 A 
ATOM     53  C   UNL A   1      45.951  30.841  31.717  1.00  0.00     0.029 A 
ATOM     54  N   UNL A   1      44.761  29.274  30.682  1.00  0.00    -0.354 N 
ATOM     55  N   UNL A   1      44.317  26.599  29.504  1.00  0.00    -0.248 NA
ATOM     56  C   UNL A   1      45.108  24.468  28.954  1.00  0.00     0.031 C 
ATOM     57  C   UNL A   1      46.768  29.725  31.516  1.00  0.00     0.029 A 
ATOM     58  C   UNL A   1      46.017  28.734  30.903  1.00  0.00     0.049 A 
ATOM     59  H   UNL A   1      44.014  28.805  30.245  1.00  0.00     0.167 HD
ATOM     60  C   UNL A   1      45.632  26.476  29.938  1.00  0.00     0.074 A 
ATOM     61  C   UNL A   1      46.053  25.128  29.607  1.00  0.00     0.031 C 
ATOM     62  C   UNL A   1      46.418  27.393  30.556  1.00  0.00     0.031 A 
BRANCH  49  63
ATOM     63  C   UNL A   1      43.672  32.847  31.601  1.00  0.00    -0.014 A 
ATOM     64  C   UNL A   1      44.063  33.905  30.759  1.00  0.00     0.010 A 
ATOM     65  C   UNL A   1      43.354  33.129  32.943  1.00  0.00     0.010 A 
ATOM     66  C   UNL A   1      44.177  35.206  31.256  1.00  0.00     0.020 A 
ATOM     67  C   UNL A   1      43.436  34.435  33.437  1.00  0.00     0.020 A 
ATOM     68  C   UNL A   1      43.864  35.462  32.594  1.00  0.00     0.054 A 
BRANCH  68  69
ATOM     69  S   UNL A   1      44.000  37.163  33.208  1.00  0.00     0.124 S 
ATOM     70  O   UNL A   1      42.798  37.286  34.027  1.00  0.00    -0.237 OA
ATOM     71  O   UNL A   1      45.262  37.137  33.945  1.00  0.00    -0.237 OA
ATOM     72  O   UNL A   1      44.010  37.972  31.991  1.00  0.00    -0.744 OA
ENDBRANCH  68  69
ENDBRANCH  49  63
BRANCH  50  73
ATOM     73  C   UNL A   1      42.544  23.635  27.784  1.00  0.00    -0.014 A 
ATOM     74  C   UNL A   1      42.973  23.349  26.476  1.00  0.00     0.010 A 
ATOM     75  C   UNL A   1      41.969  22.606  28.552  1.00  0.00     0.010 A 
ATOM     76  C   UNL A   1      42.805  22.070  25.938  1.00  0.00     0.020 A 
ATOM     77  C   UNL A   1      41.830  21.317  28.030  1.00  0.00     0.020 A 
ATOM     78  C   UNL A   1      42.236  21.061  26.721  1.00  0.00     0.054 A 
BRANCH  78  79
ATOM     79  S   UNL A   1      42.066  19.397  26.017  1.00  0.00     0.124 S 
ATOM     80  O   UNL A   1      42.906  19.484  24.827  1.00  0.00    -0.237 OA
ATOM     81  O   UNL A   1      42.574  18.547  27.092  1.00  0.00    -0.237 OA
ATOM     82  O   UNL A   1      40.631  19.278  25.764  1.00  0.00    -0.744 OA
ENDBRANCH  78  79
ENDBRANCH  50  73
BRANCH  62  83
ATOM     83  C   UNL A   1      47.802  26.947  30.950  1.00  0.00    -0.014 A 
ATOM     84  C   UNL A   1      48.063  26.394  32.216  1.00  0.00     0.010 A 
ATOM     85  C   UNL A   1      48.855  27.073  30.025  1.00  0.00     0.010 A 
ATOM     86  C   UNL A   1      49.364  26.028  32.571  1.00  0.00     0.020 A 
ATOM     87  C   UNL A   1      50.149  26.674  30.363  1.00  0.00     0.020 A 
ATOM     88  C   UNL A   1      50.400  26.177  31.643  1.00  0.00     0.054 A 
BRANCH  88  89
ATOM     89  S   UNL A   1      52.078  25.692  32.124  1.00  0.00     0.124 S 
ATOM     90  O   UNL A   1      52.872  26.202  31.010  1.00  0.00    -0.237 OA
ATOM     91  O   UNL A   1      52.261  26.387  33.396  1.00  0.00    -0.237 OA
ATOM     92  O   UNL A   1      52.004  24.236  32.222  1.00  0.00    -0.744 OA
ENDBRANCH  88  89
ENDBRANCH  62  83
ENDBRANCH  36  37
ENDBRANCH  28  31
ENDBRANCH  26  27
ENDBRANCH  25  26
ENDBRANCH   1  25
TORSDOF 18
ENDMDL
MODEL 2
REMARK VINA RESULT:     -11.0      2.480      8.778
REMARK SMILES O=C(CS(=O)(=O)NCc1ccc(N2CCOCC2)nc1)NCCCNC(=O)c1ccc(-c2c3nc(c(-c4ccc(S(=O)(=O)[O-])cc4)c4ccc([nH]4)c(-c4ccc(S(=O)(=O)[O-])cc4)c4nc(c(-c5ccc(S(=O)(=O)[O-])cc5)c5ccc2[nH]5)C=C4)C=C3)cc1
REMARK SMILES IDX 22 1 21 2 1 3 2 4 3 6 4 7 5 8 6 9 7 10 8 12 9 13 10 14 20 15
REMARK SMILES IDX 11 16 19 17 12 18 13 19 14 20 18 21 15 22 17 23 16 24 23 25
REMARK SMILES IDX 24 26 25 27 26 28 27 30 28 31 29 32 87 33 30 34 86 35 31 36
REMARK SMILES IDX 32 37 33 38 80 39 34 40 85 41 79 42 81 43 35 44 84 45 78 46
REMARK SMILES IDX 77 47 36 49 66 50 47 51 65 52 48 53 51 54 64 55 82 56 49 57
REMARK SMILES IDX 50 58 63 60 83 61 52 62 37 63 38 64 46 65 39 66 45 67 40 68
REMARK SMILES IDX 41 69 42 70 43 71 44 72 67 73 68 74 76 75 69 76 75 77 70 78
REMARK SMILES IDX 71 79 72 80 73 81 74 82 53 83 54 84 62 85 55 86 61 87 56 88
REMARK SMILES IDX 57 89 58 90 59 91 60 92
REMARK H PARENT 21 5 7 11 25 29 81 48 51 59
REMARK Flexibility Score: inf
ROOT
ATOM      1  C   UNL A   1      35.202  23.101  23.173  1.00  0.00     0.117 C 
ENDROOT
BRANCH   1   2
ATOM      2  N   UNL A   1      34.622  24.378  23.548  1.00  0.00    -0.355 N 
ATOM      3  O   UNL A   1      33.145  24.451  21.803  1.00  0.00    -0.274 OA
ATOM      4  C   UNL A   1      33.598  24.956  22.830  1.00  0.00     0.236 C 
ATOM      5  H   UNL A   1      34.972  24.846  24.340  1.00  0.00     0.163 HD
BRANCH   4   6
ATOM      6  C   UNL A   1      33.096  26.281  23.305  1.00  0.00     0.253 C 
BRANCH   6   7
ATOM      7  S   UNL A   1      32.798  26.314  25.048  1.00  0.00     0.220 S 
ATOM      8  O   UNL A   1      34.083  26.371  25.717  1.00  0.00    -0.212 OA
ATOM      9  O   UNL A   1      31.807  27.335  25.297  1.00  0.00    -0.212 OA
BRANCH   7  10
ATOM     10  N   UNL A   1      32.028  24.896  25.444  1.00  0.00    -0.210 NA
ATOM     11  H   UNL A   1      31.927  24.387  24.566  1.00  0.00     0.141 HD
BRANCH  10  12
ATOM     12  C   UNL A   1      32.522  23.915  26.409  1.00  0.00     0.135 C 
BRANCH  12  13
ATOM     13  C   UNL A   1      32.697  22.500  25.945  1.00  0.00    -0.015 A 
ATOM     14  C   UNL A   1      33.867  21.809  26.246  1.00  0.00     0.010 A 
ATOM     15  C   UNL A   1      31.766  21.816  25.175  1.00  0.00     0.118 A 
ATOM     16  C   UNL A   1      33.992  20.470  25.884  1.00  0.00     0.047 A 
ATOM     17  N   UNL A   1      31.891  20.526  24.776  1.00  0.00    -0.239 NA
ATOM     18  C   UNL A   1      32.973  19.834  25.177  1.00  0.00     0.128 A 
BRANCH  18  19
ATOM     19  N   UNL A   1      33.097  18.508  24.837  1.00  0.00    -0.352 N 
ATOM     20  C   UNL A   1      32.730  17.458  25.790  1.00  0.00     0.146 C 
ATOM     21  C   UNL A   1      33.022  18.078  23.446  1.00  0.00     0.146 C 
ATOM     22  C   UNL A   1      33.613  16.226  25.561  1.00  0.00     0.181 C 
ATOM     23  C   UNL A   1      33.959  16.865  23.304  1.00  0.00     0.181 C 
ATOM     24  O   UNL A   1      33.582  15.792  24.188  1.00  0.00    -0.378 OA
ENDBRANCH  18  19
ENDBRANCH  12  13
ENDBRANCH  10  12
ENDBRANCH   7  10
ENDBRANCH   6   7
ENDBRANCH   4   6
ENDBRANCH   1   2
BRANCH   1  25
ATOM     25  C   UNL A   1      36.675  22.991  23.534  1.00  0.00     0.042 C 
BRANCH  25  26
ATOM     26  C   UNL A   1      36.989  23.331  24.988  1.00  0.00     0.118 C 
BRANCH  26  27
ATOM     27  N   UNL A   1      38.042  22.486  25.534  1.00  0.00    -0.352 N 
ATOM     28  C   UNL A   1      39.236  22.811  26.125  1.00  0.00     0.251 C 
ATOM     29  H   UNL A   1      37.868  21.520  25.467  1.00  0.00     0.163 HD
ATOM     30  O   UNL A   1      40.125  21.960  26.156  1.00  0.00    -0.269 OA
BRANCH  28  31
ATOM     31  C   UNL A   1      39.495  24.140  26.723  1.00  0.00     0.039 A 
ATOM     32  C   UNL A   1      39.009  24.369  28.015  1.00  0.00     0.014 A 
ATOM     33  C   UNL A   1      40.163  25.166  26.052  1.00  0.00     0.014 A 
ATOM     34  C   UNL A   1      39.285  25.567  28.665  1.00  0.00     0.010 A 
ATOM     35  C   UNL A   1      40.540  26.317  26.740  1.00  0.00     0.010 A 
ATOM     36  C   UNL A   1      40.121  26.517  28.060  1.00  0.00    -0.014 A 
BRANCH  36  37
ATOM     37  C   UNL A   1      40.612  27.676  28.841  1.00  0.00     0.031 A 
ATOM     38  C   UNL A   1      41.987  27.677  29.441  1.00  0.00     0.074 A 
ATOM     39  C   UNL A   1      39.775  28.717  29.030  1.00  0.00     0.049 A 
ATOM     40  N   UNL A   1      42.580  28.621  30.126  1.00  0.00    -0.248 NA
ATOM     41  C   UNL A   1      42.795  26.459  29.272  1.00  0.00     0.031 C 
ATOM     42  C   UNL A   1      38.393  28.790  28.543  1.00  0.00     0.029 A 
ATOM     43  N   UNL A   1      39.961  29.917  29.664  1.00  0.00    -0.354 N 
ATOM     44  C   UNL A   1      43.823  28.109  30.476  1.00  0.00     0.074 A 
ATOM     45  C   UNL A   1      43.878  26.753  29.978  1.00  0.00     0.031 C 
ATOM     46  C   UNL A   1      37.880  29.993  28.842  1.00  0.00     0.029 A 
ATOM     47  C   UNL A   1      38.874  30.755  29.586  1.00  0.00     0.049 A 
ATOM     48  H   UNL A   1      40.795  30.157  30.130  1.00  0.00     0.167 HD
ATOM     49  C   UNL A   1      44.835  28.724  31.135  1.00  0.00     0.031 A 
ATOM     50  C   UNL A   1      38.697  32.004  30.058  1.00  0.00     0.031 A 
ATOM     51  C   UNL A   1      44.761  30.076  31.628  1.00  0.00     0.049 A 
ATOM     52  C   UNL A   1      39.837  32.664  30.779  1.00  0.00     0.074 A 
ATOM     53  C   UNL A   1      45.738  30.811  32.274  1.00  0.00     0.029 A 
ATOM     54  N   UNL A   1      43.644  30.893  31.531  1.00  0.00    -0.354 N 
ATOM     55  N   UNL A   1      41.030  32.187  31.046  1.00  0.00    -0.248 NA
ATOM     56  C   UNL A   1      39.614  34.037  31.247  1.00  0.00     0.031 C 
ATOM     57  C   UNL A   1      45.194  32.053  32.617  1.00  0.00     0.029 A 
ATOM     58  C   UNL A   1      43.900  32.119  32.122  1.00  0.00     0.049 A 
ATOM     59  H   UNL A   1      42.794  30.640  31.104  1.00  0.00     0.167 HD
ATOM     60  C   UNL A   1      41.712  33.213  31.687  1.00  0.00     0.074 A 
ATOM     61  C   UNL A   1      40.802  34.341  31.747  1.00  0.00     0.031 C 
ATOM     62  C   UNL A   1      42.976  33.224  32.180  1.00  0.00     0.031 A 
BRANCH  49  63
ATOM     63  C   UNL A   1      46.096  27.934  31.366  1.00  0.00    -0.014 A 
ATOM     64  C   UNL A   1      46.229  27.079  32.476  1.00  0.00     0.010 A 
ATOM     65  C   UNL A   1      47.158  28.023  30.445  1.00  0.00     0.010 A 
ATOM     66  C   UNL A   1      47.411  26.363  32.685  1.00  0.00     0.020 A 
ATOM     67  C   UNL A   1      48.331  27.286  30.634  1.00  0.00     0.020 A 
ATOM     68  C   UNL A   1      48.457  26.474  31.763  1.00  0.00     0.054 A 
BRANCH  68  69
ATOM     69  S   UNL A   1      49.971  25.518  32.049  1.00  0.00     0.124 S 
ATOM     70  O   UNL A   1      50.217  24.942  30.730  1.00  0.00    -0.237 OA
ATOM     71  O   UNL A   1      50.921  26.545  32.472  1.00  0.00    -0.237 OA
ATOM     72  O   UNL A   1      49.589  24.562  33.085  1.00  0.00    -0.744 OA
ENDBRANCH  68  69
ENDBRANCH  49  63
BRANCH  50  73
ATOM     73  C   UNL A   1      37.403  32.709  29.838  1.00  0.00    -0.014 A 
ATOM     74  C   UNL A   1      37.202  33.500  28.693  1.00  0.00     0.010 A 
ATOM     75  C   UNL A   1      36.355  32.577  30.767  1.00  0.00     0.010 A 
ATOM     76  C   UNL A   1      35.989  34.168  28.496  1.00  0.00     0.020 A 
ATOM     77  C   UNL A   1      35.130  33.216  30.558  1.00  0.00     0.020 A 
ATOM     78  C   UNL A   1      34.960  34.019  29.430  1.00  0.00     0.054 A 
BRANCH  78  79
ATOM     79  S   UNL A   1      33.380  34.861  29.133  1.00  0.00     0.124 S 
ATOM     80  O   UNL A   1      32.800  34.900  30.472  1.00  0.00    -0.237 OA
ATOM     81  O   UNL A   1      33.808  36.149  28.589  1.00  0.00    -0.237 OA
ATOM     82  O   UNL A   1      32.700  33.986  28.180  1.00  0.00    -0.744 OA
ENDBRANCH  78  79
ENDBRANCH  50  73
BRANCH  62  83
ATOM     83  C   UNL A   1      43.458  34.515  32.789  1.00  0.00    -0.014 A 
ATOM     84  C   UNL A   1      43.295  34.787  34.159  1.00  0.00     0.010 A 
ATOM     85  C   UNL A   1      44.098  35.464  31.972  1.00  0.00     0.010 A 
ATOM     86  C   UNL A   1      43.713  36.011  34.689  1.00  0.00     0.020 A 
ATOM     87  C   UNL A   1      44.550  36.672  32.505  1.00  0.00     0.020 A 
ATOM     88  C   UNL A   1      44.332  36.948  33.856  1.00  0.00     0.054 A 
BRANCH  88  89
ATOM     89  S   UNL A   1      44.869  38.526  34.566  1.00  0.00     0.124 S 
ATOM     90  O   UNL A   1      45.606  38.091  35.749  1.00  0.00    -0.237 OA
ATOM     91  O   UNL A   1      45.682  39.100  33.496  1.00  0.00    -0.237 OA
ATOM     92  O   UNL A   1      43.618  39.231  34.834  1.00  0.00    -0.744 OA
ENDBRANCH  88  89
ENDBRANCH  62  83
ENDBRANCH  36  37
ENDBRANCH  28  31
ENDBRANCH  26  27
ENDBRANCH  25  26
ENDBRANCH   1  25
TORSDOF 18
ENDMDL
MODEL 3
REMARK VINA RESULT:     -10.8      3.370      9.177
REMARK SMILES O=C(CS(=O)(=O)NCc1ccc(N2CCOCC2)nc1)NCCCNC(=O)c1ccc(-c2c3nc(c(-c4ccc(S(=O)(=O)[O-])cc4)c4ccc([nH]4)c(-c4ccc(S(=O)(=O)[O-])cc4)c4nc(c(-c5ccc(S(=O)(=O)[O-])cc5)c5ccc2[nH]5)C=C4)C=C3)cc1
REMARK SMILES IDX 22 1 21 2 1 3 2 4 3 6 4 7 5 8 6 9 7 10 8 12 9 13 10 14 20 15
REMARK SMILES IDX 11 16 19 17 12 18 13 19 14 20 18 21 15 22 17 23 16 24 23 25
REMARK SMILES IDX 24 26 25 27 26 28 27 30 28 31 29 32 87 33 30 34 86 35 31 36
REMARK SMILES IDX 32 37 33 38 80 39 34 40 85 41 79 42 81 43 35 44 84 45 78 46
REMARK SMILES IDX 77 47 36 49 66 50 47 51 65 52 48 53 51 54 64 55 82 56 49 57
REMARK SMILES IDX 50 58 63 60 83 61 52 62 37 63 38 64 46 65 39 66 45 67 40 68
REMARK SMILES IDX 41 69 42 70 43 71 44 72 67 73 68 74 76 75 69 76 75 77 70 78
REMARK SMILES IDX 71 79 72 80 73 81 74 82 53 83 54 84 62 85 55 86 61 87 56 88
REMARK SMILES IDX 57 89 58 90 59 91 60 92
REMARK H PARENT 21 5 7 11 25 29 81 48 51 59
REMARK Flexibility Score: inf
ROOT
ATOM      1  C   UNL A   1      34.963  23.274  23.553  1.00  0.00     0.117 C 
ENDROOT
BRANCH   1   2
ATOM      2  N   UNL A   1      34.344  23.781  24.764  1.00  0.00    -0.355 N 
ATOM      3  O   UNL A   1      32.643  22.253  24.779  1.00  0.00    -0.274 OA
ATOM      4  C   UNL A   1      33.219  23.202  25.309  1.00  0.00     0.236 C 
ATOM      5  H   UNL A   1      34.741  24.564  25.210  1.00  0.00     0.163 HD
BRANCH   4   6
ATOM      6  C   UNL A   1      32.665  23.825  26.549  1.00  0.00     0.253 C 
BRANCH   6   7
ATOM      7  S   UNL A   1      31.210  24.783  26.241  1.00  0.00     0.220 S 
ATOM      8  O   UNL A   1      30.075  24.044  26.758  1.00  0.00    -0.212 OA
ATOM      9  O   UNL A   1      31.471  26.126  26.706  1.00  0.00    -0.212 OA
BRANCH   7  10
ATOM     10  N   UNL A   1      31.065  24.944  24.594  1.00  0.00    -0.210 NA
ATOM     11  H   UNL A   1      30.075  25.122  24.424  1.00  0.00     0.141 HD
BRANCH  10  12
ATOM     12  C   UNL A   1      31.783  25.925  23.782  1.00  0.00     0.135 C 
BRANCH  12  13
ATOM     13  C   UNL A   1      31.044  27.157  23.352  1.00  0.00    -0.015 A 
ATOM     14  C   UNL A   1      29.659  27.215  23.473  1.00  0.00     0.010 A 
ATOM     15  C   UNL A   1      31.653  28.267  22.783  1.00  0.00     0.118 A 
ATOM     16  C   UNL A   1      28.984  28.389  23.148  1.00  0.00     0.047 A 
ATOM     17  N   UNL A   1      31.006  29.403  22.421  1.00  0.00    -0.239 NA
ATOM     18  C   UNL A   1      29.684  29.489  22.655  1.00  0.00     0.128 A 
BRANCH  18  19
ATOM     19  N   UNL A   1      29.013  30.649  22.352  1.00  0.00    -0.352 N 
ATOM     20  C   UNL A   1      28.107  30.706  21.202  1.00  0.00     0.146 C 
ATOM     21  C   UNL A   1      28.698  31.628  23.384  1.00  0.00     0.146 C 
ATOM     22  C   UNL A   1      28.109  32.123  20.617  1.00  0.00     0.181 C 
ATOM     23  C   UNL A   1      28.754  33.015  22.717  1.00  0.00     0.181 C 
ATOM     24  O   UNL A   1      27.827  33.118  21.620  1.00  0.00    -0.378 OA
ENDBRANCH  18  19
ENDBRANCH  12  13
ENDBRANCH  10  12
ENDBRANCH   7  10
ENDBRANCH   6   7
ENDBRANCH   4   6
ENDBRANCH   1   2
BRANCH   1  25
ATOM     25  C   UNL A   1      36.448  22.990  23.720  1.00  0.00     0.042 C 
BRANCH  25  26
ATOM     26  C   UNL A   1      37.060  23.593  24.982  1.00  0.00     0.118 C 
BRANCH  26  27
ATOM     27  N   UNL A   1      38.083  22.733  25.560  1.00  0.00    -0.352 N 
ATOM     28  C   UNL A   1      39.256  23.043  26.201  1.00  0.00     0.251 C 
ATOM     29  H   UNL A   1      37.904  21.770  25.476  1.00  0.00     0.163 HD
ATOM     30  O   UNL A   1      40.136  22.184  26.258  1.00  0.00    -0.269 OA
BRANCH  28  31
ATOM     31  C   UNL A   1      39.503  24.364  26.822  1.00  0.00     0.039 A 
ATOM     32  C   UNL A   1      38.981  24.578  28.102  1.00  0.00     0.014 A 
ATOM     33  C   UNL A   1      40.193  25.395  26.182  1.00  0.00     0.014 A 
ATOM     34  C   UNL A   1      39.243  25.768  28.774  1.00  0.00     0.010 A 
ATOM     35  C   UNL A   1      40.555  26.536  26.894  1.00  0.00     0.010 A 
ATOM     36  C   UNL A   1      40.098  26.721  28.205  1.00  0.00    -0.014 A 
BRANCH  36  37
ATOM     37  C   UNL A   1      40.571  27.869  29.013  1.00  0.00     0.031 A 
ATOM     38  C   UNL A   1      39.703  29.075  29.223  1.00  0.00     0.074 A 
ATOM     39  C   UNL A   1      41.817  27.817  29.528  1.00  0.00     0.049 A 
ATOM     40  N   UNL A   1      39.952  30.150  29.926  1.00  0.00    -0.248 NA
ATOM     41  C   UNL A   1      38.399  29.092  28.542  1.00  0.00     0.031 C 
ATOM     42  C   UNL A   1      42.767  26.716  29.331  1.00  0.00     0.029 A 
ATOM     43  N   UNL A   1      42.496  28.695  30.331  1.00  0.00    -0.354 N 
ATOM     44  C   UNL A   1      38.844  30.972  29.765  1.00  0.00     0.074 A 
ATOM     45  C   UNL A   1      37.946  30.298  28.854  1.00  0.00     0.031 C 
ATOM     46  C   UNL A   1      43.878  26.957  30.043  1.00  0.00     0.029 A 
ATOM     47  C   UNL A   1      43.742  28.248  30.703  1.00  0.00     0.049 A 
ATOM     48  H   UNL A   1      42.126  29.562  30.616  1.00  0.00     0.167 HD
ATOM     49  C   UNL A   1      38.590  32.170  30.343  1.00  0.00     0.031 A 
ATOM     50  C   UNL A   1      44.674  28.815  31.493  1.00  0.00     0.031 A 
ATOM     51  C   UNL A   1      39.499  32.830  31.246  1.00  0.00     0.049 A 
ATOM     52  C   UNL A   1      44.363  30.141  32.127  1.00  0.00     0.074 A 
ATOM     53  C   UNL A   1      39.328  34.026  31.920  1.00  0.00     0.029 A 
ATOM     54  N   UNL A   1      40.752  32.348  31.599  1.00  0.00    -0.354 N 
ATOM     55  N   UNL A   1      43.281  30.875  32.014  1.00  0.00    -0.248 NA
ATOM     56  C   UNL A   1      45.392  30.707  33.008  1.00  0.00     0.031 C 
ATOM     57  C   UNL A   1      40.499  34.295  32.636  1.00  0.00     0.029 A 
ATOM     58  C   UNL A   1      41.373  33.232  32.466  1.00  0.00     0.049 A 
ATOM     59  H   UNL A   1      41.142  31.502  31.281  1.00  0.00     0.167 HD
ATOM     60  C   UNL A   1      43.486  31.977  32.834  1.00  0.00     0.074 A 
ATOM     61  C   UNL A   1      44.786  31.799  33.452  1.00  0.00     0.031 C 
ATOM     62  C   UNL A   1      42.672  33.039  33.060  1.00  0.00     0.031 A 
BRANCH  49  63
ATOM     63  C   UNL A   1      37.286  32.844  30.006  1.00  0.00    -0.014 A 
ATOM     64  C   UNL A   1      37.051  33.379  28.725  1.00  0.00     0.010 A 
ATOM     65  C   UNL A   1      36.265  32.919  30.972  1.00  0.00     0.010 A 
ATOM     66  C   UNL A   1      35.841  34.014  28.431  1.00  0.00     0.020 A 
ATOM     67  C   UNL A   1      35.041  33.526  30.673  1.00  0.00     0.020 A 
ATOM     68  C   UNL A   1      34.844  34.086  29.409  1.00  0.00     0.054 A 
BRANCH  68  69
ATOM     69  S   UNL A   1      33.276  34.897  28.993  1.00  0.00     0.124 S 
ATOM     70  O   UNL A   1      33.731  36.188  28.483  1.00  0.00    -0.237 OA
ATOM     71  O   UNL A   1      32.704  33.994  27.996  1.00  0.00    -0.237 OA
ATOM     72  O   UNL A   1      32.562  34.947  30.266  1.00  0.00    -0.744 OA
ENDBRANCH  68  69
ENDBRANCH  49  63
BRANCH  50  73
ATOM     73  C   UNL A   1      45.965  28.116  31.744  1.00  0.00    -0.014 A 
ATOM     74  C   UNL A   1      46.102  27.226  32.824  1.00  0.00     0.010 A 
ATOM     75  C   UNL A   1      47.064  28.325  30.891  1.00  0.00     0.010 A 
ATOM     76  C   UNL A   1      47.319  26.580  33.061  1.00  0.00     0.020 A 
ATOM     77  C   UNL A   1      48.272  27.656  31.104  1.00  0.00     0.020 A 
ATOM     78  C   UNL A   1      48.396  26.799  32.197  1.00  0.00     0.054 A 
BRANCH  78  79
ATOM     79  S   UNL A   1      49.954  25.918  32.500  1.00  0.00     0.124 S 
ATOM     80  O   UNL A   1      50.931  27.001  32.442  1.00  0.00    -0.237 OA
ATOM     81  O   UNL A   1      49.733  25.333  33.821  1.00  0.00    -0.237 OA
ATOM     82  O   UNL A   1      50.021  24.954  31.402  1.00  0.00    -0.744 OA
ENDBRANCH  78  79
ENDBRANCH  50  73
BRANCH  62  83
ATOM     83  C   UNL A   1      43.155  34.068  34.049  1.00  0.00    -0.014 A 
ATOM     84  C   UNL A   1      43.904  35.185  33.641  1.00  0.00     0.010 A 
ATOM     85  C   UNL A   1      42.836  33.914  35.411  1.00  0.00     0.010 A 
ATOM     86  C   UNL A   1      44.376  36.100  34.586  1.00  0.00     0.020 A 
ATOM     87  C   UNL A   1      43.274  34.846  36.353  1.00  0.00     0.020 A 
ATOM     88  C   UNL A   1      44.062  35.921  35.937  1.00  0.00     0.054 A 
BRANCH  88  89
ATOM     89  S   UNL A   1      44.680  37.124  37.144  1.00  0.00     0.124 S 
ATOM     90  O   UNL A   1      44.939  38.289  36.305  1.00  0.00    -0.237 OA
ATOM     91  O   UNL A   1      43.558  37.252  38.072  1.00  0.00    -0.237 OA
ATOM     92  O   UNL A   1      45.868  36.479  37.699  1.00  0.00    -0.744 OA
ENDBRANCH  88  89
ENDBRANCH  62  83
ENDBRANCH  36  37
ENDBRANCH  28  31
ENDBRANCH  26  27
ENDBRANCH  25  26
ENDBRANCH   1  25
TORSDOF 18
ENDMDL
