MODEL 1
REMARK VINA RESULT:     -11.4      0.000      0.000
REMARK SMILES CC[C@H]1CCC[C@H](O[C@@H]2CC[C@]([NH2+]C(C)C)(C(=O)NCCCNC(=O)c3ccc(-c4c5nc(c(-c6ccc(S(=O)(=O)[O-])cc6)c6ccc([nH]6)c(-c6ccc(S(=O)(=O)[O-])cc6)c6nc(c(-c7ccc(S(=O)(=O)[O-])cc7)c7ccc4[nH]7)C=C6)C=C5)cc3)C2)C1
REMARK SMILES IDX 21 1 20 2 19 3 17 4 18 5 12 7 9 8 10 9 86 10 11 11 8 12 7 13
REMARK SMILES IDX 3 14 4 15 87 16 5 17 6 18 2 19 1 20 13 21 14 24 15 25 16 26
REMARK SMILES IDX 22 27 23 28 24 29 25 31 26 32 27 33 85 34 28 35 84 36 29 37
REMARK SMILES IDX 30 38 31 39 78 40 32 41 83 42 77 43 79 44 33 45 82 46 76 47
REMARK SMILES IDX 75 48 34 50 64 51 45 52 63 53 46 54 49 55 62 56 80 57 47 58
REMARK SMILES IDX 48 59 61 61 81 62 50 63 35 64 36 65 44 66 37 67 43 68 38 69
REMARK SMILES IDX 39 70 40 71 41 72 42 73 65 74 66 75 74 76 67 77 73 78 68 79
REMARK SMILES IDX 69 80 70 81 71 82 72 83 51 84 52 85 60 86 53 87 59 88 54 89
REMARK SMILES IDX 55 90 56 91 57 92 58 93
REMARK H PARENT 19 6 13 22 13 23 23 30 79 49 49 60
REMARK Flexibility Score: inf
ROOT
ATOM      1  C   UNL A   1      31.816  28.440  27.124  1.00  0.00     0.042 C 
ENDROOT
BRANCH   1   2
ATOM      2  C   UNL A   1      31.459  27.388  26.069  1.00  0.00     0.118 C 
BRANCH   2   3
ATOM      3  N   UNL A   1      30.939  26.161  26.661  1.00  0.00    -0.351 N 
ATOM      4  C   UNL A   1      31.119  24.830  26.418  1.00  0.00     0.281 C 
ATOM      5  O   UNL A   1      30.409  24.084  27.109  1.00  0.00    -0.268 OA
ATOM      6  H   UNL A   1      30.317  26.330  27.405  1.00  0.00     0.163 HD
BRANCH   4   7
ATOM      7  C   UNL A   1      32.196  24.214  25.447  1.00  0.00     0.178 C 
ATOM      8  C   UNL A   1      33.712  22.310  25.050  1.00  0.00     0.125 C 
ATOM      9  C   UNL A   1      34.577  23.523  25.389  1.00  0.00     0.039 C 
ATOM     10  C   UNL A   1      32.299  22.684  25.483  1.00  0.00     0.111 C 
ATOM     11  C   UNL A   1      33.612  24.552  25.989  1.00  0.00     0.082 C 
BRANCH   8  12
ATOM     12  O   UNL A   1      34.214  21.042  25.470  1.00  0.00    -0.375 OA
BRANCH  12  13
ATOM     13  C   UNL A   1      33.720  19.771  25.013  1.00  0.00     0.118 C 
ATOM     14  C   UNL A   1      34.470  17.513  23.886  1.00  0.00    -0.009 C 
ATOM     15  C   UNL A   1      33.311  17.731  22.898  1.00  0.00     0.004 C 
ATOM     16  C   UNL A   1      34.855  18.776  24.690  1.00  0.00     0.035 C 
ATOM     17  C   UNL A   1      32.144  18.492  23.498  1.00  0.00     0.003 C 
ATOM     18  C   UNL A   1      32.612  19.858  23.966  1.00  0.00     0.032 C 
BRANCH  14  19
ATOM     19  C   UNL A   1      34.288  16.232  24.728  1.00  0.00     0.000 C 
ATOM     20  C   UNL A   1      35.540  15.613  25.323  1.00  0.00     0.004 C 
ENDBRANCH  14  19
ENDBRANCH  12  13
ENDBRANCH   8  12
BRANCH   7  21
ATOM     21  N   UNL A   1      31.895  24.639  24.053  1.00  0.00    -0.332 N 
ATOM     22  H   UNL A   1      31.133  25.316  24.104  1.00  0.00     0.347 HD
ATOM     23  H   UNL A   1      31.694  23.766  23.568  1.00  0.00     0.347 HD
BRANCH  21  24
ATOM     24  C   UNL A   1      32.964  25.251  23.252  1.00  0.00     0.176 C 
ATOM     25  C   UNL A   1      32.842  24.714  21.820  1.00  0.00     0.075 C 
ATOM     26  C   UNL A   1      32.948  26.781  23.190  1.00  0.00     0.075 C 
ENDBRANCH  21  24
ENDBRANCH   7  21
ENDBRANCH   4   7
ENDBRANCH   2   3
ENDBRANCH   1   2
BRANCH   1  27
ATOM     27  C   UNL A   1      33.304  28.718  27.330  1.00  0.00     0.118 C 
BRANCH  27  28
ATOM     28  N   UNL A   1      33.548  30.122  27.619  1.00  0.00    -0.352 N 
ATOM     29  C   UNL A   1      34.612  30.768  28.201  1.00  0.00     0.251 C 
ATOM     30  H   UNL A   1      32.815  30.720  27.348  1.00  0.00     0.163 HD
ATOM     31  O   UNL A   1      34.427  31.927  28.576  1.00  0.00    -0.269 OA
BRANCH  29  32
ATOM     32  C   UNL A   1      35.964  30.159  28.385  1.00  0.00     0.039 A 
ATOM     33  C   UNL A   1      36.268  29.609  29.641  1.00  0.00     0.014 A 
ATOM     34  C   UNL A   1      36.982  30.234  27.431  1.00  0.00     0.014 A 
ATOM     35  C   UNL A   1      37.561  29.153  29.936  1.00  0.00     0.010 A 
ATOM     36  C   UNL A   1      38.256  29.710  27.702  1.00  0.00     0.010 A 
ATOM     37  C   UNL A   1      38.574  29.196  28.969  1.00  0.00    -0.014 A 
BRANCH  37  38
ATOM     38  C   UNL A   1      39.972  28.779  29.288  1.00  0.00     0.031 A 
ATOM     39  C   UNL A   1      40.899  29.712  30.033  1.00  0.00     0.074 A 
ATOM     40  C   UNL A   1      40.434  27.572  28.903  1.00  0.00     0.049 A 
ATOM     41  N   UNL A   1      42.157  29.546  30.363  1.00  0.00    -0.248 NA
ATOM     42  C   UNL A   1      40.341  31.008  30.449  1.00  0.00     0.031 C 
ATOM     43  C   UNL A   1      39.662  26.560  28.181  1.00  0.00     0.029 A 
ATOM     44  N   UNL A   1      41.670  26.991  29.069  1.00  0.00    -0.354 N 
ATOM     45  C   UNL A   1      42.544  30.719  31.002  1.00  0.00     0.074 A 
ATOM     46  C   UNL A   1      41.400  31.605  30.974  1.00  0.00     0.031 C 
ATOM     47  C   UNL A   1      40.431  25.475  27.990  1.00  0.00     0.029 A 
ATOM     48  C   UNL A   1      41.763  25.726  28.537  1.00  0.00     0.049 A 
ATOM     49  H   UNL A   1      42.417  27.439  29.525  1.00  0.00     0.167 HD
ATOM     50  C   UNL A   1      43.733  31.033  31.577  1.00  0.00     0.031 A 
ATOM     51  C   UNL A   1      42.798  24.863  28.487  1.00  0.00     0.031 A 
ATOM     52  C   UNL A   1      44.876  30.159  31.617  1.00  0.00     0.049 A 
ATOM     53  C   UNL A   1      44.119  25.243  29.098  1.00  0.00     0.074 A 
ATOM     54  C   UNL A   1      46.111  30.381  32.205  1.00  0.00     0.029 A 
ATOM     55  N   UNL A   1      44.928  28.895  31.049  1.00  0.00    -0.354 N 
ATOM     56  N   UNL A   1      44.455  26.347  29.721  1.00  0.00    -0.248 NA
ATOM     57  C   UNL A   1      45.201  24.250  29.009  1.00  0.00     0.031 C 
ATOM     58  C   UNL A   1      46.925  29.270  31.951  1.00  0.00     0.029 A 
ATOM     59  C   UNL A   1      46.179  28.334  31.256  1.00  0.00     0.049 A 
ATOM     60  H   UNL A   1      44.187  28.461  30.570  1.00  0.00     0.167 HD
ATOM     61  C   UNL A   1      45.773  26.168  30.127  1.00  0.00     0.074 A 
ATOM     62  C   UNL A   1      46.173  24.848  29.683  1.00  0.00     0.031 C 
ATOM     63  C   UNL A   1      46.575  27.020  30.812  1.00  0.00     0.031 A 
BRANCH  50  64
ATOM     64  C   UNL A   1      43.859  32.405  32.193  1.00  0.00    -0.014 A 
ATOM     65  C   UNL A   1      43.521  32.635  33.539  1.00  0.00     0.010 A 
ATOM     66  C   UNL A   1      44.329  33.480  31.415  1.00  0.00     0.010 A 
ATOM     67  C   UNL A   1      43.586  33.923  34.077  1.00  0.00     0.020 A 
ATOM     68  C   UNL A   1      44.425  34.765  31.959  1.00  0.00     0.020 A 
ATOM     69  C   UNL A   1      44.026  34.983  33.279  1.00  0.00     0.054 A 
BRANCH  69  70
ATOM     70  S   UNL A   1      44.076  36.650  33.991  1.00  0.00     0.124 S 
ATOM     71  O   UNL A   1      42.927  37.284  33.349  1.00  0.00    -0.237 OA
ATOM     72  O   UNL A   1      43.934  36.395  35.422  1.00  0.00    -0.237 OA
ATOM     73  O   UNL A   1      45.380  37.164  33.579  1.00  0.00    -0.744 OA
ENDBRANCH  69  70
ENDBRANCH  50  64
BRANCH  51  74
ATOM     74  C   UNL A   1      42.612  23.531  27.850  1.00  0.00    -0.014 A 
ATOM     75  C   UNL A   1      43.071  23.300  26.541  1.00  0.00     0.010 A 
ATOM     76  C   UNL A   1      42.001  22.479  28.556  1.00  0.00     0.010 A 
ATOM     77  C   UNL A   1      42.923  22.042  25.950  1.00  0.00     0.020 A 
ATOM     78  C   UNL A   1      41.874  21.213  27.978  1.00  0.00     0.020 A 
ATOM     79  C   UNL A   1      42.331  21.004  26.675  1.00  0.00     0.054 A 
BRANCH  79  80
ATOM     80  S   UNL A   1      42.222  19.360  25.915  1.00  0.00     0.124 S 
ATOM     81  O   UNL A   1      40.789  19.231  25.674  1.00  0.00    -0.237 OA
ATOM     82  O   UNL A   1      43.055  19.507  24.725  1.00  0.00    -0.237 OA
ATOM     83  O   UNL A   1      42.767  18.474  26.942  1.00  0.00    -0.744 OA
ENDBRANCH  79  80
ENDBRANCH  51  74
BRANCH  63  84
ATOM     84  C   UNL A   1      47.958  26.540  31.170  1.00  0.00    -0.014 A 
ATOM     85  C   UNL A   1      49.059  26.773  30.327  1.00  0.00     0.010 A 
ATOM     86  C   UNL A   1      48.167  25.884  32.398  1.00  0.00     0.010 A 
ATOM     87  C   UNL A   1      50.335  26.329  30.689  1.00  0.00     0.020 A 
ATOM     88  C   UNL A   1      49.444  25.461  32.775  1.00  0.00     0.020 A 
ATOM     89  C   UNL A   1      50.519  25.673  31.911  1.00  0.00     0.054 A 
BRANCH  89  90
ATOM     90  S   UNL A   1      52.190  25.139  32.375  1.00  0.00     0.124 S 
ATOM     91  O   UNL A   1      52.041  23.688  32.430  1.00  0.00    -0.237 OA
ATOM     92  O   UNL A   1      53.008  25.646  31.275  1.00  0.00    -0.237 OA
ATOM     93  O   UNL A   1      52.416  25.791  33.664  1.00  0.00    -0.744 OA
ENDBRANCH  89  90
ENDBRANCH  63  84
ENDBRANCH  37  38
ENDBRANCH  29  32
ENDBRANCH  27  28
ENDBRANCH   1  27
TORSDOF 18
ENDMDL
MODEL 2
REMARK VINA RESULT:     -11.3      3.579      4.679
REMARK SMILES CC[C@H]1CCC[C@H](O[C@@H]2CC[C@]([NH2+]C(C)C)(C(=O)NCCCNC(=O)c3ccc(-c4c5nc(c(-c6ccc(S(=O)(=O)[O-])cc6)c6ccc([nH]6)c(-c6ccc(S(=O)(=O)[O-])cc6)c6nc(c(-c7ccc(S(=O)(=O)[O-])cc7)c7ccc4[nH]7)C=C6)C=C5)cc3)C2)C1
REMARK SMILES IDX 21 1 20 2 19 3 17 4 18 5 12 7 9 8 10 9 86 10 11 11 8 12 7 13
REMARK SMILES IDX 3 14 4 15 87 16 5 17 6 18 2 19 1 20 13 21 14 24 15 25 16 26
REMARK SMILES IDX 22 27 23 28 24 29 25 31 26 32 27 33 85 34 28 35 84 36 29 37
REMARK SMILES IDX 30 38 31 39 78 40 32 41 83 42 77 43 79 44 33 45 82 46 76 47
REMARK SMILES IDX 75 48 34 50 64 51 45 52 63 53 46 54 49 55 62 56 80 57 47 58
REMARK SMILES IDX 48 59 61 61 81 62 50 63 35 64 36 65 44 66 37 67 43 68 38 69
REMARK SMILES IDX 39 70 40 71 41 72 42 73 65 74 66 75 74 76 67 77 73 78 68 79
REMARK SMILES IDX 69 80 70 81 71 82 72 83 51 84 52 85 60 86 53 87 59 88 54 89
REMARK SMILES IDX 55 90 56 91 57 92 58 93
REMARK H PARENT 19 6 13 22 13 23 23 30 79 49 49 60
REMARK Flexibility Score: inf
ROOT
ATOM      1  C   UNL A   1      35.130  28.750  26.942  1.00  0.00     0.042 C 
ENDROOT
BRANCH   1   2
ATOM      2  C   UNL A   1      33.731  28.723  26.317  1.00  0.00     0.118 C 
BRANCH   2   3
ATOM      3  N   UNL A   1      33.727  29.209  24.943  1.00  0.00    -0.351 N 
ATOM      4  C   UNL A   1      33.509  28.633  23.725  1.00  0.00     0.281 C 
ATOM      5  O   UNL A   1      33.685  29.392  22.761  1.00  0.00    -0.268 OA
ATOM      6  H   UNL A   1      33.925  30.171  24.878  1.00  0.00     0.163 HD
BRANCH   4   7
ATOM      7  C   UNL A   1      32.968  27.172  23.486  1.00  0.00     0.178 C 
ATOM      8  C   UNL A   1      33.592  24.823  23.072  1.00  0.00     0.125 C 
ATOM      9  C   UNL A   1      32.963  25.365  21.788  1.00  0.00     0.039 C 
ATOM     10  C   UNL A   1      33.924  26.051  23.912  1.00  0.00     0.111 C 
ATOM     11  C   UNL A   1      32.946  26.888  21.959  1.00  0.00     0.082 C 
BRANCH   8  12
ATOM     12  O   UNL A   1      34.618  23.845  22.905  1.00  0.00    -0.375 OA
BRANCH  12  13
ATOM     13  C   UNL A   1      35.209  23.085  23.974  1.00  0.00     0.118 C 
ATOM     14  C   UNL A   1      37.457  21.954  24.748  1.00  0.00    -0.009 C 
ATOM     15  C   UNL A   1      36.620  20.690  25.010  1.00  0.00     0.004 C 
ATOM     16  C   UNL A   1      36.746  23.004  23.863  1.00  0.00     0.035 C 
ATOM     17  C   UNL A   1      35.183  20.989  25.395  1.00  0.00     0.003 C 
ATOM     18  C   UNL A   1      34.508  21.764  24.279  1.00  0.00     0.032 C 
BRANCH  14  19
ATOM     19  C   UNL A   1      38.097  22.512  26.037  1.00  0.00     0.000 C 
ATOM     20  C   UNL A   1      38.339  24.009  26.097  1.00  0.00     0.004 C 
ENDBRANCH  14  19
ENDBRANCH  12  13
ENDBRANCH   8  12
BRANCH   7  21
ATOM     21  N   UNL A   1      31.681  27.004  24.216  1.00  0.00    -0.332 N 
ATOM     22  H   UNL A   1      31.691  27.662  24.996  1.00  0.00     0.347 HD
ATOM     23  H   UNL A   1      31.662  26.014  24.456  1.00  0.00     0.347 HD
BRANCH  21  24
ATOM     24  C   UNL A   1      30.422  27.217  23.489  1.00  0.00     0.176 C 
ATOM     25  C   UNL A   1      29.340  26.369  24.171  1.00  0.00     0.075 C 
ATOM     26  C   UNL A   1      29.928  28.665  23.434  1.00  0.00     0.075 C 
ENDBRANCH  21  24
ENDBRANCH   7  21
ENDBRANCH   4   7
ENDBRANCH   2   3
ENDBRANCH   1   2
BRANCH   1  27
ATOM     27  C   UNL A   1      35.567  30.070  27.575  1.00  0.00     0.118 C 
BRANCH  27  28
ATOM     28  N   UNL A   1      35.745  29.938  29.012  1.00  0.00    -0.352 N 
ATOM     29  C   UNL A   1      36.757  29.392  29.766  1.00  0.00     0.251 C 
ATOM     30  H   UNL A   1      35.004  30.307  29.543  1.00  0.00     0.163 HD
ATOM     31  O   UNL A   1      36.512  29.163  30.951  1.00  0.00    -0.269 OA
BRANCH  29  32
ATOM     32  C   UNL A   1      38.120  29.082  29.239  1.00  0.00     0.039 A 
ATOM     33  C   UNL A   1      39.021  28.430  30.097  1.00  0.00     0.014 A 
ATOM     34  C   UNL A   1      38.591  29.530  28.001  1.00  0.00     0.014 A 
ATOM     35  C   UNL A   1      40.361  28.239  29.728  1.00  0.00     0.010 A 
ATOM     36  C   UNL A   1      39.913  29.273  27.603  1.00  0.00     0.010 A 
ATOM     37  C   UNL A   1      40.825  28.657  28.474  1.00  0.00    -0.014 A 
BRANCH  37  38
ATOM     38  C   UNL A   1      42.263  28.522  28.093  1.00  0.00     0.031 A 
ATOM     39  C   UNL A   1      43.222  29.671  28.304  1.00  0.00     0.074 A 
ATOM     40  C   UNL A   1      42.725  27.381  27.542  1.00  0.00     0.049 A 
ATOM     41  N   UNL A   1      44.494  29.760  27.997  1.00  0.00    -0.248 NA
ATOM     42  C   UNL A   1      42.675  30.885  28.927  1.00  0.00     0.031 C 
ATOM     43  C   UNL A   1      41.925  26.184  27.279  1.00  0.00     0.029 A 
ATOM     44  N   UNL A   1      43.983  27.043  27.104  1.00  0.00    -0.354 N 
ATOM     45  C   UNL A   1      44.890  31.040  28.369  1.00  0.00     0.074 A 
ATOM     46  C   UNL A   1      43.713  31.707  28.883  1.00  0.00     0.031 C 
ATOM     47  C   UNL A   1      42.717  25.235  26.751  1.00  0.00     0.029 A 
ATOM     48  C   UNL A   1      44.070  25.767  26.598  1.00  0.00     0.049 A 
ATOM     49  H   UNL A   1      44.750  27.657  27.148  1.00  0.00     0.167 HD
ATOM     50  C   UNL A   1      46.120  31.611  28.309  1.00  0.00     0.031 A 
ATOM     51  C   UNL A   1      45.112  25.096  26.067  1.00  0.00     0.031 A 
ATOM     52  C   UNL A   1      47.300  30.957  27.806  1.00  0.00     0.049 A 
ATOM     53  C   UNL A   1      46.460  25.758  25.976  1.00  0.00     0.074 A 
ATOM     54  C   UNL A   1      48.593  31.447  27.735  1.00  0.00     0.029 A 
ATOM     55  N   UNL A   1      47.334  29.671  27.288  1.00  0.00    -0.354 N 
ATOM     56  N   UNL A   1      46.818  26.960  26.358  1.00  0.00    -0.248 NA
ATOM     57  C   UNL A   1      47.550  24.964  25.389  1.00  0.00     0.031 C 
ATOM     58  C   UNL A   1      49.400  30.475  27.132  1.00  0.00     0.029 A 
ATOM     59  C   UNL A   1      48.621  29.359  26.879  1.00  0.00     0.049 A 
ATOM     60  H   UNL A   1      46.558  29.069  27.221  1.00  0.00     0.167 HD
ATOM     61  C   UNL A   1      48.180  27.053  26.090  1.00  0.00     0.074 A 
ATOM     62  C   UNL A   1      48.582  25.785  25.517  1.00  0.00     0.031 C 
ATOM     63  C   UNL A   1      49.019  28.096  26.308  1.00  0.00     0.031 A 
BRANCH  50  64
ATOM     64  C   UNL A   1      46.241  33.039  28.783  1.00  0.00    -0.014 A 
ATOM     65  C   UNL A   1      46.175  34.116  27.880  1.00  0.00     0.010 A 
ATOM     66  C   UNL A   1      46.417  33.308  30.153  1.00  0.00     0.010 A 
ATOM     67  C   UNL A   1      46.350  35.428  28.327  1.00  0.00     0.020 A 
ATOM     68  C   UNL A   1      46.561  34.622  30.609  1.00  0.00     0.020 A 
ATOM     69  C   UNL A   1      46.555  35.672  29.688  1.00  0.00     0.054 A 
BRANCH  69  70
ATOM     70  S   UNL A   1      46.806  37.382  30.241  1.00  0.00     0.124 S 
ATOM     71  O   UNL A   1      45.437  37.807  30.525  1.00  0.00    -0.237 OA
ATOM     72  O   UNL A   1      47.668  37.221  31.408  1.00  0.00    -0.237 OA
ATOM     73  O   UNL A   1      47.432  38.030  29.091  1.00  0.00    -0.744 OA
ENDBRANCH  69  70
ENDBRANCH  50  64
BRANCH  51  74
ATOM     74  C   UNL A   1      44.922  23.694  25.603  1.00  0.00    -0.014 A 
ATOM     75  C   UNL A   1      44.921  23.398  24.229  1.00  0.00     0.010 A 
ATOM     76  C   UNL A   1      44.770  22.647  26.529  1.00  0.00     0.010 A 
ATOM     77  C   UNL A   1      44.771  22.079  23.789  1.00  0.00     0.020 A 
ATOM     78  C   UNL A   1      44.645  21.325  26.095  1.00  0.00     0.020 A 
ATOM     79  C   UNL A   1      44.640  21.050  24.725  1.00  0.00     0.054 A 
BRANCH  79  80
ATOM     80  S   UNL A   1      44.526  19.339  24.133  1.00  0.00     0.124 S 
ATOM     81  O   UNL A   1      45.790  18.773  24.593  1.00  0.00    -0.237 OA
ATOM     82  O   UNL A   1      43.328  18.850  24.809  1.00  0.00    -0.237 OA
ATOM     83  O   UNL A   1      44.397  19.488  22.684  1.00  0.00    -0.744 OA
ENDBRANCH  79  80
ENDBRANCH  51  74
BRANCH  63  84
ATOM     84  C   UNL A   1      50.475  27.902  25.968  1.00  0.00    -0.014 A 
ATOM     85  C   UNL A   1      51.377  27.341  26.890  1.00  0.00     0.010 A 
ATOM     86  C   UNL A   1      50.938  28.246  24.684  1.00  0.00     0.010 A 
ATOM     87  C   UNL A   1      52.720  27.159  26.545  1.00  0.00     0.020 A 
ATOM     88  C   UNL A   1      52.273  28.042  24.327  1.00  0.00     0.020 A 
ATOM     89  C   UNL A   1      53.161  27.513  25.266  1.00  0.00     0.054 A 
BRANCH  89  90
ATOM     90  S   UNL A   1      54.899  27.234  24.829  1.00  0.00     0.124 S 
ATOM     91  O   UNL A   1      55.032  28.008  23.598  1.00  0.00    -0.237 OA
ATOM     92  O   UNL A   1      55.612  27.768  25.988  1.00  0.00    -0.237 OA
ATOM     93  O   UNL A   1      54.987  25.784  24.666  1.00  0.00    -0.744 OA
ENDBRANCH  89  90
ENDBRANCH  63  84
ENDBRANCH  37  38
ENDBRANCH  29  32
ENDBRANCH  27  28
ENDBRANCH   1  27
TORSDOF 18
ENDMDL
MODEL 3
REMARK VINA RESULT:     -11.2      2.867      9.660
REMARK SMILES CC[C@H]1CCC[C@H](O[C@@H]2CC[C@]([NH2+]C(C)C)(C(=O)NCCCNC(=O)c3ccc(-c4c5nc(c(-c6ccc(S(=O)(=O)[O-])cc6)c6ccc([nH]6)c(-c6ccc(S(=O)(=O)[O-])cc6)c6nc(c(-c7ccc(S(=O)(=O)[O-])cc7)c7ccc4[nH]7)C=C6)C=C5)cc3)C2)C1
REMARK SMILES IDX 21 1 20 2 19 3 17 4 18 5 12 7 9 8 10 9 86 10 11 11 8 12 7 13
REMARK SMILES IDX 3 14 4 15 87 16 5 17 6 18 2 19 1 20 13 21 14 24 15 25 16 26
REMARK SMILES IDX 22 27 23 28 24 29 25 31 26 32 27 33 85 34 28 35 84 36 29 37
REMARK SMILES IDX 30 38 31 39 78 40 32 41 83 42 77 43 79 44 33 45 82 46 76 47
REMARK SMILES IDX 75 48 34 50 64 51 45 52 63 53 46 54 49 55 62 56 80 57 47 58
REMARK SMILES IDX 48 59 61 61 81 62 50 63 35 64 36 65 44 66 37 67 43 68 38 69
REMARK SMILES IDX 39 70 40 71 41 72 42 73 65 74 66 75 74 76 67 77 73 78 68 79
REMARK SMILES IDX 69 80 70 81 71 82 72 83 51 84 52 85 60 86 53 87 59 88 54 89
REMARK SMILES IDX 55 90 56 91 57 92 58 93
REMARK H PARENT 19 6 13 22 13 23 23 30 79 49 49 60
REMARK Flexibility Score: inf
ROOT
ATOM      1  C   UNL A   1      36.263  23.341  24.667  1.00  0.00     0.042 C 
ENDROOT
BRANCH   1   2
ATOM      2  C   UNL A   1      35.337  22.392  23.900  1.00  0.00     0.118 C 
BRANCH   2   3
ATOM      3  N   UNL A   1      34.556  21.538  24.787  1.00  0.00    -0.351 N 
ATOM      4  C   UNL A   1      33.355  21.662  25.422  1.00  0.00     0.281 C 
ATOM      5  O   UNL A   1      33.075  20.718  26.176  1.00  0.00    -0.268 OA
ATOM      6  H   UNL A   1      34.995  20.676  24.970  1.00  0.00     0.163 HD
BRANCH   4   7
ATOM      7  C   UNL A   1      32.307  22.814  25.182  1.00  0.00     0.178 C 
ATOM      8  C   UNL A   1      31.525  25.029  25.932  1.00  0.00     0.125 C 
ATOM      9  C   UNL A   1      30.453  24.009  26.316  1.00  0.00     0.039 C 
ATOM     10  C   UNL A   1      32.771  24.210  25.615  1.00  0.00     0.111 C 
ATOM     11  C   UNL A   1      31.133  22.641  26.184  1.00  0.00     0.082 C 
BRANCH   8  12
ATOM     12  O   UNL A   1      31.677  26.143  26.811  1.00  0.00    -0.375 OA
BRANCH  12  13
ATOM     13  C   UNL A   1      32.128  27.448  26.411  1.00  0.00     0.118 C 
ATOM     14  C   UNL A   1      32.093  29.985  27.114  1.00  0.00    -0.009 C 
ATOM     15  C   UNL A   1      31.625  30.279  25.678  1.00  0.00     0.004 C 
ATOM     16  C   UNL A   1      31.958  28.501  27.526  1.00  0.00     0.035 C 
ATOM     17  C   UNL A   1      32.142  29.279  24.661  1.00  0.00     0.003 C 
ATOM     18  C   UNL A   1      31.661  27.887  25.025  1.00  0.00     0.032 C 
BRANCH  14  19
ATOM     19  C   UNL A   1      33.461  30.629  27.428  1.00  0.00     0.000 C 
ATOM     20  C   UNL A   1      34.682  29.732  27.342  1.00  0.00     0.004 C 
ENDBRANCH  14  19
ENDBRANCH  12  13
ENDBRANCH   8  12
BRANCH   7  21
ATOM     21  N   UNL A   1      31.951  22.856  23.737  1.00  0.00    -0.332 N 
ATOM     22  H   UNL A   1      30.933  22.897  23.680  1.00  0.00     0.347 HD
ATOM     23  H   UNL A   1      32.395  22.024  23.351  1.00  0.00     0.347 HD
BRANCH  21  24
ATOM     24  C   UNL A   1      32.474  23.953  22.911  1.00  0.00     0.176 C 
ATOM     25  C   UNL A   1      33.087  23.334  21.647  1.00  0.00     0.075 C 
ATOM     26  C   UNL A   1      31.446  25.002  22.478  1.00  0.00     0.075 C 
ENDBRANCH  21  24
ENDBRANCH   7  21
ENDBRANCH   4   7
ENDBRANCH   2   3
ENDBRANCH   1   2
BRANCH   1  27
ATOM     27  C   UNL A   1      36.682  22.898  26.068  1.00  0.00     0.118 C 
BRANCH  27  28
ATOM     28  N   UNL A   1      38.020  22.330  26.068  1.00  0.00    -0.352 N 
ATOM     29  C   UNL A   1      39.254  22.886  26.308  1.00  0.00     0.251 C 
ATOM     30  H   UNL A   1      38.048  21.369  25.856  1.00  0.00     0.163 HD
ATOM     31  O   UNL A   1      40.240  22.234  25.960  1.00  0.00    -0.269 OA
BRANCH  29  32
ATOM     32  C   UNL A   1      39.462  24.209  26.971  1.00  0.00     0.039 A 
ATOM     33  C   UNL A   1      40.153  25.199  26.253  1.00  0.00     0.014 A 
ATOM     34  C   UNL A   1      39.137  24.464  28.306  1.00  0.00     0.014 A 
ATOM     35  C   UNL A   1      40.515  26.411  26.860  1.00  0.00     0.010 A 
ATOM     36  C   UNL A   1      39.436  25.705  28.890  1.00  0.00     0.010 A 
ATOM     37  C   UNL A   1      40.160  26.681  28.188  1.00  0.00    -0.014 A 
BRANCH  37  38
ATOM     38  C   UNL A   1      40.597  27.936  28.869  1.00  0.00     0.031 A 
ATOM     39  C   UNL A   1      42.002  28.063  29.414  1.00  0.00     0.074 A 
ATOM     40  C   UNL A   1      39.743  28.969  29.023  1.00  0.00     0.049 A 
ATOM     41  N   UNL A   1      42.551  29.054  30.074  1.00  0.00    -0.248 NA
ATOM     42  C   UNL A   1      42.900  26.918  29.202  1.00  0.00     0.031 C 
ATOM     43  C   UNL A   1      38.359  29.000  28.550  1.00  0.00     0.029 A 
ATOM     44  N   UNL A   1      39.917  30.194  29.623  1.00  0.00    -0.354 N 
ATOM     45  C   UNL A   1      43.847  28.645  30.372  1.00  0.00     0.074 A 
ATOM     46  C   UNL A   1      43.985  27.298  29.860  1.00  0.00     0.031 C 
ATOM     47  C   UNL A   1      37.819  30.192  28.853  1.00  0.00     0.029 A 
ATOM     48  C   UNL A   1      38.801  30.996  29.578  1.00  0.00     0.049 A 
ATOM     49  H   UNL A   1      40.762  30.470  30.045  1.00  0.00     0.167 HD
ATOM     50  C   UNL A   1      44.841  29.324  30.997  1.00  0.00     0.031 A 
ATOM     51  C   UNL A   1      38.584  32.234  30.065  1.00  0.00     0.031 A 
ATOM     52  C   UNL A   1      44.718  30.666  31.505  1.00  0.00     0.049 A 
ATOM     53  C   UNL A   1      39.687  32.959  30.787  1.00  0.00     0.074 A 
ATOM     54  C   UNL A   1      45.681  31.445  32.126  1.00  0.00     0.029 A 
ATOM     55  N   UNL A   1      43.563  31.431  31.452  1.00  0.00    -0.354 N 
ATOM     56  N   UNL A   1      40.912  32.563  31.035  1.00  0.00    -0.248 NA
ATOM     57  C   UNL A   1      39.378  34.308  31.287  1.00  0.00     0.031 C 
ATOM     58  C   UNL A   1      45.095  32.663  32.490  1.00  0.00     0.029 A 
ATOM     59  C   UNL A   1      43.783  32.665  32.045  1.00  0.00     0.049 A 
ATOM     60  H   UNL A   1      42.712  31.141  31.053  1.00  0.00     0.167 HD
ATOM     61  C   UNL A   1      41.529  33.625  31.688  1.00  0.00     0.074 A 
ATOM     62  C   UNL A   1      40.544  34.682  31.793  1.00  0.00     0.031 C 
ATOM     63  C   UNL A   1      42.801  33.715  32.150  1.00  0.00     0.031 A 
BRANCH  50  64
ATOM     64  C   UNL A   1      46.154  28.605  31.188  1.00  0.00    -0.014 A 
ATOM     65  C   UNL A   1      46.409  27.848  32.347  1.00  0.00     0.010 A 
ATOM     66  C   UNL A   1      47.145  28.682  30.193  1.00  0.00     0.010 A 
ATOM     67  C   UNL A   1      47.652  27.238  32.536  1.00  0.00     0.020 A 
ATOM     68  C   UNL A   1      48.379  28.047  30.365  1.00  0.00     0.020 A 
ATOM     69  C   UNL A   1      48.634  27.353  31.549  1.00  0.00     0.054 A 
BRANCH  69  70
ATOM     70  S   UNL A   1      50.249  26.575  31.829  1.00  0.00     0.124 S 
ATOM     71  O   UNL A   1      50.142  25.365  31.017  1.00  0.00    -0.237 OA
ATOM     72  O   UNL A   1      51.184  27.582  31.333  1.00  0.00    -0.237 OA
ATOM     73  O   UNL A   1      50.283  26.354  33.273  1.00  0.00    -0.744 OA
ENDBRANCH  69  70
ENDBRANCH  50  64
BRANCH  51  74
ATOM     74  C   UNL A   1      37.260  32.883  29.856  1.00  0.00    -0.014 A 
ATOM     75  C   UNL A   1      36.304  32.889  30.887  1.00  0.00     0.010 A 
ATOM     76  C   UNL A   1      36.959  33.520  28.640  1.00  0.00     0.010 A 
ATOM     77  C   UNL A   1      35.070  33.520  30.705  1.00  0.00     0.020 A 
ATOM     78  C   UNL A   1      35.736  34.174  28.463  1.00  0.00     0.020 A 
ATOM     79  C   UNL A   1      34.796  34.165  29.496  1.00  0.00     0.054 A 
BRANCH  79  80
ATOM     80  S   UNL A   1      33.221  35.045  29.312  1.00  0.00     0.124 S 
ATOM     81  O   UNL A   1      32.536  34.238  28.309  1.00  0.00    -0.237 OA
ATOM     82  O   UNL A   1      32.666  34.984  30.662  1.00  0.00    -0.237 OA
ATOM     83  O   UNL A   1      33.625  36.380  28.874  1.00  0.00    -0.744 OA
ENDBRANCH  79  80
ENDBRANCH  51  74
BRANCH  63  84
ATOM     84  C   UNL A   1      43.225  35.019  32.777  1.00  0.00    -0.014 A 
ATOM     85  C   UNL A   1      43.724  36.080  32.001  1.00  0.00     0.010 A 
ATOM     86  C   UNL A   1      43.076  35.200  34.165  1.00  0.00     0.010 A 
ATOM     87  C   UNL A   1      44.097  37.285  32.605  1.00  0.00     0.020 A 
ATOM     88  C   UNL A   1      43.424  36.410  34.769  1.00  0.00     0.020 A 
ATOM     89  C   UNL A   1      43.947  37.442  33.987  1.00  0.00     0.054 A 
BRANCH  89  90
ATOM     90  S   UNL A   1      44.405  39.026  34.744  1.00  0.00     0.124 S 
ATOM     91  O   UNL A   1      44.127  38.780  36.156  1.00  0.00    -0.237 OA
ATOM     92  O   UNL A   1      45.818  39.154  34.394  1.00  0.00    -0.237 OA
ATOM     93  O   UNL A   1      43.518  39.989  34.093  1.00  0.00    -0.744 OA
ENDBRANCH  89  90
ENDBRANCH  63  84
ENDBRANCH  37  38
ENDBRANCH  29  32
ENDBRANCH  27  28
ENDBRANCH   1  27
TORSDOF 18
ENDMDL
