MODEL 1
REMARK VINA RESULT:     -12.4      0.000      0.000
REMARK SMILES COc1cccc(NC(=O)c2nccnc2C(=O)NCCCNC(=O)c2ccc(-c3c4nc(c(-c5ccc(S(=O)(=O)[O-])cc5)c5ccc([nH]5)c(-c5ccc(S(=O)(=O)[O-])cc5)c5nc(c(-c6ccc(S(=O)(=O)[O-])cc6)c6ccc3[nH]6)C=C5)C=C4)cc2)c1
REMARK SMILES IDX 21 1 20 2 19 3 17 4 18 5 16 7 11 8 12 9 13 10 15 11 14 12
REMARK SMILES IDX 9 13 8 14 10 16 7 17 3 18 4 19 86 20 5 21 6 22 2 23 1 24
REMARK SMILES IDX 22 25 23 26 24 27 25 29 26 30 27 31 85 32 28 33 84 34 29 35
REMARK SMILES IDX 30 36 31 37 78 38 32 39 83 40 77 41 79 42 33 43 82 44 76 45
REMARK SMILES IDX 75 46 34 48 64 49 45 50 63 51 46 52 49 53 62 54 80 55 47 56
REMARK SMILES IDX 48 57 61 59 81 60 50 61 35 62 36 63 44 64 37 65 43 66 38 67
REMARK SMILES IDX 39 68 40 69 41 70 42 71 65 72 66 73 74 74 67 75 73 76 68 77
REMARK SMILES IDX 69 78 70 79 71 80 72 81 51 82 52 83 60 84 53 85 59 86 54 87
REMARK SMILES IDX 55 88 56 89 57 90 58 91
REMARK H PARENT 19 6 8 15 23 28 79 47 49 58
REMARK Flexibility Score: inf
ROOT
ATOM      1  C   UNL A   1      39.887  21.905  26.793  1.00  0.00     0.042 C 
ENDROOT
BRANCH   1   2
ATOM      2  C   UNL A   1      38.610  22.079  26.000  1.00  0.00     0.118 C 
BRANCH   2   3
ATOM      3  N   UNL A   1      37.902  20.876  25.645  1.00  0.00    -0.351 N 
ATOM      4  C   UNL A   1      36.671  20.696  25.057  1.00  0.00     0.272 C 
ATOM      5  O   UNL A   1      36.380  19.524  24.791  1.00  0.00    -0.267 OA
ATOM      6  H   UNL A   1      38.380  20.043  25.859  1.00  0.00     0.163 HD
BRANCH   4   7
ATOM      7  C   UNL A   1      35.637  21.759  24.794  1.00  0.00     0.159 A 
ATOM      8  C   UNL A   1      34.497  22.084  25.521  1.00  0.00     0.159 A 
ATOM      9  N   UNL A   1      33.731  23.194  25.245  1.00  0.00    -0.247 NA
ATOM     10  C   UNL A   1      34.110  23.939  24.188  1.00  0.00     0.132 A 
ATOM     11  N   UNL A   1      35.976  22.530  23.704  1.00  0.00    -0.247 NA
ATOM     12  C   UNL A   1      35.203  23.601  23.421  1.00  0.00     0.132 A 
BRANCH   8  13
ATOM     13  C   UNL A   1      33.962  21.304  26.644  1.00  0.00     0.276 C 
ATOM     14  N   UNL A   1      33.306  20.091  26.448  1.00  0.00    -0.320 N 
ATOM     15  H   UNL A   1      32.928  19.716  27.276  1.00  0.00     0.170 HD
ATOM     16  O   UNL A   1      34.114  21.744  27.784  1.00  0.00    -0.267 OA
BRANCH  14  17
ATOM     17  C   UNL A   1      33.065  19.280  25.305  1.00  0.00     0.045 A 
ATOM     18  C   UNL A   1      33.061  17.018  24.372  1.00  0.00     0.120 A 
ATOM     19  C   UNL A   1      32.581  17.514  23.163  1.00  0.00     0.046 A 
ATOM     20  C   UNL A   1      33.304  17.897  25.438  1.00  0.00     0.072 A 
ATOM     21  C   UNL A   1      32.369  18.873  23.005  1.00  0.00     0.006 A 
ATOM     22  C   UNL A   1      32.636  19.747  24.062  1.00  0.00     0.026 A 
BRANCH  18  23
ATOM     23  O   UNL A   1      33.279  15.670  24.362  1.00  0.00    -0.497 OA
ATOM     24  C   UNL A   1      32.704  14.909  25.414  1.00  0.00     0.278 C 
ENDBRANCH  18  23
ENDBRANCH  14  17
ENDBRANCH   8  13
ENDBRANCH   4   7
ENDBRANCH   2   3
ENDBRANCH   1   2
BRANCH   1  25
ATOM     25  C   UNL A   1      40.559  23.192  27.236  1.00  0.00     0.118 C 
BRANCH  25  26
ATOM     26  N   UNL A   1      40.897  24.101  26.146  1.00  0.00    -0.352 N 
ATOM     27  C   UNL A   1      41.105  25.461  26.103  1.00  0.00     0.251 C 
ATOM     28  H   UNL A   1      40.997  23.656  25.273  1.00  0.00     0.163 HD
ATOM     29  O   UNL A   1      41.293  25.998  25.012  1.00  0.00    -0.269 OA
BRANCH  27  30
ATOM     30  C   UNL A   1      41.057  26.297  27.326  1.00  0.00     0.039 A 
ATOM     31  C   UNL A   1      42.031  27.286  27.512  1.00  0.00     0.014 A 
ATOM     32  C   UNL A   1      40.079  26.120  28.300  1.00  0.00     0.014 A 
ATOM     33  C   UNL A   1      41.956  28.144  28.615  1.00  0.00     0.010 A 
ATOM     34  C   UNL A   1      39.917  27.062  29.309  1.00  0.00     0.010 A 
ATOM     35  C   UNL A   1      40.865  28.076  29.496  1.00  0.00    -0.014 A 
BRANCH  35  36
ATOM     36  C   UNL A   1      40.705  29.022  30.633  1.00  0.00     0.031 A 
ATOM     37  C   UNL A   1      41.583  28.891  31.854  1.00  0.00     0.074 A 
ATOM     38  C   UNL A   1      39.724  29.948  30.606  1.00  0.00     0.049 A 
ATOM     39  N   UNL A   1      41.540  29.559  32.978  1.00  0.00    -0.248 NA
ATOM     40  C   UNL A   1      42.619  27.844  31.825  1.00  0.00     0.031 C 
ATOM     41  C   UNL A   1      38.766  30.141  29.514  1.00  0.00     0.029 A 
ATOM     42  N   UNL A   1      39.365  30.899  31.529  1.00  0.00    -0.354 N 
ATOM     43  C   UNL A   1      42.514  28.993  33.794  1.00  0.00     0.074 A 
ATOM     44  C   UNL A   1      43.086  27.885  33.064  1.00  0.00     0.031 C 
ATOM     45  C   UNL A   1      37.961  31.173  29.810  1.00  0.00     0.029 A 
ATOM     46  C   UNL A   1      38.308  31.686  31.131  1.00  0.00     0.049 A 
ATOM     47  H   UNL A   1      39.820  31.009  32.394  1.00  0.00     0.167 HD
ATOM     48  C   UNL A   1      42.922  29.376  35.027  1.00  0.00     0.031 A 
ATOM     49  C   UNL A   1      37.684  32.702  31.758  1.00  0.00     0.031 A 
ATOM     50  C   UNL A   1      42.378  30.502  35.736  1.00  0.00     0.049 A 
ATOM     51  C   UNL A   1      38.166  33.123  33.120  1.00  0.00     0.074 A 
ATOM     52  C   UNL A   1      42.769  31.021  36.957  1.00  0.00     0.029 A 
ATOM     53  N   UNL A   1      41.327  31.287  35.285  1.00  0.00    -0.354 N 
ATOM     54  N   UNL A   1      39.139  32.620  33.841  1.00  0.00    -0.248 NA
ATOM     55  C   UNL A   1      37.474  34.258  33.745  1.00  0.00     0.031 C 
ATOM     56  C   UNL A   1      41.920  32.088  37.269  1.00  0.00     0.029 A 
ATOM     57  C   UNL A   1      41.041  32.272  36.213  1.00  0.00     0.049 A 
ATOM     58  H   UNL A   1      40.855  31.162  34.430  1.00  0.00     0.167 HD
ATOM     59  C   UNL A   1      39.193  33.393  34.995  1.00  0.00     0.074 A 
ATOM     60  C   UNL A   1      38.169  34.409  34.865  1.00  0.00     0.031 C 
ATOM     61  C   UNL A   1      40.016  33.274  36.066  1.00  0.00     0.031 A 
BRANCH  48  62
ATOM     62  C   UNL A   1      44.017  28.573  35.682  1.00  0.00    -0.014 A 
ATOM     63  C   UNL A   1      45.373  28.898  35.492  1.00  0.00     0.010 A 
ATOM     64  C   UNL A   1      43.687  27.497  36.526  1.00  0.00     0.010 A 
ATOM     65  C   UNL A   1      46.378  28.134  36.093  1.00  0.00     0.020 A 
ATOM     66  C   UNL A   1      44.687  26.751  37.156  1.00  0.00     0.020 A 
ATOM     67  C   UNL A   1      46.028  27.064  36.920  1.00  0.00     0.054 A 
BRANCH  67  68
ATOM     68  S   UNL A   1      47.352  26.107  37.707  1.00  0.00     0.124 S 
ATOM     69  O   UNL A   1      47.758  26.993  38.795  1.00  0.00    -0.237 OA
ATOM     70  O   UNL A   1      46.664  24.885  38.117  1.00  0.00    -0.237 OA
ATOM     71  O   UNL A   1      48.338  25.937  36.642  1.00  0.00    -0.744 OA
ENDBRANCH  67  68
ENDBRANCH  48  62
BRANCH  49  72
ATOM     72  C   UNL A   1      36.554  33.409  31.092  1.00  0.00    -0.014 A 
ATOM     73  C   UNL A   1      35.368  33.681  31.795  1.00  0.00     0.010 A 
ATOM     74  C   UNL A   1      36.665  33.830  29.754  1.00  0.00     0.010 A 
ATOM     75  C   UNL A   1      34.306  34.342  31.170  1.00  0.00     0.020 A 
ATOM     76  C   UNL A   1      35.618  34.519  29.134  1.00  0.00     0.020 A 
ATOM     77  C   UNL A   1      34.441  34.761  29.843  1.00  0.00     0.054 A 
BRANCH  77  78
ATOM     78  S   UNL A   1      33.071  35.668  29.069  1.00  0.00     0.124 S 
ATOM     79  O   UNL A   1      32.461  34.641  28.231  1.00  0.00    -0.237 OA
ATOM     80  O   UNL A   1      32.285  36.094  30.224  1.00  0.00    -0.237 OA
ATOM     81  O   UNL A   1      33.741  36.748  28.350  1.00  0.00    -0.744 OA
ENDBRANCH  77  78
ENDBRANCH  49  72
BRANCH  61  82
ATOM     82  C   UNL A   1      39.867  34.287  37.170  1.00  0.00    -0.014 A 
ATOM     83  C   UNL A   1      40.546  35.518  37.127  1.00  0.00     0.010 A 
ATOM     84  C   UNL A   1      38.990  34.023  38.239  1.00  0.00     0.010 A 
ATOM     85  C   UNL A   1      40.377  36.452  38.154  1.00  0.00     0.020 A 
ATOM     86  C   UNL A   1      38.794  34.967  39.248  1.00  0.00     0.020 A 
ATOM     87  C   UNL A   1      39.502  36.170  39.208  1.00  0.00     0.054 A 
BRANCH  87  88
ATOM     88  S   UNL A   1      39.270  37.415  40.504  1.00  0.00     0.124 S 
ATOM     89  O   UNL A   1      38.199  38.237  39.948  1.00  0.00    -0.237 OA
ATOM     90  O   UNL A   1      38.905  36.606  41.665  1.00  0.00    -0.237 OA
ATOM     91  O   UNL A   1      40.573  38.070  40.594  1.00  0.00    -0.744 OA
ENDBRANCH  87  88
ENDBRANCH  61  82
ENDBRANCH  35  36
ENDBRANCH  27  30
ENDBRANCH  25  26
ENDBRANCH   1  25
TORSDOF 16
ENDMDL
MODEL 2
REMARK VINA RESULT:     -12.2      4.635     10.132
REMARK SMILES COc1cccc(NC(=O)c2nccnc2C(=O)NCCCNC(=O)c2ccc(-c3c4nc(c(-c5ccc(S(=O)(=O)[O-])cc5)c5ccc([nH]5)c(-c5ccc(S(=O)(=O)[O-])cc5)c5nc(c(-c6ccc(S(=O)(=O)[O-])cc6)c6ccc3[nH]6)C=C5)C=C4)cc2)c1
REMARK SMILES IDX 21 1 20 2 19 3 17 4 18 5 16 7 11 8 12 9 13 10 15 11 14 12
REMARK SMILES IDX 9 13 8 14 10 16 7 17 3 18 4 19 86 20 5 21 6 22 2 23 1 24
REMARK SMILES IDX 22 25 23 26 24 27 25 29 26 30 27 31 85 32 28 33 84 34 29 35
REMARK SMILES IDX 30 36 31 37 78 38 32 39 83 40 77 41 79 42 33 43 82 44 76 45
REMARK SMILES IDX 75 46 34 48 64 49 45 50 63 51 46 52 49 53 62 54 80 55 47 56
REMARK SMILES IDX 48 57 61 59 81 60 50 61 35 62 36 63 44 64 37 65 43 66 38 67
REMARK SMILES IDX 39 68 40 69 41 70 42 71 65 72 66 73 74 74 67 75 73 76 68 77
REMARK SMILES IDX 69 78 70 79 71 80 72 81 51 82 52 83 60 84 53 85 59 86 54 87
REMARK SMILES IDX 55 88 56 89 57 90 58 91
REMARK H PARENT 19 6 8 15 23 28 79 47 49 58
REMARK Flexibility Score: inf
ROOT
ATOM      1  C   UNL A   1      33.038  27.088  25.513  1.00  0.00     0.042 C 
ENDROOT
BRANCH   1   2
ATOM      2  C   UNL A   1      33.643  26.587  24.219  1.00  0.00     0.118 C 
BRANCH   2   3
ATOM      3  N   UNL A   1      32.876  25.617  23.481  1.00  0.00    -0.351 N 
ATOM      4  C   UNL A   1      33.009  24.251  23.383  1.00  0.00     0.272 C 
ATOM      5  O   UNL A   1      32.122  23.681  22.737  1.00  0.00    -0.267 OA
ATOM      6  H   UNL A   1      32.132  25.996  22.960  1.00  0.00     0.163 HD
BRANCH   4   7
ATOM      7  C   UNL A   1      34.151  23.419  23.902  1.00  0.00     0.159 A 
ATOM      8  C   UNL A   1      34.150  22.415  24.864  1.00  0.00     0.159 A 
ATOM      9  N   UNL A   1      35.251  21.627  25.117  1.00  0.00    -0.247 NA
ATOM     10  C   UNL A   1      36.366  21.910  24.417  1.00  0.00     0.132 A 
ATOM     11  N   UNL A   1      35.320  23.696  23.226  1.00  0.00    -0.247 NA
ATOM     12  C   UNL A   1      36.404  22.938  23.501  1.00  0.00     0.132 A 
BRANCH   8  13
ATOM     13  C   UNL A   1      33.011  22.073  25.725  1.00  0.00     0.276 C 
ATOM     14  N   UNL A   1      32.320  20.872  25.583  1.00  0.00    -0.320 N 
ATOM     15  H   UNL A   1      31.531  20.808  26.168  1.00  0.00     0.170 HD
ATOM     16  O   UNL A   1      32.677  22.876  26.596  1.00  0.00    -0.267 OA
BRANCH  14  17
ATOM     17  C   UNL A   1      32.511  19.720  24.772  1.00  0.00     0.045 A 
ATOM     18  C   UNL A   1      33.175  17.367  24.693  1.00  0.00     0.120 A 
ATOM     19  C   UNL A   1      32.887  17.327  23.332  1.00  0.00     0.046 A 
ATOM     20  C   UNL A   1      32.989  18.558  25.410  1.00  0.00     0.072 A 
ATOM     21  C   UNL A   1      32.445  18.468  22.682  1.00  0.00     0.006 A 
ATOM     22  C   UNL A   1      32.285  19.658  23.396  1.00  0.00     0.026 A 
BRANCH  18  23
ATOM     23  O   UNL A   1      33.658  16.187  25.185  1.00  0.00    -0.497 OA
ATOM     24  C   UNL A   1      32.723  15.145  25.416  1.00  0.00     0.278 C 
ENDBRANCH  18  23
ENDBRANCH  14  17
ENDBRANCH   8  13
ENDBRANCH   4   7
ENDBRANCH   2   3
ENDBRANCH   1   2
BRANCH   1  25
ATOM     25  C   UNL A   1      34.020  27.694  26.498  1.00  0.00     0.118 C 
BRANCH  25  26
ATOM     26  N   UNL A   1      33.665  29.032  26.957  1.00  0.00    -0.352 N 
ATOM     27  C   UNL A   1      34.371  29.997  27.640  1.00  0.00     0.251 C 
ATOM     28  H   UNL A   1      32.744  29.298  26.734  1.00  0.00     0.163 HD
ATOM     29  O   UNL A   1      33.788  31.024  27.987  1.00  0.00    -0.269 OA
BRANCH  27  30
ATOM     30  C   UNL A   1      35.793  29.807  28.013  1.00  0.00     0.039 A 
ATOM     31  C   UNL A   1      36.102  29.333  29.295  1.00  0.00     0.014 A 
ATOM     32  C   UNL A   1      36.829  30.097  27.132  1.00  0.00     0.014 A 
ATOM     33  C   UNL A   1      37.432  29.065  29.640  1.00  0.00     0.010 A 
ATOM     34  C   UNL A   1      38.127  29.690  27.419  1.00  0.00     0.010 A 
ATOM     35  C   UNL A   1      38.453  29.188  28.685  1.00  0.00    -0.014 A 
BRANCH  35  36
ATOM     36  C   UNL A   1      39.867  28.836  28.987  1.00  0.00     0.031 A 
ATOM     37  C   UNL A   1      40.785  29.860  29.608  1.00  0.00     0.074 A 
ATOM     38  C   UNL A   1      40.348  27.626  28.636  1.00  0.00     0.049 A 
ATOM     39  N   UNL A   1      42.065  29.774  29.866  1.00  0.00    -0.248 NA
ATOM     40  C   UNL A   1      40.198  31.169  29.946  1.00  0.00     0.031 C 
ATOM     41  C   UNL A   1      39.584  26.565  27.973  1.00  0.00     0.029 A 
ATOM     42  N   UNL A   1      41.601  27.084  28.781  1.00  0.00    -0.354 N 
ATOM     43  C   UNL A   1      42.437  31.020  30.361  1.00  0.00     0.074 A 
ATOM     44  C   UNL A   1      41.267  31.864  30.305  1.00  0.00     0.031 C 
ATOM     45  C   UNL A   1      40.370  25.489  27.812  1.00  0.00     0.029 A 
ATOM     46  C   UNL A   1      41.706  25.795  28.311  1.00  0.00     0.049 A 
ATOM     47  H   UNL A   1      42.355  27.571  29.185  1.00  0.00     0.167 HD
ATOM     48  C   UNL A   1      43.635  31.420  30.849  1.00  0.00     0.031 A 
ATOM     49  C   UNL A   1      42.758  24.954  28.279  1.00  0.00     0.031 A 
ATOM     50  C   UNL A   1      44.789  30.566  30.938  1.00  0.00     0.049 A 
ATOM     51  C   UNL A   1      44.076  25.413  28.844  1.00  0.00     0.074 A 
ATOM     52  C   UNL A   1      46.028  30.849  31.483  1.00  0.00     0.029 A 
ATOM     53  N   UNL A   1      44.843  29.260  30.475  1.00  0.00    -0.354 N 
ATOM     54  N   UNL A   1      44.384  26.572  29.375  1.00  0.00    -0.248 NA
ATOM     55  C   UNL A   1      45.181  24.446  28.816  1.00  0.00     0.031 C 
ATOM     56  C   UNL A   1      46.849  29.731  31.301  1.00  0.00     0.029 A 
ATOM     57  C   UNL A   1      46.101  28.731  30.700  1.00  0.00     0.049 A 
ATOM     58  H   UNL A   1      44.096  28.781  30.049  1.00  0.00     0.167 HD
ATOM     59  C   UNL A   1      45.714  26.464  29.769  1.00  0.00     0.074 A 
ATOM     60  C   UNL A   1      46.141  25.121  29.433  1.00  0.00     0.031 C 
ATOM     61  C   UNL A   1      46.508  27.392  30.356  1.00  0.00     0.031 A 
BRANCH  48  62
ATOM     62  C   UNL A   1      43.753  32.843  31.331  1.00  0.00    -0.014 A 
ATOM     63  C   UNL A   1      43.543  33.175  32.683  1.00  0.00     0.010 A 
ATOM     64  C   UNL A   1      44.111  33.861  30.428  1.00  0.00     0.010 A 
ATOM     65  C   UNL A   1      43.640  34.502  33.112  1.00  0.00     0.020 A 
ATOM     66  C   UNL A   1      44.242  35.184  30.860  1.00  0.00     0.020 A 
ATOM     67  C   UNL A   1      43.988  35.499  32.196  1.00  0.00     0.054 A 
BRANCH  67  68
ATOM     68  S   UNL A   1      44.131  37.207  32.787  1.00  0.00     0.124 S 
ATOM     69  O   UNL A   1      43.993  37.967  31.546  1.00  0.00    -0.237 OA
ATOM     70  O   UNL A   1      43.011  37.319  33.718  1.00  0.00    -0.237 OA
ATOM     71  O   UNL A   1      45.456  37.253  33.401  1.00  0.00    -0.744 OA
ENDBRANCH  67  68
ENDBRANCH  48  62
BRANCH  49  72
ATOM     72  C   UNL A   1      42.601  23.582  27.718  1.00  0.00    -0.014 A 
ATOM     73  C   UNL A   1      42.936  23.316  26.379  1.00  0.00     0.010 A 
ATOM     74  C   UNL A   1      42.131  22.530  28.525  1.00  0.00     0.010 A 
ATOM     75  C   UNL A   1      42.786  22.030  25.851  1.00  0.00     0.020 A 
ATOM     76  C   UNL A   1      42.009  21.235  28.010  1.00  0.00     0.020 A 
ATOM     77  C   UNL A   1      42.327  20.996  26.673  1.00  0.00     0.054 A 
BRANCH  77  78
ATOM     78  S   UNL A   1      42.195  19.323  25.981  1.00  0.00     0.124 S 
ATOM     79  O   UNL A   1      42.683  18.499  27.083  1.00  0.00    -0.237 OA
ATOM     80  O   UNL A   1      40.767  19.214  25.692  1.00  0.00    -0.237 OA
ATOM     81  O   UNL A   1      43.058  19.371  24.804  1.00  0.00    -0.744 OA
ENDBRANCH  77  78
ENDBRANCH  49  72
BRANCH  61  82
ATOM     82  C   UNL A   1      47.914  26.979  30.705  1.00  0.00    -0.014 A 
ATOM     83  C   UNL A   1      48.984  27.220  29.825  1.00  0.00     0.010 A 
ATOM     84  C   UNL A   1      48.173  26.392  31.957  1.00  0.00     0.010 A 
ATOM     85  C   UNL A   1      50.284  26.846  30.178  1.00  0.00     0.020 A 
ATOM     86  C   UNL A   1      49.474  26.047  32.326  1.00  0.00     0.020 A 
ATOM     87  C   UNL A   1      50.520  26.262  31.426  1.00  0.00     0.054 A 
BRANCH  87  88
ATOM     88  S   UNL A   1      52.221  25.824  31.875  1.00  0.00     0.124 S 
ATOM     89  O   UNL A   1      52.085  24.417  32.243  1.00  0.00    -0.237 OA
ATOM     90  O   UNL A   1      52.956  26.084  30.640  1.00  0.00    -0.237 OA
ATOM     91  O   UNL A   1      52.532  26.728  32.980  1.00  0.00    -0.744 OA
ENDBRANCH  87  88
ENDBRANCH  61  82
ENDBRANCH  35  36
ENDBRANCH  27  30
ENDBRANCH  25  26
ENDBRANCH   1  25
TORSDOF 16
ENDMDL
MODEL 3
REMARK VINA RESULT:     -12.0      4.787     10.373
REMARK SMILES COc1cccc(NC(=O)c2nccnc2C(=O)NCCCNC(=O)c2ccc(-c3c4nc(c(-c5ccc(S(=O)(=O)[O-])cc5)c5ccc([nH]5)c(-c5ccc(S(=O)(=O)[O-])cc5)c5nc(c(-c6ccc(S(=O)(=O)[O-])cc6)c6ccc3[nH]6)C=C5)C=C4)cc2)c1
REMARK SMILES IDX 21 1 20 2 19 3 17 4 18 5 16 7 11 8 12 9 13 10 15 11 14 12
REMARK SMILES IDX 9 13 8 14 10 16 7 17 3 18 4 19 86 20 5 21 6 22 2 23 1 24
REMARK SMILES IDX 22 25 23 26 24 27 25 29 26 30 27 31 85 32 28 33 84 34 29 35
REMARK SMILES IDX 30 36 31 37 78 38 32 39 83 40 77 41 79 42 33 43 82 44 76 45
REMARK SMILES IDX 75 46 34 48 64 49 45 50 63 51 46 52 49 53 62 54 80 55 47 56
REMARK SMILES IDX 48 57 61 59 81 60 50 61 35 62 36 63 44 64 37 65 43 66 38 67
REMARK SMILES IDX 39 68 40 69 41 70 42 71 65 72 66 73 74 74 67 75 73 76 68 77
REMARK SMILES IDX 69 78 70 79 71 80 72 81 51 82 52 83 60 84 53 85 59 86 54 87
REMARK SMILES IDX 55 88 56 89 57 90 58 91
REMARK H PARENT 19 6 8 15 23 28 79 47 49 58
REMARK Flexibility Score: inf
ROOT
ATOM      1  C   UNL A   1      33.629  28.067  25.790  1.00  0.00     0.042 C 
ENDROOT
BRANCH   1   2
ATOM      2  C   UNL A   1      32.435  27.663  24.953  1.00  0.00     0.118 C 
BRANCH   2   3
ATOM      3  N   UNL A   1      31.285  27.169  25.666  1.00  0.00    -0.351 N 
ATOM      4  C   UNL A   1      30.763  25.900  25.763  1.00  0.00     0.272 C 
ATOM      5  O   UNL A   1      29.810  25.781  26.542  1.00  0.00    -0.267 OA
ATOM      6  H   UNL A   1      30.791  27.856  26.169  1.00  0.00     0.163 HD
BRANCH   4   7
ATOM      7  C   UNL A   1      31.180  24.694  24.965  1.00  0.00     0.159 A 
ATOM      8  C   UNL A   1      31.685  23.474  25.401  1.00  0.00     0.159 A 
ATOM      9  N   UNL A   1      31.868  22.400  24.558  1.00  0.00    -0.247 NA
ATOM     10  C   UNL A   1      31.579  22.602  23.257  1.00  0.00     0.132 A 
ATOM     11  N   UNL A   1      30.923  24.868  23.622  1.00  0.00    -0.247 NA
ATOM     12  C   UNL A   1      31.132  23.820  22.797  1.00  0.00     0.132 A 
BRANCH   8  13
ATOM     13  C   UNL A   1      32.092  23.174  26.780  1.00  0.00     0.276 C 
ATOM     14  N   UNL A   1      33.422  22.929  27.114  1.00  0.00    -0.320 N 
ATOM     15  H   UNL A   1      33.542  22.663  28.054  1.00  0.00     0.170 HD
ATOM     16  O   UNL A   1      31.224  23.152  27.652  1.00  0.00    -0.267 OA
BRANCH  14  17
ATOM     17  C   UNL A   1      34.642  22.981  26.386  1.00  0.00     0.045 A 
ATOM     18  C   UNL A   1      36.595  21.743  25.586  1.00  0.00     0.120 A 
ATOM     19  C   UNL A   1      37.054  22.883  24.932  1.00  0.00     0.046 A 
ATOM     20  C   UNL A   1      35.395  21.792  26.312  1.00  0.00     0.072 A 
ATOM     21  C   UNL A   1      36.343  24.067  25.020  1.00  0.00     0.006 A 
ATOM     22  C   UNL A   1      35.161  24.117  25.764  1.00  0.00     0.026 A 
BRANCH  18  23
ATOM     23  O   UNL A   1      37.428  20.667  25.462  1.00  0.00    -0.497 OA
ATOM     24  C   UNL A   1      36.925  19.528  24.781  1.00  0.00     0.278 C 
ENDBRANCH  18  23
ENDBRANCH  14  17
ENDBRANCH   8  13
ENDBRANCH   4   7
ENDBRANCH   2   3
ENDBRANCH   1   2
BRANCH   1  25
ATOM     25  C   UNL A   1      33.335  28.346  27.252  1.00  0.00     0.118 C 
BRANCH  25  26
ATOM     26  N   UNL A   1      33.368  29.759  27.615  1.00  0.00    -0.352 N 
ATOM     27  C   UNL A   1      34.362  30.563  28.123  1.00  0.00     0.251 C 
ATOM     28  H   UNL A   1      32.514  30.228  27.467  1.00  0.00     0.163 HD
ATOM     29  O   UNL A   1      34.088  31.723  28.430  1.00  0.00    -0.269 OA
BRANCH  27  30
ATOM     30  C   UNL A   1      35.734  30.055  28.360  1.00  0.00     0.039 A 
ATOM     31  C   UNL A   1      36.659  30.080  27.309  1.00  0.00     0.014 A 
ATOM     32  C   UNL A   1      36.125  29.540  29.592  1.00  0.00     0.014 A 
ATOM     33  C   UNL A   1      37.983  29.685  27.532  1.00  0.00     0.010 A 
ATOM     34  C   UNL A   1      37.468  29.293  29.853  1.00  0.00     0.010 A 
ATOM     35  C   UNL A   1      38.415  29.340  28.822  1.00  0.00    -0.014 A 
BRANCH  35  36
ATOM     36  C   UNL A   1      39.831  28.993  29.117  1.00  0.00     0.031 A 
ATOM     37  C   UNL A   1      40.747  30.019  29.738  1.00  0.00     0.074 A 
ATOM     38  C   UNL A   1      40.316  27.786  28.760  1.00  0.00     0.049 A 
ATOM     39  N   UNL A   1      42.029  29.938  29.990  1.00  0.00    -0.248 NA
ATOM     40  C   UNL A   1      40.157  31.324  30.082  1.00  0.00     0.031 C 
ATOM     41  C   UNL A   1      39.554  26.724  28.097  1.00  0.00     0.029 A 
ATOM     42  N   UNL A   1      41.572  27.249  28.899  1.00  0.00    -0.354 N 
ATOM     43  C   UNL A   1      42.398  31.183  30.487  1.00  0.00     0.074 A 
ATOM     44  C   UNL A   1      41.224  32.023  30.440  1.00  0.00     0.031 C 
ATOM     45  C   UNL A   1      40.343  25.652  27.929  1.00  0.00     0.029 A 
ATOM     46  C   UNL A   1      41.680  25.962  28.423  1.00  0.00     0.049 A 
ATOM     47  H   UNL A   1      42.326  27.738  29.301  1.00  0.00     0.167 HD
ATOM     48  C   UNL A   1      43.596  31.587  30.973  1.00  0.00     0.031 A 
ATOM     49  C   UNL A   1      42.736  25.126  28.385  1.00  0.00     0.031 A 
ATOM     50  C   UNL A   1      44.753  30.738  31.054  1.00  0.00     0.049 A 
ATOM     51  C   UNL A   1      44.054  25.588  28.946  1.00  0.00     0.074 A 
ATOM     52  C   UNL A   1      45.994  31.024  31.595  1.00  0.00     0.029 A 
ATOM     53  N   UNL A   1      44.811  29.433  30.586  1.00  0.00    -0.354 N 
ATOM     54  N   UNL A   1      44.359  26.747  29.480  1.00  0.00    -0.248 NA
ATOM     55  C   UNL A   1      45.163  24.626  28.911  1.00  0.00     0.031 C 
ATOM     56  C   UNL A   1      46.819  29.911  31.406  1.00  0.00     0.029 A 
ATOM     57  C   UNL A   1      46.072  28.910  30.804  1.00  0.00     0.049 A 
ATOM     58  H   UNL A   1      44.064  28.952  30.162  1.00  0.00     0.167 HD
ATOM     59  C   UNL A   1      45.691  26.644  29.868  1.00  0.00     0.074 A 
ATOM     60  C   UNL A   1      46.123  25.304  29.526  1.00  0.00     0.031 C 
ATOM     61  C   UNL A   1      46.484  27.573  30.455  1.00  0.00     0.031 A 
BRANCH  48  62
ATOM     62  C   UNL A   1      43.710  33.009  31.459  1.00  0.00    -0.014 A 
ATOM     63  C   UNL A   1      43.383  33.356  32.783  1.00  0.00     0.010 A 
ATOM     64  C   UNL A   1      44.182  34.010  30.590  1.00  0.00     0.010 A 
ATOM     65  C   UNL A   1      43.478  34.682  33.215  1.00  0.00     0.020 A 
ATOM     66  C   UNL A   1      44.310  35.332  31.027  1.00  0.00     0.020 A 
ATOM     67  C   UNL A   1      43.940  35.662  32.333  1.00  0.00     0.054 A 
BRANCH  67  68
ATOM     68  S   UNL A   1      44.077  37.369  32.929  1.00  0.00     0.124 S 
ATOM     69  O   UNL A   1      42.997  37.433  33.910  1.00  0.00    -0.237 OA
ATOM     70  O   UNL A   1      45.429  37.408  33.482  1.00  0.00    -0.237 OA
ATOM     71  O   UNL A   1      43.875  38.175  31.727  1.00  0.00    -0.744 OA
ENDBRANCH  67  68
ENDBRANCH  48  62
BRANCH  49  72
ATOM     72  C   UNL A   1      42.583  23.755  27.820  1.00  0.00    -0.014 A 
ATOM     73  C   UNL A   1      42.288  22.665  28.657  1.00  0.00     0.010 A 
ATOM     74  C   UNL A   1      42.714  23.535  26.436  1.00  0.00     0.010 A 
ATOM     75  C   UNL A   1      42.147  21.379  28.128  1.00  0.00     0.020 A 
ATOM     76  C   UNL A   1      42.543  22.256  25.898  1.00  0.00     0.020 A 
ATOM     77  C   UNL A   1      42.272  21.184  26.749  1.00  0.00     0.054 A 
BRANCH  77  78
ATOM     78  S   UNL A   1      42.028  19.515  26.077  1.00  0.00     0.124 S 
ATOM     79  O   UNL A   1      42.498  18.674  27.173  1.00  0.00    -0.237 OA
ATOM     80  O   UNL A   1      40.589  19.485  25.826  1.00  0.00    -0.237 OA
ATOM     81  O   UNL A   1      42.862  19.505  24.878  1.00  0.00    -0.744 OA
ENDBRANCH  77  78
ENDBRANCH  49  72
BRANCH  61  82
ATOM     82  C   UNL A   1      47.893  27.165  30.796  1.00  0.00    -0.014 A 
ATOM     83  C   UNL A   1      48.182  26.458  31.977  1.00  0.00     0.010 A 
ATOM     84  C   UNL A   1      48.934  27.447  29.892  1.00  0.00     0.010 A 
ATOM     85  C   UNL A   1      49.494  26.072  32.263  1.00  0.00     0.020 A 
ATOM     86  C   UNL A   1      50.240  27.035  30.160  1.00  0.00     0.020 A 
ATOM     87  C   UNL A   1      50.515  26.364  31.353  1.00  0.00     0.054 A 
BRANCH  87  88
ATOM     88  S   UNL A   1      52.202  25.816  31.730  1.00  0.00     0.124 S 
ATOM     89  O   UNL A   1      52.601  26.758  32.771  1.00  0.00    -0.237 OA
ATOM     90  O   UNL A   1      52.000  24.438  32.171  1.00  0.00    -0.237 OA
ATOM     91  O   UNL A   1      52.906  25.959  30.457  1.00  0.00    -0.744 OA
ENDBRANCH  87  88
ENDBRANCH  61  82
ENDBRANCH  35  36
ENDBRANCH  27  30
ENDBRANCH  25  26
ENDBRANCH   1  25
TORSDOF 16
ENDMDL
