MODEL 1
REMARK VINA RESULT:     -11.4      0.000      0.000
REMARK SMILES Cc1ncccc1NC(=O)Nc1ccc(C(=O)NCCCNC(=O)c2ccc(-c3c4nc(c(-c5ccc(S(=O)(=O)[O-])cc5)c5ccc([nH]5)c(-c5ccc(S(=O)(=O)[O-])cc5)c5nc(c(-c6ccc(S(=O)(=O)[O-])cc6)c6ccc3[nH]6)C=C5)C=C4)cc2)c(O)c1
REMARK SMILES IDX 20 1 19 2 18 3 16 4 17 5 15 7 12 8 13 9 87 10 14 11 85 12
REMARK SMILES IDX 11 13 8 14 9 15 10 17 7 19 1 20 2 21 3 22 4 23 6 24 5 25
REMARK SMILES IDX 86 26 21 28 22 29 23 30 24 32 25 33 26 34 84 35 27 36 83 37
REMARK SMILES IDX 28 38 29 39 30 40 77 41 31 42 82 43 76 44 78 45 32 46 81 47
REMARK SMILES IDX 75 48 74 49 33 51 63 52 44 53 62 54 45 55 48 56 61 57 79 58
REMARK SMILES IDX 46 59 47 60 60 62 80 63 49 64 34 65 35 66 43 67 36 68 42 69
REMARK SMILES IDX 37 70 38 71 39 72 40 73 41 74 64 75 65 76 73 77 66 78 72 79
REMARK SMILES IDX 67 80 68 81 69 82 70 83 71 84 50 85 51 86 59 87 52 88 58 89
REMARK SMILES IDX 53 90 54 91 55 92 56 93 57 94
REMARK H PARENT 18 6 8 16 11 18 86 27 22 31 78 50 48 61
REMARK Flexibility Score: inf
ROOT
ATOM      1  C   UNL A   1      33.939  28.577  24.965  1.00  0.00     0.042 C 
ENDROOT
BRANCH   1   2
ATOM      2  C   UNL A   1      32.929  27.858  24.079  1.00  0.00     0.118 C 
BRANCH   2   3
ATOM      3  N   UNL A   1      32.178  26.788  24.723  1.00  0.00    -0.352 N 
ATOM      4  C   UNL A   1      32.526  25.491  25.032  1.00  0.00     0.255 C 
ATOM      5  O   UNL A   1      31.716  24.806  25.653  1.00  0.00    -0.269 OA
ATOM      6  H   UNL A   1      31.262  27.036  24.984  1.00  0.00     0.163 HD
BRANCH   4   7
ATOM      7  C   UNL A   1      33.785  24.859  24.551  1.00  0.00     0.081 A 
ATOM      8  C   UNL A   1      35.973  23.156  24.195  1.00  0.00     0.046 A 
ATOM      9  C   UNL A   1      35.976  24.066  25.248  1.00  0.00     0.027 A 
ATOM     10  C   UNL A   1      35.025  23.297  23.179  1.00  0.00     0.073 A 
ATOM     11  C   UNL A   1      34.871  24.899  25.441  1.00  0.00     0.020 A 
ATOM     12  C   UNL A   1      33.947  24.168  23.350  1.00  0.00     0.130 A 
BRANCH   8  13
ATOM     13  N   UNL A   1      36.826  22.043  24.139  1.00  0.00    -0.308 N 
ATOM     14  N   UNL A   1      35.771  20.317  25.430  1.00  0.00    -0.306 N 
ATOM     15  C   UNL A   1      36.846  20.875  24.820  1.00  0.00     0.323 C 
ATOM     16  H   UNL A   1      36.022  19.654  26.113  1.00  0.00     0.171 HD
ATOM     17  O   UNL A   1      37.917  20.262  24.887  1.00  0.00    -0.248 OA
ATOM     18  H   UNL A   1      37.549  22.130  23.477  1.00  0.00     0.171 HD
BRANCH  14  19
ATOM     19  C   UNL A   1      34.371  20.476  25.308  1.00  0.00     0.064 A 
ATOM     20  C   UNL A   1      34.183  21.738  27.535  1.00  0.00     0.069 C 
ATOM     21  C   UNL A   1      33.653  21.279  26.209  1.00  0.00     0.061 A 
ATOM     22  N   UNL A   1      32.366  21.665  25.981  1.00  0.00    -0.259 NA
ATOM     23  C   UNL A   1      31.746  21.186  24.885  1.00  0.00     0.111 A 
ATOM     24  C   UNL A   1      33.635  19.872  24.287  1.00  0.00     0.030 A 
ATOM     25  C   UNL A   1      32.316  20.252  24.046  1.00  0.00     0.022 A 
ENDBRANCH  14  19
ENDBRANCH   8  13
BRANCH  12  26
ATOM     26  O   UNL A   1      33.089  24.267  22.292  1.00  0.00    -0.507 OA
ATOM     27  H   UNL A   1      33.086  23.606  21.628  1.00  0.00     0.293 HD
ENDBRANCH  12  26
ENDBRANCH   4   7
ENDBRANCH   2   3
ENDBRANCH   1   2
BRANCH   1  28
ATOM     28  C   UNL A   1      33.690  28.520  26.466  1.00  0.00     0.118 C 
BRANCH  28  29
ATOM     29  N   UNL A   1      33.575  29.822  27.107  1.00  0.00    -0.352 N 
ATOM     30  C   UNL A   1      34.444  30.541  27.899  1.00  0.00     0.251 C 
ATOM     31  H   UNL A   1      32.716  30.273  26.942  1.00  0.00     0.163 HD
ATOM     32  O   UNL A   1      34.050  31.593  28.391  1.00  0.00    -0.269 OA
BRANCH  30  33
ATOM     33  C   UNL A   1      35.817  30.059  28.197  1.00  0.00     0.039 A 
ATOM     34  C   UNL A   1      36.791  30.153  27.196  1.00  0.00     0.014 A 
ATOM     35  C   UNL A   1      36.156  29.485  29.420  1.00  0.00     0.014 A 
ATOM     36  C   UNL A   1      38.105  29.745  27.453  1.00  0.00     0.010 A 
ATOM     37  C   UNL A   1      37.487  29.196  29.716  1.00  0.00     0.010 A 
ATOM     38  C   UNL A   1      38.479  29.302  28.731  1.00  0.00    -0.014 A 
BRANCH  38  39
ATOM     39  C   UNL A   1      39.882  28.909  29.043  1.00  0.00     0.031 A 
ATOM     40  C   UNL A   1      40.810  29.883  29.729  1.00  0.00     0.074 A 
ATOM     41  C   UNL A   1      40.339  27.693  28.677  1.00  0.00     0.049 A 
ATOM     42  N   UNL A   1      42.070  29.736  30.052  1.00  0.00    -0.248 NA
ATOM     43  C   UNL A   1      40.260  31.206  30.074  1.00  0.00     0.031 C 
ATOM     44  C   UNL A   1      39.565  26.673  27.963  1.00  0.00     0.029 A 
ATOM     45  N   UNL A   1      41.566  27.105  28.858  1.00  0.00    -0.354 N 
ATOM     46  C   UNL A   1      42.459  30.942  30.625  1.00  0.00     0.074 A 
ATOM     47  C   UNL A   1      41.329  31.837  30.535  1.00  0.00     0.031 C 
ATOM     48  C   UNL A   1      40.321  25.574  27.808  1.00  0.00     0.029 A 
ATOM     49  C   UNL A   1      41.644  25.821  28.370  1.00  0.00     0.049 A 
ATOM     50  H   UNL A   1      42.322  27.559  29.297  1.00  0.00     0.167 HD
ATOM     51  C   UNL A   1      43.636  31.270  31.213  1.00  0.00     0.031 A 
ATOM     52  C   UNL A   1      42.664  24.939  28.375  1.00  0.00     0.031 A 
ATOM     53  C   UNL A   1      44.759  30.378  31.319  1.00  0.00     0.049 A 
ATOM     54  C   UNL A   1      43.969  25.335  29.016  1.00  0.00     0.074 A 
ATOM     55  C   UNL A   1      45.983  30.601  31.925  1.00  0.00     0.029 A 
ATOM     56  N   UNL A   1      44.792  29.086  30.815  1.00  0.00    -0.354 N 
ATOM     57  N   UNL A   1      44.291  26.461  29.605  1.00  0.00    -0.248 NA
ATOM     58  C   UNL A   1      45.042  24.330  29.005  1.00  0.00     0.031 C 
ATOM     59  C   UNL A   1      46.774  29.462  31.746  1.00  0.00     0.029 A 
ATOM     60  C   UNL A   1      46.020  28.506  31.082  1.00  0.00     0.049 A 
ATOM     61  H   UNL A   1      44.052  28.647  30.337  1.00  0.00     0.167 HD
ATOM     62  C   UNL A   1      45.594  26.287  30.064  1.00  0.00     0.074 A 
ATOM     63  C   UNL A   1      45.987  24.941  29.704  1.00  0.00     0.031 C 
ATOM     64  C   UNL A   1      46.394  27.164  30.720  1.00  0.00     0.031 A 
BRANCH  51  65
ATOM     65  C   UNL A   1      43.757  32.652  31.805  1.00  0.00    -0.014 A 
ATOM     66  C   UNL A   1      44.280  33.717  31.047  1.00  0.00     0.010 A 
ATOM     67  C   UNL A   1      43.308  32.904  33.113  1.00  0.00     0.010 A 
ATOM     68  C   UNL A   1      44.392  34.994  31.599  1.00  0.00     0.020 A 
ATOM     69  C   UNL A   1      43.387  34.189  33.659  1.00  0.00     0.020 A 
ATOM     70  C   UNL A   1      43.944  35.223  32.903  1.00  0.00     0.054 A 
BRANCH  70  71
ATOM     71  S   UNL A   1      44.073  36.900  33.580  1.00  0.00     0.124 S 
ATOM     72  O   UNL A   1      44.246  37.700  32.369  1.00  0.00    -0.237 OA
ATOM     73  O   UNL A   1      42.794  37.067  34.265  1.00  0.00    -0.237 OA
ATOM     74  O   UNL A   1      45.242  36.834  34.453  1.00  0.00    -0.744 OA
ENDBRANCH  70  71
ENDBRANCH  51  65
BRANCH  52  75
ATOM     75  C   UNL A   1      42.498  23.586  27.770  1.00  0.00    -0.014 A 
ATOM     76  C   UNL A   1      41.973  22.523  28.525  1.00  0.00     0.010 A 
ATOM     77  C   UNL A   1      42.893  23.347  26.441  1.00  0.00     0.010 A 
ATOM     78  C   UNL A   1      41.887  21.238  27.980  1.00  0.00     0.020 A 
ATOM     79  C   UNL A   1      42.777  22.072  25.881  1.00  0.00     0.020 A 
ATOM     80  C   UNL A   1      42.293  21.020  26.661  1.00  0.00     0.054 A 
BRANCH  80  81
ATOM     81  S   UNL A   1      42.161  19.348  25.968  1.00  0.00     0.124 S 
ATOM     82  O   UNL A   1      42.719  18.530  27.041  1.00  0.00    -0.237 OA
ATOM     83  O   UNL A   1      40.724  19.210  25.747  1.00  0.00    -0.237 OA
ATOM     84  O   UNL A   1      42.967  19.419  24.750  1.00  0.00    -0.744 OA
ENDBRANCH  80  81
ENDBRANCH  52  75
BRANCH  64  85
ATOM     85  C   UNL A   1      47.760  26.677  31.129  1.00  0.00    -0.014 A 
ATOM     86  C   UNL A   1      48.890  26.903  30.323  1.00  0.00     0.010 A 
ATOM     87  C   UNL A   1      47.918  26.007  32.357  1.00  0.00     0.010 A 
ATOM     88  C   UNL A   1      50.143  26.425  30.712  1.00  0.00     0.020 A 
ATOM     89  C   UNL A   1      49.176  25.557  32.766  1.00  0.00     0.020 A 
ATOM     90  C   UNL A   1      50.278  25.752  31.931  1.00  0.00     0.054 A 
BRANCH  90  91
ATOM     91  S   UNL A   1      51.919  25.158  32.423  1.00  0.00     0.124 S 
ATOM     92  O   UNL A   1      52.135  25.871  33.679  1.00  0.00    -0.237 OA
ATOM     93  O   UNL A   1      51.715  23.717  32.544  1.00  0.00    -0.237 OA
ATOM     94  O   UNL A   1      52.782  25.568  31.317  1.00  0.00    -0.744 OA
ENDBRANCH  90  91
ENDBRANCH  64  85
ENDBRANCH  38  39
ENDBRANCH  30  33
ENDBRANCH  28  29
ENDBRANCH   1  28
TORSDOF 16
ENDMDL
MODEL 2
REMARK VINA RESULT:     -11.3      2.576      9.458
REMARK SMILES Cc1ncccc1NC(=O)Nc1ccc(C(=O)NCCCNC(=O)c2ccc(-c3c4nc(c(-c5ccc(S(=O)(=O)[O-])cc5)c5ccc([nH]5)c(-c5ccc(S(=O)(=O)[O-])cc5)c5nc(c(-c6ccc(S(=O)(=O)[O-])cc6)c6ccc3[nH]6)C=C5)C=C4)cc2)c(O)c1
REMARK SMILES IDX 20 1 19 2 18 3 16 4 17 5 15 7 12 8 13 9 87 10 14 11 85 12
REMARK SMILES IDX 11 13 8 14 9 15 10 17 7 19 1 20 2 21 3 22 4 23 6 24 5 25
REMARK SMILES IDX 86 26 21 28 22 29 23 30 24 32 25 33 26 34 84 35 27 36 83 37
REMARK SMILES IDX 28 38 29 39 30 40 77 41 31 42 82 43 76 44 78 45 32 46 81 47
REMARK SMILES IDX 75 48 74 49 33 51 63 52 44 53 62 54 45 55 48 56 61 57 79 58
REMARK SMILES IDX 46 59 47 60 60 62 80 63 49 64 34 65 35 66 43 67 36 68 42 69
REMARK SMILES IDX 37 70 38 71 39 72 40 73 41 74 64 75 65 76 73 77 66 78 72 79
REMARK SMILES IDX 67 80 68 81 69 82 70 83 71 84 50 85 51 86 59 87 52 88 58 89
REMARK SMILES IDX 53 90 54 91 55 92 56 93 57 94
REMARK H PARENT 18 6 8 16 11 18 86 27 22 31 78 50 48 61
REMARK Flexibility Score: inf
ROOT
ATOM      1  C   UNL A   1      36.006  23.054  24.112  1.00  0.00     0.042 C 
ENDROOT
BRANCH   1   2
ATOM      2  C   UNL A   1      34.599  22.653  24.531  1.00  0.00     0.118 C 
BRANCH   2   3
ATOM      3  N   UNL A   1      33.531  23.075  23.634  1.00  0.00    -0.352 N 
ATOM      4  C   UNL A   1      32.677  24.156  23.680  1.00  0.00     0.255 C 
ATOM      5  O   UNL A   1      31.903  24.324  22.741  1.00  0.00    -0.269 OA
ATOM      6  H   UNL A   1      33.396  22.485  22.858  1.00  0.00     0.163 HD
BRANCH   4   7
ATOM      7  C   UNL A   1      32.583  25.056  24.863  1.00  0.00     0.081 A 
ATOM      8  C   UNL A   1      32.539  27.287  26.547  1.00  0.00     0.046 A 
ATOM      9  C   UNL A   1      33.761  26.765  26.131  1.00  0.00     0.027 A 
ATOM     10  C   UNL A   1      31.378  26.533  26.355  1.00  0.00     0.073 A 
ATOM     11  C   UNL A   1      33.781  25.666  25.268  1.00  0.00     0.020 A 
ATOM     12  C   UNL A   1      31.410  25.405  25.533  1.00  0.00     0.130 A 
BRANCH   8  13
ATOM     13  N   UNL A   1      32.396  28.577  27.079  1.00  0.00    -0.308 N 
ATOM     14  N   UNL A   1      32.261  30.070  25.205  1.00  0.00    -0.306 N 
ATOM     15  C   UNL A   1      32.464  29.807  26.519  1.00  0.00     0.323 C 
ATOM     16  H   UNL A   1      32.640  30.935  24.927  1.00  0.00     0.171 HD
ATOM     17  O   UNL A   1      32.722  30.764  27.257  1.00  0.00    -0.248 OA
ATOM     18  H   UNL A   1      32.211  28.590  28.046  1.00  0.00     0.171 HD
BRANCH  14  19
ATOM     19  C   UNL A   1      31.629  29.381  24.145  1.00  0.00     0.064 A 
ATOM     20  C   UNL A   1      33.860  28.786  23.022  1.00  0.00     0.069 C 
ATOM     21  C   UNL A   1      32.378  28.644  23.213  1.00  0.00     0.061 A 
ATOM     22  N   UNL A   1      31.806  27.766  22.342  1.00  0.00    -0.259 NA
ATOM     23  C   UNL A   1      30.462  27.671  22.332  1.00  0.00     0.111 A 
ATOM     24  C   UNL A   1      30.243  29.374  23.976  1.00  0.00     0.030 A 
ATOM     25  C   UNL A   1      29.644  28.486  23.084  1.00  0.00     0.022 A 
ENDBRANCH  14  19
ENDBRANCH   8  13
BRANCH  12  26
ATOM     26  O   UNL A   1      30.238  24.711  25.431  1.00  0.00    -0.507 OA
ATOM     27  H   UNL A   1      30.250  23.803  25.201  1.00  0.00     0.293 HD
ENDBRANCH  12  26
ENDBRANCH   4   7
ENDBRANCH   2   3
ENDBRANCH   1   2
BRANCH   1  28
ATOM     28  C   UNL A   1      36.927  23.562  25.214  1.00  0.00     0.118 C 
BRANCH  28  29
ATOM     29  N   UNL A   1      38.062  22.697  25.496  1.00  0.00    -0.352 N 
ATOM     30  C   UNL A   1      39.257  22.923  26.145  1.00  0.00     0.251 C 
ATOM     31  H   UNL A   1      37.957  21.777  25.161  1.00  0.00     0.163 HD
ATOM     32  O   UNL A   1      40.091  22.024  26.162  1.00  0.00    -0.269 OA
BRANCH  30  33
ATOM     33  C   UNL A   1      39.568  24.226  26.786  1.00  0.00     0.039 A 
ATOM     34  C   UNL A   1      39.091  24.468  28.079  1.00  0.00     0.014 A 
ATOM     35  C   UNL A   1      40.284  25.226  26.131  1.00  0.00     0.014 A 
ATOM     36  C   UNL A   1      39.396  25.670  28.729  1.00  0.00     0.010 A 
ATOM     37  C   UNL A   1      40.693  26.366  26.821  1.00  0.00     0.010 A 
ATOM     38  C   UNL A   1      40.239  26.615  28.123  1.00  0.00    -0.014 A 
BRANCH  38  39
ATOM     39  C   UNL A   1      40.619  27.879  28.815  1.00  0.00     0.031 A 
ATOM     40  C   UNL A   1      41.994  28.030  29.422  1.00  0.00     0.074 A 
ATOM     41  C   UNL A   1      39.720  28.879  28.935  1.00  0.00     0.049 A 
ATOM     42  N   UNL A   1      42.495  29.038  30.090  1.00  0.00    -0.248 NA
ATOM     43  C   UNL A   1      42.917  26.890  29.284  1.00  0.00     0.031 C 
ATOM     44  C   UNL A   1      38.341  28.847  28.440  1.00  0.00     0.029 A 
ATOM     45  N   UNL A   1      39.833  30.121  29.508  1.00  0.00    -0.354 N 
ATOM     46  C   UNL A   1      43.780  28.650  30.456  1.00  0.00     0.074 A 
ATOM     47  C   UNL A   1      43.954  27.288  30.006  1.00  0.00     0.031 C 
ATOM     48  C   UNL A   1      37.754  30.028  28.692  1.00  0.00     0.029 A 
ATOM     49  C   UNL A   1      38.694  30.887  29.403  1.00  0.00     0.049 A 
ATOM     50  H   UNL A   1      40.653  30.437  29.954  1.00  0.00     0.167 HD
ATOM     51  C   UNL A   1      44.748  29.370  31.073  1.00  0.00     0.031 A 
ATOM     52  C   UNL A   1      38.436  32.141  29.826  1.00  0.00     0.031 A 
ATOM     53  C   UNL A   1      44.585  30.731  31.508  1.00  0.00     0.049 A 
ATOM     54  C   UNL A   1      39.522  32.912  30.529  1.00  0.00     0.074 A 
ATOM     55  C   UNL A   1      45.515  31.560  32.112  1.00  0.00     0.029 A 
ATOM     56  N   UNL A   1      43.418  31.468  31.377  1.00  0.00    -0.354 N 
ATOM     57  N   UNL A   1      40.749  32.543  30.809  1.00  0.00    -0.248 NA
ATOM     58  C   UNL A   1      39.189  34.279  30.958  1.00  0.00     0.031 C 
ATOM     59  C   UNL A   1      44.895  32.783  32.390  1.00  0.00     0.029 A 
ATOM     60  C   UNL A   1      43.599  32.736  31.902  1.00  0.00     0.049 A 
ATOM     61  H   UNL A   1      42.585  31.138  30.970  1.00  0.00     0.167 HD
ATOM     62  C   UNL A   1      41.344  33.645  31.418  1.00  0.00     0.074 A 
ATOM     63  C   UNL A   1      40.349  34.697  31.442  1.00  0.00     0.031 C 
ATOM     64  C   UNL A   1      42.599  33.773  31.915  1.00  0.00     0.031 A 
BRANCH  51  65
ATOM     65  C   UNL A   1      46.080  28.698  31.295  1.00  0.00    -0.014 A 
ATOM     66  C   UNL A   1      47.104  28.795  30.334  1.00  0.00     0.010 A 
ATOM     67  C   UNL A   1      46.331  27.998  32.489  1.00  0.00     0.010 A 
ATOM     68  C   UNL A   1      48.335  28.171  30.543  1.00  0.00     0.020 A 
ATOM     69  C   UNL A   1      47.574  27.399  32.716  1.00  0.00     0.020 A 
ATOM     70  C   UNL A   1      48.563  27.476  31.734  1.00  0.00     0.054 A 
BRANCH  70  71
ATOM     71  S   UNL A   1      50.184  26.703  31.988  1.00  0.00     0.124 S 
ATOM     72  O   UNL A   1      50.907  27.119  30.788  1.00  0.00    -0.237 OA
ATOM     73  O   UNL A   1      50.635  27.313  33.236  1.00  0.00    -0.237 OA
ATOM     74  O   UNL A   1      49.880  25.277  32.068  1.00  0.00    -0.744 OA
ENDBRANCH  70  71
ENDBRANCH  51  65
BRANCH  52  75
ATOM     75  C   UNL A   1      37.099  32.759  29.590  1.00  0.00    -0.014 A 
ATOM     76  C   UNL A   1      36.831  33.448  28.394  1.00  0.00     0.010 A 
ATOM     77  C   UNL A   1      36.097  32.687  30.574  1.00  0.00     0.010 A 
ATOM     78  C   UNL A   1      35.603  34.090  28.204  1.00  0.00     0.020 A 
ATOM     79  C   UNL A   1      34.856  33.299  30.374  1.00  0.00     0.020 A 
ATOM     80  C   UNL A   1      34.624  34.015  29.197  1.00  0.00     0.054 A 
BRANCH  80  81
ATOM     81  S   UNL A   1      33.034  34.844  28.927  1.00  0.00     0.124 S 
ATOM     82  O   UNL A   1      33.454  36.152  28.432  1.00  0.00    -0.237 OA
ATOM     83  O   UNL A   1      32.386  33.974  27.948  1.00  0.00    -0.237 OA
ATOM     84  O   UNL A   1      32.418  34.844  30.253  1.00  0.00    -0.744 OA
ENDBRANCH  80  81
ENDBRANCH  52  75
BRANCH  64  85
ATOM     85  C   UNL A   1      42.980  35.113  32.489  1.00  0.00    -0.014 A 
ATOM     86  C   UNL A   1      43.625  36.088  31.708  1.00  0.00     0.010 A 
ATOM     87  C   UNL A   1      42.658  35.410  33.827  1.00  0.00     0.010 A 
ATOM     88  C   UNL A   1      43.987  37.316  32.268  1.00  0.00     0.020 A 
ATOM     89  C   UNL A   1      42.988  36.649  34.381  1.00  0.00     0.020 A 
ATOM     90  C   UNL A   1      43.668  37.588  33.602  1.00  0.00     0.054 A 
BRANCH  90  91
ATOM     91  S   UNL A   1      44.131  39.196  34.299  1.00  0.00     0.124 S 
ATOM     92  O   UNL A   1      44.171  38.907  35.729  1.00  0.00    -0.237 OA
ATOM     93  O   UNL A   1      45.424  39.456  33.673  1.00  0.00    -0.237 OA
ATOM     94  O   UNL A   1      43.050  40.083  33.872  1.00  0.00    -0.744 OA
ENDBRANCH  90  91
ENDBRANCH  64  85
ENDBRANCH  38  39
ENDBRANCH  30  33
ENDBRANCH  28  29
ENDBRANCH   1  28
TORSDOF 16
ENDMDL
MODEL 3
REMARK VINA RESULT:     -11.2      4.204     10.041
REMARK SMILES Cc1ncccc1NC(=O)Nc1ccc(C(=O)NCCCNC(=O)c2ccc(-c3c4nc(c(-c5ccc(S(=O)(=O)[O-])cc5)c5ccc([nH]5)c(-c5ccc(S(=O)(=O)[O-])cc5)c5nc(c(-c6ccc(S(=O)(=O)[O-])cc6)c6ccc3[nH]6)C=C5)C=C4)cc2)c(O)c1
REMARK SMILES IDX 20 1 19 2 18 3 16 4 17 5 15 7 12 8 13 9 87 10 14 11 85 12
REMARK SMILES IDX 11 13 8 14 9 15 10 17 7 19 1 20 2 21 3 22 4 23 6 24 5 25
REMARK SMILES IDX 86 26 21 28 22 29 23 30 24 32 25 33 26 34 84 35 27 36 83 37
REMARK SMILES IDX 28 38 29 39 30 40 77 41 31 42 82 43 76 44 78 45 32 46 81 47
REMARK SMILES IDX 75 48 74 49 33 51 63 52 44 53 62 54 45 55 48 56 61 57 79 58
REMARK SMILES IDX 46 59 47 60 60 62 80 63 49 64 34 65 35 66 43 67 36 68 42 69
REMARK SMILES IDX 37 70 38 71 39 72 40 73 41 74 64 75 65 76 73 77 66 78 72 79
REMARK SMILES IDX 67 80 68 81 69 82 70 83 71 84 50 85 51 86 59 87 52 88 58 89
REMARK SMILES IDX 53 90 54 91 55 92 56 93 57 94
REMARK H PARENT 18 6 8 16 11 18 86 27 22 31 78 50 48 61
REMARK Flexibility Score: inf
ROOT
ATOM      1  C   UNL A   1      39.305  22.988  26.691  1.00  0.00     0.042 C 
ENDROOT
BRANCH   1   2
ATOM      2  C   UNL A   1      38.710  21.800  25.946  1.00  0.00     0.118 C 
BRANCH   2   3
ATOM      3  N   UNL A   1      38.039  22.117  24.692  1.00  0.00    -0.352 N 
ATOM      4  C   UNL A   1      36.716  22.385  24.410  1.00  0.00     0.255 C 
ATOM      5  O   UNL A   1      36.422  22.700  23.259  1.00  0.00    -0.269 OA
ATOM      6  H   UNL A   1      38.634  22.146  23.909  1.00  0.00     0.163 HD
BRANCH   4   7
ATOM      7  C   UNL A   1      35.628  22.200  25.409  1.00  0.00     0.081 A 
ATOM      8  C   UNL A   1      33.193  22.289  26.779  1.00  0.00     0.046 A 
ATOM      9  C   UNL A   1      34.057  23.378  26.845  1.00  0.00     0.027 A 
ATOM     10  C   UNL A   1      33.667  21.075  26.275  1.00  0.00     0.073 A 
ATOM     11  C   UNL A   1      35.262  23.343  26.138  1.00  0.00     0.020 A 
ATOM     12  C   UNL A   1      34.896  21.030  25.614  1.00  0.00     0.130 A 
BRANCH   8  13
ATOM     13  N   UNL A   1      31.834  22.367  27.118  1.00  0.00    -0.308 N 
ATOM     14  N   UNL A   1      30.799  23.749  25.452  1.00  0.00    -0.306 N 
ATOM     15  C   UNL A   1      30.824  23.144  26.664  1.00  0.00     0.323 C 
ATOM     16  H   UNL A   1      30.159  24.497  25.411  1.00  0.00     0.171 HD
ATOM     17  O   UNL A   1      29.846  23.311  27.402  1.00  0.00    -0.248 OA
ATOM     18  H   UNL A   1      31.563  21.733  27.821  1.00  0.00     0.171 HD
BRANCH  14  19
ATOM     19  C   UNL A   1      31.487  23.550  24.232  1.00  0.00     0.064 A 
ATOM     20  C   UNL A   1      32.037  26.045  23.979  1.00  0.00     0.069 C 
ATOM     21  C   UNL A   1      32.204  24.596  23.627  1.00  0.00     0.061 A 
ATOM     22  N   UNL A   1      33.081  24.388  22.606  1.00  0.00    -0.259 NA
ATOM     23  C   UNL A   1      33.197  23.138  22.116  1.00  0.00     0.111 A 
ATOM     24  C   UNL A   1      31.514  22.317  23.580  1.00  0.00     0.030 A 
ATOM     25  C   UNL A   1      32.402  22.091  22.529  1.00  0.00     0.022 A 
ENDBRANCH  14  19
ENDBRANCH   8  13
BRANCH  12  26
ATOM     26  O   UNL A   1      35.294  19.796  25.185  1.00  0.00    -0.507 OA
ATOM     27  H   UNL A   1      34.707  19.068  25.242  1.00  0.00     0.293 HD
ENDBRANCH  12  26
ENDBRANCH   4   7
ENDBRANCH   2   3
ENDBRANCH   1   2
BRANCH   1  28
ATOM     28  C   UNL A   1      40.820  23.003  26.851  1.00  0.00     0.118 C 
BRANCH  28  29
ATOM     29  N   UNL A   1      41.518  23.839  25.886  1.00  0.00    -0.352 N 
ATOM     30  C   UNL A   1      41.909  25.161  25.922  1.00  0.00     0.251 C 
ATOM     31  H   UNL A   1      41.757  23.374  25.052  1.00  0.00     0.163 HD
ATOM     32  O   UNL A   1      42.411  25.648  24.915  1.00  0.00    -0.269 OA
BRANCH  30  33
ATOM     33  C   UNL A   1      41.705  26.007  27.125  1.00  0.00     0.039 A 
ATOM     34  C   UNL A   1      42.500  27.148  27.284  1.00  0.00     0.014 A 
ATOM     35  C   UNL A   1      40.779  25.685  28.115  1.00  0.00     0.014 A 
ATOM     36  C   UNL A   1      42.310  27.991  28.386  1.00  0.00     0.010 A 
ATOM     37  C   UNL A   1      40.505  26.586  29.143  1.00  0.00     0.010 A 
ATOM     38  C   UNL A   1      41.280  27.742  29.305  1.00  0.00    -0.014 A 
BRANCH  38  39
ATOM     39  C   UNL A   1      41.026  28.652  30.458  1.00  0.00     0.031 A 
ATOM     40  C   UNL A   1      41.868  28.550  31.708  1.00  0.00     0.074 A 
ATOM     41  C   UNL A   1      40.016  29.546  30.403  1.00  0.00     0.049 A 
ATOM     42  N   UNL A   1      41.777  29.229  32.823  1.00  0.00    -0.248 NA
ATOM     43  C   UNL A   1      42.934  27.532  31.717  1.00  0.00     0.031 C 
ATOM     44  C   UNL A   1      39.092  29.717  29.277  1.00  0.00     0.029 A 
ATOM     45  N   UNL A   1      39.598  30.483  31.315  1.00  0.00    -0.354 N 
ATOM     46  C   UNL A   1      42.762  28.717  33.661  1.00  0.00     0.074 A 
ATOM     47  C   UNL A   1      43.386  27.619  32.959  1.00  0.00     0.031 C 
ATOM     48  C   UNL A   1      38.249  30.726  29.549  1.00  0.00     0.029 A 
ATOM     49  C   UNL A   1      38.538  31.246  30.880  1.00  0.00     0.049 A 
ATOM     50  H   UNL A   1      40.016  30.599  32.198  1.00  0.00     0.167 HD
ATOM     51  C   UNL A   1      43.147  29.142  34.889  1.00  0.00     0.031 A 
ATOM     52  C   UNL A   1      37.875  32.254  31.483  1.00  0.00     0.031 A 
ATOM     53  C   UNL A   1      42.540  30.245  35.586  1.00  0.00     0.049 A 
ATOM     54  C   UNL A   1      38.308  32.694  32.856  1.00  0.00     0.074 A 
ATOM     55  C   UNL A   1      42.878  30.777  36.818  1.00  0.00     0.029 A 
ATOM     56  N   UNL A   1      41.475  30.992  35.107  1.00  0.00    -0.354 N 
ATOM     57  N   UNL A   1      39.283  32.233  33.603  1.00  0.00    -0.248 NA
ATOM     58  C   UNL A   1      37.559  33.805  33.461  1.00  0.00     0.031 C 
ATOM     59  C   UNL A   1      41.986  31.815  37.105  1.00  0.00     0.029 A 
ATOM     60  C   UNL A   1      41.132  31.969  36.025  1.00  0.00     0.049 A 
ATOM     61  H   UNL A   1      41.028  30.847  34.242  1.00  0.00     0.167 HD
ATOM     62  C   UNL A   1      39.284  33.020  34.751  1.00  0.00     0.074 A 
ATOM     63  C   UNL A   1      38.229  33.999  34.587  1.00  0.00     0.031 C 
ATOM     64  C   UNL A   1      40.082  32.938  35.844  1.00  0.00     0.031 A 
BRANCH  51  65
ATOM     65  C   UNL A   1      44.296  28.420  35.548  1.00  0.00    -0.014 A 
ATOM     66  C   UNL A   1      44.066  27.299  36.368  1.00  0.00     0.010 A 
ATOM     67  C   UNL A   1      45.620  28.835  35.316  1.00  0.00     0.010 A 
ATOM     68  C   UNL A   1      45.132  26.635  36.977  1.00  0.00     0.020 A 
ATOM     69  C   UNL A   1      46.693  28.152  35.898  1.00  0.00     0.020 A 
ATOM     70  C   UNL A   1      46.440  27.065  36.738  1.00  0.00     0.054 A 
BRANCH  70  71
ATOM     71  S   UNL A   1      47.805  26.161  37.518  1.00  0.00     0.124 S 
ATOM     72  O   UNL A   1      48.340  27.161  38.439  1.00  0.00    -0.237 OA
ATOM     73  O   UNL A   1      47.123  25.031  38.143  1.00  0.00    -0.237 OA
ATOM     74  O   UNL A   1      48.678  25.817  36.399  1.00  0.00    -0.744 OA
ENDBRANCH  70  71
ENDBRANCH  51  65
BRANCH  52  75
ATOM     75  C   UNL A   1      36.740  32.932  30.793  1.00  0.00    -0.014 A 
ATOM     76  C   UNL A   1      36.979  33.916  29.817  1.00  0.00     0.010 A 
ATOM     77  C   UNL A   1      35.411  32.617  31.131  1.00  0.00     0.010 A 
ATOM     78  C   UNL A   1      35.915  34.603  29.225  1.00  0.00     0.020 A 
ATOM     79  C   UNL A   1      34.343  33.278  30.517  1.00  0.00     0.020 A 
ATOM     80  C   UNL A   1      34.602  34.282  29.581  1.00  0.00     0.054 A 
BRANCH  80  81
ATOM     81  S   UNL A   1      33.236  35.176  28.793  1.00  0.00     0.124 S 
ATOM     82  O   UNL A   1      32.604  34.127  27.999  1.00  0.00    -0.237 OA
ATOM     83  O   UNL A   1      32.467  35.653  29.939  1.00  0.00    -0.237 OA
ATOM     84  O   UNL A   1      33.910  36.223  28.026  1.00  0.00    -0.744 OA
ENDBRANCH  80  81
ENDBRANCH  52  75
BRANCH  64  85
ATOM     85  C   UNL A   1      39.873  33.962  36.929  1.00  0.00    -0.014 A 
ATOM     86  C   UNL A   1      40.345  35.280  36.794  1.00  0.00     0.010 A 
ATOM     87  C   UNL A   1      39.164  33.605  38.092  1.00  0.00     0.010 A 
ATOM     88  C   UNL A   1      40.157  36.207  37.822  1.00  0.00     0.020 A 
ATOM     89  C   UNL A   1      38.944  34.538  39.107  1.00  0.00     0.020 A 
ATOM     90  C   UNL A   1      39.460  35.829  38.974  1.00  0.00     0.054 A 
BRANCH  90  91
ATOM     91  S   UNL A   1      39.211  37.056  40.286  1.00  0.00     0.124 S 
ATOM     92  O   UNL A   1      38.601  38.163  39.554  1.00  0.00    -0.237 OA
ATOM     93  O   UNL A   1      38.330  36.356  41.216  1.00  0.00    -0.237 OA
ATOM     94  O   UNL A   1      40.562  37.308  40.786  1.00  0.00    -0.744 OA
ENDBRANCH  90  91
ENDBRANCH  64  85
ENDBRANCH  38  39
ENDBRANCH  30  33
ENDBRANCH  28  29
ENDBRANCH   1  28
TORSDOF 16
ENDMDL
