MODEL 1
REMARK VINA RESULT:     -12.8      0.000      0.000
REMARK SMILES CC1=C(C(=O)NCCCNC(=O)c2ccc(-c3c4nc(c(-c5ccc(S(=O)(=O)[O-])cc5)c5ccc([nH]5)c(-c5ccc(S(=O)(=O)[O-])cc5)c5nc(c(-c6ccc(S(=O)(=O)[O-])cc6)c6ccc3[nH]6)C=C5)C=C4)cc2)[C@H](c2ccc(Cl)cc2)n2ncnc2N1
REMARK SMILES IDX 9 1 8 2 7 3 6 4 4 5 5 6 3 8 1 9 2 10 86 11 73 12 85 13 81 15
REMARK SMILES IDX 84 16 82 17 83 18 74 19 75 20 80 21 76 22 79 23 77 24 78 25
REMARK SMILES IDX 10 26 11 27 12 29 13 30 14 31 72 32 15 33 71 34 16 35 17 36
REMARK SMILES IDX 18 37 65 38 19 39 70 40 64 41 66 42 20 43 69 44 63 45 62 46
REMARK SMILES IDX 21 48 51 49 32 50 50 51 33 52 36 53 49 54 67 55 34 56 35 57
REMARK SMILES IDX 48 59 68 60 37 61 22 62 23 63 31 64 24 65 30 66 25 67 26 68
REMARK SMILES IDX 27 69 28 70 29 71 52 72 53 73 61 74 54 75 60 76 55 77 56 78
REMARK SMILES IDX 57 79 58 80 59 81 38 82 39 83 47 84 40 85 46 86 41 87 42 88
REMARK SMILES IDX 43 89 44 90 45 91
REMARK H PARENT 6 7 86 14 10 28 66 47 36 58
REMARK Flexibility Score: inf
ROOT
ATOM      1  C   UNL A   1      33.804  31.191  27.288  1.00  0.00     0.118 C 
ENDROOT
BRANCH   1   2
ATOM      2  C   UNL A   1      32.438  30.788  26.801  1.00  0.00     0.042 C 
BRANCH   2   3
ATOM      3  C   UNL A   1      32.025  29.403  27.252  1.00  0.00     0.118 C 
BRANCH   3   4
ATOM      4  N   UNL A   1      32.941  28.324  27.009  1.00  0.00    -0.352 N 
ATOM      5  C   UNL A   1      33.254  27.671  25.862  1.00  0.00     0.251 C 
ATOM      6  O   UNL A   1      34.006  26.705  26.020  1.00  0.00    -0.270 OA
ATOM      7  H   UNL A   1      33.419  28.005  27.807  1.00  0.00     0.163 HD
BRANCH   5   8
ATOM      8  C   UNL A   1      32.657  27.936  24.492  1.00  0.00     0.065 C 
ATOM      9  C   UNL A   1      34.511  28.954  22.981  1.00  0.00     0.065 C 
ATOM     10  C   UNL A   1      33.099  28.598  23.379  1.00  0.00     0.026 C 
ATOM     11  N   UNL A   1      32.181  29.017  22.413  1.00  0.00    -0.328 N 
ATOM     12  C   UNL A   1      31.252  27.245  24.378  1.00  0.00     0.179 C 
ATOM     13  C   UNL A   1      30.854  28.865  22.530  1.00  0.00     0.226 A 
ATOM     14  H   UNL A   1      32.528  29.450  21.600  1.00  0.00     0.169 HD
ATOM     15  N   UNL A   1      30.375  28.049  23.515  1.00  0.00    -0.219 N 
ATOM     16  N   UNL A   1      29.863  29.341  21.824  1.00  0.00    -0.200 NA
ATOM     17  N   UNL A   1      29.028  27.977  23.473  1.00  0.00    -0.157 NA
ATOM     18  C   UNL A   1      28.770  28.784  22.437  1.00  0.00     0.248 A 
BRANCH  12  19
ATOM     19  C   UNL A   1      31.414  25.798  23.825  1.00  0.00    -0.018 A 
ATOM     20  C   UNL A   1      32.255  25.480  22.739  1.00  0.00     0.008 A 
ATOM     21  C   UNL A   1      30.763  24.721  24.460  1.00  0.00     0.008 A 
ATOM     22  C   UNL A   1      32.448  24.156  22.327  1.00  0.00     0.021 A 
ATOM     23  C   UNL A   1      30.975  23.394  24.068  1.00  0.00     0.021 A 
ATOM     24  C   UNL A   1      31.820  23.117  23.002  1.00  0.00     0.041 A 
ATOM     25  Cl  UNL A   1      32.090  21.489  22.519  1.00  0.00    -0.084 Cl
ENDBRANCH  12  19
ENDBRANCH   5   8
ENDBRANCH   3   4
ENDBRANCH   2   3
ENDBRANCH   1   2
BRANCH   1  26
ATOM     26  N   UNL A   1      33.802  31.932  28.557  1.00  0.00    -0.352 N 
ATOM     27  C   UNL A   1      34.795  31.895  29.528  1.00  0.00     0.251 C 
ATOM     28  H   UNL A   1      33.025  32.509  28.735  1.00  0.00     0.163 HD
ATOM     29  O   UNL A   1      34.601  32.312  30.665  1.00  0.00    -0.269 OA
BRANCH  27  30
ATOM     30  C   UNL A   1      36.093  31.332  29.121  1.00  0.00     0.039 A 
ATOM     31  C   UNL A   1      37.264  32.089  29.108  1.00  0.00     0.014 A 
ATOM     32  C   UNL A   1      36.124  29.948  29.010  1.00  0.00     0.014 A 
ATOM     33  C   UNL A   1      38.482  31.411  29.113  1.00  0.00     0.010 A 
ATOM     34  C   UNL A   1      37.299  29.306  29.282  1.00  0.00     0.010 A 
ATOM     35  C   UNL A   1      38.494  30.012  29.257  1.00  0.00    -0.014 A 
BRANCH  35  36
ATOM     36  C   UNL A   1      39.725  29.264  29.496  1.00  0.00     0.031 A 
ATOM     37  C   UNL A   1      40.029  29.020  30.929  1.00  0.00     0.074 A 
ATOM     38  C   UNL A   1      40.445  28.669  28.517  1.00  0.00     0.049 A 
ATOM     39  N   UNL A   1      40.789  29.736  31.690  1.00  0.00    -0.248 NA
ATOM     40  C   UNL A   1      39.268  27.990  31.655  1.00  0.00     0.031 C 
ATOM     41  C   UNL A   1      40.111  28.536  27.088  1.00  0.00     0.029 A 
ATOM     42  N   UNL A   1      41.608  27.968  28.609  1.00  0.00    -0.354 N 
ATOM     43  C   UNL A   1      40.838  29.063  32.904  1.00  0.00     0.074 A 
ATOM     44  C   UNL A   1      39.707  28.171  32.905  1.00  0.00     0.031 C 
ATOM     45  C   UNL A   1      40.912  27.616  26.509  1.00  0.00     0.029 A 
ATOM     46  C   UNL A   1      41.954  27.274  27.454  1.00  0.00     0.049 A 
ATOM     47  H   UNL A   1      42.158  27.953  29.425  1.00  0.00     0.167 HD
ATOM     48  C   UNL A   1      41.985  29.047  33.641  1.00  0.00     0.031 A 
ATOM     49  C   UNL A   1      43.060  26.521  27.250  1.00  0.00     0.031 A 
ATOM     50  C   UNL A   1      42.966  29.943  33.077  1.00  0.00     0.049 A 
ATOM     51  C   UNL A   1      44.084  27.009  28.197  1.00  0.00     0.074 A 
ATOM     52  C   UNL A   1      43.134  31.304  32.963  1.00  0.00     0.029 A 
ATOM     53  N   UNL A   1      43.769  29.348  32.133  1.00  0.00    -0.354 N 
ATOM     54  N   UNL A   1      44.580  28.215  28.143  1.00  0.00    -0.248 NA
ATOM     55  C   UNL A   1      44.292  26.305  29.454  1.00  0.00     0.031 C 
ATOM     56  C   UNL A   1      43.872  31.505  31.757  1.00  0.00     0.029 A 
ATOM     57  C   UNL A   1      44.187  30.262  31.204  1.00  0.00     0.049 A 
ATOM     58  H   UNL A   1      44.011  28.393  32.126  1.00  0.00     0.167 HD
ATOM     59  C   UNL A   1      44.764  28.572  29.466  1.00  0.00     0.074 A 
ATOM     60  C   UNL A   1      44.738  27.316  30.206  1.00  0.00     0.031 C 
ATOM     61  C   UNL A   1      44.615  29.866  29.874  1.00  0.00     0.031 A 
BRANCH  48  62
ATOM     62  C   UNL A   1      42.436  27.893  34.516  1.00  0.00    -0.014 A 
ATOM     63  C   UNL A   1      42.834  28.171  35.841  1.00  0.00     0.010 A 
ATOM     64  C   UNL A   1      42.755  26.615  34.013  1.00  0.00     0.010 A 
ATOM     65  C   UNL A   1      43.566  27.245  36.598  1.00  0.00     0.020 A 
ATOM     66  C   UNL A   1      43.453  25.671  34.771  1.00  0.00     0.020 A 
ATOM     67  C   UNL A   1      43.879  26.002  36.049  1.00  0.00     0.054 A 
BRANCH  67  68
ATOM     68  S   UNL A   1      44.895  24.843  36.997  1.00  0.00     0.124 S 
ATOM     69  O   UNL A   1      44.364  25.009  38.347  1.00  0.00    -0.237 OA
ATOM     70  O   UNL A   1      44.596  23.570  36.348  1.00  0.00    -0.237 OA
ATOM     71  O   UNL A   1      46.255  25.337  36.794  1.00  0.00    -0.744 OA
ENDBRANCH  67  68
ENDBRANCH  48  62
BRANCH  49  72
ATOM     72  C   UNL A   1      43.217  25.288  26.450  1.00  0.00    -0.014 A 
ATOM     73  C   UNL A   1      44.198  25.191  25.446  1.00  0.00     0.010 A 
ATOM     74  C   UNL A   1      42.600  24.097  26.887  1.00  0.00     0.010 A 
ATOM     75  C   UNL A   1      44.601  23.940  24.951  1.00  0.00     0.020 A 
ATOM     76  C   UNL A   1      42.999  22.847  26.399  1.00  0.00     0.020 A 
ATOM     77  C   UNL A   1      44.017  22.773  25.449  1.00  0.00     0.054 A 
BRANCH  77  78
ATOM     78  S   UNL A   1      44.678  21.157  24.941  1.00  0.00     0.124 S 
ATOM     79  O   UNL A   1      43.760  20.227  25.592  1.00  0.00    -0.237 OA
ATOM     80  O   UNL A   1      44.586  21.220  23.485  1.00  0.00    -0.237 OA
ATOM     81  O   UNL A   1      46.040  21.158  25.472  1.00  0.00    -0.744 OA
ENDBRANCH  77  78
ENDBRANCH  49  72
BRANCH  61  82
ATOM     82  C   UNL A   1      44.773  30.954  28.843  1.00  0.00    -0.014 A 
ATOM     83  C   UNL A   1      45.929  31.737  28.670  1.00  0.00     0.010 A 
ATOM     84  C   UNL A   1      43.705  31.123  27.944  1.00  0.00     0.010 A 
ATOM     85  C   UNL A   1      46.000  32.681  27.632  1.00  0.00     0.020 A 
ATOM     86  C   UNL A   1      43.776  32.045  26.901  1.00  0.00     0.020 A 
ATOM     87  C   UNL A   1      44.920  32.828  26.754  1.00  0.00     0.054 A 
BRANCH  87  88
ATOM     88  S   UNL A   1      45.021  34.026  25.394  1.00  0.00     0.124 S 
ATOM     89  O   UNL A   1      44.469  33.277  24.269  1.00  0.00    -0.237 OA
ATOM     90  O   UNL A   1      44.201  35.135  25.875  1.00  0.00    -0.237 OA
ATOM     91  O   UNL A   1      46.450  34.322  25.296  1.00  0.00    -0.744 OA
ENDBRANCH  87  88
ENDBRANCH  61  82
ENDBRANCH  35  36
ENDBRANCH  27  30
ENDBRANCH   1  26
TORSDOF 14
ENDMDL
MODEL 2
REMARK VINA RESULT:     -12.8      3.536      9.723
REMARK SMILES CC1=C(C(=O)NCCCNC(=O)c2ccc(-c3c4nc(c(-c5ccc(S(=O)(=O)[O-])cc5)c5ccc([nH]5)c(-c5ccc(S(=O)(=O)[O-])cc5)c5nc(c(-c6ccc(S(=O)(=O)[O-])cc6)c6ccc3[nH]6)C=C5)C=C4)cc2)[C@H](c2ccc(Cl)cc2)n2ncnc2N1
REMARK SMILES IDX 9 1 8 2 7 3 6 4 4 5 5 6 3 8 1 9 2 10 86 11 73 12 85 13 81 15
REMARK SMILES IDX 84 16 82 17 83 18 74 19 75 20 80 21 76 22 79 23 77 24 78 25
REMARK SMILES IDX 10 26 11 27 12 29 13 30 14 31 72 32 15 33 71 34 16 35 17 36
REMARK SMILES IDX 18 37 65 38 19 39 70 40 64 41 66 42 20 43 69 44 63 45 62 46
REMARK SMILES IDX 21 48 51 49 32 50 50 51 33 52 36 53 49 54 67 55 34 56 35 57
REMARK SMILES IDX 48 59 68 60 37 61 22 62 23 63 31 64 24 65 30 66 25 67 26 68
REMARK SMILES IDX 27 69 28 70 29 71 52 72 53 73 61 74 54 75 60 76 55 77 56 78
REMARK SMILES IDX 57 79 58 80 59 81 38 82 39 83 47 84 40 85 46 86 41 87 42 88
REMARK SMILES IDX 43 89 44 90 45 91
REMARK H PARENT 6 7 86 14 10 28 66 47 36 58
REMARK Flexibility Score: inf
ROOT
ATOM      1  C   UNL A   1      39.823  21.766  26.783  1.00  0.00     0.118 C 
ENDROOT
BRANCH   1   2
ATOM      2  C   UNL A   1      38.675  21.427  25.872  1.00  0.00     0.042 C 
BRANCH   2   3
ATOM      3  C   UNL A   1      37.792  22.614  25.553  1.00  0.00     0.118 C 
BRANCH   3   4
ATOM      4  N   UNL A   1      37.464  22.848  24.175  1.00  0.00    -0.352 N 
ATOM      5  C   UNL A   1      36.261  22.969  23.561  1.00  0.00     0.251 C 
ATOM      6  O   UNL A   1      36.329  23.055  22.331  1.00  0.00    -0.270 OA
ATOM      7  H   UNL A   1      38.241  22.932  23.577  1.00  0.00     0.163 HD
BRANCH   5   8
ATOM      8  C   UNL A   1      34.902  22.861  24.227  1.00  0.00     0.065 C 
ATOM      9  C   UNL A   1      33.157  24.056  22.715  1.00  0.00     0.065 C 
ATOM     10  C   UNL A   1      33.680  23.429  23.985  1.00  0.00     0.026 C 
ATOM     11  N   UNL A   1      32.716  23.452  24.995  1.00  0.00    -0.328 N 
ATOM     12  C   UNL A   1      34.968  21.835  25.414  1.00  0.00     0.179 C 
ATOM     13  C   UNL A   1      32.927  22.997  26.239  1.00  0.00     0.226 A 
ATOM     14  H   UNL A   1      31.830  23.825  24.782  1.00  0.00     0.169 HD
ATOM     15  N   UNL A   1      34.046  22.252  26.480  1.00  0.00    -0.219 N 
ATOM     16  N   UNL A   1      32.214  23.097  27.329  1.00  0.00    -0.200 NA
ATOM     17  N   UNL A   1      34.090  21.844  27.765  1.00  0.00    -0.157 NA
ATOM     18  C   UNL A   1      32.963  22.391  28.235  1.00  0.00     0.248 A 
BRANCH  12  19
ATOM     19  C   UNL A   1      34.627  20.405  24.901  1.00  0.00    -0.018 A 
ATOM     20  C   UNL A   1      35.585  19.377  24.799  1.00  0.00     0.008 A 
ATOM     21  C   UNL A   1      33.295  20.066  24.584  1.00  0.00     0.008 A 
ATOM     22  C   UNL A   1      35.226  18.077  24.420  1.00  0.00     0.021 A 
ATOM     23  C   UNL A   1      32.928  18.761  24.233  1.00  0.00     0.021 A 
ATOM     24  C   UNL A   1      33.897  17.771  24.154  1.00  0.00     0.041 A 
ATOM     25  Cl  UNL A   1      33.453  16.165  23.729  1.00  0.00    -0.084 Cl
ENDBRANCH  12  19
ENDBRANCH   5   8
ENDBRANCH   3   4
ENDBRANCH   2   3
ENDBRANCH   1   2
BRANCH   1  26
ATOM     26  N   UNL A   1      41.102  21.983  26.094  1.00  0.00    -0.352 N 
ATOM     27  C   UNL A   1      41.847  23.155  26.098  1.00  0.00     0.251 C 
ATOM     28  H   UNL A   1      41.466  21.226  25.580  1.00  0.00     0.163 HD
ATOM     29  O   UNL A   1      42.746  23.353  25.288  1.00  0.00    -0.269 OA
BRANCH  27  30
ATOM     30  C   UNL A   1      41.502  24.150  27.129  1.00  0.00     0.039 A 
ATOM     31  C   UNL A   1      42.287  24.350  28.264  1.00  0.00     0.014 A 
ATOM     32  C   UNL A   1      40.506  25.048  26.769  1.00  0.00     0.014 A 
ATOM     33  C   UNL A   1      42.135  25.547  28.962  1.00  0.00     0.010 A 
ATOM     34  C   UNL A   1      40.555  26.308  27.294  1.00  0.00     0.010 A 
ATOM     35  C   UNL A   1      41.302  26.552  28.437  1.00  0.00    -0.014 A 
BRANCH  35  36
ATOM     36  C   UNL A   1      41.272  27.904  28.989  1.00  0.00     0.031 A 
ATOM     37  C   UNL A   1      42.309  28.816  28.443  1.00  0.00     0.074 A 
ATOM     38  C   UNL A   1      40.280  28.368  29.784  1.00  0.00     0.049 A 
ATOM     39  N   UNL A   1      43.467  29.063  28.957  1.00  0.00    -0.248 NA
ATOM     40  C   UNL A   1      42.133  29.368  27.090  1.00  0.00     0.031 C 
ATOM     41  C   UNL A   1      39.018  27.705  30.155  1.00  0.00     0.029 A 
ATOM     42  N   UNL A   1      40.148  29.589  30.371  1.00  0.00    -0.354 N 
ATOM     43  C   UNL A   1      44.033  30.039  28.146  1.00  0.00     0.074 A 
ATOM     44  C   UNL A   1      43.301  29.991  26.906  1.00  0.00     0.031 C 
ATOM     45  C   UNL A   1      38.164  28.602  30.693  1.00  0.00     0.029 A 
ATOM     46  C   UNL A   1      38.894  29.832  30.921  1.00  0.00     0.049 A 
ATOM     47  H   UNL A   1      40.881  30.246  30.406  1.00  0.00     0.167 HD
ATOM     48  C   UNL A   1      44.811  31.022  28.684  1.00  0.00     0.031 A 
ATOM     49  C   UNL A   1      38.489  30.940  31.584  1.00  0.00     0.031 A 
ATOM     50  C   UNL A   1      45.074  30.756  30.078  1.00  0.00     0.049 A 
ATOM     51  C   UNL A   1      39.707  31.577  32.125  1.00  0.00     0.074 A 
ATOM     52  C   UNL A   1      45.820  29.857  30.806  1.00  0.00     0.029 A 
ATOM     53  N   UNL A   1      44.126  31.285  30.922  1.00  0.00    -0.354 N 
ATOM     54  N   UNL A   1      40.467  31.005  33.019  1.00  0.00    -0.248 NA
ATOM     55  C   UNL A   1      40.316  32.686  31.406  1.00  0.00     0.031 C 
ATOM     56  C   UNL A   1      45.124  29.685  32.041  1.00  0.00     0.029 A 
ATOM     57  C   UNL A   1      44.011  30.529  32.057  1.00  0.00     0.049 A 
ATOM     58  H   UNL A   1      43.600  32.096  30.735  1.00  0.00     0.167 HD
ATOM     59  C   UNL A   1      41.751  31.380  32.671  1.00  0.00     0.074 A 
ATOM     60  C   UNL A   1      41.586  32.536  31.796  1.00  0.00     0.031 C 
ATOM     61  C   UNL A   1      42.810  30.543  32.872  1.00  0.00     0.031 A 
BRANCH  48  62
ATOM     62  C   UNL A   1      44.897  32.441  28.158  1.00  0.00    -0.014 A 
ATOM     63  C   UNL A   1      46.176  33.012  27.977  1.00  0.00     0.010 A 
ATOM     64  C   UNL A   1      43.798  33.322  28.113  1.00  0.00     0.010 A 
ATOM     65  C   UNL A   1      46.347  34.395  27.820  1.00  0.00     0.020 A 
ATOM     66  C   UNL A   1      43.955  34.698  27.922  1.00  0.00     0.020 A 
ATOM     67  C   UNL A   1      45.231  35.229  27.805  1.00  0.00     0.054 A 
BRANCH  67  68
ATOM     68  S   UNL A   1      45.461  37.020  27.688  1.00  0.00     0.124 S 
ATOM     69  O   UNL A   1      46.016  37.340  29.000  1.00  0.00    -0.237 OA
ATOM     70  O   UNL A   1      46.383  37.139  26.561  1.00  0.00    -0.237 OA
ATOM     71  O   UNL A   1      44.112  37.522  27.439  1.00  0.00    -0.744 OA
ENDBRANCH  67  68
ENDBRANCH  48  62
BRANCH  49  72
ATOM     72  C   UNL A   1      37.159  31.586  31.600  1.00  0.00    -0.014 A 
ATOM     73  C   UNL A   1      36.444  31.752  32.800  1.00  0.00     0.010 A 
ATOM     74  C   UNL A   1      36.733  32.316  30.470  1.00  0.00     0.010 A 
ATOM     75  C   UNL A   1      35.387  32.672  32.888  1.00  0.00     0.020 A 
ATOM     76  C   UNL A   1      35.680  33.236  30.552  1.00  0.00     0.020 A 
ATOM     77  C   UNL A   1      35.028  33.428  31.769  1.00  0.00     0.054 A 
BRANCH  77  78
ATOM     78  S   UNL A   1      33.788  34.748  31.945  1.00  0.00     0.124 S 
ATOM     79  O   UNL A   1      34.589  35.862  32.444  1.00  0.00    -0.237 OA
ATOM     80  O   UNL A   1      33.284  34.893  30.582  1.00  0.00    -0.237 OA
ATOM     81  O   UNL A   1      32.830  34.196  32.901  1.00  0.00    -0.744 OA
ENDBRANCH  77  78
ENDBRANCH  49  72
BRANCH  61  82
ATOM     82  C   UNL A   1      42.671  29.471  33.923  1.00  0.00    -0.014 A 
ATOM     83  C   UNL A   1      43.029  29.618  35.276  1.00  0.00     0.010 A 
ATOM     84  C   UNL A   1      42.059  28.272  33.516  1.00  0.00     0.010 A 
ATOM     85  C   UNL A   1      42.794  28.579  36.192  1.00  0.00     0.020 A 
ATOM     86  C   UNL A   1      41.806  27.244  34.423  1.00  0.00     0.020 A 
ATOM     87  C   UNL A   1      42.184  27.397  35.755  1.00  0.00     0.054 A 
BRANCH  87  88
ATOM     88  S   UNL A   1      41.854  26.064  36.942  1.00  0.00     0.124 S 
ATOM     89  O   UNL A   1      42.026  24.864  36.129  1.00  0.00    -0.237 OA
ATOM     90  O   UNL A   1      42.872  26.281  37.967  1.00  0.00    -0.237 OA
ATOM     91  O   UNL A   1      40.482  26.320  37.382  1.00  0.00    -0.744 OA
ENDBRANCH  87  88
ENDBRANCH  61  82
ENDBRANCH  35  36
ENDBRANCH  27  30
ENDBRANCH   1  26
TORSDOF 14
ENDMDL
MODEL 3
REMARK VINA RESULT:     -12.7      3.501      9.680
REMARK SMILES CC1=C(C(=O)NCCCNC(=O)c2ccc(-c3c4nc(c(-c5ccc(S(=O)(=O)[O-])cc5)c5ccc([nH]5)c(-c5ccc(S(=O)(=O)[O-])cc5)c5nc(c(-c6ccc(S(=O)(=O)[O-])cc6)c6ccc3[nH]6)C=C5)C=C4)cc2)[C@H](c2ccc(Cl)cc2)n2ncnc2N1
REMARK SMILES IDX 9 1 8 2 7 3 6 4 4 5 5 6 3 8 1 9 2 10 86 11 73 12 85 13 81 15
REMARK SMILES IDX 84 16 82 17 83 18 74 19 75 20 80 21 76 22 79 23 77 24 78 25
REMARK SMILES IDX 10 26 11 27 12 29 13 30 14 31 72 32 15 33 71 34 16 35 17 36
REMARK SMILES IDX 18 37 65 38 19 39 70 40 64 41 66 42 20 43 69 44 63 45 62 46
REMARK SMILES IDX 21 48 51 49 32 50 50 51 33 52 36 53 49 54 67 55 34 56 35 57
REMARK SMILES IDX 48 59 68 60 37 61 22 62 23 63 31 64 24 65 30 66 25 67 26 68
REMARK SMILES IDX 27 69 28 70 29 71 52 72 53 73 61 74 54 75 60 76 55 77 56 78
REMARK SMILES IDX 57 79 58 80 59 81 38 82 39 83 47 84 40 85 46 86 41 87 42 88
REMARK SMILES IDX 43 89 44 90 45 91
REMARK H PARENT 6 7 86 14 10 28 66 47 36 58
REMARK Flexibility Score: inf
ROOT
ATOM      1  C   UNL A   1      38.898  22.180  26.151  1.00  0.00     0.118 C 
ENDROOT
BRANCH   1   2
ATOM      2  C   UNL A   1      37.960  21.322  25.347  1.00  0.00     0.042 C 
BRANCH   2   3
ATOM      3  C   UNL A   1      37.227  22.087  24.265  1.00  0.00     0.118 C 
BRANCH   3   4
ATOM      4  N   UNL A   1      36.635  23.345  24.624  1.00  0.00    -0.352 N 
ATOM      5  C   UNL A   1      35.411  23.635  25.129  1.00  0.00     0.251 C 
ATOM      6  O   UNL A   1      35.175  24.843  25.220  1.00  0.00    -0.270 OA
ATOM      7  H   UNL A   1      37.215  24.127  24.477  1.00  0.00     0.163 HD
BRANCH   5   8
ATOM      8  C   UNL A   1      34.310  22.635  25.431  1.00  0.00     0.065 C 
ATOM      9  C   UNL A   1      34.172  22.333  28.010  1.00  0.00     0.065 C 
ATOM     10  C   UNL A   1      33.910  21.981  26.565  1.00  0.00     0.026 C 
ATOM     11  N   UNL A   1      33.128  20.828  26.460  1.00  0.00    -0.328 N 
ATOM     12  C   UNL A   1      33.461  22.365  24.138  1.00  0.00     0.179 C 
ATOM     13  C   UNL A   1      32.778  20.268  25.293  1.00  0.00     0.226 A 
ATOM     14  H   UNL A   1      32.815  20.402  27.291  1.00  0.00     0.169 HD
ATOM     15  N   UNL A   1      32.981  20.976  24.143  1.00  0.00    -0.219 N 
ATOM     16  N   UNL A   1      32.212  19.123  25.018  1.00  0.00    -0.200 NA
ATOM     17  N   UNL A   1      32.545  20.289  23.066  1.00  0.00    -0.157 NA
ATOM     18  C   UNL A   1      32.098  19.172  23.653  1.00  0.00     0.248 A 
BRANCH  12  19
ATOM     19  C   UNL A   1      32.274  23.371  24.062  1.00  0.00    -0.018 A 
ATOM     20  C   UNL A   1      31.394  23.604  25.138  1.00  0.00     0.008 A 
ATOM     21  C   UNL A   1      32.085  24.155  22.905  1.00  0.00     0.008 A 
ATOM     22  C   UNL A   1      30.395  24.582  25.066  1.00  0.00     0.021 A 
ATOM     23  C   UNL A   1      31.105  25.153  22.841  1.00  0.00     0.021 A 
ATOM     24  C   UNL A   1      30.264  25.362  23.924  1.00  0.00     0.041 A 
ATOM     25  Cl  UNL A   1      29.061  26.590  23.854  1.00  0.00    -0.084 Cl
ENDBRANCH  12  19
ENDBRANCH   5   8
ENDBRANCH   3   4
ENDBRANCH   2   3
ENDBRANCH   1   2
BRANCH   1  26
ATOM     26  N   UNL A   1      40.321  21.965  25.856  1.00  0.00    -0.352 N 
ATOM     27  C   UNL A   1      41.365  22.817  26.193  1.00  0.00     0.251 C 
ATOM     28  H   UNL A   1      40.557  21.140  25.374  1.00  0.00     0.163 HD
ATOM     29  O   UNL A   1      42.474  22.715  25.679  1.00  0.00    -0.269 OA
BRANCH  27  30
ATOM     30  C   UNL A   1      41.073  23.849  27.203  1.00  0.00     0.039 A 
ATOM     31  C   UNL A   1      41.884  24.052  28.319  1.00  0.00     0.014 A 
ATOM     32  C   UNL A   1      40.100  24.770  26.837  1.00  0.00     0.014 A 
ATOM     33  C   UNL A   1      41.785  25.272  28.987  1.00  0.00     0.010 A 
ATOM     34  C   UNL A   1      40.200  26.041  27.327  1.00  0.00     0.010 A 
ATOM     35  C   UNL A   1      40.976  26.290  28.450  1.00  0.00    -0.014 A 
BRANCH  35  36
ATOM     36  C   UNL A   1      41.000  27.656  28.966  1.00  0.00     0.031 A 
ATOM     37  C   UNL A   1      42.042  28.524  28.361  1.00  0.00     0.074 A 
ATOM     38  C   UNL A   1      40.050  28.168  29.781  1.00  0.00     0.049 A 
ATOM     39  N   UNL A   1      43.224  28.753  28.829  1.00  0.00    -0.248 NA
ATOM     40  C   UNL A   1      41.835  29.046  27.000  1.00  0.00     0.031 C 
ATOM     41  C   UNL A   1      38.784  27.549  30.211  1.00  0.00     0.029 A 
ATOM     42  N   UNL A   1      39.970  29.407  30.339  1.00  0.00    -0.354 N 
ATOM     43  C   UNL A   1      43.787  29.691  27.973  1.00  0.00     0.074 A 
ATOM     44  C   UNL A   1      43.013  29.632  26.760  1.00  0.00     0.031 C 
ATOM     45  C   UNL A   1      37.973  28.483  30.753  1.00  0.00     0.029 A 
ATOM     46  C   UNL A   1      38.742  29.698  30.923  1.00  0.00     0.049 A 
ATOM     47  H   UNL A   1      40.721  30.044  30.331  1.00  0.00     0.167 HD
ATOM     48  C   UNL A   1      44.609  30.666  28.458  1.00  0.00     0.031 A 
ATOM     49  C   UNL A   1      38.390  30.834  31.569  1.00  0.00     0.031 A 
ATOM     50  C   UNL A   1      44.913  30.430  29.850  1.00  0.00     0.049 A 
ATOM     51  C   UNL A   1      39.643  31.451  32.052  1.00  0.00     0.074 A 
ATOM     52  C   UNL A   1      45.658  29.529  30.576  1.00  0.00     0.029 A 
ATOM     53  N   UNL A   1      44.008  31.006  30.711  1.00  0.00    -0.354 N 
ATOM     54  N   UNL A   1      40.417  30.882  32.935  1.00  0.00    -0.248 NA
ATOM     55  C   UNL A   1      40.256  32.524  31.283  1.00  0.00     0.031 C 
ATOM     56  C   UNL A   1      45.001  29.409  31.838  1.00  0.00     0.029 A 
ATOM     57  C   UNL A   1      43.912  30.284  31.869  1.00  0.00     0.049 A 
ATOM     58  H   UNL A   1      43.499  31.826  30.519  1.00  0.00     0.167 HD
ATOM     59  C   UNL A   1      41.698  31.212  32.534  1.00  0.00     0.074 A 
ATOM     60  C   UNL A   1      41.533  32.349  31.634  1.00  0.00     0.031 C 
ATOM     61  C   UNL A   1      42.740  30.352  32.723  1.00  0.00     0.031 A 
BRANCH  48  62
ATOM     62  C   UNL A   1      44.716  32.069  27.892  1.00  0.00    -0.014 A 
ATOM     63  C   UNL A   1      45.933  32.459  27.293  1.00  0.00     0.010 A 
ATOM     64  C   UNL A   1      43.792  33.094  28.177  1.00  0.00     0.010 A 
ATOM     65  C   UNL A   1      46.232  33.807  27.050  1.00  0.00     0.020 A 
ATOM     66  C   UNL A   1      44.066  34.438  27.906  1.00  0.00     0.020 A 
ATOM     67  C   UNL A   1      45.296  34.789  27.371  1.00  0.00     0.054 A 
BRANCH  67  68
ATOM     68  S   UNL A   1      45.720  36.532  27.134  1.00  0.00     0.124 S 
ATOM     69  O   UNL A   1      44.404  37.146  26.985  1.00  0.00    -0.237 OA
ATOM     70  O   UNL A   1      46.432  36.846  28.369  1.00  0.00    -0.237 OA
ATOM     71  O   UNL A   1      46.547  36.521  25.929  1.00  0.00    -0.744 OA
ENDBRANCH  67  68
ENDBRANCH  48  62
BRANCH  49  72
ATOM     72  C   UNL A   1      37.079  31.517  31.612  1.00  0.00    -0.014 A 
ATOM     73  C   UNL A   1      36.409  31.732  32.830  1.00  0.00     0.010 A 
ATOM     74  C   UNL A   1      36.635  32.230  30.479  1.00  0.00     0.010 A 
ATOM     75  C   UNL A   1      35.381  32.683  32.929  1.00  0.00     0.020 A 
ATOM     76  C   UNL A   1      35.611  33.181  30.572  1.00  0.00     0.020 A 
ATOM     77  C   UNL A   1      35.005  33.421  31.804  1.00  0.00     0.054 A 
BRANCH  77  78
ATOM     78  S   UNL A   1      33.807  34.778  31.986  1.00  0.00     0.124 S 
ATOM     79  O   UNL A   1      32.876  34.240  32.973  1.00  0.00    -0.237 OA
ATOM     80  O   UNL A   1      34.646  35.882  32.446  1.00  0.00    -0.237 OA
ATOM     81  O   UNL A   1      33.260  34.939  30.640  1.00  0.00    -0.744 OA
ENDBRANCH  77  78
ENDBRANCH  49  72
BRANCH  61  82
ATOM     82  C   UNL A   1      42.609  29.312  33.806  1.00  0.00    -0.014 A 
ATOM     83  C   UNL A   1      43.031  29.479  35.138  1.00  0.00     0.010 A 
ATOM     84  C   UNL A   1      41.936  28.127  33.457  1.00  0.00     0.010 A 
ATOM     85  C   UNL A   1      42.799  28.472  36.090  1.00  0.00     0.020 A 
ATOM     86  C   UNL A   1      41.686  27.132  34.401  1.00  0.00     0.020 A 
ATOM     87  C   UNL A   1      42.128  27.303  35.711  1.00  0.00     0.054 A 
BRANCH  87  88
ATOM     88  S   UNL A   1      41.802  26.012  36.945  1.00  0.00     0.124 S 
ATOM     89  O   UNL A   1      41.924  24.786  36.163  1.00  0.00    -0.237 OA
ATOM     90  O   UNL A   1      42.853  26.235  37.935  1.00  0.00    -0.237 OA
ATOM     91  O   UNL A   1      40.449  26.313  37.415  1.00  0.00    -0.744 OA
ENDBRANCH  87  88
ENDBRANCH  61  82
ENDBRANCH  35  36
ENDBRANCH  27  30
ENDBRANCH   1  26
TORSDOF 14
ENDMDL
