MODEL 1
REMARK VINA RESULT:     -11.2      0.000      0.000
REMARK SMILES Cc1cccc(C)c1Nc1ccccc1CC(=O)NCCCNC(=O)c1ccc(-c2c3nc(c(-c4ccc(S(=O)(=O)[O-])cc4)c4ccc([nH]4)c(-c4ccc(S(=O)(=O)[O-])cc4)c4nc(c(-c5ccc(S(=O)(=O)[O-])cc5)c5ccc2[nH]5)C=C4)C=C3)cc1
REMARK SMILES IDX 21 1 20 2 19 3 17 4 18 5 16 7 15 8 10 9 11 10 12 11 14 12
REMARK SMILES IDX 13 13 9 14 8 16 1 17 2 18 3 19 4 20 6 21 5 22 7 23 22 24
REMARK SMILES IDX 23 25 24 26 25 28 26 29 27 30 85 31 28 32 84 33 29 34 30 35
REMARK SMILES IDX 31 36 78 37 32 38 83 39 77 40 79 41 33 42 82 43 76 44 75 45
REMARK SMILES IDX 34 47 64 48 45 49 63 50 46 51 49 52 62 53 80 54 47 55 48 56
REMARK SMILES IDX 61 58 81 59 50 60 35 61 36 62 44 63 37 64 43 65 38 66 39 67
REMARK SMILES IDX 40 68 41 69 42 70 65 71 66 72 74 73 67 74 73 75 68 76 69 77
REMARK SMILES IDX 70 78 71 79 72 80 51 81 52 82 60 83 53 84 59 85 54 86 55 87
REMARK SMILES IDX 56 88 57 89 58 90
REMARK H PARENT 19 6 9 15 23 27 79 46 49 57
REMARK Flexibility Score: inf
ROOT
ATOM      1  C   UNL A   1      32.616  27.959  26.015  1.00  0.00     0.042 C 
ENDROOT
BRANCH   1   2
ATOM      2  C   UNL A   1      31.274  27.311  26.344  1.00  0.00     0.117 C 
BRANCH   2   3
ATOM      3  N   UNL A   1      31.439  26.028  26.998  1.00  0.00    -0.356 N 
ATOM      4  C   UNL A   1      31.082  24.793  26.535  1.00  0.00     0.224 C 
ATOM      5  O   UNL A   1      31.210  23.825  27.285  1.00  0.00    -0.275 OA
ATOM      6  H   UNL A   1      31.862  26.048  27.886  1.00  0.00     0.163 HD
BRANCH   4   7
ATOM      7  C   UNL A   1      30.592  24.636  25.106  1.00  0.00     0.137 C 
BRANCH   7   8
ATOM      8  C   UNL A   1      31.635  24.935  24.048  1.00  0.00    -0.015 A 
ATOM      9  C   UNL A   1      32.989  24.556  24.172  1.00  0.00     0.042 A 
ATOM     10  C   UNL A   1      33.900  24.970  23.180  1.00  0.00     0.026 A 
ATOM     11  C   UNL A   1      33.485  25.702  22.069  1.00  0.00     0.002 A 
ATOM     12  C   UNL A   1      31.228  25.654  22.905  1.00  0.00     0.006 A 
ATOM     13  C   UNL A   1      32.144  26.032  21.925  1.00  0.00     0.000 A 
BRANCH   9  14
ATOM     14  N   UNL A   1      33.500  23.732  25.195  1.00  0.00    -0.355 N 
ATOM     15  H   UNL A   1      33.229  24.017  26.099  1.00  0.00     0.167 HD
BRANCH  14  16
ATOM     16  C   UNL A   1      34.319  22.580  25.190  1.00  0.00     0.044 A 
ATOM     17  C   UNL A   1      32.204  21.181  24.825  1.00  0.00     0.046 C 
ATOM     18  C   UNL A   1      33.699  21.319  24.973  1.00  0.00    -0.027 A 
ATOM     19  C   UNL A   1      34.480  20.156  24.864  1.00  0.00     0.005 A 
ATOM     20  C   UNL A   1      35.863  20.221  24.961  1.00  0.00     0.001 A 
ATOM     21  C   UNL A   1      35.726  22.624  25.342  1.00  0.00    -0.027 A 
ATOM     22  C   UNL A   1      36.480  21.444  25.197  1.00  0.00     0.005 A 
ATOM     23  C   UNL A   1      36.488  23.876  25.690  1.00  0.00     0.046 C 
ENDBRANCH  14  16
ENDBRANCH   9  14
ENDBRANCH   7   8
ENDBRANCH   4   7
ENDBRANCH   2   3
ENDBRANCH   1   2
BRANCH   1  24
ATOM     24  C   UNL A   1      33.423  28.352  27.249  1.00  0.00     0.118 C 
BRANCH  24  25
ATOM     25  N   UNL A   1      33.405  29.789  27.488  1.00  0.00    -0.352 N 
ATOM     26  C   UNL A   1      34.349  30.597  28.067  1.00  0.00     0.251 C 
ATOM     27  H   UNL A   1      32.589  30.251  27.188  1.00  0.00     0.163 HD
ATOM     28  O   UNL A   1      34.048  31.750  28.377  1.00  0.00    -0.269 OA
BRANCH  26  29
ATOM     29  C   UNL A   1      35.710  30.090  28.330  1.00  0.00     0.039 A 
ATOM     30  C   UNL A   1      36.646  30.099  27.292  1.00  0.00     0.014 A 
ATOM     31  C   UNL A   1      36.062  29.588  29.587  1.00  0.00     0.014 A 
ATOM     32  C   UNL A   1      37.953  29.670  27.535  1.00  0.00     0.010 A 
ATOM     33  C   UNL A   1      37.382  29.230  29.846  1.00  0.00     0.010 A 
ATOM     34  C   UNL A   1      38.342  29.273  28.825  1.00  0.00    -0.014 A 
BRANCH  34  35
ATOM     35  C   UNL A   1      39.755  28.940  29.133  1.00  0.00     0.031 A 
ATOM     36  C   UNL A   1      40.669  29.969  29.739  1.00  0.00     0.074 A 
ATOM     37  C   UNL A   1      40.230  27.725  28.795  1.00  0.00     0.049 A 
ATOM     38  N   UNL A   1      41.943  29.873  30.020  1.00  0.00    -0.248 NA
ATOM     39  C   UNL A   1      40.081  31.282  30.052  1.00  0.00     0.031 C 
ATOM     40  C   UNL A   1      39.450  26.655  28.167  1.00  0.00     0.029 A 
ATOM     41  N   UNL A   1      41.485  27.184  28.926  1.00  0.00    -0.354 N 
ATOM     42  C   UNL A   1      42.314  31.113  30.528  1.00  0.00     0.074 A 
ATOM     43  C   UNL A   1      41.140  31.958  30.476  1.00  0.00     0.031 C 
ATOM     44  C   UNL A   1      40.235  25.580  27.994  1.00  0.00     0.029 A 
ATOM     45  C   UNL A   1      41.584  25.897  28.451  1.00  0.00     0.049 A 
ATOM     46  H   UNL A   1      42.243  27.671  29.322  1.00  0.00     0.167 HD
ATOM     47  C   UNL A   1      43.518  31.506  31.008  1.00  0.00     0.031 A 
ATOM     48  C   UNL A   1      42.642  25.068  28.377  1.00  0.00     0.031 A 
ATOM     49  C   UNL A   1      44.681  30.659  31.056  1.00  0.00     0.049 A 
ATOM     50  C   UNL A   1      43.977  25.541  28.884  1.00  0.00     0.074 A 
ATOM     51  C   UNL A   1      45.931  30.943  31.579  1.00  0.00     0.029 A 
ATOM     52  N   UNL A   1      44.745  29.367  30.553  1.00  0.00    -0.354 N 
ATOM     53  N   UNL A   1      44.288  26.691  29.432  1.00  0.00    -0.248 NA
ATOM     54  C   UNL A   1      45.100  24.603  28.766  1.00  0.00     0.031 C 
ATOM     55  C   UNL A   1      46.767  29.848  31.333  1.00  0.00     0.029 A 
ATOM     56  C   UNL A   1      46.021  28.856  30.717  1.00  0.00     0.049 A 
ATOM     57  H   UNL A   1      43.991  28.885  30.141  1.00  0.00     0.167 HD
ATOM     58  C   UNL A   1      45.641  26.609  29.739  1.00  0.00     0.074 A 
ATOM     59  C   UNL A   1      46.081  25.288  29.339  1.00  0.00     0.031 C 
ATOM     60  C   UNL A   1      46.448  27.544  30.300  1.00  0.00     0.031 A 
BRANCH  47  61
ATOM     61  C   UNL A   1      43.646  32.922  31.508  1.00  0.00    -0.014 A 
ATOM     62  C   UNL A   1      43.348  33.253  32.843  1.00  0.00     0.010 A 
ATOM     63  C   UNL A   1      44.115  33.929  30.644  1.00  0.00     0.010 A 
ATOM     64  C   UNL A   1      43.481  34.569  33.292  1.00  0.00     0.020 A 
ATOM     65  C   UNL A   1      44.277  35.241  31.098  1.00  0.00     0.020 A 
ATOM     66  C   UNL A   1      43.944  35.556  32.417  1.00  0.00     0.054 A 
BRANCH  66  67
ATOM     67  S   UNL A   1      44.131  37.250  33.038  1.00  0.00     0.124 S 
ATOM     68  O   UNL A   1      45.508  37.242  33.526  1.00  0.00    -0.237 OA
ATOM     69  O   UNL A   1      43.894  38.055  31.842  1.00  0.00    -0.237 OA
ATOM     70  O   UNL A   1      43.105  37.356  34.071  1.00  0.00    -0.744 OA
ENDBRANCH  66  67
ENDBRANCH  47  61
BRANCH  48  71
ATOM     71  C   UNL A   1      42.480  23.706  27.799  1.00  0.00    -0.014 A 
ATOM     72  C   UNL A   1      42.716  23.477  26.433  1.00  0.00     0.010 A 
ATOM     73  C   UNL A   1      42.107  22.624  28.619  1.00  0.00     0.010 A 
ATOM     74  C   UNL A   1      42.567  22.196  25.892  1.00  0.00     0.020 A 
ATOM     75  C   UNL A   1      41.985  21.337  28.088  1.00  0.00     0.020 A 
ATOM     76  C   UNL A   1      42.207  21.133  26.726  1.00  0.00     0.054 A 
BRANCH  76  77
ATOM     77  S   UNL A   1      42.075  19.470  26.013  1.00  0.00     0.124 S 
ATOM     78  O   UNL A   1      42.915  19.581  24.825  1.00  0.00    -0.237 OA
ATOM     79  O   UNL A   1      42.601  18.627  27.084  1.00  0.00    -0.237 OA
ATOM     80  O   UNL A   1      40.644  19.319  25.759  1.00  0.00    -0.744 OA
ENDBRANCH  76  77
ENDBRANCH  48  71
BRANCH  60  81
ATOM     81  C   UNL A   1      47.889  27.168  30.522  1.00  0.00    -0.014 A 
ATOM     82  C   UNL A   1      48.884  27.531  29.597  1.00  0.00     0.010 A 
ATOM     83  C   UNL A   1      48.260  26.489  31.697  1.00  0.00     0.010 A 
ATOM     84  C   UNL A   1      50.220  27.195  29.829  1.00  0.00     0.020 A 
ATOM     85  C   UNL A   1      49.600  26.180  31.948  1.00  0.00     0.020 A 
ATOM     86  C   UNL A   1      50.570  26.523  31.005  1.00  0.00     0.054 A 
BRANCH  86  87
ATOM     87  S   UNL A   1      52.318  26.143  31.304  1.00  0.00     0.124 S 
ATOM     88  O   UNL A   1      52.237  24.847  31.973  1.00  0.00    -0.237 OA
ATOM     89  O   UNL A   1      52.875  26.119  29.954  1.00  0.00    -0.237 OA
ATOM     90  O   UNL A   1      52.776  27.249  32.142  1.00  0.00    -0.744 OA
ENDBRANCH  86  87
ENDBRANCH  60  81
ENDBRANCH  34  35
ENDBRANCH  26  29
ENDBRANCH  24  25
ENDBRANCH   1  24
TORSDOF 16
ENDMDL
MODEL 2
REMARK VINA RESULT:     -11.1      1.084      2.059
REMARK SMILES Cc1cccc(C)c1Nc1ccccc1CC(=O)NCCCNC(=O)c1ccc(-c2c3nc(c(-c4ccc(S(=O)(=O)[O-])cc4)c4ccc([nH]4)c(-c4ccc(S(=O)(=O)[O-])cc4)c4nc(c(-c5ccc(S(=O)(=O)[O-])cc5)c5ccc2[nH]5)C=C4)C=C3)cc1
REMARK SMILES IDX 21 1 20 2 19 3 17 4 18 5 16 7 15 8 10 9 11 10 12 11 14 12
REMARK SMILES IDX 13 13 9 14 8 16 1 17 2 18 3 19 4 20 6 21 5 22 7 23 22 24
REMARK SMILES IDX 23 25 24 26 25 28 26 29 27 30 85 31 28 32 84 33 29 34 30 35
REMARK SMILES IDX 31 36 78 37 32 38 83 39 77 40 79 41 33 42 82 43 76 44 75 45
REMARK SMILES IDX 34 47 64 48 45 49 63 50 46 51 49 52 62 53 80 54 47 55 48 56
REMARK SMILES IDX 61 58 81 59 50 60 35 61 36 62 44 63 37 64 43 65 38 66 39 67
REMARK SMILES IDX 40 68 41 69 42 70 65 71 66 72 74 73 67 74 73 75 68 76 69 77
REMARK SMILES IDX 70 78 71 79 72 80 51 81 52 82 60 83 53 84 59 85 54 86 55 87
REMARK SMILES IDX 56 88 57 89 58 90
REMARK H PARENT 19 6 9 15 23 27 79 46 49 57
REMARK Flexibility Score: inf
ROOT
ATOM      1  C   UNL A   1      33.081  27.716  26.031  1.00  0.00     0.042 C 
ENDROOT
BRANCH   1   2
ATOM      2  C   UNL A   1      31.683  27.128  25.859  1.00  0.00     0.117 C 
BRANCH   2   3
ATOM      3  N   UNL A   1      31.446  26.022  26.765  1.00  0.00    -0.356 N 
ATOM      4  C   UNL A   1      31.574  24.685  26.516  1.00  0.00     0.224 C 
ATOM      5  O   UNL A   1      31.224  23.889  27.389  1.00  0.00    -0.275 OA
ATOM      6  H   UNL A   1      31.158  26.264  27.675  1.00  0.00     0.163 HD
BRANCH   4   7
ATOM      7  C   UNL A   1      32.185  24.216  25.208  1.00  0.00     0.137 C 
BRANCH   7   8
ATOM      8  C   UNL A   1      33.515  23.503  25.356  1.00  0.00    -0.015 A 
ATOM      9  C   UNL A   1      33.641  22.097  25.352  1.00  0.00     0.042 A 
ATOM     10  C   UNL A   1      34.907  21.532  25.598  1.00  0.00     0.026 A 
ATOM     11  C   UNL A   1      36.034  22.327  25.802  1.00  0.00     0.002 A 
ATOM     12  C   UNL A   1      34.669  24.293  25.540  1.00  0.00     0.006 A 
ATOM     13  C   UNL A   1      35.917  23.709  25.758  1.00  0.00     0.000 A 
BRANCH   9  14
ATOM     14  N   UNL A   1      32.594  21.201  25.055  1.00  0.00    -0.355 N 
ATOM     15  H   UNL A   1      31.766  21.387  25.556  1.00  0.00     0.167 HD
BRANCH  14  16
ATOM     16  C   UNL A   1      32.490  20.091  24.186  1.00  0.00     0.044 A 
ATOM     17  C   UNL A   1      31.974  21.733  22.288  1.00  0.00     0.046 C 
ATOM     18  C   UNL A   1      32.219  20.339  22.813  1.00  0.00    -0.027 A 
ATOM     19  C   UNL A   1      32.200  19.278  21.892  1.00  0.00     0.005 A 
ATOM     20  C   UNL A   1      32.449  17.977  22.307  1.00  0.00     0.001 A 
ATOM     21  C   UNL A   1      32.688  18.753  24.604  1.00  0.00    -0.027 A 
ATOM     22  C   UNL A   1      32.691  17.718  23.651  1.00  0.00     0.005 A 
ATOM     23  C   UNL A   1      32.866  18.347  26.044  1.00  0.00     0.046 C 
ENDBRANCH  14  16
ENDBRANCH   9  14
ENDBRANCH   7   8
ENDBRANCH   4   7
ENDBRANCH   2   3
ENDBRANCH   1   2
BRANCH   1  24
ATOM     24  C   UNL A   1      33.334  28.294  27.420  1.00  0.00     0.118 C 
BRANCH  24  25
ATOM     25  N   UNL A   1      33.342  29.751  27.420  1.00  0.00    -0.352 N 
ATOM     26  C   UNL A   1      34.302  30.626  27.858  1.00  0.00     0.251 C 
ATOM     27  H   UNL A   1      32.533  30.172  27.049  1.00  0.00     0.163 HD
ATOM     28  O   UNL A   1      34.022  31.820  27.974  1.00  0.00    -0.269 OA
BRANCH  26  29
ATOM     29  C   UNL A   1      35.655  30.145  28.200  1.00  0.00     0.039 A 
ATOM     30  C   UNL A   1      36.639  30.137  27.208  1.00  0.00     0.014 A 
ATOM     31  C   UNL A   1      35.952  29.684  29.487  1.00  0.00     0.014 A 
ATOM     32  C   UNL A   1      37.938  29.733  27.525  1.00  0.00     0.010 A 
ATOM     33  C   UNL A   1      37.262  29.352  29.818  1.00  0.00     0.010 A 
ATOM     34  C   UNL A   1      38.269  29.378  28.843  1.00  0.00    -0.014 A 
BRANCH  34  35
ATOM     35  C   UNL A   1      39.670  29.073  29.227  1.00  0.00     0.031 A 
ATOM     36  C   UNL A   1      40.522  30.112  29.902  1.00  0.00     0.074 A 
ATOM     37  C   UNL A   1      40.194  27.876  28.898  1.00  0.00     0.049 A 
ATOM     38  N   UNL A   1      41.780  30.041  30.255  1.00  0.00    -0.248 NA
ATOM     39  C   UNL A   1      39.885  31.406  30.201  1.00  0.00     0.031 C 
ATOM     40  C   UNL A   1      39.477  26.799  28.208  1.00  0.00     0.029 A 
ATOM     41  N   UNL A   1      41.451  27.362  29.094  1.00  0.00    -0.354 N 
ATOM     42  C   UNL A   1      42.090  31.280  30.804  1.00  0.00     0.074 A 
ATOM     43  C   UNL A   1      40.901  32.099  30.696  1.00  0.00     0.031 C 
ATOM     44  C   UNL A   1      40.296  25.745  28.065  1.00  0.00     0.029 A 
ATOM     45  C   UNL A   1      41.609  26.086  28.605  1.00  0.00     0.049 A 
ATOM     46  H   UNL A   1      42.173  27.860  29.540  1.00  0.00     0.167 HD
ATOM     47  C   UNL A   1      43.255  31.693  31.358  1.00  0.00     0.031 A 
ATOM     48  C   UNL A   1      42.690  25.284  28.578  1.00  0.00     0.031 A 
ATOM     49  C   UNL A   1      44.434  30.873  31.461  1.00  0.00     0.049 A 
ATOM     50  C   UNL A   1      43.980  25.779  29.170  1.00  0.00     0.074 A 
ATOM     51  C   UNL A   1      45.644  31.177  32.060  1.00  0.00     0.029 A 
ATOM     52  N   UNL A   1      44.557  29.592  30.942  1.00  0.00    -0.354 N 
ATOM     53  N   UNL A   1      44.231  26.927  29.754  1.00  0.00    -0.248 NA
ATOM     54  C   UNL A   1      45.132  24.869  29.102  1.00  0.00     0.031 C 
ATOM     55  C   UNL A   1      46.519  30.107  31.846  1.00  0.00     0.029 A 
ATOM     56  C   UNL A   1      45.834  29.109  31.172  1.00  0.00     0.049 A 
ATOM     57  H   UNL A   1      43.841  29.100  30.479  1.00  0.00     0.167 HD
ATOM     58  C   UNL A   1      45.566  26.870  30.137  1.00  0.00     0.074 A 
ATOM     59  C   UNL A   1      46.061  25.567  29.742  1.00  0.00     0.031 C 
ATOM     60  C   UNL A   1      46.317  27.814  30.759  1.00  0.00     0.031 A 
BRANCH  47  61
ATOM     61  C   UNL A   1      43.318  33.104  31.888  1.00  0.00    -0.014 A 
ATOM     62  C   UNL A   1      42.882  33.414  33.189  1.00  0.00     0.010 A 
ATOM     63  C   UNL A   1      43.866  34.125  31.091  1.00  0.00     0.010 A 
ATOM     64  C   UNL A   1      42.957  34.725  33.667  1.00  0.00     0.020 A 
ATOM     65  C   UNL A   1      43.971  35.432  31.576  1.00  0.00     0.020 A 
ATOM     66  C   UNL A   1      43.501  35.727  32.857  1.00  0.00     0.054 A 
BRANCH  66  67
ATOM     67  S   UNL A   1      43.609  37.413  33.516  1.00  0.00     0.124 S 
ATOM     68  O   UNL A   1      42.383  37.507  34.306  1.00  0.00    -0.237 OA
ATOM     69  O   UNL A   1      44.850  37.376  34.285  1.00  0.00    -0.237 OA
ATOM     70  O   UNL A   1      43.644  38.251  32.321  1.00  0.00    -0.744 OA
ENDBRANCH  66  67
ENDBRANCH  47  61
BRANCH  48  71
ATOM     71  C   UNL A   1      42.595  23.928  27.971  1.00  0.00    -0.014 A 
ATOM     72  C   UNL A   1      42.301  22.808  28.768  1.00  0.00     0.010 A 
ATOM     73  C   UNL A   1      42.779  23.753  26.587  1.00  0.00     0.010 A 
ATOM     74  C   UNL A   1      42.208  21.535  28.196  1.00  0.00     0.020 A 
ATOM     75  C   UNL A   1      42.659  22.487  26.007  1.00  0.00     0.020 A 
ATOM     76  C   UNL A   1      42.383  21.384  26.818  1.00  0.00     0.054 A 
BRANCH  76  77
ATOM     77  S   UNL A   1      42.202  19.733  26.090  1.00  0.00     0.124 S 
ATOM     78  O   UNL A   1      43.136  19.789  24.970  1.00  0.00    -0.237 OA
ATOM     79  O   UNL A   1      42.589  18.859  27.194  1.00  0.00    -0.237 OA
ATOM     80  O   UNL A   1      40.788  19.673  25.725  1.00  0.00    -0.744 OA
ENDBRANCH  76  77
ENDBRANCH  48  71
BRANCH  60  81
ATOM     81  C   UNL A   1      47.751  27.469  31.058  1.00  0.00    -0.014 A 
ATOM     82  C   UNL A   1      48.775  27.762  30.140  1.00  0.00     0.010 A 
ATOM     83  C   UNL A   1      48.085  26.891  32.297  1.00  0.00     0.010 A 
ATOM     84  C   UNL A   1      50.104  27.456  30.443  1.00  0.00     0.020 A 
ATOM     85  C   UNL A   1      49.417  26.612  32.617  1.00  0.00     0.020 A 
ATOM     86  C   UNL A   1      50.417  26.885  31.681  1.00  0.00     0.054 A 
BRANCH  86  87
ATOM     87  S   UNL A   1      52.156  26.544  32.067  1.00  0.00     0.124 S 
ATOM     88  O   UNL A   1      52.384  25.286  31.359  1.00  0.00    -0.237 OA
ATOM     89  O   UNL A   1      52.841  27.709  31.515  1.00  0.00    -0.237 OA
ATOM     90  O   UNL A   1      52.176  26.449  33.525  1.00  0.00    -0.744 OA
ENDBRANCH  86  87
ENDBRANCH  60  81
ENDBRANCH  34  35
ENDBRANCH  26  29
ENDBRANCH  24  25
ENDBRANCH   1  24
TORSDOF 16
ENDMDL
MODEL 3
REMARK VINA RESULT:     -10.9      2.615      8.989
REMARK SMILES Cc1cccc(C)c1Nc1ccccc1CC(=O)NCCCNC(=O)c1ccc(-c2c3nc(c(-c4ccc(S(=O)(=O)[O-])cc4)c4ccc([nH]4)c(-c4ccc(S(=O)(=O)[O-])cc4)c4nc(c(-c5ccc(S(=O)(=O)[O-])cc5)c5ccc2[nH]5)C=C4)C=C3)cc1
REMARK SMILES IDX 21 1 20 2 19 3 17 4 18 5 16 7 15 8 10 9 11 10 12 11 14 12
REMARK SMILES IDX 13 13 9 14 8 16 1 17 2 18 3 19 4 20 6 21 5 22 7 23 22 24
REMARK SMILES IDX 23 25 24 26 25 28 26 29 27 30 85 31 28 32 84 33 29 34 30 35
REMARK SMILES IDX 31 36 78 37 32 38 83 39 77 40 79 41 33 42 82 43 76 44 75 45
REMARK SMILES IDX 34 47 64 48 45 49 63 50 46 51 49 52 62 53 80 54 47 55 48 56
REMARK SMILES IDX 61 58 81 59 50 60 35 61 36 62 44 63 37 64 43 65 38 66 39 67
REMARK SMILES IDX 40 68 41 69 42 70 65 71 66 72 74 73 67 74 73 75 68 76 69 77
REMARK SMILES IDX 70 78 71 79 72 80 51 81 52 82 60 83 53 84 59 85 54 86 55 87
REMARK SMILES IDX 56 88 57 89 58 90
REMARK H PARENT 19 6 9 15 23 27 79 46 49 57
REMARK Flexibility Score: inf
ROOT
ATOM      1  C   UNL A   1      35.334  23.178  26.134  1.00  0.00     0.042 C 
ENDROOT
BRANCH   1   2
ATOM      2  C   UNL A   1      34.248  24.251  26.139  1.00  0.00     0.117 C 
BRANCH   2   3
ATOM      3  N   UNL A   1      34.493  25.274  25.142  1.00  0.00    -0.356 N 
ATOM      4  C   UNL A   1      33.705  26.341  24.817  1.00  0.00     0.224 C 
ATOM      5  O   UNL A   1      34.036  27.047  23.863  1.00  0.00    -0.275 OA
ATOM      6  H   UNL A   1      35.333  25.189  24.635  1.00  0.00     0.163 HD
BRANCH   4   7
ATOM      7  C   UNL A   1      32.485  26.663  25.661  1.00  0.00     0.137 C 
BRANCH   7   8
ATOM      8  C   UNL A   1      31.312  27.222  24.880  1.00  0.00    -0.015 A 
ATOM      9  C   UNL A   1      30.272  26.416  24.368  1.00  0.00     0.042 A 
ATOM     10  C   UNL A   1      29.281  27.019  23.570  1.00  0.00     0.026 A 
ATOM     11  C   UNL A   1      29.284  28.389  23.314  1.00  0.00     0.002 A 
ATOM     12  C   UNL A   1      31.286  28.610  24.632  1.00  0.00     0.006 A 
ATOM     13  C   UNL A   1      30.280  29.188  23.859  1.00  0.00     0.000 A 
BRANCH   9  14
ATOM     14  N   UNL A   1      30.112  25.044  24.647  1.00  0.00    -0.355 N 
ATOM     15  H   UNL A   1      29.238  24.824  25.045  1.00  0.00     0.167 HD
BRANCH  14  16
ATOM     16  C   UNL A   1      30.948  23.918  24.471  1.00  0.00     0.044 A 
ATOM     17  C   UNL A   1      30.228  23.124  26.798  1.00  0.00     0.046 C 
ATOM     18  C   UNL A   1      30.989  22.945  25.508  1.00  0.00    -0.027 A 
ATOM     19  C   UNL A   1      31.730  21.763  25.341  1.00  0.00     0.005 A 
ATOM     20  C   UNL A   1      32.427  21.526  24.164  1.00  0.00     0.001 A 
ATOM     21  C   UNL A   1      31.708  23.688  23.299  1.00  0.00    -0.027 A 
ATOM     22  C   UNL A   1      32.415  22.479  23.152  1.00  0.00     0.005 A 
ATOM     23  C   UNL A   1      31.842  24.689  22.182  1.00  0.00     0.046 C 
ENDBRANCH  14  16
ENDBRANCH   9  14
ENDBRANCH   7   8
ENDBRANCH   4   7
ENDBRANCH   2   3
ENDBRANCH   1   2
BRANCH   1  24
ATOM     24  C   UNL A   1      36.629  23.624  25.462  1.00  0.00     0.118 C 
BRANCH  24  25
ATOM     25  N   UNL A   1      37.724  22.692  25.696  1.00  0.00    -0.352 N 
ATOM     26  C   UNL A   1      38.977  22.917  26.203  1.00  0.00     0.251 C 
ATOM     27  H   UNL A   1      37.535  21.758  25.452  1.00  0.00     0.163 HD
ATOM     28  O   UNL A   1      39.832  22.034  26.113  1.00  0.00    -0.269 OA
BRANCH  26  29
ATOM     29  C   UNL A   1      39.309  24.207  26.839  1.00  0.00     0.039 A 
ATOM     30  C   UNL A   1      38.883  24.443  28.149  1.00  0.00     0.014 A 
ATOM     31  C   UNL A   1      40.020  25.191  26.145  1.00  0.00     0.014 A 
ATOM     32  C   UNL A   1      39.230  25.637  28.785  1.00  0.00     0.010 A 
ATOM     33  C   UNL A   1      40.426  26.348  26.804  1.00  0.00     0.010 A 
ATOM     34  C   UNL A   1      40.041  26.579  28.132  1.00  0.00    -0.014 A 
BRANCH  34  35
ATOM     35  C   UNL A   1      40.528  27.792  28.837  1.00  0.00     0.031 A 
ATOM     36  C   UNL A   1      41.897  27.817  29.459  1.00  0.00     0.074 A 
ATOM     37  C   UNL A   1      39.701  28.846  28.975  1.00  0.00     0.049 A 
ATOM     38  N   UNL A   1      42.464  28.765  30.160  1.00  0.00    -0.248 NA
ATOM     39  C   UNL A   1      42.729  26.614  29.288  1.00  0.00     0.031 C 
ATOM     40  C   UNL A   1      38.335  28.927  28.448  1.00  0.00     0.029 A 
ATOM     41  N   UNL A   1      39.881  30.053  29.605  1.00  0.00    -0.354 N 
ATOM     42  C   UNL A   1      43.710  28.271  30.527  1.00  0.00     0.074 A 
ATOM     43  C   UNL A   1      43.799  26.923  30.008  1.00  0.00     0.031 C 
ATOM     44  C   UNL A   1      37.815  30.126  28.751  1.00  0.00     0.029 A 
ATOM     45  C   UNL A   1      38.786  30.881  29.536  1.00  0.00     0.049 A 
ATOM     46  H   UNL A   1      40.716  30.300  30.064  1.00  0.00     0.167 HD
ATOM     47  C   UNL A   1      44.696  28.889  31.220  1.00  0.00     0.031 A 
ATOM     48  C   UNL A   1      38.577  32.105  30.057  1.00  0.00     0.031 A 
ATOM     49  C   UNL A   1      44.599  30.231  31.734  1.00  0.00     0.049 A 
ATOM     50  C   UNL A   1      39.675  32.756  30.852  1.00  0.00     0.074 A 
ATOM     51  C   UNL A   1      45.564  30.970  32.396  1.00  0.00     0.029 A 
ATOM     52  N   UNL A   1      43.470  31.032  31.655  1.00  0.00    -0.354 N 
ATOM     53  N   UNL A   1      40.876  32.302  31.122  1.00  0.00    -0.248 NA
ATOM     54  C   UNL A   1      39.390  34.085  31.410  1.00  0.00     0.031 C 
ATOM     55  C   UNL A   1      44.997  32.191  32.774  1.00  0.00     0.029 A 
ATOM     56  C   UNL A   1      43.700  32.241  32.291  1.00  0.00     0.049 A 
ATOM     57  H   UNL A   1      42.628  30.778  31.211  1.00  0.00     0.167 HD
ATOM     58  C   UNL A   1      41.496  33.298  31.868  1.00  0.00     0.074 A 
ATOM     59  C   UNL A   1      40.547  34.387  31.984  1.00  0.00     0.031 C 
ATOM     60  C   UNL A   1      42.739  33.309  32.411  1.00  0.00     0.031 A 
BRANCH  47  61
ATOM     61  C   UNL A   1      45.964  28.116  31.479  1.00  0.00    -0.014 A 
ATOM     62  C   UNL A   1      47.049  28.177  30.586  1.00  0.00     0.010 A 
ATOM     63  C   UNL A   1      46.091  27.354  32.655  1.00  0.00     0.010 A 
ATOM     64  C   UNL A   1      48.221  27.461  30.845  1.00  0.00     0.020 A 
ATOM     65  C   UNL A   1      47.272  26.660  32.933  1.00  0.00     0.020 A 
ATOM     66  C   UNL A   1      48.326  26.707  32.017  1.00  0.00     0.054 A 
BRANCH  66  67
ATOM     67  S   UNL A   1      49.869  25.810  32.339  1.00  0.00     0.124 S 
ATOM     68  O   UNL A   1      50.652  26.808  33.063  1.00  0.00    -0.237 OA
ATOM     69  O   UNL A   1      49.416  24.670  33.133  1.00  0.00    -0.237 OA
ATOM     70  O   UNL A   1      50.363  25.480  31.005  1.00  0.00    -0.744 OA
ENDBRANCH  66  67
ENDBRANCH  47  61
BRANCH  48  71
ATOM     71  C   UNL A   1      37.276  32.794  29.839  1.00  0.00    -0.014 A 
ATOM     72  C   UNL A   1      36.269  32.743  30.819  1.00  0.00     0.010 A 
ATOM     73  C   UNL A   1      37.043  33.521  28.657  1.00  0.00     0.010 A 
ATOM     74  C   UNL A   1      35.048  33.393  30.616  1.00  0.00     0.020 A 
ATOM     75  C   UNL A   1      35.835  34.196  28.463  1.00  0.00     0.020 A 
ATOM     76  C   UNL A   1      34.841  34.120  29.440  1.00  0.00     0.054 A 
BRANCH  76  77
ATOM     77  S   UNL A   1      33.271  35.002  29.223  1.00  0.00     0.124 S 
ATOM     78  O   UNL A   1      32.596  34.180  28.224  1.00  0.00    -0.237 OA
ATOM     79  O   UNL A   1      32.700  34.962  30.567  1.00  0.00    -0.237 OA
ATOM     80  O   UNL A   1      33.683  36.328  28.769  1.00  0.00    -0.744 OA
ENDBRANCH  76  77
ENDBRANCH  48  71
BRANCH  60  81
ATOM     81  C   UNL A   1      43.148  34.541  33.173  1.00  0.00    -0.014 A 
ATOM     82  C   UNL A   1      42.905  34.655  34.553  1.00  0.00     0.010 A 
ATOM     83  C   UNL A   1      43.833  35.577  32.510  1.00  0.00     0.010 A 
ATOM     84  C   UNL A   1      43.311  35.795  35.251  1.00  0.00     0.020 A 
ATOM     85  C   UNL A   1      44.270  36.705  33.211  1.00  0.00     0.020 A 
ATOM     86  C   UNL A   1      43.993  36.812  34.575  1.00  0.00     0.054 A 
BRANCH  86  87
ATOM     87  S   UNL A   1      44.553  38.259  35.515  1.00  0.00     0.124 S 
ATOM     88  O   UNL A   1      46.002  38.195  35.337  1.00  0.00    -0.237 OA
ATOM     89  O   UNL A   1      43.883  39.362  34.832  1.00  0.00    -0.237 OA
ATOM     90  O   UNL A   1      44.082  37.995  36.873  1.00  0.00    -0.744 OA
ENDBRANCH  86  87
ENDBRANCH  60  81
ENDBRANCH  34  35
ENDBRANCH  26  29
ENDBRANCH  24  25
ENDBRANCH   1  24
TORSDOF 16
ENDMDL
