MODEL 1
REMARK VINA RESULT:     -10.4      0.000      0.000
REMARK SMILES O=C(NCCCNC(=O)c1ccc(-c2c3nc(c(-c4ccc(S(=O)(=O)[O-])cc4)c4ccc([nH]4)c(-c4ccc(S(=O)(=O)[O-])cc4)c4nc(c(-c5ccc(S(=O)(=O)[O-])cc5)c5ccc2[nH]5)C=C4)C=C3)cc1)c1ccc(/C=C/c2ccc3cccc(O)c3n2)cc1
REMARK SMILES IDX 5 1 4 2 3 3 1 4 2 5 70 7 71 8 88 9 72 10 87 11 73 12 74 13
REMARK SMILES IDX 75 14 76 15 77 16 86 17 78 18 85 19 79 20 83 21 80 22 82 23
REMARK SMILES IDX 81 24 84 25 6 27 7 28 8 29 9 31 10 32 11 33 69 34 12 35
REMARK SMILES IDX 68 36 13 37 14 38 15 39 62 40 16 41 67 42 61 43 63 44 17 45
REMARK SMILES IDX 66 46 60 47 59 48 18 50 48 51 29 52 47 53 30 54 33 55 46 56
REMARK SMILES IDX 64 57 31 58 32 59 45 61 65 62 34 63 19 64 20 65 28 66 21 67
REMARK SMILES IDX 27 68 22 69 23 70 24 71 25 72 26 73 49 74 50 75 58 76 51 77
REMARK SMILES IDX 57 78 52 79 53 80 54 81 55 82 56 83 35 84 36 85 44 86 37 87
REMARK SMILES IDX 43 88 38 89 39 90 40 91 41 92 42 93
REMARK H PARENT 3 6 84 26 7 30 63 49 33 60
REMARK Flexibility Score: inf
ROOT
ATOM      1  C   UNL A   1      42.119  21.796  26.126  1.00  0.00     0.042 C 
ENDROOT
BRANCH   1   2
ATOM      2  C   UNL A   1      43.336  22.216  26.947  1.00  0.00     0.118 C 
BRANCH   2   3
ATOM      3  N   UNL A   1      44.587  21.935  26.268  1.00  0.00    -0.352 N 
ATOM      4  O   UNL A   1      46.475  22.349  25.128  1.00  0.00    -0.269 OA
ATOM      5  C   UNL A   1      45.595  22.775  25.872  1.00  0.00     0.251 C 
ATOM      6  H   UNL A   1      44.736  20.986  26.056  1.00  0.00     0.163 HD
BRANCH   5   7
ATOM      7  C   UNL A   1      45.648  24.186  26.310  1.00  0.00     0.039 A 
ATOM      8  C   UNL A   1      46.487  24.625  27.341  1.00  0.00     0.014 A 
ATOM      9  C   UNL A   1      44.915  25.111  25.571  1.00  0.00     0.014 A 
ATOM     10  C   UNL A   1      46.570  25.991  27.655  1.00  0.00     0.009 A 
ATOM     11  C   UNL A   1      45.007  26.466  25.879  1.00  0.00     0.009 A 
ATOM     12  C   UNL A   1      45.833  26.925  26.922  1.00  0.00    -0.026 A 
BRANCH  12  13
ATOM     13  C   UNL A   1      45.780  28.364  27.203  1.00  0.00     0.010 C 
ATOM     14  C   UNL A   1      44.881  29.305  26.851  1.00  0.00     0.029 C 
BRANCH  14  15
ATOM     15  C   UNL A   1      45.456  30.674  26.831  1.00  0.00     0.064 A 
ATOM     16  C   UNL A   1      45.747  31.138  28.113  1.00  0.00     0.029 A 
ATOM     17  N   UNL A   1      45.027  31.486  25.833  1.00  0.00    -0.245 NA
ATOM     18  C   UNL A   1      45.227  32.371  28.478  1.00  0.00     0.013 A 
ATOM     19  C   UNL A   1      44.578  32.711  26.188  1.00  0.00     0.113 A 
ATOM     20  C   UNL A   1      44.547  33.140  27.529  1.00  0.00     0.004 A 
ATOM     21  C   UNL A   1      44.040  33.572  25.232  1.00  0.00     0.141 A 
ATOM     22  C   UNL A   1      43.816  34.283  27.892  1.00  0.00     0.010 A 
ATOM     23  C   UNL A   1      43.349  34.732  25.574  1.00  0.00     0.048 A 
ATOM     24  C   UNL A   1      43.192  35.059  26.915  1.00  0.00     0.005 A 
BRANCH  21  25
ATOM     25  O   UNL A   1      44.172  33.270  23.898  1.00  0.00    -0.506 OA
ATOM     26  H   UNL A   1      44.011  32.398  23.596  1.00  0.00     0.293 HD
ENDBRANCH  21  25
ENDBRANCH  14  15
ENDBRANCH  12  13
ENDBRANCH   5   7
ENDBRANCH   2   3
ENDBRANCH   1   2
BRANCH   1  27
ATOM     27  C   UNL A   1      40.851  21.526  26.934  1.00  0.00     0.118 C 
BRANCH  27  28
ATOM     28  N   UNL A   1      39.629  21.775  26.186  1.00  0.00    -0.352 N 
ATOM     29  C   UNL A   1      38.828  22.891  26.115  1.00  0.00     0.251 C 
ATOM     30  H   UNL A   1      39.324  21.016  25.639  1.00  0.00     0.163 HD
ATOM     31  O   UNL A   1      37.748  22.811  25.533  1.00  0.00    -0.269 OA
BRANCH  29  32
ATOM     32  C   UNL A   1      39.231  24.171  26.745  1.00  0.00     0.039 A 
ATOM     33  C   UNL A   1      38.804  24.437  28.050  1.00  0.00     0.014 A 
ATOM     34  C   UNL A   1      39.982  25.124  26.057  1.00  0.00     0.014 A 
ATOM     35  C   UNL A   1      39.189  25.623  28.684  1.00  0.00     0.010 A 
ATOM     36  C   UNL A   1      40.433  26.268  26.716  1.00  0.00     0.010 A 
ATOM     37  C   UNL A   1      40.040  26.533  28.037  1.00  0.00    -0.014 A 
BRANCH  37  38
ATOM     38  C   UNL A   1      40.530  27.757  28.727  1.00  0.00     0.031 A 
ATOM     39  C   UNL A   1      41.914  27.796  29.321  1.00  0.00     0.074 A 
ATOM     40  C   UNL A   1      39.707  28.813  28.877  1.00  0.00     0.049 A 
ATOM     41  N   UNL A   1      42.490  28.752  30.006  1.00  0.00    -0.248 NA
ATOM     42  C   UNL A   1      42.749  26.597  29.147  1.00  0.00     0.031 C 
ATOM     43  C   UNL A   1      38.327  28.888  28.389  1.00  0.00     0.029 A 
ATOM     44  N   UNL A   1      39.905  30.026  29.490  1.00  0.00    -0.354 N 
ATOM     45  C   UNL A   1      43.742  28.262  30.363  1.00  0.00     0.074 A 
ATOM     46  C   UNL A   1      43.824  26.909  29.858  1.00  0.00     0.031 C 
ATOM     47  C   UNL A   1      37.814  30.089  28.702  1.00  0.00     0.029 A 
ATOM     48  C   UNL A   1      38.809  30.855  29.445  1.00  0.00     0.049 A 
ATOM     49  H   UNL A   1      40.753  30.278  29.921  1.00  0.00     0.167 HD
ATOM     50  C   UNL A   1      44.740  28.885  31.034  1.00  0.00     0.031 A 
ATOM     51  C   UNL A   1      38.619  32.090  29.951  1.00  0.00     0.031 A 
ATOM     52  C   UNL A   1      44.664  30.238  31.523  1.00  0.00     0.049 A 
ATOM     53  C   UNL A   1      39.743  32.766  30.684  1.00  0.00     0.074 A 
ATOM     54  C   UNL A   1      45.646  30.980  32.156  1.00  0.00     0.029 A 
ATOM     55  N   UNL A   1      43.543  31.050  31.437  1.00  0.00    -0.354 N 
ATOM     56  N   UNL A   1      40.945  32.311  30.948  1.00  0.00    -0.248 NA
ATOM     57  C   UNL A   1      39.490  34.126  31.179  1.00  0.00     0.031 C 
ATOM     58  C   UNL A   1      45.103  32.223  32.499  1.00  0.00     0.029 A 
ATOM     59  C   UNL A   1      43.801  32.277  32.027  1.00  0.00     0.049 A 
ATOM     60  H   UNL A   1      42.690  30.793  31.019  1.00  0.00     0.167 HD
ATOM     61  C   UNL A   1      41.601  33.340  31.615  1.00  0.00     0.074 A 
ATOM     62  C   UNL A   1      40.667  34.445  31.702  1.00  0.00     0.031 C 
ATOM     63  C   UNL A   1      42.862  33.367  32.111  1.00  0.00     0.031 A 
BRANCH  50  64
ATOM     64  C   UNL A   1      46.003  28.105  31.289  1.00  0.00    -0.014 A 
ATOM     65  C   UNL A   1      46.087  27.176  32.343  1.00  0.00     0.010 A 
ATOM     66  C   UNL A   1      47.112  28.273  30.439  1.00  0.00     0.010 A 
ATOM     67  C   UNL A   1      47.269  26.466  32.571  1.00  0.00     0.020 A 
ATOM     68  C   UNL A   1      48.288  27.543  30.647  1.00  0.00     0.020 A 
ATOM     69  C   UNL A   1      48.364  26.658  31.723  1.00  0.00     0.054 A 
BRANCH  69  70
ATOM     70  S   UNL A   1      49.880  25.712  32.034  1.00  0.00     0.124 S 
ATOM     71  O   UNL A   1      49.433  24.751  33.040  1.00  0.00    -0.237 OA
ATOM     72  O   UNL A   1      50.183  25.151  30.720  1.00  0.00    -0.237 OA
ATOM     73  O   UNL A   1      50.825  26.718  32.511  1.00  0.00    -0.744 OA
ENDBRANCH  69  70
ENDBRANCH  50  64
BRANCH  51  74
ATOM     74  C   UNL A   1      37.308  32.772  29.762  1.00  0.00    -0.014 A 
ATOM     75  C   UNL A   1      36.319  32.710  30.759  1.00  0.00     0.010 A 
ATOM     76  C   UNL A   1      37.052  33.506  28.589  1.00  0.00     0.010 A 
ATOM     77  C   UNL A   1      35.092  33.358  30.582  1.00  0.00     0.020 A 
ATOM     78  C   UNL A   1      35.837  34.177  28.420  1.00  0.00     0.020 A 
ATOM     79  C   UNL A   1      34.862  34.091  29.415  1.00  0.00     0.054 A 
BRANCH  79  80
ATOM     80  S   UNL A   1      33.287  34.976  29.234  1.00  0.00     0.124 S 
ATOM     81  O   UNL A   1      32.748  34.917  30.588  1.00  0.00    -0.237 OA
ATOM     82  O   UNL A   1      33.718  36.296  28.779  1.00  0.00    -0.237 OA
ATOM     83  O   UNL A   1      32.567  34.188  28.236  1.00  0.00    -0.744 OA
ENDBRANCH  79  80
ENDBRANCH  51  74
BRANCH  63  84
ATOM     84  C   UNL A   1      43.324  34.643  32.764  1.00  0.00    -0.014 A 
ATOM     85  C   UNL A   1      43.229  34.827  34.154  1.00  0.00     0.010 A 
ATOM     86  C   UNL A   1      43.909  35.651  31.977  1.00  0.00     0.010 A 
ATOM     87  C   UNL A   1      43.681  36.012  34.742  1.00  0.00     0.020 A 
ATOM     88  C   UNL A   1      44.387  36.826  32.564  1.00  0.00     0.020 A 
ATOM     89  C   UNL A   1      44.257  37.005  33.942  1.00  0.00     0.054 A 
BRANCH  89  90
ATOM     90  S   UNL A   1      44.871  38.517  34.733  1.00  0.00     0.124 S 
ATOM     91  O   UNL A   1      46.128  38.740  34.025  1.00  0.00    -0.237 OA
ATOM     92  O   UNL A   1      43.810  39.481  34.451  1.00  0.00    -0.237 OA
ATOM     93  O   UNL A   1      45.005  38.142  36.139  1.00  0.00    -0.744 OA
ENDBRANCH  89  90
ENDBRANCH  63  84
ENDBRANCH  37  38
ENDBRANCH  29  32
ENDBRANCH  27  28
ENDBRANCH   1  27
TORSDOF 16
ENDMDL
MODEL 2
REMARK VINA RESULT:     -10.4      3.202     10.899
REMARK SMILES O=C(NCCCNC(=O)c1ccc(-c2c3nc(c(-c4ccc(S(=O)(=O)[O-])cc4)c4ccc([nH]4)c(-c4ccc(S(=O)(=O)[O-])cc4)c4nc(c(-c5ccc(S(=O)(=O)[O-])cc5)c5ccc2[nH]5)C=C4)C=C3)cc1)c1ccc(/C=C/c2ccc3cccc(O)c3n2)cc1
REMARK SMILES IDX 5 1 4 2 3 3 1 4 2 5 70 7 71 8 88 9 72 10 87 11 73 12 74 13
REMARK SMILES IDX 75 14 76 15 77 16 86 17 78 18 85 19 79 20 83 21 80 22 82 23
REMARK SMILES IDX 81 24 84 25 6 27 7 28 8 29 9 31 10 32 11 33 69 34 12 35
REMARK SMILES IDX 68 36 13 37 14 38 15 39 62 40 16 41 67 42 61 43 63 44 17 45
REMARK SMILES IDX 66 46 60 47 59 48 18 50 48 51 29 52 47 53 30 54 33 55 46 56
REMARK SMILES IDX 64 57 31 58 32 59 45 61 65 62 34 63 19 64 20 65 28 66 21 67
REMARK SMILES IDX 27 68 22 69 23 70 24 71 25 72 26 73 49 74 50 75 58 76 51 77
REMARK SMILES IDX 57 78 52 79 53 80 54 81 55 82 56 83 35 84 36 85 44 86 37 87
REMARK SMILES IDX 43 88 38 89 39 90 40 91 41 92 42 93
REMARK H PARENT 3 6 84 26 7 30 63 49 33 60
REMARK Flexibility Score: inf
ROOT
ATOM      1  C   UNL A   1      34.810  33.168  30.022  1.00  0.00     0.042 C 
ENDROOT
BRANCH   1   2
ATOM      2  C   UNL A   1      36.048  33.869  30.577  1.00  0.00     0.118 C 
BRANCH   2   3
ATOM      3  N   UNL A   1      35.772  34.595  31.802  1.00  0.00    -0.352 N 
ATOM      4  O   UNL A   1      35.643  34.982  34.008  1.00  0.00    -0.269 OA
ATOM      5  C   UNL A   1      36.161  34.348  33.092  1.00  0.00     0.251 C 
ATOM      6  H   UNL A   1      35.212  35.397  31.688  1.00  0.00     0.163 HD
BRANCH   5   7
ATOM      7  C   UNL A   1      37.184  33.331  33.414  1.00  0.00     0.039 A 
ATOM      8  C   UNL A   1      36.914  31.958  33.400  1.00  0.00     0.014 A 
ATOM      9  C   UNL A   1      38.487  33.778  33.615  1.00  0.00     0.014 A 
ATOM     10  C   UNL A   1      37.944  31.029  33.620  1.00  0.00     0.009 A 
ATOM     11  C   UNL A   1      39.508  32.854  33.824  1.00  0.00     0.009 A 
ATOM     12  C   UNL A   1      39.253  31.470  33.829  1.00  0.00    -0.026 A 
BRANCH  12  13
ATOM     13  C   UNL A   1      40.394  30.603  34.142  1.00  0.00     0.010 C 
ATOM     14  C   UNL A   1      40.677  29.339  33.770  1.00  0.00     0.029 C 
BRANCH  14  15
ATOM     15  C   UNL A   1      41.586  28.647  34.720  1.00  0.00     0.064 A 
ATOM     16  C   UNL A   1      42.928  28.843  34.399  1.00  0.00     0.029 A 
ATOM     17  N   UNL A   1      41.117  27.493  35.258  1.00  0.00    -0.245 NA
ATOM     18  C   UNL A   1      43.724  27.715  34.270  1.00  0.00     0.013 A 
ATOM     19  C   UNL A   1      41.924  26.410  35.184  1.00  0.00     0.113 A 
ATOM     20  C   UNL A   1      43.194  26.459  34.578  1.00  0.00     0.004 A 
ATOM     21  C   UNL A   1      41.482  25.167  35.636  1.00  0.00     0.141 A 
ATOM     22  C   UNL A   1      43.875  25.272  34.260  1.00  0.00     0.010 A 
ATOM     23  C   UNL A   1      42.168  23.985  35.366  1.00  0.00     0.048 A 
ATOM     24  C   UNL A   1      43.344  24.036  34.627  1.00  0.00     0.005 A 
BRANCH  21  25
ATOM     25  O   UNL A   1      40.318  25.085  36.362  1.00  0.00    -0.506 OA
ATOM     26  H   UNL A   1      39.971  24.247  36.598  1.00  0.00     0.293 HD
ENDBRANCH  21  25
ENDBRANCH  14  15
ENDBRANCH  12  13
ENDBRANCH   5   7
ENDBRANCH   2   3
ENDBRANCH   1   2
BRANCH   1  27
ATOM     27  C   UNL A   1      34.744  33.074  28.499  1.00  0.00     0.118 C 
BRANCH  27  28
ATOM     28  N   UNL A   1      33.986  31.927  28.026  1.00  0.00    -0.352 N 
ATOM     29  C   UNL A   1      34.371  30.627  27.792  1.00  0.00     0.251 C 
ATOM     30  H   UNL A   1      33.037  32.112  27.843  1.00  0.00     0.163 HD
ATOM     31  O   UNL A   1      33.583  29.865  27.237  1.00  0.00    -0.269 OA
BRANCH  29  32
ATOM     32  C   UNL A   1      35.719  30.142  28.172  1.00  0.00     0.039 A 
ATOM     33  C   UNL A   1      36.732  30.158  27.208  1.00  0.00     0.014 A 
ATOM     34  C   UNL A   1      35.986  29.636  29.444  1.00  0.00     0.014 A 
ATOM     35  C   UNL A   1      38.022  29.733  27.540  1.00  0.00     0.010 A 
ATOM     36  C   UNL A   1      37.291  29.289  29.799  1.00  0.00     0.010 A 
ATOM     37  C   UNL A   1      38.323  29.330  28.851  1.00  0.00    -0.014 A 
BRANCH  37  38
ATOM     38  C   UNL A   1      39.710  28.959  29.246  1.00  0.00     0.031 A 
ATOM     39  C   UNL A   1      40.596  29.952  29.951  1.00  0.00     0.074 A 
ATOM     40  C   UNL A   1      40.196  27.747  28.911  1.00  0.00     0.049 A 
ATOM     41  N   UNL A   1      41.846  29.825  30.320  1.00  0.00    -0.248 NA
ATOM     42  C   UNL A   1      40.011  31.267  30.259  1.00  0.00     0.031 C 
ATOM     43  C   UNL A   1      39.458  26.708  28.187  1.00  0.00     0.029 A 
ATOM     44  N   UNL A   1      41.430  27.184  29.128  1.00  0.00    -0.354 N 
ATOM     45  C   UNL A   1      42.202  31.047  30.880  1.00  0.00     0.074 A 
ATOM     46  C   UNL A   1      41.051  31.916  30.762  1.00  0.00     0.031 C 
ATOM     47  C   UNL A   1      40.245  25.630  28.041  1.00  0.00     0.029 A 
ATOM     48  C   UNL A   1      41.554  25.911  28.623  1.00  0.00     0.049 A 
ATOM     49  H   UNL A   1      42.157  27.648  29.601  1.00  0.00     0.167 HD
ATOM     50  C   UNL A   1      43.374  31.410  31.456  1.00  0.00     0.031 A 
ATOM     51  C   UNL A   1      42.602  25.064  28.619  1.00  0.00     0.031 A 
ATOM     52  C   UNL A   1      44.513  30.540  31.588  1.00  0.00     0.049 A 
ATOM     53  C   UNL A   1      43.890  25.484  29.272  1.00  0.00     0.074 A 
ATOM     54  C   UNL A   1      45.721  30.793  32.215  1.00  0.00     0.029 A 
ATOM     55  N   UNL A   1      44.589  29.251  31.082  1.00  0.00    -0.354 N 
ATOM     56  N   UNL A   1      44.182  26.620  29.860  1.00  0.00    -0.248 NA
ATOM     57  C   UNL A   1      44.985  24.505  29.271  1.00  0.00     0.031 C 
ATOM     58  C   UNL A   1      46.546  29.677  32.044  1.00  0.00     0.029 A 
ATOM     59  C   UNL A   1      45.832  28.705  31.362  1.00  0.00     0.049 A 
ATOM     60  H   UNL A   1      43.867  28.791  30.596  1.00  0.00     0.167 HD
ATOM     61  C   UNL A   1      45.486  26.481  30.323  1.00  0.00     0.074 A 
ATOM     62  C   UNL A   1      45.920  25.147  29.959  1.00  0.00     0.031 C 
ATOM     63  C   UNL A   1      46.254  27.378  30.990  1.00  0.00     0.031 A 
BRANCH  50  64
ATOM     64  C   UNL A   1      43.486  32.817  31.983  1.00  0.00    -0.014 A 
ATOM     65  C   UNL A   1      43.989  33.858  31.181  1.00  0.00     0.010 A 
ATOM     66  C   UNL A   1      43.046  33.113  33.286  1.00  0.00     0.010 A 
ATOM     67  C   UNL A   1      44.095  35.156  31.687  1.00  0.00     0.020 A 
ATOM     68  C   UNL A   1      43.123  34.417  33.787  1.00  0.00     0.020 A 
ATOM     69  C   UNL A   1      43.665  35.426  32.990  1.00  0.00     0.054 A 
BRANCH  69  70
ATOM     70  S   UNL A   1      43.800  37.124  33.615  1.00  0.00     0.124 S 
ATOM     71  O   UNL A   1      45.149  37.130  34.177  1.00  0.00    -0.237 OA
ATOM     72  O   UNL A   1      43.617  37.926  32.409  1.00  0.00    -0.237 OA
ATOM     73  O   UNL A   1      42.718  37.220  34.593  1.00  0.00    -0.744 OA
ENDBRANCH  69  70
ENDBRANCH  50  64
BRANCH  51  74
ATOM     74  C   UNL A   1      42.467  23.723  27.985  1.00  0.00    -0.014 A 
ATOM     75  C   UNL A   1      42.993  23.481  26.705  1.00  0.00     0.010 A 
ATOM     76  C   UNL A   1      41.829  22.674  28.673  1.00  0.00     0.010 A 
ATOM     77  C   UNL A   1      42.871  22.218  26.116  1.00  0.00     0.020 A 
ATOM     78  C   UNL A   1      41.729  21.403  28.099  1.00  0.00     0.020 A 
ATOM     79  C   UNL A   1      42.243  21.186  26.819  1.00  0.00     0.054 A 
BRANCH  79  80
ATOM     80  S   UNL A   1      42.153  19.539  26.062  1.00  0.00     0.124 S 
ATOM     81  O   UNL A   1      43.026  19.689  24.903  1.00  0.00    -0.237 OA
ATOM     82  O   UNL A   1      42.654  18.674  27.127  1.00  0.00    -0.237 OA
ATOM     83  O   UNL A   1      40.731  19.381  25.762  1.00  0.00    -0.744 OA
ENDBRANCH  79  80
ENDBRANCH  51  74
BRANCH  63  84
ATOM     84  C   UNL A   1      47.634  26.939  31.402  1.00  0.00    -0.014 A 
ATOM     85  C   UNL A   1      48.765  27.279  30.641  1.00  0.00     0.010 A 
ATOM     86  C   UNL A   1      47.802  26.217  32.598  1.00  0.00     0.010 A 
ATOM     87  C   UNL A   1      50.040  26.876  31.053  1.00  0.00     0.020 A 
ATOM     88  C   UNL A   1      49.077  25.837  33.027  1.00  0.00     0.020 A 
ATOM     89  C   UNL A   1      50.187  26.156  32.243  1.00  0.00     0.054 A 
BRANCH  89  90
ATOM     90  S   UNL A   1      51.854  25.680  32.774  1.00  0.00     0.124 S 
ATOM     91  O   UNL A   1      51.571  24.779  33.888  1.00  0.00    -0.237 OA
ATOM     92  O   UNL A   1      52.404  25.047  31.578  1.00  0.00    -0.237 OA
ATOM     93  O   UNL A   1      52.477  26.949  33.142  1.00  0.00    -0.744 OA
ENDBRANCH  89  90
ENDBRANCH  63  84
ENDBRANCH  37  38
ENDBRANCH  29  32
ENDBRANCH  27  28
ENDBRANCH   1  27
TORSDOF 16
ENDMDL
MODEL 3
REMARK VINA RESULT:      -9.6      4.442     12.318
REMARK SMILES O=C(NCCCNC(=O)c1ccc(-c2c3nc(c(-c4ccc(S(=O)(=O)[O-])cc4)c4ccc([nH]4)c(-c4ccc(S(=O)(=O)[O-])cc4)c4nc(c(-c5ccc(S(=O)(=O)[O-])cc5)c5ccc2[nH]5)C=C4)C=C3)cc1)c1ccc(/C=C/c2ccc3cccc(O)c3n2)cc1
REMARK SMILES IDX 5 1 4 2 3 3 1 4 2 5 70 7 71 8 88 9 72 10 87 11 73 12 74 13
REMARK SMILES IDX 75 14 76 15 77 16 86 17 78 18 85 19 79 20 83 21 80 22 82 23
REMARK SMILES IDX 81 24 84 25 6 27 7 28 8 29 9 31 10 32 11 33 69 34 12 35
REMARK SMILES IDX 68 36 13 37 14 38 15 39 62 40 16 41 67 42 61 43 63 44 17 45
REMARK SMILES IDX 66 46 60 47 59 48 18 50 48 51 29 52 47 53 30 54 33 55 46 56
REMARK SMILES IDX 64 57 31 58 32 59 45 61 65 62 34 63 19 64 20 65 28 66 21 67
REMARK SMILES IDX 27 68 22 69 23 70 24 71 25 72 26 73 49 74 50 75 58 76 51 77
REMARK SMILES IDX 57 78 52 79 53 80 54 81 55 82 56 83 35 84 36 85 44 86 37 87
REMARK SMILES IDX 43 88 38 89 39 90 40 91 41 92 42 93
REMARK H PARENT 3 6 84 26 7 30 63 49 33 60
REMARK Flexibility Score: inf
ROOT
ATOM      1  C   UNL A   1      35.078  32.887  28.297  1.00  0.00     0.042 C 
ENDROOT
BRANCH   1   2
ATOM      2  C   UNL A   1      34.347  31.586  27.974  1.00  0.00     0.118 C 
BRANCH   2   3
ATOM      3  N   UNL A   1      33.002  31.813  27.478  1.00  0.00    -0.352 N 
ATOM      4  O   UNL A   1      31.164  31.503  26.230  1.00  0.00    -0.269 OA
ATOM      5  C   UNL A   1      32.192  31.026  26.704  1.00  0.00     0.251 C 
ATOM      6  H   UNL A   1      32.607  32.676  27.741  1.00  0.00     0.163 HD
BRANCH   5   7
ATOM      7  C   UNL A   1      32.527  29.615  26.414  1.00  0.00     0.039 A 
ATOM      8  C   UNL A   1      31.867  28.542  27.025  1.00  0.00     0.014 A 
ATOM      9  C   UNL A   1      33.453  29.374  25.403  1.00  0.00     0.014 A 
ATOM     10  C   UNL A   1      32.157  27.222  26.645  1.00  0.00     0.009 A 
ATOM     11  C   UNL A   1      33.732  28.063  25.022  1.00  0.00     0.009 A 
ATOM     12  C   UNL A   1      33.090  26.971  25.636  1.00  0.00    -0.026 A 
BRANCH  12  13
ATOM     13  C   UNL A   1      33.529  25.639  25.206  1.00  0.00     0.010 C 
ATOM     14  C   UNL A   1      34.759  25.095  25.118  1.00  0.00     0.029 C 
BRANCH  14  15
ATOM     15  C   UNL A   1      34.830  23.983  24.136  1.00  0.00     0.064 A 
ATOM     16  C   UNL A   1      33.927  24.151  23.088  1.00  0.00     0.029 A 
ATOM     17  N   UNL A   1      35.161  22.767  24.637  1.00  0.00    -0.245 NA
ATOM     18  C   UNL A   1      33.068  23.098  22.811  1.00  0.00     0.013 A 
ATOM     19  C   UNL A   1      34.354  21.730  24.313  1.00  0.00     0.113 A 
ATOM     20  C   UNL A   1      33.217  21.889  23.498  1.00  0.00     0.004 A 
ATOM     21  C   UNL A   1      34.576  20.465  24.858  1.00  0.00     0.141 A 
ATOM     22  C   UNL A   1      32.252  20.872  23.422  1.00  0.00     0.010 A 
ATOM     23  C   UNL A   1      33.647  19.433  24.754  1.00  0.00     0.048 A 
ATOM     24  C   UNL A   1      32.454  19.658  24.076  1.00  0.00     0.005 A 
BRANCH  21  25
ATOM     25  O   UNL A   1      35.742  20.217  25.541  1.00  0.00    -0.506 OA
ATOM     26  H   UNL A   1      35.829  19.436  26.052  1.00  0.00     0.293 HD
ENDBRANCH  21  25
ENDBRANCH  14  15
ENDBRANCH  12  13
ENDBRANCH   5   7
ENDBRANCH   2   3
ENDBRANCH   1   2
BRANCH   1  27
ATOM     27  C   UNL A   1      36.199  32.765  29.328  1.00  0.00     0.118 C 
BRANCH  27  28
ATOM     28  N   UNL A   1      35.902  31.816  30.389  1.00  0.00    -0.352 N 
ATOM     29  C   UNL A   1      36.592  30.709  30.828  1.00  0.00     0.251 C 
ATOM     30  H   UNL A   1      35.066  31.996  30.876  1.00  0.00     0.163 HD
ATOM     31  O   UNL A   1      36.058  29.963  31.645  1.00  0.00    -0.269 OA
BRANCH  29  32
ATOM     32  C   UNL A   1      37.946  30.393  30.316  1.00  0.00     0.039 A 
ATOM     33  C   UNL A   1      38.998  30.280  31.231  1.00  0.00     0.014 A 
ATOM     34  C   UNL A   1      38.201  30.249  28.951  1.00  0.00     0.014 A 
ATOM     35  C   UNL A   1      40.283  29.956  30.785  1.00  0.00     0.010 A 
ATOM     36  C   UNL A   1      39.464  29.846  28.515  1.00  0.00     0.010 A 
ATOM     37  C   UNL A   1      40.521  29.697  29.426  1.00  0.00    -0.014 A 
BRANCH  37  38
ATOM     38  C   UNL A   1      41.861  29.266  28.944  1.00  0.00     0.031 A 
ATOM     39  C   UNL A   1      42.986  30.261  28.823  1.00  0.00     0.074 A 
ATOM     40  C   UNL A   1      42.050  27.990  28.552  1.00  0.00     0.049 A 
ATOM     41  N   UNL A   1      44.202  30.079  28.370  1.00  0.00    -0.248 NA
ATOM     42  C   UNL A   1      42.703  31.643  29.240  1.00  0.00     0.031 C 
ATOM     43  C   UNL A   1      41.031  26.937  28.574  1.00  0.00     0.029 A 
ATOM     44  N   UNL A   1      43.163  27.360  28.049  1.00  0.00    -0.354 N 
ATOM     45  C   UNL A   1      44.817  31.324  28.426  1.00  0.00     0.074 A 
ATOM     46  C   UNL A   1      43.828  32.261  28.913  1.00  0.00     0.031 C 
ATOM     47  C   UNL A   1      41.572  25.792  28.129  1.00  0.00     0.029 A 
ATOM     48  C   UNL A   1      42.961  26.033  27.752  1.00  0.00     0.049 A 
ATOM     49  H   UNL A   1      44.024  27.817  27.915  1.00  0.00     0.167 HD
ATOM     50  C   UNL A   1      46.094  31.658  28.117  1.00  0.00     0.031 A 
ATOM     51  C   UNL A   1      43.794  25.113  27.228  1.00  0.00     0.031 A 
ATOM     52  C   UNL A   1      47.082  30.721  27.647  1.00  0.00     0.049 A 
ATOM     53  C   UNL A   1      45.209  25.502  26.901  1.00  0.00     0.074 A 
ATOM     54  C   UNL A   1      48.419  30.949  27.370  1.00  0.00     0.029 A 
ATOM     55  N   UNL A   1      46.842  29.382  27.380  1.00  0.00    -0.354 N 
ATOM     56  N   UNL A   1      45.791  26.670  27.029  1.00  0.00    -0.248 NA
ATOM     57  C   UNL A   1      46.081  24.447  26.369  1.00  0.00     0.031 C 
ATOM     58  C   UNL A   1      48.975  29.760  26.887  1.00  0.00     0.029 A 
ATOM     59  C   UNL A   1      48.000  28.776  26.919  1.00  0.00     0.049 A 
ATOM     60  H   UNL A   1      45.976  28.928  27.501  1.00  0.00     0.167 HD
ATOM     61  C   UNL A   1      47.107  26.483  26.619  1.00  0.00     0.074 A 
ATOM     62  C   UNL A   1      47.237  25.088  26.253  1.00  0.00     0.031 C 
ATOM     63  C   UNL A   1      48.116  27.387  26.553  1.00  0.00     0.031 A 
BRANCH  50  64
ATOM     64  C   UNL A   1      46.494  33.102  28.269  1.00  0.00    -0.014 A 
ATOM     65  C   UNL A   1      47.126  33.564  29.438  1.00  0.00     0.010 A 
ATOM     66  C   UNL A   1      46.270  34.004  27.213  1.00  0.00     0.010 A 
ATOM     67  C   UNL A   1      47.483  34.909  29.567  1.00  0.00     0.020 A 
ATOM     68  C   UNL A   1      46.652  35.345  27.327  1.00  0.00     0.020 A 
ATOM     69  C   UNL A   1      47.240  35.793  28.511  1.00  0.00     0.054 A 
BRANCH  69  70
ATOM     70  S   UNL A   1      47.727  37.529  28.700  1.00  0.00     0.124 S 
ATOM     71  O   UNL A   1      48.470  37.497  29.958  1.00  0.00    -0.237 OA
ATOM     72  O   UNL A   1      48.528  37.770  27.504  1.00  0.00    -0.237 OA
ATOM     73  O   UNL A   1      46.454  38.244  28.748  1.00  0.00    -0.744 OA
ENDBRANCH  69  70
ENDBRANCH  50  64
BRANCH  51  74
ATOM     74  C   UNL A   1      43.309  23.723  26.997  1.00  0.00    -0.014 A 
ATOM     75  C   UNL A   1      43.117  23.241  25.691  1.00  0.00     0.010 A 
ATOM     76  C   UNL A   1      43.058  22.869  28.086  1.00  0.00     0.010 A 
ATOM     77  C   UNL A   1      42.668  21.934  25.477  1.00  0.00     0.020 A 
ATOM     78  C   UNL A   1      42.637  21.552  27.876  1.00  0.00     0.020 A 
ATOM     79  C   UNL A   1      42.436  21.096  26.572  1.00  0.00     0.054 A 
BRANCH  79  80
ATOM     80  S   UNL A   1      41.916  19.384  26.269  1.00  0.00     0.124 S 
ATOM     81  O   UNL A   1      42.379  18.707  27.476  1.00  0.00    -0.237 OA
ATOM     82  O   UNL A   1      40.468  19.514  26.130  1.00  0.00    -0.237 OA
ATOM     83  O   UNL A   1      42.621  19.027  25.039  1.00  0.00    -0.744 OA
ENDBRANCH  79  80
ENDBRANCH  51  74
BRANCH  63  84
ATOM     84  C   UNL A   1      49.463  26.891  26.098  1.00  0.00    -0.014 A 
ATOM     85  C   UNL A   1      49.850  26.966  24.749  1.00  0.00     0.010 A 
ATOM     86  C   UNL A   1      50.373  26.389  27.047  1.00  0.00     0.010 A 
ATOM     87  C   UNL A   1      51.113  26.516  24.352  1.00  0.00     0.020 A 
ATOM     88  C   UNL A   1      51.646  25.964  26.657  1.00  0.00     0.020 A 
ATOM     89  C   UNL A   1      52.003  26.017  25.309  1.00  0.00     0.054 A 
BRANCH  89  90
ATOM     90  S   UNL A   1      53.649  25.477  24.773  1.00  0.00     0.124 S 
ATOM     91  O   UNL A   1      53.766  26.113  23.465  1.00  0.00    -0.237 OA
ATOM     92  O   UNL A   1      54.519  26.017  25.816  1.00  0.00    -0.237 OA
ATOM     93  O   UNL A   1      53.545  24.019  24.752  1.00  0.00    -0.744 OA
ENDBRANCH  89  90
ENDBRANCH  63  84
ENDBRANCH  37  38
ENDBRANCH  29  32
ENDBRANCH  27  28
ENDBRANCH   1  27
TORSDOF 16
ENDMDL
