MODEL 1
REMARK VINA RESULT:     -12.5      0.000      0.000
REMARK SMILES O=C(NCCCNC(=O)c1ccc2nc(-c3cc(F)cc(Br)c3)[nH]c2c1)c1ccc(-c2c3nc(c(-c4ccc(S(=O)(=O)[O-])cc4)c4ccc([nH]4)c(-c4ccc(S(=O)(=O)[O-])cc4)c4nc(c(-c5ccc(S(=O)(=O)[O-])cc5)c5ccc2[nH]5)C=C4)C=C3)cc1
REMARK SMILES IDX 4 1 3 2 1 3 2 4 27 6 28 7 86 8 29 9 85 10 30 11 31 12 32 13
REMARK SMILES IDX 79 14 33 15 84 16 78 17 80 18 34 19 83 20 77 21 76 22 35 24
REMARK SMILES IDX 65 25 46 26 64 27 47 28 50 29 63 30 81 31 48 32 49 33 62 35
REMARK SMILES IDX 82 36 51 37 36 38 37 39 45 40 38 41 44 42 39 43 40 44 41 45
REMARK SMILES IDX 42 46 43 47 66 48 67 49 75 50 68 51 74 52 69 53 70 54 71 55
REMARK SMILES IDX 72 56 73 57 52 58 53 59 61 60 54 61 60 62 55 63 56 64 57 65
REMARK SMILES IDX 58 66 59 67 5 68 6 69 7 70 8 71 9 73 10 74 11 75 26 76 12 77
REMARK SMILES IDX 25 78 13 79 24 80 14 81 15 82 16 84 17 85 23 86 18 87 21 88
REMARK SMILES IDX 19 89 20 90 22 91
REMARK H PARENT 3 5 80 23 50 34 7 72 24 83
REMARK Flexibility Score: inf
ROOT
ATOM      1  C   UNL A   1      40.319  23.425  27.143  1.00  0.00     0.118 C 
ENDROOT
BRANCH   1   2
ATOM      2  N   UNL A   1      40.976  24.218  26.111  1.00  0.00    -0.352 N 
ATOM      3  O   UNL A   1      41.643  26.060  25.004  1.00  0.00    -0.269 OA
ATOM      4  C   UNL A   1      41.223  25.570  26.050  1.00  0.00     0.251 C 
ATOM      5  H   UNL A   1      41.294  23.704  25.334  1.00  0.00     0.163 HD
BRANCH   4   6
ATOM      6  C   UNL A   1      40.962  26.434  27.223  1.00  0.00     0.039 A 
ATOM      7  C   UNL A   1      41.709  27.591  27.434  1.00  0.00     0.014 A 
ATOM      8  C   UNL A   1      39.945  26.089  28.121  1.00  0.00     0.014 A 
ATOM      9  C   UNL A   1      41.575  28.292  28.624  1.00  0.00     0.010 A 
ATOM     10  C   UNL A   1      39.731  26.867  29.266  1.00  0.00     0.010 A 
ATOM     11  C   UNL A   1      40.572  27.954  29.548  1.00  0.00    -0.014 A 
BRANCH  11  12
ATOM     12  C   UNL A   1      40.403  28.805  30.756  1.00  0.00     0.031 A 
ATOM     13  C   UNL A   1      41.313  28.673  31.947  1.00  0.00     0.074 A 
ATOM     14  C   UNL A   1      39.453  29.763  30.733  1.00  0.00     0.049 A 
ATOM     15  N   UNL A   1      41.348  29.404  33.034  1.00  0.00    -0.248 NA
ATOM     16  C   UNL A   1      42.305  27.588  31.925  1.00  0.00     0.031 C 
ATOM     17  C   UNL A   1      38.496  29.974  29.641  1.00  0.00     0.029 A 
ATOM     18  N   UNL A   1      39.161  30.763  31.623  1.00  0.00    -0.354 N 
ATOM     19  C   UNL A   1      42.350  28.862  33.829  1.00  0.00     0.074 A 
ATOM     20  C   UNL A   1      42.883  27.723  33.113  1.00  0.00     0.031 C 
ATOM     21  C   UNL A   1      37.778  31.077  29.891  1.00  0.00     0.029 A 
ATOM     22  C   UNL A   1      38.172  31.612  31.188  1.00  0.00     0.049 A 
ATOM     23  H   UNL A   1      39.617  30.864  32.490  1.00  0.00     0.167 HD
ATOM     24  C   UNL A   1      42.793  29.280  35.040  1.00  0.00     0.031 A 
ATOM     25  C   UNL A   1      37.629  32.699  31.767  1.00  0.00     0.031 A 
ATOM     26  C   UNL A   1      42.259  30.414  35.751  1.00  0.00     0.049 A 
ATOM     27  C   UNL A   1      38.140  33.141  33.105  1.00  0.00     0.074 A 
ATOM     28  C   UNL A   1      42.639  30.913  36.986  1.00  0.00     0.029 A 
ATOM     29  N   UNL A   1      41.236  31.229  35.291  1.00  0.00    -0.354 N 
ATOM     30  N   UNL A   1      39.097  32.615  33.833  1.00  0.00    -0.248 NA
ATOM     31  C   UNL A   1      37.502  34.321  33.700  1.00  0.00     0.031 C 
ATOM     32  C   UNL A   1      41.822  32.009  37.287  1.00  0.00     0.029 A 
ATOM     33  C   UNL A   1      40.966  32.222  36.219  1.00  0.00     0.049 A 
ATOM     34  H   UNL A   1      40.771  31.118  34.430  1.00  0.00     0.167 HD
ATOM     35  C   UNL A   1      39.174  33.402  34.974  1.00  0.00     0.074 A 
ATOM     36  C   UNL A   1      38.195  34.459  34.822  1.00  0.00     0.031 C 
ATOM     37  C   UNL A   1      39.977  33.256  36.057  1.00  0.00     0.031 A 
BRANCH  24  38
ATOM     38  C   UNL A   1      43.908  28.499  35.686  1.00  0.00    -0.014 A 
ATOM     39  C   UNL A   1      45.253  28.850  35.474  1.00  0.00     0.010 A 
ATOM     40  C   UNL A   1      43.607  27.437  36.559  1.00  0.00     0.010 A 
ATOM     41  C   UNL A   1      46.279  28.135  36.102  1.00  0.00     0.020 A 
ATOM     42  C   UNL A   1      44.630  26.735  37.206  1.00  0.00     0.020 A 
ATOM     43  C   UNL A   1      45.960  27.079  36.961  1.00  0.00     0.054 A 
BRANCH  43  44
ATOM     44  S   UNL A   1      47.310  26.189  37.785  1.00  0.00     0.124 S 
ATOM     45  O   UNL A   1      47.342  26.838  39.095  1.00  0.00    -0.237 OA
ATOM     46  O   UNL A   1      46.833  24.808  37.782  1.00  0.00    -0.237 OA
ATOM     47  O   UNL A   1      48.467  26.449  36.933  1.00  0.00    -0.744 OA
ENDBRANCH  43  44
ENDBRANCH  24  38
BRANCH  25  48
ATOM     48  C   UNL A   1      36.523  33.422  31.085  1.00  0.00    -0.014 A 
ATOM     49  C   UNL A   1      36.694  33.957  29.796  1.00  0.00     0.010 A 
ATOM     50  C   UNL A   1      35.276  33.556  31.723  1.00  0.00     0.010 A 
ATOM     51  C   UNL A   1      35.642  34.628  29.165  1.00  0.00     0.020 A 
ATOM     52  C   UNL A   1      34.215  34.199  31.084  1.00  0.00     0.020 A 
ATOM     53  C   UNL A   1      34.409  34.745  29.814  1.00  0.00     0.054 A 
BRANCH  53  54
ATOM     54  S   UNL A   1      33.039  35.574  28.963  1.00  0.00     0.124 S 
ATOM     55  O   UNL A   1      32.468  34.485  28.177  1.00  0.00    -0.237 OA
ATOM     56  O   UNL A   1      32.218  36.055  30.071  1.00  0.00    -0.237 OA
ATOM     57  O   UNL A   1      33.705  36.623  28.192  1.00  0.00    -0.744 OA
ENDBRANCH  53  54
ENDBRANCH  25  48
BRANCH  37  58
ATOM     58  C   UNL A   1      39.828  34.275  37.153  1.00  0.00    -0.014 A 
ATOM     59  C   UNL A   1      40.572  35.468  37.135  1.00  0.00     0.010 A 
ATOM     60  C   UNL A   1      38.928  34.041  38.206  1.00  0.00     0.010 A 
ATOM     61  C   UNL A   1      40.451  36.390  38.177  1.00  0.00     0.020 A 
ATOM     62  C   UNL A   1      38.786  34.971  39.238  1.00  0.00     0.020 A 
ATOM     63  C   UNL A   1      39.563  36.132  39.227  1.00  0.00     0.054 A 
BRANCH  63  64
ATOM     64  S   UNL A   1      39.412  37.346  40.564  1.00  0.00     0.124 S 
ATOM     65  O   UNL A   1      40.733  37.967  40.560  1.00  0.00    -0.237 OA
ATOM     66  O   UNL A   1      38.317  38.198  40.105  1.00  0.00    -0.237 OA
ATOM     67  O   UNL A   1      39.108  36.531  41.737  1.00  0.00    -0.744 OA
ENDBRANCH  63  64
ENDBRANCH  37  58
ENDBRANCH  11  12
ENDBRANCH   4   6
ENDBRANCH   1   2
BRANCH   1  68
ATOM     68  C   UNL A   1      39.526  22.254  26.579  1.00  0.00     0.042 C 
BRANCH  68  69
ATOM     69  C   UNL A   1      38.256  22.663  25.848  1.00  0.00     0.118 C 
BRANCH  69  70
ATOM     70  N   UNL A   1      37.406  21.520  25.545  1.00  0.00    -0.352 N 
ATOM     71  C   UNL A   1      36.090  21.488  25.163  1.00  0.00     0.251 C 
ATOM     72  H   UNL A   1      37.840  20.640  25.627  1.00  0.00     0.163 HD
ATOM     73  O   UNL A   1      35.474  20.425  25.159  1.00  0.00    -0.269 OA
BRANCH  71  74
ATOM     74  C   UNL A   1      35.405  22.729  24.746  1.00  0.00     0.042 A 
ATOM     75  C   UNL A   1      34.834  22.825  23.470  1.00  0.00     0.016 A 
ATOM     76  C   UNL A   1      35.288  23.767  25.686  1.00  0.00     0.042 A 
ATOM     77  C   UNL A   1      34.178  23.991  23.069  1.00  0.00     0.031 A 
ATOM     78  C   UNL A   1      34.615  24.913  25.258  1.00  0.00     0.067 A 
ATOM     79  C   UNL A   1      34.062  25.042  23.989  1.00  0.00     0.089 A 
ATOM     80  N   UNL A   1      34.318  26.102  25.874  1.00  0.00    -0.338 N 
ATOM     81  N   UNL A   1      33.433  26.248  23.850  1.00  0.00    -0.229 NA
ATOM     82  C   UNL A   1      33.596  26.879  24.996  1.00  0.00     0.138 A 
ATOM     83  H   UNL A   1      34.577  26.356  26.789  1.00  0.00     0.168 HD
BRANCH  82  84
ATOM     84  C   UNL A   1      33.038  28.186  25.320  1.00  0.00     0.021 A 
ATOM     85  C   UNL A   1      31.849  28.648  24.748  1.00  0.00     0.051 A 
ATOM     86  C   UNL A   1      33.702  28.989  26.260  1.00  0.00     0.027 A 
ATOM     87  C   UNL A   1      31.349  29.894  25.118  1.00  0.00     0.125 A 
ATOM     88  C   UNL A   1      33.191  30.239  26.608  1.00  0.00     0.021 A 
ATOM     89  F   UNL A   1      30.203  30.326  24.575  1.00  0.00    -0.207 F 
ATOM     90  C   UNL A   1      32.009  30.698  26.040  1.00  0.00     0.055 A 
ATOM     91  Br  UNL A   1      34.114  31.313  27.860  1.00  0.00    -0.051 Br
ENDBRANCH  82  84
ENDBRANCH  71  74
ENDBRANCH  69  70
ENDBRANCH  68  69
ENDBRANCH   1  68
TORSDOF 14
ENDMDL
MODEL 2
REMARK VINA RESULT:     -12.2      2.601      3.829
REMARK SMILES O=C(NCCCNC(=O)c1ccc2nc(-c3cc(F)cc(Br)c3)[nH]c2c1)c1ccc(-c2c3nc(c(-c4ccc(S(=O)(=O)[O-])cc4)c4ccc([nH]4)c(-c4ccc(S(=O)(=O)[O-])cc4)c4nc(c(-c5ccc(S(=O)(=O)[O-])cc5)c5ccc2[nH]5)C=C4)C=C3)cc1
REMARK SMILES IDX 4 1 3 2 1 3 2 4 27 6 28 7 86 8 29 9 85 10 30 11 31 12 32 13
REMARK SMILES IDX 79 14 33 15 84 16 78 17 80 18 34 19 83 20 77 21 76 22 35 24
REMARK SMILES IDX 65 25 46 26 64 27 47 28 50 29 63 30 81 31 48 32 49 33 62 35
REMARK SMILES IDX 82 36 51 37 36 38 37 39 45 40 38 41 44 42 39 43 40 44 41 45
REMARK SMILES IDX 42 46 43 47 66 48 67 49 75 50 68 51 74 52 69 53 70 54 71 55
REMARK SMILES IDX 72 56 73 57 52 58 53 59 61 60 54 61 60 62 55 63 56 64 57 65
REMARK SMILES IDX 58 66 59 67 5 68 6 69 7 70 8 71 9 73 10 74 11 75 26 76 12 77
REMARK SMILES IDX 25 78 13 79 24 80 14 81 15 82 16 84 17 85 23 86 18 87 21 88
REMARK SMILES IDX 19 89 20 90 22 91
REMARK H PARENT 3 5 80 23 50 34 7 72 24 83
REMARK Flexibility Score: inf
ROOT
ATOM      1  C   UNL A   1      43.997  24.325  27.071  1.00  0.00     0.118 C 
ENDROOT
BRANCH   1   2
ATOM      2  N   UNL A   1      43.195  24.788  25.944  1.00  0.00    -0.352 N 
ATOM      3  O   UNL A   1      41.503  25.808  24.867  1.00  0.00    -0.269 OA
ATOM      4  C   UNL A   1      42.155  25.688  25.901  1.00  0.00     0.251 C 
ATOM      5  H   UNL A   1      43.436  24.394  25.075  1.00  0.00     0.163 HD
BRANCH   4   6
ATOM      6  C   UNL A   1      41.806  26.488  27.097  1.00  0.00     0.039 A 
ATOM      7  C   UNL A   1      42.390  27.734  27.315  1.00  0.00     0.014 A 
ATOM      8  C   UNL A   1      40.870  25.990  28.011  1.00  0.00     0.014 A 
ATOM      9  C   UNL A   1      42.190  28.390  28.521  1.00  0.00     0.010 A 
ATOM     10  C   UNL A   1      40.578  26.711  29.176  1.00  0.00     0.010 A 
ATOM     11  C   UNL A   1      41.267  27.900  29.460  1.00  0.00    -0.014 A 
BRANCH  11  12
ATOM     12  C   UNL A   1      41.012  28.698  30.689  1.00  0.00     0.031 A 
ATOM     13  C   UNL A   1      41.914  28.609  31.889  1.00  0.00     0.074 A 
ATOM     14  C   UNL A   1      39.986  29.575  30.677  1.00  0.00     0.049 A 
ATOM     15  N   UNL A   1      41.874  29.308  32.997  1.00  0.00    -0.248 NA
ATOM     16  C   UNL A   1      42.994  27.611  31.853  1.00  0.00     0.031 C 
ATOM     17  C   UNL A   1      39.028  29.737  29.577  1.00  0.00     0.029 A 
ATOM     18  N   UNL A   1      39.600  30.521  31.590  1.00  0.00    -0.354 N 
ATOM     19  C   UNL A   1      42.908  28.829  33.791  1.00  0.00     0.074 A 
ATOM     20  C   UNL A   1      43.543  27.759  33.053  1.00  0.00     0.031 C 
ATOM     21  C   UNL A   1      38.217  30.769  29.846  1.00  0.00     0.029 A 
ATOM     22  C   UNL A   1      38.549  31.297  31.164  1.00  0.00     0.049 A 
ATOM     23  H   UNL A   1      40.035  30.634  32.466  1.00  0.00     0.167 HD
ATOM     24  C   UNL A   1      43.298  29.248  35.021  1.00  0.00     0.031 A 
ATOM     25  C   UNL A   1      37.909  32.318  31.764  1.00  0.00     0.031 A 
ATOM     26  C   UNL A   1      42.662  30.312  35.754  1.00  0.00     0.049 A 
ATOM     27  C   UNL A   1      38.364  32.763  33.121  1.00  0.00     0.074 A 
ATOM     28  C   UNL A   1      42.983  30.806  37.008  1.00  0.00     0.029 A 
ATOM     29  N   UNL A   1      41.580  31.052  35.301  1.00  0.00    -0.354 N 
ATOM     30  N   UNL A   1      39.352  32.297  33.849  1.00  0.00    -0.248 NA
ATOM     31  C   UNL A   1      37.622  33.868  33.739  1.00  0.00     0.031 C 
ATOM     32  C   UNL A   1      42.073  31.821  37.326  1.00  0.00     0.029 A 
ATOM     33  C   UNL A   1      41.216  31.992  36.252  1.00  0.00     0.049 A 
ATOM     34  H   UNL A   1      41.137  30.928  34.431  1.00  0.00     0.167 HD
ATOM     35  C   UNL A   1      39.348  33.054  35.013  1.00  0.00     0.074 A 
ATOM     36  C   UNL A   1      38.286  34.030  34.875  1.00  0.00     0.031 C 
ATOM     37  C   UNL A   1      40.146  32.945  36.103  1.00  0.00     0.031 A 
BRANCH  24  38
ATOM     38  C   UNL A   1      44.466  28.544  35.661  1.00  0.00    -0.014 A 
ATOM     39  C   UNL A   1      44.280  27.366  36.406  1.00  0.00     0.010 A 
ATOM     40  C   UNL A   1      45.771  29.033  35.469  1.00  0.00     0.010 A 
ATOM     41  C   UNL A   1      45.376  26.705  36.971  1.00  0.00     0.020 A 
ATOM     42  C   UNL A   1      46.871  28.361  36.013  1.00  0.00     0.020 A 
ATOM     43  C   UNL A   1      46.665  27.210  36.773  1.00  0.00     0.054 A 
BRANCH  43  44
ATOM     44  S   UNL A   1      48.070  26.315  37.493  1.00  0.00     0.124 S 
ATOM     45  O   UNL A   1      47.432  25.092  37.976  1.00  0.00    -0.237 OA
ATOM     46  O   UNL A   1      48.964  26.145  36.349  1.00  0.00    -0.237 OA
ATOM     47  O   UNL A   1      48.559  27.216  38.533  1.00  0.00    -0.744 OA
ENDBRANCH  43  44
ENDBRANCH  24  38
BRANCH  25  48
ATOM     48  C   UNL A   1      36.756  32.966  31.085  1.00  0.00    -0.014 A 
ATOM     49  C   UNL A   1      35.447  32.807  31.571  1.00  0.00     0.010 A 
ATOM     50  C   UNL A   1      36.973  33.772  29.952  1.00  0.00     0.010 A 
ATOM     51  C   UNL A   1      34.374  33.428  30.926  1.00  0.00     0.020 A 
ATOM     52  C   UNL A   1      35.907  34.418  29.323  1.00  0.00     0.020 A 
ATOM     53  C   UNL A   1      34.612  34.230  29.805  1.00  0.00     0.054 A 
BRANCH  53  54
ATOM     54  S   UNL A   1      33.215  35.070  29.008  1.00  0.00     0.124 S 
ATOM     55  O   UNL A   1      32.756  34.060  28.060  1.00  0.00    -0.237 OA
ATOM     56  O   UNL A   1      32.321  35.339  30.131  1.00  0.00    -0.237 OA
ATOM     57  O   UNL A   1      33.829  36.256  28.414  1.00  0.00    -0.744 OA
ENDBRANCH  53  54
ENDBRANCH  25  48
BRANCH  37  58
ATOM     58  C   UNL A   1      39.899  33.916  37.224  1.00  0.00    -0.014 A 
ATOM     59  C   UNL A   1      39.083  33.568  38.315  1.00  0.00     0.010 A 
ATOM     60  C   UNL A   1      40.496  35.188  37.189  1.00  0.00     0.010 A 
ATOM     61  C   UNL A   1      38.831  34.493  39.331  1.00  0.00     0.020 A 
ATOM     62  C   UNL A   1      40.267  36.107  38.216  1.00  0.00     0.020 A 
ATOM     63  C   UNL A   1      39.420  35.760  39.271  1.00  0.00     0.054 A 
BRANCH  63  64
ATOM     64  S   UNL A   1      39.092  36.943  40.606  1.00  0.00     0.124 S 
ATOM     65  O   UNL A   1      38.327  36.130  41.547  1.00  0.00    -0.237 OA
ATOM     66  O   UNL A   1      40.435  37.315  41.045  1.00  0.00    -0.237 OA
ATOM     67  O   UNL A   1      38.342  38.008  39.946  1.00  0.00    -0.744 OA
ENDBRANCH  63  64
ENDBRANCH  37  58
ENDBRANCH  11  12
ENDBRANCH   4   6
ENDBRANCH   1   2
BRANCH   1  68
ATOM     68  C   UNL A   1      44.429  22.872  26.936  1.00  0.00     0.042 C 
BRANCH  68  69
ATOM     69  C   UNL A   1      43.704  22.111  25.836  1.00  0.00     0.118 C 
BRANCH  69  70
ATOM     70  N   UNL A   1      43.450  20.725  26.204  1.00  0.00    -0.352 N 
ATOM     71  C   UNL A   1      42.281  20.125  26.595  1.00  0.00     0.251 C 
ATOM     72  H   UNL A   1      44.234  20.131  26.167  1.00  0.00     0.163 HD
ATOM     73  O   UNL A   1      42.297  18.995  27.075  1.00  0.00    -0.269 OA
BRANCH  71  74
ATOM     74  C   UNL A   1      40.993  20.831  26.435  1.00  0.00     0.042 A 
ATOM     75  C   UNL A   1      40.852  22.150  26.888  1.00  0.00     0.016 A 
ATOM     76  C   UNL A   1      39.954  20.167  25.762  1.00  0.00     0.042 A 
ATOM     77  C   UNL A   1      39.641  22.830  26.735  1.00  0.00     0.031 A 
ATOM     78  C   UNL A   1      38.762  20.879  25.614  1.00  0.00     0.067 A 
ATOM     79  C   UNL A   1      38.588  22.179  26.077  1.00  0.00     0.089 A 
ATOM     80  N   UNL A   1      37.558  20.568  25.036  1.00  0.00    -0.338 N 
ATOM     81  N   UNL A   1      37.341  22.645  25.768  1.00  0.00    -0.229 NA
ATOM     82  C   UNL A   1      36.728  21.661  25.140  1.00  0.00     0.138 A 
ATOM     83  H   UNL A   1      37.327  19.707  24.616  1.00  0.00     0.168 HD
BRANCH  82  84
ATOM     84  C   UNL A   1      35.386  21.735  24.575  1.00  0.00     0.021 A 
ATOM     85  C   UNL A   1      34.451  20.712  24.749  1.00  0.00     0.051 A 
ATOM     86  C   UNL A   1      35.017  22.885  23.860  1.00  0.00     0.027 A 
ATOM     87  C   UNL A   1      33.174  20.850  24.210  1.00  0.00     0.125 A 
ATOM     88  C   UNL A   1      33.738  23.000  23.318  1.00  0.00     0.021 A 
ATOM     89  F   UNL A   1      32.278  19.871  24.391  1.00  0.00    -0.207 F 
ATOM     90  C   UNL A   1      32.807  21.982  23.492  1.00  0.00     0.055 A 
ATOM     91  Br  UNL A   1      33.270  24.548  22.341  1.00  0.00    -0.051 Br
ENDBRANCH  82  84
ENDBRANCH  71  74
ENDBRANCH  69  70
ENDBRANCH  68  69
ENDBRANCH   1  68
TORSDOF 14
ENDMDL
MODEL 3
REMARK VINA RESULT:     -12.2      1.789      2.221
REMARK SMILES O=C(NCCCNC(=O)c1ccc2nc(-c3cc(F)cc(Br)c3)[nH]c2c1)c1ccc(-c2c3nc(c(-c4ccc(S(=O)(=O)[O-])cc4)c4ccc([nH]4)c(-c4ccc(S(=O)(=O)[O-])cc4)c4nc(c(-c5ccc(S(=O)(=O)[O-])cc5)c5ccc2[nH]5)C=C4)C=C3)cc1
REMARK SMILES IDX 4 1 3 2 1 3 2 4 27 6 28 7 86 8 29 9 85 10 30 11 31 12 32 13
REMARK SMILES IDX 79 14 33 15 84 16 78 17 80 18 34 19 83 20 77 21 76 22 35 24
REMARK SMILES IDX 65 25 46 26 64 27 47 28 50 29 63 30 81 31 48 32 49 33 62 35
REMARK SMILES IDX 82 36 51 37 36 38 37 39 45 40 38 41 44 42 39 43 40 44 41 45
REMARK SMILES IDX 42 46 43 47 66 48 67 49 75 50 68 51 74 52 69 53 70 54 71 55
REMARK SMILES IDX 72 56 73 57 52 58 53 59 61 60 54 61 60 62 55 63 56 64 57 65
REMARK SMILES IDX 58 66 59 67 5 68 6 69 7 70 8 71 9 73 10 74 11 75 26 76 12 77
REMARK SMILES IDX 25 78 13 79 24 80 14 81 15 82 16 84 17 85 23 86 18 87 21 88
REMARK SMILES IDX 19 89 20 90 22 91
REMARK H PARENT 3 5 80 23 50 34 7 72 24 83
REMARK Flexibility Score: inf
ROOT
ATOM      1  C   UNL A   1      38.406  24.153  26.477  1.00  0.00     0.118 C 
ENDROOT
BRANCH   1   2
ATOM      2  N   UNL A   1      39.779  24.288  26.006  1.00  0.00    -0.352 N 
ATOM      3  O   UNL A   1      41.804  25.227  25.722  1.00  0.00    -0.269 OA
ATOM      4  C   UNL A   1      40.761  25.180  26.370  1.00  0.00     0.251 C 
ATOM      5  H   UNL A   1      40.047  23.638  25.317  1.00  0.00     0.163 HD
BRANCH   4   6
ATOM      6  C   UNL A   1      40.557  26.094  27.516  1.00  0.00     0.039 A 
ATOM      7  C   UNL A   1      41.241  27.305  27.591  1.00  0.00     0.014 A 
ATOM      8  C   UNL A   1      39.655  25.742  28.528  1.00  0.00     0.014 A 
ATOM      9  C   UNL A   1      41.175  28.066  28.750  1.00  0.00     0.010 A 
ATOM     10  C   UNL A   1      39.500  26.571  29.646  1.00  0.00     0.010 A 
ATOM     11  C   UNL A   1      40.290  27.722  29.785  1.00  0.00    -0.014 A 
BRANCH  11  12
ATOM     12  C   UNL A   1      40.181  28.631  30.957  1.00  0.00     0.031 A 
ATOM     13  C   UNL A   1      41.110  28.514  32.135  1.00  0.00     0.074 A 
ATOM     14  C   UNL A   1      39.271  29.626  30.910  1.00  0.00     0.049 A 
ATOM     15  N   UNL A   1      41.197  29.289  33.188  1.00  0.00    -0.248 NA
ATOM     16  C   UNL A   1      42.057  27.389  32.143  1.00  0.00     0.031 C 
ATOM     17  C   UNL A   1      38.300  29.828  29.828  1.00  0.00     0.029 A 
ATOM     18  N   UNL A   1      39.038  30.675  31.760  1.00  0.00    -0.354 N 
ATOM     19  C   UNL A   1      42.194  28.742  33.986  1.00  0.00     0.074 A 
ATOM     20  C   UNL A   1      42.665  27.552  33.312  1.00  0.00     0.031 C 
ATOM     21  C   UNL A   1      37.632  30.970  30.043  1.00  0.00     0.029 A 
ATOM     22  C   UNL A   1      38.075  31.545  31.308  1.00  0.00     0.049 A 
ATOM     23  H   UNL A   1      39.516  30.794  32.613  1.00  0.00     0.167 HD
ATOM     24  C   UNL A   1      42.678  29.193  35.170  1.00  0.00     0.031 A 
ATOM     25  C   UNL A   1      37.589  32.677  31.848  1.00  0.00     0.031 A 
ATOM     26  C   UNL A   1      42.206  30.378  35.840  1.00  0.00     0.049 A 
ATOM     27  C   UNL A   1      38.146  33.156  33.155  1.00  0.00     0.074 A 
ATOM     28  C   UNL A   1      42.632  30.915  37.043  1.00  0.00     0.029 A 
ATOM     29  N   UNL A   1      41.207  31.214  35.363  1.00  0.00    -0.354 N 
ATOM     30  N   UNL A   1      39.096  32.623  33.886  1.00  0.00    -0.248 NA
ATOM     31  C   UNL A   1      37.568  34.386  33.709  1.00  0.00     0.031 C 
ATOM     32  C   UNL A   1      41.866  32.056  37.311  1.00  0.00     0.029 A 
ATOM     33  C   UNL A   1      40.997  32.257  36.251  1.00  0.00     0.049 A 
ATOM     34  H   UNL A   1      40.720  31.085  34.518  1.00  0.00     0.167 HD
ATOM     35  C   UNL A   1      39.228  33.454  34.991  1.00  0.00     0.074 A 
ATOM     36  C   UNL A   1      38.290  34.543  34.810  1.00  0.00     0.031 C 
ATOM     37  C   UNL A   1      40.047  33.323  36.063  1.00  0.00     0.031 A 
BRANCH  24  38
ATOM     38  C   UNL A   1      43.775  28.395  35.827  1.00  0.00    -0.014 A 
ATOM     39  C   UNL A   1      45.128  28.685  35.579  1.00  0.00     0.010 A 
ATOM     40  C   UNL A   1      43.449  27.382  36.747  1.00  0.00     0.010 A 
ATOM     41  C   UNL A   1      46.137  27.957  36.218  1.00  0.00     0.020 A 
ATOM     42  C   UNL A   1      44.456  26.667  37.405  1.00  0.00     0.020 A 
ATOM     43  C   UNL A   1      45.793  26.949  37.125  1.00  0.00     0.054 A 
BRANCH  43  44
ATOM     44  S   UNL A   1      47.123  26.041  37.961  1.00  0.00     0.124 S 
ATOM     45  O   UNL A   1      46.860  24.667  37.537  1.00  0.00    -0.237 OA
ATOM     46  O   UNL A   1      48.329  26.649  37.403  1.00  0.00    -0.237 OA
ATOM     47  O   UNL A   1      46.890  26.310  39.377  1.00  0.00    -0.744 OA
ENDBRANCH  43  44
ENDBRANCH  24  38
BRANCH  25  48
ATOM     48  C   UNL A   1      36.499  33.415  31.156  1.00  0.00    -0.014 A 
ATOM     49  C   UNL A   1      36.690  33.950  29.870  1.00  0.00     0.010 A 
ATOM     50  C   UNL A   1      35.247  33.562  31.781  1.00  0.00     0.010 A 
ATOM     51  C   UNL A   1      35.653  34.635  29.230  1.00  0.00     0.020 A 
ATOM     52  C   UNL A   1      34.200  34.219  31.132  1.00  0.00     0.020 A 
ATOM     53  C   UNL A   1      34.414  34.765  29.866  1.00  0.00     0.054 A 
BRANCH  53  54
ATOM     54  S   UNL A   1      33.063  35.613  29.002  1.00  0.00     0.124 S 
ATOM     55  O   UNL A   1      32.458  34.522  28.245  1.00  0.00    -0.237 OA
ATOM     56  O   UNL A   1      32.262  36.142  30.102  1.00  0.00    -0.237 OA
ATOM     57  O   UNL A   1      33.754  36.625  28.204  1.00  0.00    -0.744 OA
ENDBRANCH  53  54
ENDBRANCH  25  48
BRANCH  37  58
ATOM     58  C   UNL A   1      39.963  34.394  37.115  1.00  0.00    -0.014 A 
ATOM     59  C   UNL A   1      39.115  34.250  38.227  1.00  0.00     0.010 A 
ATOM     60  C   UNL A   1      40.748  35.554  36.993  1.00  0.00     0.010 A 
ATOM     61  C   UNL A   1      39.018  35.268  39.178  1.00  0.00     0.020 A 
ATOM     62  C   UNL A   1      40.673  36.564  37.955  1.00  0.00     0.020 A 
ATOM     63  C   UNL A   1      39.794  36.423  39.031  1.00  0.00     0.054 A 
BRANCH  63  64
ATOM     64  S   UNL A   1      39.664  37.729  40.282  1.00  0.00     0.124 S 
ATOM     65  O   UNL A   1      39.100  37.005  41.418  1.00  0.00    -0.237 OA
ATOM     66  O   UNL A   1      41.050  38.164  40.441  1.00  0.00    -0.237 OA
ATOM     67  O   UNL A   1      38.777  38.711  39.665  1.00  0.00    -0.744 OA
ENDBRANCH  63  64
ENDBRANCH  37  58
ENDBRANCH  11  12
ENDBRANCH   4   6
ENDBRANCH   1   2
BRANCH   1  68
ATOM     68  C   UNL A   1      37.558  23.255  25.588  1.00  0.00     0.042 C 
BRANCH  68  69
ATOM     69  C   UNL A   1      36.085  23.223  25.967  1.00  0.00     0.118 C 
BRANCH  69  70
ATOM     70  N   UNL A   1      35.400  22.063  25.413  1.00  0.00    -0.352 N 
ATOM     71  C   UNL A   1      34.234  21.997  24.697  1.00  0.00     0.251 C 
ATOM     72  H   UNL A   1      35.841  21.198  25.577  1.00  0.00     0.163 HD
ATOM     73  O   UNL A   1      33.693  20.913  24.496  1.00  0.00    -0.269 OA
BRANCH  71  74
ATOM     74  C   UNL A   1      33.622  23.228  24.156  1.00  0.00     0.042 A 
ATOM     75  C   UNL A   1      34.292  23.978  23.180  1.00  0.00     0.016 A 
ATOM     76  C   UNL A   1      32.334  23.576  24.598  1.00  0.00     0.042 A 
ATOM     77  C   UNL A   1      33.719  25.140  22.656  1.00  0.00     0.031 A 
ATOM     78  C   UNL A   1      31.785  24.734  24.045  1.00  0.00     0.067 A 
ATOM     79  C   UNL A   1      32.440  25.510  23.094  1.00  0.00     0.089 A 
ATOM     80  N   UNL A   1      30.587  25.377  24.231  1.00  0.00    -0.338 N 
ATOM     81  N   UNL A   1      31.661  26.562  22.701  1.00  0.00    -0.229 NA
ATOM     82  C   UNL A   1      30.545  26.470  23.396  1.00  0.00     0.138 A 
ATOM     83  H   UNL A   1      29.878  25.101  24.855  1.00  0.00     0.168 HD
BRANCH  82  84
ATOM     84  C   UNL A   1      29.397  27.358  23.259  1.00  0.00     0.021 A 
ATOM     85  C   UNL A   1      28.145  27.041  23.793  1.00  0.00     0.051 A 
ATOM     86  C   UNL A   1      29.567  28.584  22.596  1.00  0.00     0.027 A 
ATOM     87  C   UNL A   1      27.092  27.941  23.656  1.00  0.00     0.125 A 
ATOM     88  C   UNL A   1      28.497  29.467  22.459  1.00  0.00     0.021 A 
ATOM     89  F   UNL A   1      25.898  27.636  24.180  1.00  0.00    -0.207 F 
ATOM     90  C   UNL A   1      27.252  29.151  22.991  1.00  0.00     0.055 A 
ATOM     91  Br  UNL A   1      28.743  31.102  21.544  1.00  0.00    -0.051 Br
ENDBRANCH  82  84
ENDBRANCH  71  74
ENDBRANCH  69  70
ENDBRANCH  68  69
ENDBRANCH   1  68
TORSDOF 14
ENDMDL
