MODEL 1
REMARK VINA RESULT:     -10.6      0.000      0.000
REMARK SMILES O=C(NCCCNC(=O)c1cc(SCC(=O)N2CCOCC2)ccn1)c1ccc(-c2c3nc(c(-c4ccc(S(=O)(=O)[O-])cc4)c4ccc([nH]4)c(-c4ccc(S(=O)(=O)[O-])cc4)c4nc(c(-c5ccc(S(=O)(=O)[O-])cc5)c5ccc2[nH]5)C=C4)C=C3)cc1
REMARK SMILES IDX 5 1 4 2 3 3 1 4 2 5 26 7 27 8 85 9 28 10 84 11 29 12 30 13
REMARK SMILES IDX 31 14 78 15 32 16 83 17 77 18 79 19 33 20 82 21 76 22 75 23
REMARK SMILES IDX 34 25 64 26 45 27 63 28 46 29 49 30 62 31 80 32 47 33 48 34
REMARK SMILES IDX 61 36 81 37 50 38 35 39 36 40 44 41 37 42 43 43 38 44 39 45
REMARK SMILES IDX 40 46 41 47 42 48 65 49 66 50 74 51 67 52 73 53 68 54 69 55
REMARK SMILES IDX 70 56 71 57 72 58 51 59 52 60 60 61 53 62 59 63 54 64 55 65
REMARK SMILES IDX 56 66 57 67 58 68 6 69 7 70 8 71 9 73 10 74 11 75 25 76
REMARK SMILES IDX 12 77 24 78 23 79 13 80 14 81 15 82 16 83 17 84 18 85 22 86
REMARK SMILES IDX 19 87 21 88 20 89
REMARK H PARENT 3 6 79 24 49 35 7 72
REMARK Flexibility Score: inf
ROOT
ATOM      1  C   UNL A   1      32.419  27.465  27.172  1.00  0.00     0.042 C 
ENDROOT
BRANCH   1   2
ATOM      2  C   UNL A   1      33.696  28.201  26.804  1.00  0.00     0.118 C 
BRANCH   2   3
ATOM      3  N   UNL A   1      33.575  29.647  26.944  1.00  0.00    -0.352 N 
ATOM      4  O   UNL A   1      34.048  31.718  27.685  1.00  0.00    -0.269 OA
ATOM      5  C   UNL A   1      34.424  30.559  27.521  1.00  0.00     0.251 C 
ATOM      6  H   UNL A   1      32.753  30.032  26.565  1.00  0.00     0.163 HD
BRANCH   5   7
ATOM      7  C   UNL A   1      35.772  30.150  27.974  1.00  0.00     0.039 A 
ATOM      8  C   UNL A   1      36.873  30.224  27.119  1.00  0.00     0.014 A 
ATOM      9  C   UNL A   1      35.940  29.710  29.290  1.00  0.00     0.014 A 
ATOM     10  C   UNL A   1      38.101  29.713  27.522  1.00  0.00     0.010 A 
ATOM     11  C   UNL A   1      37.198  29.289  29.727  1.00  0.00     0.010 A 
ATOM     12  C   UNL A   1      38.282  29.257  28.837  1.00  0.00    -0.014 A 
BRANCH  12  13
ATOM     13  C   UNL A   1      39.628  28.825  29.283  1.00  0.00     0.031 A 
ATOM     14  C   UNL A   1      40.517  29.744  30.074  1.00  0.00     0.074 A 
ATOM     15  C   UNL A   1      40.050  27.589  28.955  1.00  0.00     0.049 A 
ATOM     16  N   UNL A   1      41.731  29.533  30.514  1.00  0.00    -0.248 NA
ATOM     17  C   UNL A   1      39.979  31.073  30.405  1.00  0.00     0.031 C 
ATOM     18  C   UNL A   1      39.280  26.615  28.176  1.00  0.00     0.029 A 
ATOM     19  N   UNL A   1      41.225  26.939  29.231  1.00  0.00    -0.354 N 
ATOM     20  C   UNL A   1      42.116  30.708  31.148  1.00  0.00     0.074 A 
ATOM     21  C   UNL A   1      41.012  31.635  31.019  1.00  0.00     0.031 C 
ATOM     22  C   UNL A   1      39.991  25.486  28.058  1.00  0.00     0.029 A 
ATOM     23  C   UNL A   1      41.289  25.676  28.694  1.00  0.00     0.049 A 
ATOM     24  H   UNL A   1      41.952  27.337  29.763  1.00  0.00     0.167 HD
ATOM     25  C   UNL A   1      43.283  30.986  31.777  1.00  0.00     0.031 A 
ATOM     26  C   UNL A   1      42.290  24.776  28.681  1.00  0.00     0.031 A 
ATOM     27  C   UNL A   1      44.376  30.056  31.897  1.00  0.00     0.049 A 
ATOM     28  C   UNL A   1      43.579  25.110  29.368  1.00  0.00     0.074 A 
ATOM     29  C   UNL A   1      45.583  30.226  32.554  1.00  0.00     0.029 A 
ATOM     30  N   UNL A   1      44.403  28.788  31.335  1.00  0.00    -0.354 N 
ATOM     31  N   UNL A   1      43.905  26.209  30.007  1.00  0.00    -0.248 NA
ATOM     32  C   UNL A   1      44.632  24.088  29.340  1.00  0.00     0.031 C 
ATOM     33  C   UNL A   1      46.358  29.081  32.346  1.00  0.00     0.029 A 
ATOM     34  C   UNL A   1      45.615  28.175  31.605  1.00  0.00     0.049 A 
ATOM     35  H   UNL A   1      43.668  28.383  30.821  1.00  0.00     0.167 HD
ATOM     36  C   UNL A   1      45.200  26.008  30.465  1.00  0.00     0.074 A 
ATOM     37  C   UNL A   1      45.590  24.676  30.045  1.00  0.00     0.031 C 
ATOM     38  C   UNL A   1      45.992  26.851  31.172  1.00  0.00     0.031 A 
BRANCH  25  39
ATOM     39  C   UNL A   1      43.450  32.370  32.348  1.00  0.00    -0.014 A 
ATOM     40  C   UNL A   1      43.990  33.419  31.582  1.00  0.00     0.010 A 
ATOM     41  C   UNL A   1      43.047  32.629  33.671  1.00  0.00     0.010 A 
ATOM     42  C   UNL A   1      44.178  34.684  32.146  1.00  0.00     0.020 A 
ATOM     43  C   UNL A   1      43.210  33.900  34.231  1.00  0.00     0.020 A 
ATOM     44  C   UNL A   1      43.798  34.913  33.472  1.00  0.00     0.054 A 
BRANCH  44  45
ATOM     45  S   UNL A   1      44.073  36.557  34.189  1.00  0.00     0.124 S 
ATOM     46  O   UNL A   1      44.291  36.237  35.598  1.00  0.00    -0.237 OA
ATOM     47  O   UNL A   1      45.248  37.033  33.465  1.00  0.00    -0.237 OA
ATOM     48  O   UNL A   1      42.833  37.274  33.899  1.00  0.00    -0.744 OA
ENDBRANCH  44  45
ENDBRANCH  25  39
BRANCH  26  49
ATOM     49  C   UNL A   1      42.091  23.491  27.961  1.00  0.00    -0.014 A 
ATOM     50  C   UNL A   1      42.679  23.272  26.705  1.00  0.00     0.010 A 
ATOM     51  C   UNL A   1      41.388  22.441  28.583  1.00  0.00     0.010 A 
ATOM     52  C   UNL A   1      42.575  22.023  26.086  1.00  0.00     0.020 A 
ATOM     53  C   UNL A   1      41.303  21.185  27.979  1.00  0.00     0.020 A 
ATOM     54  C   UNL A   1      41.896  20.985  26.732  1.00  0.00     0.054 A 
BRANCH  54  55
ATOM     55  S   UNL A   1      41.862  19.344  25.958  1.00  0.00     0.124 S 
ATOM     56  O   UNL A   1      40.445  19.186  25.644  1.00  0.00    -0.237 OA
ATOM     57  O   UNL A   1      42.749  19.516  24.810  1.00  0.00    -0.237 OA
ATOM     58  O   UNL A   1      42.375  18.463  27.005  1.00  0.00    -0.744 OA
ENDBRANCH  54  55
ENDBRANCH  26  49
BRANCH  38  59
ATOM     59  C   UNL A   1      47.359  26.356  31.554  1.00  0.00    -0.014 A 
ATOM     60  C   UNL A   1      47.597  25.795  32.821  1.00  0.00     0.010 A 
ATOM     61  C   UNL A   1      48.398  26.383  30.606  1.00  0.00     0.010 A 
ATOM     62  C   UNL A   1      48.858  25.282  33.137  1.00  0.00     0.020 A 
ATOM     63  C   UNL A   1      49.652  25.851  30.911  1.00  0.00     0.020 A 
ATOM     64  C   UNL A   1      49.876  25.310  32.179  1.00  0.00     0.054 A 
BRANCH  64  65
ATOM     65  S   UNL A   1      51.482  24.573  32.588  1.00  0.00     0.124 S 
ATOM     66  O   UNL A   1      51.475  24.616  34.047  1.00  0.00    -0.237 OA
ATOM     67  O   UNL A   1      51.384  23.239  31.998  1.00  0.00    -0.237 OA
ATOM     68  O   UNL A   1      52.445  25.462  31.942  1.00  0.00    -0.744 OA
ENDBRANCH  64  65
ENDBRANCH  38  59
ENDBRANCH  12  13
ENDBRANCH   5   7
ENDBRANCH   2   3
ENDBRANCH   1   2
BRANCH   1  69
ATOM     69  C   UNL A   1      32.066  26.337  26.221  1.00  0.00     0.118 C 
BRANCH  69  70
ATOM     70  N   UNL A   1      30.791  26.521  25.546  1.00  0.00    -0.351 N 
ATOM     71  C   UNL A   1      30.371  26.018  24.335  1.00  0.00     0.269 C 
ATOM     72  H   UNL A   1      30.138  27.084  26.021  1.00  0.00     0.163 HD
ATOM     73  O   UNL A   1      29.249  26.297  23.918  1.00  0.00    -0.268 OA
BRANCH  71  74
ATOM     74  C   UNL A   1      31.282  25.145  23.542  1.00  0.00     0.129 A 
ATOM     75  C   UNL A   1      31.133  23.761  23.573  1.00  0.00     0.049 A 
ATOM     76  N   UNL A   1      32.250  25.792  22.847  1.00  0.00    -0.251 NA
ATOM     77  C   UNL A   1      32.089  22.992  22.924  1.00  0.00     0.012 A 
ATOM     78  C   UNL A   1      33.123  25.025  22.176  1.00  0.00     0.113 A 
ATOM     79  C   UNL A   1      33.089  23.642  22.194  1.00  0.00     0.035 A 
BRANCH  77  80
ATOM     80  S   UNL A   1      32.142  21.215  22.906  1.00  0.00    -0.116 SA
BRANCH  80  81
ATOM     81  C   UNL A   1      32.598  20.697  24.581  1.00  0.00     0.175 C 
BRANCH  81  82
ATOM     82  C   UNL A   1      34.061  20.542  24.959  1.00  0.00     0.233 C 
ATOM     83  O   UNL A   1      34.596  19.449  24.733  1.00  0.00    -0.274 OA
ATOM     84  N   UNL A   1      34.824  21.622  25.349  1.00  0.00    -0.337 N 
ATOM     85  C   UNL A   1      34.366  22.846  26.009  1.00  0.00     0.148 C 
ATOM     86  C   UNL A   1      36.288  21.567  25.208  1.00  0.00     0.148 C 
ATOM     87  C   UNL A   1      34.946  24.089  25.333  1.00  0.00     0.181 C 
ATOM     88  C   UNL A   1      36.792  22.846  24.524  1.00  0.00     0.181 C 
ATOM     89  O   UNL A   1      36.374  24.016  25.245  1.00  0.00    -0.378 OA
ENDBRANCH  81  82
ENDBRANCH  80  81
ENDBRANCH  77  80
ENDBRANCH  71  74
ENDBRANCH  69  70
ENDBRANCH   1  69
TORSDOF 16
ENDMDL
MODEL 2
REMARK VINA RESULT:     -10.5      3.513      4.244
REMARK SMILES O=C(NCCCNC(=O)c1cc(SCC(=O)N2CCOCC2)ccn1)c1ccc(-c2c3nc(c(-c4ccc(S(=O)(=O)[O-])cc4)c4ccc([nH]4)c(-c4ccc(S(=O)(=O)[O-])cc4)c4nc(c(-c5ccc(S(=O)(=O)[O-])cc5)c5ccc2[nH]5)C=C4)C=C3)cc1
REMARK SMILES IDX 5 1 4 2 3 3 1 4 2 5 26 7 27 8 85 9 28 10 84 11 29 12 30 13
REMARK SMILES IDX 31 14 78 15 32 16 83 17 77 18 79 19 33 20 82 21 76 22 75 23
REMARK SMILES IDX 34 25 64 26 45 27 63 28 46 29 49 30 62 31 80 32 47 33 48 34
REMARK SMILES IDX 61 36 81 37 50 38 35 39 36 40 44 41 37 42 43 43 38 44 39 45
REMARK SMILES IDX 40 46 41 47 42 48 65 49 66 50 74 51 67 52 73 53 68 54 69 55
REMARK SMILES IDX 70 56 71 57 72 58 51 59 52 60 60 61 53 62 59 63 54 64 55 65
REMARK SMILES IDX 56 66 57 67 58 68 6 69 7 70 8 71 9 73 10 74 11 75 25 76
REMARK SMILES IDX 12 77 24 78 23 79 13 80 14 81 15 82 16 83 17 84 18 85 22 86
REMARK SMILES IDX 19 87 21 88 20 89
REMARK H PARENT 3 6 79 24 49 35 7 72
REMARK Flexibility Score: inf
ROOT
ATOM      1  C   UNL A   1      34.115  28.548  27.204  1.00  0.00     0.042 C 
ENDROOT
BRANCH   1   2
ATOM      2  C   UNL A   1      35.310  29.406  27.580  1.00  0.00     0.118 C 
BRANCH   2   3
ATOM      3  N   UNL A   1      35.293  29.819  28.978  1.00  0.00    -0.352 N 
ATOM      4  O   UNL A   1      36.003  30.018  31.104  1.00  0.00    -0.269 OA
ATOM      5  C   UNL A   1      36.281  29.776  29.930  1.00  0.00     0.251 C 
ATOM      6  H   UNL A   1      34.435  30.187  29.290  1.00  0.00     0.163 HD
BRANCH   5   7
ATOM      7  C   UNL A   1      37.666  29.413  29.561  1.00  0.00     0.039 A 
ATOM      8  C   UNL A   1      38.540  28.857  30.497  1.00  0.00     0.014 A 
ATOM      9  C   UNL A   1      38.090  29.608  28.243  1.00  0.00     0.014 A 
ATOM     10  C   UNL A   1      39.873  28.647  30.164  1.00  0.00     0.010 A 
ATOM     11  C   UNL A   1      39.404  29.303  27.883  1.00  0.00     0.010 A 
ATOM     12  C   UNL A   1      40.315  28.849  28.848  1.00  0.00    -0.014 A 
BRANCH  12  13
ATOM     13  C   UNL A   1      41.712  28.508  28.484  1.00  0.00     0.031 A 
ATOM     14  C   UNL A   1      42.790  29.555  28.471  1.00  0.00     0.074 A 
ATOM     15  C   UNL A   1      41.998  27.235  28.149  1.00  0.00     0.049 A 
ATOM     16  N   UNL A   1      44.051  29.429  28.148  1.00  0.00    -0.248 NA
ATOM     17  C   UNL A   1      42.401  30.919  28.862  1.00  0.00     0.031 C 
ATOM     18  C   UNL A   1      41.029  26.136  28.110  1.00  0.00     0.029 A 
ATOM     19  N   UNL A   1      43.180  26.648  27.779  1.00  0.00    -0.354 N 
ATOM     20  C   UNL A   1      44.603  30.699  28.267  1.00  0.00     0.074 A 
ATOM     21  C   UNL A   1      43.533  31.585  28.675  1.00  0.00     0.031 C 
ATOM     22  C   UNL A   1      41.658  25.006  27.761  1.00  0.00     0.029 A 
ATOM     23  C   UNL A   1      43.058  25.311  27.489  1.00  0.00     0.049 A 
ATOM     24  H   UNL A   1      44.033  27.137  27.727  1.00  0.00     0.167 HD
ATOM     25  C   UNL A   1      45.883  31.089  28.053  1.00  0.00     0.031 A 
ATOM     26  C   UNL A   1      43.960  24.427  27.024  1.00  0.00     0.031 A 
ATOM     27  C   UNL A   1      46.939  30.199  27.644  1.00  0.00     0.049 A 
ATOM     28  C   UNL A   1      45.367  24.882  26.778  1.00  0.00     0.074 A 
ATOM     29  C   UNL A   1      48.279  30.487  27.445  1.00  0.00     0.029 A 
ATOM     30  N   UNL A   1      46.773  28.852  27.357  1.00  0.00    -0.354 N 
ATOM     31  N   UNL A   1      45.881  26.077  26.945  1.00  0.00    -0.248 NA
ATOM     32  C   UNL A   1      46.315  23.875  26.287  1.00  0.00     0.031 C 
ATOM     33  C   UNL A   1      48.911  29.326  26.989  1.00  0.00     0.029 A 
ATOM     34  C   UNL A   1      47.979  28.301  26.955  1.00  0.00     0.049 A 
ATOM     35  H   UNL A   1      45.924  28.360  27.429  1.00  0.00     0.167 HD
ATOM     36  C   UNL A   1      47.218  25.965  26.588  1.00  0.00     0.074 A 
ATOM     37  C   UNL A   1      47.436  24.582  26.212  1.00  0.00     0.031 C 
ATOM     38  C   UNL A   1      48.177  26.923  26.575  1.00  0.00     0.031 A 
BRANCH  25  39
ATOM     39  C   UNL A   1      46.199  32.552  28.218  1.00  0.00    -0.014 A 
ATOM     40  C   UNL A   1      46.610  33.080  29.455  1.00  0.00     0.010 A 
ATOM     41  C   UNL A   1      46.093  33.414  27.110  1.00  0.00     0.010 A 
ATOM     42  C   UNL A   1      46.852  34.449  29.596  1.00  0.00     0.020 A 
ATOM     43  C   UNL A   1      46.360  34.781  27.242  1.00  0.00     0.020 A 
ATOM     44  C   UNL A   1      46.714  35.293  28.490  1.00  0.00     0.054 A 
BRANCH  44  45
ATOM     45  S   UNL A   1      47.012  37.070  28.704  1.00  0.00     0.124 S 
ATOM     46  O   UNL A   1      45.731  37.527  29.236  1.00  0.00    -0.237 OA
ATOM     47  O   UNL A   1      48.129  37.100  29.644  1.00  0.00    -0.237 OA
ATOM     48  O   UNL A   1      47.326  37.534  27.354  1.00  0.00    -0.744 OA
ENDBRANCH  44  45
ENDBRANCH  25  39
BRANCH  26  49
ATOM     49  C   UNL A   1      43.523  23.034  26.744  1.00  0.00    -0.014 A 
ATOM     50  C   UNL A   1      43.889  22.393  25.549  1.00  0.00     0.010 A 
ATOM     51  C   UNL A   1      42.816  22.311  27.723  1.00  0.00     0.010 A 
ATOM     52  C   UNL A   1      43.564  21.049  25.343  1.00  0.00     0.020 A 
ATOM     53  C   UNL A   1      42.511  20.962  27.531  1.00  0.00     0.020 A 
ATOM     54  C   UNL A   1      42.885  20.340  26.339  1.00  0.00     0.054 A 
BRANCH  54  55
ATOM     55  S   UNL A   1      42.564  18.571  26.094  1.00  0.00     0.124 S 
ATOM     56  O   UNL A   1      41.140  18.562  25.776  1.00  0.00    -0.237 OA
ATOM     57  O   UNL A   1      43.462  18.237  24.990  1.00  0.00    -0.237 OA
ATOM     58  O   UNL A   1      42.925  17.977  27.380  1.00  0.00    -0.744 OA
ENDBRANCH  54  55
ENDBRANCH  26  49
BRANCH  38  59
ATOM     59  C   UNL A   1      49.561  26.508  26.156  1.00  0.00    -0.014 A 
ATOM     60  C   UNL A   1      50.032  26.768  24.858  1.00  0.00     0.010 A 
ATOM     61  C   UNL A   1      50.424  25.921  27.099  1.00  0.00     0.010 A 
ATOM     62  C   UNL A   1      51.342  26.433  24.505  1.00  0.00     0.020 A 
ATOM     63  C   UNL A   1      51.741  25.607  26.756  1.00  0.00     0.020 A 
ATOM     64  C   UNL A   1      52.189  25.858  25.458  1.00  0.00     0.054 A 
BRANCH  64  65
ATOM     65  S   UNL A   1      53.907  25.499  24.998  1.00  0.00     0.124 S 
ATOM     66  O   UNL A   1      54.654  26.222  26.024  1.00  0.00    -0.237 OA
ATOM     67  O   UNL A   1      53.965  24.042  25.086  1.00  0.00    -0.237 OA
ATOM     68  O   UNL A   1      54.023  26.040  23.645  1.00  0.00    -0.744 OA
ENDBRANCH  64  65
ENDBRANCH  38  59
ENDBRANCH  12  13
ENDBRANCH   5   7
ENDBRANCH   2   3
ENDBRANCH   1   2
BRANCH   1  69
ATOM     69  C   UNL A   1      33.069  29.279  26.383  1.00  0.00     0.118 C 
BRANCH  69  70
ATOM     70  N   UNL A   1      33.504  29.594  25.031  1.00  0.00    -0.351 N 
ATOM     71  C   UNL A   1      33.245  28.920  23.859  1.00  0.00     0.269 C 
ATOM     72  H   UNL A   1      34.061  30.401  24.943  1.00  0.00     0.163 HD
ATOM     73  O   UNL A   1      33.716  29.337  22.803  1.00  0.00    -0.268 OA
BRANCH  71  74
ATOM     74  C   UNL A   1      32.403  27.692  23.883  1.00  0.00     0.129 A 
ATOM     75  C   UNL A   1      32.981  26.439  23.695  1.00  0.00     0.049 A 
ATOM     76  N   UNL A   1      31.075  27.900  24.059  1.00  0.00    -0.251 NA
ATOM     77  C   UNL A   1      32.134  25.344  23.594  1.00  0.00     0.012 A 
ATOM     78  C   UNL A   1      30.285  26.815  24.020  1.00  0.00     0.113 A 
ATOM     79  C   UNL A   1      30.761  25.538  23.783  1.00  0.00     0.035 A 
BRANCH  77  80
ATOM     80  S   UNL A   1      32.647  23.672  23.272  1.00  0.00    -0.116 SA
BRANCH  80  81
ATOM     81  C   UNL A   1      32.686  22.828  24.875  1.00  0.00     0.175 C 
BRANCH  81  82
ATOM     82  C   UNL A   1      33.669  21.695  25.115  1.00  0.00     0.233 C 
ATOM     83  O   UNL A   1      33.313  20.553  24.799  1.00  0.00    -0.274 OA
ATOM     84  N   UNL A   1      34.976  21.939  25.480  1.00  0.00    -0.337 N 
ATOM     85  C   UNL A   1      35.494  23.087  26.227  1.00  0.00     0.148 C 
ATOM     86  C   UNL A   1      36.008  20.926  25.209  1.00  0.00     0.148 C 
ATOM     87  C   UNL A   1      36.738  23.669  25.554  1.00  0.00     0.181 C 
ATOM     88  C   UNL A   1      37.220  21.587  24.536  1.00  0.00     0.181 C 
ATOM     89  O   UNL A   1      37.733  22.663  25.338  1.00  0.00    -0.378 OA
ENDBRANCH  81  82
ENDBRANCH  80  81
ENDBRANCH  77  80
ENDBRANCH  71  74
ENDBRANCH  69  70
ENDBRANCH   1  69
TORSDOF 16
ENDMDL
MODEL 3
REMARK VINA RESULT:     -10.4      4.267     10.250
REMARK SMILES O=C(NCCCNC(=O)c1cc(SCC(=O)N2CCOCC2)ccn1)c1ccc(-c2c3nc(c(-c4ccc(S(=O)(=O)[O-])cc4)c4ccc([nH]4)c(-c4ccc(S(=O)(=O)[O-])cc4)c4nc(c(-c5ccc(S(=O)(=O)[O-])cc5)c5ccc2[nH]5)C=C4)C=C3)cc1
REMARK SMILES IDX 5 1 4 2 3 3 1 4 2 5 26 7 27 8 85 9 28 10 84 11 29 12 30 13
REMARK SMILES IDX 31 14 78 15 32 16 83 17 77 18 79 19 33 20 82 21 76 22 75 23
REMARK SMILES IDX 34 25 64 26 45 27 63 28 46 29 49 30 62 31 80 32 47 33 48 34
REMARK SMILES IDX 61 36 81 37 50 38 35 39 36 40 44 41 37 42 43 43 38 44 39 45
REMARK SMILES IDX 40 46 41 47 42 48 65 49 66 50 74 51 67 52 73 53 68 54 69 55
REMARK SMILES IDX 70 56 71 57 72 58 51 59 52 60 60 61 53 62 59 63 54 64 55 65
REMARK SMILES IDX 56 66 57 67 58 68 6 69 7 70 8 71 9 73 10 74 11 75 25 76
REMARK SMILES IDX 12 77 24 78 23 79 13 80 14 81 15 82 16 83 17 84 18 85 22 86
REMARK SMILES IDX 19 87 21 88 20 89
REMARK H PARENT 3 6 79 24 49 35 7 72
REMARK Flexibility Score: inf
ROOT
ATOM      1  C   UNL A   1      37.439  23.083  26.036  1.00  0.00     0.042 C 
ENDROOT
BRANCH   1   2
ATOM      2  C   UNL A   1      38.272  24.277  26.470  1.00  0.00     0.118 C 
BRANCH   2   3
ATOM      3  N   UNL A   1      39.675  24.156  26.094  1.00  0.00    -0.352 N 
ATOM      4  O   UNL A   1      41.843  24.729  25.910  1.00  0.00    -0.269 OA
ATOM      5  C   UNL A   1      40.767  24.890  26.484  1.00  0.00     0.251 C 
ATOM      6  H   UNL A   1      39.871  23.431  25.458  1.00  0.00     0.163 HD
BRANCH   5   7
ATOM      7  C   UNL A   1      40.652  25.894  27.564  1.00  0.00     0.039 A 
ATOM      8  C   UNL A   1      41.477  27.019  27.594  1.00  0.00     0.014 A 
ATOM      9  C   UNL A   1      39.679  25.717  28.552  1.00  0.00     0.014 A 
ATOM     10  C   UNL A   1      41.442  27.878  28.686  1.00  0.00     0.010 A 
ATOM     11  C   UNL A   1      39.577  26.635  29.599  1.00  0.00     0.010 A 
ATOM     12  C   UNL A   1      40.478  27.707  29.691  1.00  0.00    -0.014 A 
BRANCH  12  13
ATOM     13  C   UNL A   1      40.379  28.700  30.788  1.00  0.00     0.031 A 
ATOM     14  C   UNL A   1      41.258  28.607  32.003  1.00  0.00     0.074 A 
ATOM     15  C   UNL A   1      39.471  29.689  30.682  1.00  0.00     0.049 A 
ATOM     16  N   UNL A   1      41.277  29.374  33.063  1.00  0.00    -0.248 NA
ATOM     17  C   UNL A   1      42.234  27.507  32.039  1.00  0.00     0.031 C 
ATOM     18  C   UNL A   1      38.551  29.871  29.555  1.00  0.00     0.029 A 
ATOM     19  N   UNL A   1      39.169  30.725  31.527  1.00  0.00    -0.354 N 
ATOM     20  C   UNL A   1      42.243  28.836  33.905  1.00  0.00     0.074 A 
ATOM     21  C   UNL A   1      42.775  27.666  33.240  1.00  0.00     0.031 C 
ATOM     22  C   UNL A   1      37.806  30.964  29.767  1.00  0.00     0.029 A 
ATOM     23  C   UNL A   1      38.148  31.523  31.070  1.00  0.00     0.049 A 
ATOM     24  H   UNL A   1      39.638  30.883  32.378  1.00  0.00     0.167 HD
ATOM     25  C   UNL A   1      42.646  29.279  35.121  1.00  0.00     0.031 A 
ATOM     26  C   UNL A   1      37.527  32.570  31.643  1.00  0.00     0.031 A 
ATOM     27  C   UNL A   1      42.107  30.443  35.775  1.00  0.00     0.049 A 
ATOM     28  C   UNL A   1      37.977  33.034  32.995  1.00  0.00     0.074 A 
ATOM     29  C   UNL A   1      42.480  31.000  36.986  1.00  0.00     0.029 A 
ATOM     30  N   UNL A   1      41.071  31.221  35.279  1.00  0.00    -0.354 N 
ATOM     31  N   UNL A   1      38.928  32.541  33.754  1.00  0.00    -0.248 NA
ATOM     32  C   UNL A   1      37.279  34.190  33.569  1.00  0.00     0.031 C 
ATOM     33  C   UNL A   1      41.635  32.083  37.247  1.00  0.00     0.029 A 
ATOM     34  C   UNL A   1      40.771  32.236  36.173  1.00  0.00     0.049 A 
ATOM     35  H   UNL A   1      40.617  31.074  34.419  1.00  0.00     0.167 HD
ATOM     36  C   UNL A   1      38.949  33.335  34.893  1.00  0.00     0.074 A 
ATOM     37  C   UNL A   1      37.927  34.348  34.716  1.00  0.00     0.031 C 
ATOM     38  C   UNL A   1      39.745  33.233  35.986  1.00  0.00     0.031 A 
BRANCH  25  39
ATOM     39  C   UNL A   1      43.694  28.470  35.839  1.00  0.00    -0.014 A 
ATOM     40  C   UNL A   1      45.066  28.737  35.678  1.00  0.00     0.010 A 
ATOM     41  C   UNL A   1      43.299  27.430  36.702  1.00  0.00     0.010 A 
ATOM     42  C   UNL A   1      46.022  27.944  36.318  1.00  0.00     0.020 A 
ATOM     43  C   UNL A   1      44.252  26.651  37.364  1.00  0.00     0.020 A 
ATOM     44  C   UNL A   1      45.609  26.897  37.148  1.00  0.00     0.054 A 
BRANCH  44  45
ATOM     45  S   UNL A   1      46.869  25.867  37.950  1.00  0.00     0.124 S 
ATOM     46  O   UNL A   1      47.865  26.862  38.342  1.00  0.00    -0.237 OA
ATOM     47  O   UNL A   1      46.131  25.252  39.051  1.00  0.00    -0.237 OA
ATOM     48  O   UNL A   1      47.289  24.947  36.896  1.00  0.00    -0.744 OA
ENDBRANCH  44  45
ENDBRANCH  25  39
BRANCH  26  49
ATOM     49  C   UNL A   1      36.397  33.217  30.925  1.00  0.00    -0.014 A 
ATOM     50  C   UNL A   1      35.106  33.227  31.479  1.00  0.00     0.010 A 
ATOM     51  C   UNL A   1      36.635  33.911  29.724  1.00  0.00     0.010 A 
ATOM     52  C   UNL A   1      34.075  33.929  30.848  1.00  0.00     0.020 A 
ATOM     53  C   UNL A   1      35.613  34.634  29.104  1.00  0.00     0.020 A 
ATOM     54  C   UNL A   1      34.338  34.635  29.670  1.00  0.00     0.054 A 
BRANCH  54  55
ATOM     55  S   UNL A   1      33.011  35.623  28.924  1.00  0.00     0.124 S 
ATOM     56  O   UNL A   1      32.338  34.640  28.081  1.00  0.00    -0.237 OA
ATOM     57  O   UNL A   1      32.258  36.075  30.093  1.00  0.00    -0.237 OA
ATOM     58  O   UNL A   1      33.729  36.677  28.211  1.00  0.00    -0.744 OA
ENDBRANCH  54  55
ENDBRANCH  26  49
BRANCH  38  59
ATOM     59  C   UNL A   1      39.558  34.253  37.074  1.00  0.00    -0.014 A 
ATOM     60  C   UNL A   1      38.830  33.947  38.236  1.00  0.00     0.010 A 
ATOM     61  C   UNL A   1      40.185  35.508  36.963  1.00  0.00     0.010 A 
ATOM     62  C   UNL A   1      38.721  34.886  39.266  1.00  0.00     0.020 A 
ATOM     63  C   UNL A   1      40.095  36.440  37.999  1.00  0.00     0.020 A 
ATOM     64  C   UNL A   1      39.357  36.124  39.142  1.00  0.00     0.054 A 
BRANCH  64  65
ATOM     65  S   UNL A   1      39.261  37.299  40.521  1.00  0.00     0.124 S 
ATOM     66  O   UNL A   1      38.357  38.317  39.992  1.00  0.00    -0.237 OA
ATOM     67  O   UNL A   1      38.720  36.480  41.604  1.00  0.00    -0.237 OA
ATOM     68  O   UNL A   1      40.645  37.729  40.707  1.00  0.00    -0.744 OA
ENDBRANCH  64  65
ENDBRANCH  38  59
ENDBRANCH  12  13
ENDBRANCH   5   7
ENDBRANCH   2   3
ENDBRANCH   1   2
BRANCH   1  69
ATOM     69  C   UNL A   1      36.025  23.441  25.617  1.00  0.00     0.118 C 
BRANCH  69  70
ATOM     70  N   UNL A   1      35.819  23.412  24.177  1.00  0.00    -0.351 N 
ATOM     71  C   UNL A   1      34.637  23.373  23.473  1.00  0.00     0.269 C 
ATOM     72  H   UNL A   1      36.639  23.422  23.632  1.00  0.00     0.163 HD
ATOM     73  O   UNL A   1      34.664  23.341  22.244  1.00  0.00    -0.268 OA
BRANCH  71  74
ATOM     74  C   UNL A   1      33.340  23.366  24.205  1.00  0.00     0.129 A 
ATOM     75  C   UNL A   1      32.572  24.525  24.288  1.00  0.00     0.049 A 
ATOM     76  N   UNL A   1      33.008  22.189  24.791  1.00  0.00    -0.251 NA
ATOM     77  C   UNL A   1      31.442  24.497  25.093  1.00  0.00     0.012 A 
ATOM     78  C   UNL A   1      31.875  22.173  25.511  1.00  0.00     0.113 A 
ATOM     79  C   UNL A   1      31.079  23.289  25.697  1.00  0.00     0.035 A 
BRANCH  77  80
ATOM     80  S   UNL A   1      30.369  25.879  25.409  1.00  0.00    -0.116 SA
BRANCH  80  81
ATOM     81  C   UNL A   1      30.550  27.004  24.001  1.00  0.00     0.175 C 
BRANCH  81  82
ATOM     82  C   UNL A   1      30.938  28.455  24.229  1.00  0.00     0.233 C 
ATOM     83  O   UNL A   1      30.168  29.325  23.804  1.00  0.00    -0.274 OA
ATOM     84  N   UNL A   1      31.994  28.800  25.047  1.00  0.00    -0.337 N 
ATOM     85  C   UNL A   1      33.194  28.012  25.333  1.00  0.00     0.148 C 
ATOM     86  C   UNL A   1      32.034  30.138  25.657  1.00  0.00     0.148 C 
ATOM     87  C   UNL A   1      33.486  27.975  26.834  1.00  0.00     0.181 C 
ATOM     88  C   UNL A   1      32.331  30.016  27.159  1.00  0.00     0.181 C 
ATOM     89  O   UNL A   1      33.553  29.294  27.385  1.00  0.00    -0.378 OA
ENDBRANCH  81  82
ENDBRANCH  80  81
ENDBRANCH  77  80
ENDBRANCH  71  74
ENDBRANCH  69  70
ENDBRANCH   1  69
TORSDOF 16
ENDMDL
