MODEL 1
REMARK VINA RESULT:     -12.0      0.000      0.000
REMARK SMILES CC(C)c1noc(C[N@@H+]2[C@@H](C(=O)NCCCNC(=O)c3ccc(-c4c5nc(c(-c6ccc(S(=O)(=O)[O-])cc6)c6ccc([nH]6)c(-c6ccc(S(=O)(=O)[O-])cc6)c6nc(c(-c7ccc(S(=O)(=O)[O-])cc7)c7ccc4[nH]7)C=C6)C=C5)cc3)C[C@H]3CCCC[C@@H]32)n1
REMARK SMILES IDX 15 1 14 2 13 3 11 4 12 5 10 7 9 8 86 9 80 11 81 12 85 13
REMARK SMILES IDX 82 14 84 15 83 16 8 17 7 18 4 19 5 20 87 21 6 22 2 23 1 24
REMARK SMILES IDX 3 25 16 26 17 27 18 28 19 30 20 31 21 32 79 33 22 34 78 35
REMARK SMILES IDX 23 36 24 37 25 38 72 39 26 40 77 41 71 42 73 43 27 44 76 45
REMARK SMILES IDX 70 46 69 47 28 49 58 50 39 51 57 52 40 53 43 54 56 55 74 56
REMARK SMILES IDX 41 57 42 58 55 60 75 61 44 62 29 63 30 64 38 65 31 66 37 67
REMARK SMILES IDX 32 68 33 69 34 70 35 71 36 72 59 73 60 74 68 75 61 76 67 77
REMARK SMILES IDX 62 78 63 79 64 80 65 81 66 82 45 83 46 84 54 85 47 86 53 87
REMARK SMILES IDX 48 88 49 89 50 90 51 91 52 92
REMARK H PARENT 13 6 9 10 17 29 73 48 43 59
REMARK Flexibility Score: inf
ROOT
ATOM      1  C   UNL A   1      37.964  20.449  25.194  1.00  0.00     0.042 C 
ENDROOT
BRANCH   1   2
ATOM      2  C   UNL A   1      36.876  21.487  25.438  1.00  0.00     0.118 C 
BRANCH   2   3
ATOM      3  N   UNL A   1      36.642  22.316  24.268  1.00  0.00    -0.351 N 
ATOM      4  C   UNL A   1      35.458  22.621  23.649  1.00  0.00     0.278 C 
ATOM      5  O   UNL A   1      35.498  23.346  22.655  1.00  0.00    -0.268 OA
ATOM      6  H   UNL A   1      37.446  22.714  23.864  1.00  0.00     0.163 HD
BRANCH   4   7
ATOM      7  C   UNL A   1      34.155  22.078  24.275  1.00  0.00     0.275 C 
ATOM      8  N   UNL A   1      32.991  22.285  23.366  1.00  0.00    -0.314 N 
ATOM      9  C   UNL A   1      32.291  23.469  23.886  1.00  0.00     0.188 C 
ATOM     10  H   UNL A   1      33.265  22.482  22.403  1.00  0.00     0.349 HD
ATOM     11  C   UNL A   1      33.864  22.868  25.568  1.00  0.00     0.085 C 
ATOM     12  C   UNL A   1      32.436  23.343  25.399  1.00  0.00     0.054 C 
ATOM     13  C   UNL A   1      30.847  23.779  23.489  1.00  0.00     0.065 C 
ATOM     14  C   UNL A   1      32.045  24.633  26.096  1.00  0.00     0.010 C 
ATOM     15  C   UNL A   1      30.314  24.996  24.262  1.00  0.00     0.006 C 
ATOM     16  C   UNL A   1      30.577  24.929  25.772  1.00  0.00     0.001 C 
BRANCH   8  17
ATOM     17  C   UNL A   1      32.200  21.058  23.140  1.00  0.00     0.364 C 
BRANCH  17  18
ATOM     18  C   UNL A   1      32.581  19.848  23.932  1.00  0.00     0.281 A 
ATOM     19  C   UNL A   1      33.044  17.928  24.618  1.00  0.00     0.174 A 
ATOM     20  N   UNL A   1      32.424  18.483  25.669  1.00  0.00    -0.062 NA
ATOM     21  N   UNL A   1      33.190  18.751  23.534  1.00  0.00    -0.191 NA
ATOM     22  O   UNL A   1      32.130  19.774  25.219  1.00  0.00    -0.333 OA
BRANCH  19  23
ATOM     23  C   UNL A   1      33.484  16.503  24.576  1.00  0.00     0.055 C 
ATOM     24  C   UNL A   1      34.941  16.349  25.003  1.00  0.00     0.016 C 
ATOM     25  C   UNL A   1      32.572  15.596  25.404  1.00  0.00     0.016 C 
ENDBRANCH  19  23
ENDBRANCH  17  18
ENDBRANCH   8  17
ENDBRANCH   4   7
ENDBRANCH   2   3
ENDBRANCH   1   2
BRANCH   1  26
ATOM     26  C   UNL A   1      39.290  20.776  25.874  1.00  0.00     0.118 C 
BRANCH  26  27
ATOM     27  N   UNL A   1      40.177  19.623  25.962  1.00  0.00    -0.352 N 
ATOM     28  C   UNL A   1      41.541  19.564  26.119  1.00  0.00     0.251 C 
ATOM     29  H   UNL A   1      39.729  18.749  25.899  1.00  0.00     0.163 HD
ATOM     30  O   UNL A   1      42.118  18.487  25.987  1.00  0.00    -0.269 OA
BRANCH  28  31
ATOM     31  C   UNL A   1      42.315  20.788  26.415  1.00  0.00     0.039 A 
ATOM     32  C   UNL A   1      42.846  21.524  25.350  1.00  0.00     0.014 A 
ATOM     33  C   UNL A   1      42.514  21.216  27.729  1.00  0.00     0.014 A 
ATOM     34  C   UNL A   1      43.492  22.737  25.601  1.00  0.00     0.010 A 
ATOM     35  C   UNL A   1      43.094  22.460  27.972  1.00  0.00     0.010 A 
ATOM     36  C   UNL A   1      43.569  23.242  26.909  1.00  0.00    -0.014 A 
BRANCH  36  37
ATOM     37  C   UNL A   1      44.085  24.609  27.181  1.00  0.00     0.031 A 
ATOM     38  C   UNL A   1      43.146  25.722  27.554  1.00  0.00     0.074 A 
ATOM     39  C   UNL A   1      45.398  24.863  27.004  1.00  0.00     0.049 A 
ATOM     40  N   UNL A   1      43.405  26.994  27.723  1.00  0.00    -0.248 NA
ATOM     41  C   UNL A   1      41.731  25.366  27.747  1.00  0.00     0.031 C 
ATOM     42  C   UNL A   1      46.407  23.875  26.610  1.00  0.00     0.029 A 
ATOM     43  N   UNL A   1      46.110  26.031  27.117  1.00  0.00    -0.354 N 
ATOM     44  C   UNL A   1      42.190  27.590  28.035  1.00  0.00     0.074 A 
ATOM     45  C   UNL A   1      41.185  26.549  27.988  1.00  0.00     0.031 C 
ATOM     46  C   UNL A   1      47.604  24.476  26.525  1.00  0.00     0.029 A 
ATOM     47  C   UNL A   1      47.444  25.898  26.808  1.00  0.00     0.049 A 
ATOM     48  H   UNL A   1      45.703  26.884  27.393  1.00  0.00     0.167 HD
ATOM     49  C   UNL A   1      41.936  28.883  28.349  1.00  0.00     0.031 A 
ATOM     50  C   UNL A   1      48.425  26.818  26.731  1.00  0.00     0.031 A 
ATOM     51  C   UNL A   1      42.938  29.917  28.389  1.00  0.00     0.049 A 
ATOM     52  C   UNL A   1      48.107  28.256  27.036  1.00  0.00     0.074 A 
ATOM     53  C   UNL A   1      42.783  31.249  28.735  1.00  0.00     0.029 A 
ATOM     54  N   UNL A   1      44.274  29.742  28.068  1.00  0.00    -0.354 N 
ATOM     55  N   UNL A   1      46.961  28.788  27.391  1.00  0.00    -0.248 NA
ATOM     56  C   UNL A   1      49.212  29.218  26.933  1.00  0.00     0.031 C 
ATOM     57  C   UNL A   1      44.014  31.891  28.567  1.00  0.00     0.029 A 
ATOM     58  C   UNL A   1      44.950  30.946  28.177  1.00  0.00     0.049 A 
ATOM     59  H   UNL A   1      44.684  28.886  27.803  1.00  0.00     0.167 HD
ATOM     60  C   UNL A   1      47.214  30.143  27.570  1.00  0.00     0.074 A 
ATOM     61  C   UNL A   1      48.625  30.345  27.312  1.00  0.00     0.031 C 
ATOM     62  C   UNL A   1      46.354  31.134  27.912  1.00  0.00     0.031 A 
BRANCH  49  63
ATOM     63  C   UNL A   1      40.514  29.260  28.676  1.00  0.00    -0.014 A 
ATOM     64  C   UNL A   1      39.545  29.370  27.662  1.00  0.00     0.010 A 
ATOM     65  C   UNL A   1      40.125  29.436  30.016  1.00  0.00     0.010 A 
ATOM     66  C   UNL A   1      38.219  29.677  27.981  1.00  0.00     0.020 A 
ATOM     67  C   UNL A   1      38.793  29.715  30.341  1.00  0.00     0.020 A 
ATOM     68  C   UNL A   1      37.851  29.845  29.319  1.00  0.00     0.054 A 
BRANCH  68  69
ATOM     69  S   UNL A   1      36.114  30.197  29.703  1.00  0.00     0.124 S 
ATOM     70  O   UNL A   1      35.426  29.594  28.564  1.00  0.00    -0.237 OA
ATOM     71  O   UNL A   1      35.926  29.516  30.982  1.00  0.00    -0.237 OA
ATOM     72  O   UNL A   1      36.059  31.654  29.762  1.00  0.00    -0.744 OA
ENDBRANCH  68  69
ENDBRANCH  49  63
BRANCH  50  73
ATOM     73  C   UNL A   1      49.799  26.413  26.322  1.00  0.00    -0.014 A 
ATOM     74  C   UNL A   1      50.680  25.825  27.246  1.00  0.00     0.010 A 
ATOM     75  C   UNL A   1      50.238  26.627  25.002  1.00  0.00     0.010 A 
ATOM     76  C   UNL A   1      51.983  25.485  26.866  1.00  0.00     0.020 A 
ATOM     77  C   UNL A   1      51.527  26.260  24.609  1.00  0.00     0.020 A 
ATOM     78  C   UNL A   1      52.397  25.705  25.549  1.00  0.00     0.054 A 
BRANCH  78  79
ATOM     79  S   UNL A   1      54.081  25.231  25.070  1.00  0.00     0.124 S 
ATOM     80  O   UNL A   1      54.250  25.945  23.809  1.00  0.00    -0.237 OA
ATOM     81  O   UNL A   1      54.879  25.726  26.189  1.00  0.00    -0.237 OA
ATOM     82  O   UNL A   1      54.008  23.776  24.964  1.00  0.00    -0.744 OA
ENDBRANCH  78  79
ENDBRANCH  50  73
BRANCH  62  83
ATOM     83  C   UNL A   1      46.917  32.524  28.044  1.00  0.00    -0.014 A 
ATOM     84  C   UNL A   1      46.930  33.409  26.952  1.00  0.00     0.010 A 
ATOM     85  C   UNL A   1      47.389  32.971  29.293  1.00  0.00     0.010 A 
ATOM     86  C   UNL A   1      47.431  34.705  27.098  1.00  0.00     0.020 A 
ATOM     87  C   UNL A   1      47.863  34.276  29.450  1.00  0.00     0.020 A 
ATOM     88  C   UNL A   1      47.892  35.131  28.347  1.00  0.00     0.054 A 
BRANCH  88  89
ATOM     89  S   UNL A   1      48.490  36.835  28.519  1.00  0.00     0.124 S 
ATOM     90  O   UNL A   1      47.275  37.609  28.282  1.00  0.00    -0.237 OA
ATOM     91  O   UNL A   1      48.993  36.860  29.891  1.00  0.00    -0.237 OA
ATOM     92  O   UNL A   1      49.514  36.950  27.483  1.00  0.00    -0.744 OA
ENDBRANCH  88  89
ENDBRANCH  62  83
ENDBRANCH  36  37
ENDBRANCH  28  31
ENDBRANCH  26  27
ENDBRANCH   1  26
TORSDOF 16
ENDMDL
MODEL 2
REMARK VINA RESULT:     -11.9      3.138      9.116
REMARK SMILES CC(C)c1noc(C[N@@H+]2[C@@H](C(=O)NCCCNC(=O)c3ccc(-c4c5nc(c(-c6ccc(S(=O)(=O)[O-])cc6)c6ccc([nH]6)c(-c6ccc(S(=O)(=O)[O-])cc6)c6nc(c(-c7ccc(S(=O)(=O)[O-])cc7)c7ccc4[nH]7)C=C6)C=C5)cc3)C[C@H]3CCCC[C@@H]32)n1
REMARK SMILES IDX 15 1 14 2 13 3 11 4 12 5 10 7 9 8 86 9 80 11 81 12 85 13
REMARK SMILES IDX 82 14 84 15 83 16 8 17 7 18 4 19 5 20 87 21 6 22 2 23 1 24
REMARK SMILES IDX 3 25 16 26 17 27 18 28 19 30 20 31 21 32 79 33 22 34 78 35
REMARK SMILES IDX 23 36 24 37 25 38 72 39 26 40 77 41 71 42 73 43 27 44 76 45
REMARK SMILES IDX 70 46 69 47 28 49 58 50 39 51 57 52 40 53 43 54 56 55 74 56
REMARK SMILES IDX 41 57 42 58 55 60 75 61 44 62 29 63 30 64 38 65 31 66 37 67
REMARK SMILES IDX 32 68 33 69 34 70 35 71 36 72 59 73 60 74 68 75 61 76 67 77
REMARK SMILES IDX 62 78 63 79 64 80 65 81 66 82 45 83 46 84 54 85 47 86 53 87
REMARK SMILES IDX 48 88 49 89 50 90 51 91 52 92
REMARK H PARENT 13 6 9 10 17 29 73 48 43 59
REMARK Flexibility Score: inf
ROOT
ATOM      1  C   UNL A   1      34.522  29.793  26.623  1.00  0.00     0.042 C 
ENDROOT
BRANCH   1   2
ATOM      2  C   UNL A   1      33.009  29.926  26.501  1.00  0.00     0.118 C 
BRANCH   2   3
ATOM      3  N   UNL A   1      32.317  28.749  26.999  1.00  0.00    -0.351 N 
ATOM      4  C   UNL A   1      32.061  27.564  26.360  1.00  0.00     0.278 C 
ATOM      5  O   UNL A   1      31.444  26.697  26.980  1.00  0.00    -0.268 OA
ATOM      6  H   UNL A   1      31.987  28.811  27.924  1.00  0.00     0.163 HD
BRANCH   4   7
ATOM      7  C   UNL A   1      32.611  27.382  24.928  1.00  0.00     0.275 C 
ATOM      8  N   UNL A   1      31.670  26.590  24.084  1.00  0.00    -0.314 N 
ATOM      9  C   UNL A   1      32.221  25.227  24.054  1.00  0.00     0.188 C 
ATOM     10  H   UNL A   1      30.729  26.539  24.474  1.00  0.00     0.349 HD
ATOM     11  C   UNL A   1      33.928  26.585  25.006  1.00  0.00     0.085 C 
ATOM     12  C   UNL A   1      33.730  25.444  24.029  1.00  0.00     0.054 C 
ATOM     13  C   UNL A   1      31.786  24.216  22.992  1.00  0.00     0.065 C 
ATOM     14  C   UNL A   1      34.475  24.152  24.307  1.00  0.00     0.010 C 
ATOM     15  C   UNL A   1      32.597  22.916  23.108  1.00  0.00     0.006 C 
ATOM     16  C   UNL A   1      34.111  23.142  23.214  1.00  0.00     0.001 C 
BRANCH   8  17
ATOM     17  C   UNL A   1      31.355  27.238  22.794  1.00  0.00     0.364 C 
BRANCH  17  18
ATOM     18  C   UNL A   1      30.024  27.911  22.679  1.00  0.00     0.281 A 
ATOM     19  C   UNL A   1      28.429  29.256  22.544  1.00  0.00     0.174 A 
ATOM     20  N   UNL A   1      27.915  28.248  23.263  1.00  0.00    -0.062 NA
ATOM     21  N   UNL A   1      29.722  29.070  22.136  1.00  0.00    -0.191 NA
ATOM     22  O   UNL A   1      28.974  27.338  23.339  1.00  0.00    -0.333 OA
BRANCH  19  23
ATOM     23  C   UNL A   1      27.698  30.525  22.259  1.00  0.00     0.055 C 
ATOM     24  C   UNL A   1      27.576  31.399  23.504  1.00  0.00     0.016 C 
ATOM     25  C   UNL A   1      28.331  31.303  21.104  1.00  0.00     0.016 C 
ENDBRANCH  19  23
ENDBRANCH  17  18
ENDBRANCH   8  17
ENDBRANCH   4   7
ENDBRANCH   2   3
ENDBRANCH   1   2
BRANCH   1  26
ATOM     26  C   UNL A   1      34.991  29.327  27.998  1.00  0.00     0.118 C 
BRANCH  26  27
ATOM     27  N   UNL A   1      35.214  30.433  28.921  1.00  0.00    -0.352 N 
ATOM     28  C   UNL A   1      36.344  30.795  29.614  1.00  0.00     0.251 C 
ATOM     29  H   UNL A   1      34.432  31.012  29.071  1.00  0.00     0.163 HD
ATOM     30  O   UNL A   1      36.268  31.660  30.484  1.00  0.00    -0.269 OA
BRANCH  28  31
ATOM     31  C   UNL A   1      37.636  30.130  29.341  1.00  0.00     0.039 A 
ATOM     32  C   UNL A   1      38.069  30.018  28.016  1.00  0.00     0.014 A 
ATOM     33  C   UNL A   1      38.421  29.624  30.379  1.00  0.00     0.014 A 
ATOM     34  C   UNL A   1      39.332  29.487  27.744  1.00  0.00     0.010 A 
ATOM     35  C   UNL A   1      39.708  29.161  30.112  1.00  0.00     0.010 A 
ATOM     36  C   UNL A   1      40.184  29.108  28.794  1.00  0.00    -0.014 A 
BRANCH  36  37
ATOM     37  C   UNL A   1      41.594  28.714  28.541  1.00  0.00     0.031 A 
ATOM     38  C   UNL A   1      42.686  29.748  28.511  1.00  0.00     0.074 A 
ATOM     39  C   UNL A   1      41.876  27.426  28.252  1.00  0.00     0.049 A 
ATOM     40  N   UNL A   1      43.949  29.601  28.203  1.00  0.00    -0.248 NA
ATOM     41  C   UNL A   1      42.307  31.128  28.853  1.00  0.00     0.031 C 
ATOM     42  C   UNL A   1      40.899  26.333  28.216  1.00  0.00     0.029 A 
ATOM     43  N   UNL A   1      43.061  26.819  27.919  1.00  0.00    -0.354 N 
ATOM     44  C   UNL A   1      44.515  30.866  28.308  1.00  0.00     0.074 A 
ATOM     45  C   UNL A   1      43.448  31.777  28.665  1.00  0.00     0.031 C 
ATOM     46  C   UNL A   1      41.526  25.192  27.891  1.00  0.00     0.029 A 
ATOM     47  C   UNL A   1      42.936  25.476  27.645  1.00  0.00     0.049 A 
ATOM     48  H   UNL A   1      43.919  27.300  27.878  1.00  0.00     0.167 HD
ATOM     49  C   UNL A   1      45.808  31.232  28.140  1.00  0.00     0.031 A 
ATOM     50  C   UNL A   1      43.844  24.577  27.218  1.00  0.00     0.031 A 
ATOM     51  C   UNL A   1      46.866  30.324  27.781  1.00  0.00     0.049 A 
ATOM     52  C   UNL A   1      45.263  25.021  26.991  1.00  0.00     0.074 A 
ATOM     53  C   UNL A   1      48.215  30.595  27.626  1.00  0.00     0.029 A 
ATOM     54  N   UNL A   1      46.698  28.975  27.512  1.00  0.00    -0.354 N 
ATOM     55  N   UNL A   1      45.790  26.211  27.158  1.00  0.00    -0.248 NA
ATOM     56  C   UNL A   1      46.211  24.002  26.521  1.00  0.00     0.031 C 
ATOM     57  C   UNL A   1      48.852  29.422  27.208  1.00  0.00     0.029 A 
ATOM     58  C   UNL A   1      47.912  28.406  27.162  1.00  0.00     0.049 A 
ATOM     59  H   UNL A   1      45.841  28.491  27.563  1.00  0.00     0.167 HD
ATOM     60  C   UNL A   1      47.134  26.077  26.830  1.00  0.00     0.074 A 
ATOM     61  C   UNL A   1      47.345  24.687  26.482  1.00  0.00     0.031 C 
ATOM     62  C   UNL A   1      48.107  27.021  26.813  1.00  0.00     0.031 A 
BRANCH  49  63
ATOM     63  C   UNL A   1      46.158  32.683  28.344  1.00  0.00    -0.014 A 
ATOM     64  C   UNL A   1      46.578  33.155  29.602  1.00  0.00     0.010 A 
ATOM     65  C   UNL A   1      46.140  33.570  27.252  1.00  0.00     0.010 A 
ATOM     66  C   UNL A   1      46.943  34.493  29.769  1.00  0.00     0.020 A 
ATOM     67  C   UNL A   1      46.532  34.904  27.411  1.00  0.00     0.020 A 
ATOM     68  C   UNL A   1      46.920  35.359  28.672  1.00  0.00     0.054 A 
BRANCH  68  69
ATOM     69  S   UNL A   1      47.444  37.079  28.913  1.00  0.00     0.124 S 
ATOM     70  O   UNL A   1      48.317  37.291  27.761  1.00  0.00    -0.237 OA
ATOM     71  O   UNL A   1      46.176  37.805  28.881  1.00  0.00    -0.237 OA
ATOM     72  O   UNL A   1      48.116  37.060  30.208  1.00  0.00    -0.744 OA
ENDBRANCH  68  69
ENDBRANCH  49  63
BRANCH  50  73
ATOM     73  C   UNL A   1      43.434  23.171  26.950  1.00  0.00    -0.014 A 
ATOM     74  C   UNL A   1      43.030  22.327  27.998  1.00  0.00     0.010 A 
ATOM     75  C   UNL A   1      43.458  22.664  25.636  1.00  0.00     0.010 A 
ATOM     76  C   UNL A   1      42.687  20.995  27.744  1.00  0.00     0.020 A 
ATOM     77  C   UNL A   1      43.084  21.344  25.374  1.00  0.00     0.020 A 
ATOM     78  C   UNL A   1      42.716  20.513  26.433  1.00  0.00     0.054 A 
BRANCH  78  79
ATOM     79  S   UNL A   1      42.239  18.791  26.122  1.00  0.00     0.124 S 
ATOM     80  O   UNL A   1      43.183  18.397  25.081  1.00  0.00    -0.237 OA
ATOM     81  O   UNL A   1      42.440  18.167  27.427  1.00  0.00    -0.237 OA
ATOM     82  O   UNL A   1      40.845  18.894  25.698  1.00  0.00    -0.744 OA
ENDBRANCH  78  79
ENDBRANCH  50  73
BRANCH  62  83
ATOM     83  C   UNL A   1      49.492  26.582  26.421  1.00  0.00    -0.014 A 
ATOM     84  C   UNL A   1      49.971  26.772  25.113  1.00  0.00     0.010 A 
ATOM     85  C   UNL A   1      50.347  26.021  27.388  1.00  0.00     0.010 A 
ATOM     86  C   UNL A   1      51.269  26.383  24.771  1.00  0.00     0.020 A 
ATOM     87  C   UNL A   1      51.655  25.657  27.058  1.00  0.00     0.020 A 
ATOM     88  C   UNL A   1      52.104  25.830  25.747  1.00  0.00     0.054 A 
BRANCH  88  89
ATOM     89  S   UNL A   1      53.800  25.381  25.289  1.00  0.00     0.124 S 
ATOM     90  O   UNL A   1      53.881  25.863  23.913  1.00  0.00    -0.237 OA
ATOM     91  O   UNL A   1      54.601  26.121  26.262  1.00  0.00    -0.237 OA
ATOM     92  O   UNL A   1      53.828  23.928  25.443  1.00  0.00    -0.744 OA
ENDBRANCH  88  89
ENDBRANCH  62  83
ENDBRANCH  36  37
ENDBRANCH  28  31
ENDBRANCH  26  27
ENDBRANCH   1  26
TORSDOF 16
ENDMDL
MODEL 3
REMARK VINA RESULT:     -11.9      0.834      8.174
REMARK SMILES CC(C)c1noc(C[N@@H+]2[C@@H](C(=O)NCCCNC(=O)c3ccc(-c4c5nc(c(-c6ccc(S(=O)(=O)[O-])cc6)c6ccc([nH]6)c(-c6ccc(S(=O)(=O)[O-])cc6)c6nc(c(-c7ccc(S(=O)(=O)[O-])cc7)c7ccc4[nH]7)C=C6)C=C5)cc3)C[C@H]3CCCC[C@@H]32)n1
REMARK SMILES IDX 15 1 14 2 13 3 11 4 12 5 10 7 9 8 86 9 80 11 81 12 85 13
REMARK SMILES IDX 82 14 84 15 83 16 8 17 7 18 4 19 5 20 87 21 6 22 2 23 1 24
REMARK SMILES IDX 3 25 16 26 17 27 18 28 19 30 20 31 21 32 79 33 22 34 78 35
REMARK SMILES IDX 23 36 24 37 25 38 72 39 26 40 77 41 71 42 73 43 27 44 76 45
REMARK SMILES IDX 70 46 69 47 28 49 58 50 39 51 57 52 40 53 43 54 56 55 74 56
REMARK SMILES IDX 41 57 42 58 55 60 75 61 44 62 29 63 30 64 38 65 31 66 37 67
REMARK SMILES IDX 32 68 33 69 34 70 35 71 36 72 59 73 60 74 68 75 61 76 67 77
REMARK SMILES IDX 62 78 63 79 64 80 65 81 66 82 45 83 46 84 54 85 47 86 53 87
REMARK SMILES IDX 48 88 49 89 50 90 51 91 52 92
REMARK H PARENT 13 6 9 10 17 29 73 48 43 59
REMARK Flexibility Score: inf
ROOT
ATOM      1  C   UNL A   1      38.284  19.941  25.028  1.00  0.00     0.042 C 
ENDROOT
BRANCH   1   2
ATOM      2  C   UNL A   1      37.079  20.865  25.152  1.00  0.00     0.118 C 
BRANCH   2   3
ATOM      3  N   UNL A   1      36.946  21.743  24.002  1.00  0.00    -0.351 N 
ATOM      4  C   UNL A   1      35.992  22.694  23.749  1.00  0.00     0.278 C 
ATOM      5  O   UNL A   1      36.072  23.323  22.693  1.00  0.00    -0.268 OA
ATOM      6  H   UNL A   1      37.637  21.642  23.309  1.00  0.00     0.163 HD
BRANCH   4   7
ATOM      7  C   UNL A   1      34.917  22.945  24.829  1.00  0.00     0.275 C 
ATOM      8  N   UNL A   1      33.544  22.885  24.250  1.00  0.00    -0.314 N 
ATOM      9  C   UNL A   1      33.132  24.284  24.066  1.00  0.00     0.188 C 
ATOM     10  H   UNL A   1      33.514  22.427  23.338  1.00  0.00     0.349 HD
ATOM     11  C   UNL A   1      35.108  24.368  25.391  1.00  0.00     0.085 C 
ATOM     12  C   UNL A   1      33.738  25.003  25.267  1.00  0.00     0.054 C 
ATOM     13  C   UNL A   1      31.663  24.663  23.873  1.00  0.00     0.065 C 
ATOM     14  C   UNL A   1      33.683  26.509  25.089  1.00  0.00     0.010 C 
ATOM     15  C   UNL A   1      31.493  26.190  23.827  1.00  0.00     0.006 C 
ATOM     16  C   UNL A   1      32.214  26.924  24.965  1.00  0.00     0.001 C 
BRANCH   8  17
ATOM     17  C   UNL A   1      32.635  21.988  24.993  1.00  0.00     0.364 C 
BRANCH  17  18
ATOM     18  C   UNL A   1      32.985  20.534  25.019  1.00  0.00     0.281 A 
ATOM     19  C   UNL A   1      33.668  18.598  24.621  1.00  0.00     0.174 A 
ATOM     20  N   UNL A   1      32.516  18.385  25.272  1.00  0.00    -0.062 NA
ATOM     21  N   UNL A   1      34.010  19.915  24.473  1.00  0.00    -0.191 NA
ATOM     22  O   UNL A   1      32.066  19.678  25.556  1.00  0.00    -0.333 OA
BRANCH  19  23
ATOM     23  C   UNL A   1      34.497  17.509  24.027  1.00  0.00     0.055 C 
ATOM     24  C   UNL A   1      34.718  16.366  25.014  1.00  0.00     0.016 C 
ATOM     25  C   UNL A   1      33.908  16.992  22.714  1.00  0.00     0.016 C 
ENDBRANCH  19  23
ENDBRANCH  17  18
ENDBRANCH   8  17
ENDBRANCH   4   7
ENDBRANCH   2   3
ENDBRANCH   1   2
BRANCH   1  26
ATOM     26  C   UNL A   1      39.423  20.283  25.984  1.00  0.00     0.118 C 
BRANCH  26  27
ATOM     27  N   UNL A   1      40.398  19.206  26.106  1.00  0.00    -0.352 N 
ATOM     28  C   UNL A   1      41.767  19.258  26.204  1.00  0.00     0.251 C 
ATOM     29  H   UNL A   1      40.015  18.299  26.120  1.00  0.00     0.163 HD
ATOM     30  O   UNL A   1      42.419  18.219  26.117  1.00  0.00    -0.269 OA
BRANCH  28  31
ATOM     31  C   UNL A   1      42.457  20.553  26.385  1.00  0.00     0.039 A 
ATOM     32  C   UNL A   1      43.030  21.173  25.270  1.00  0.00     0.014 A 
ATOM     33  C   UNL A   1      42.538  21.159  27.640  1.00  0.00     0.014 A 
ATOM     34  C   UNL A   1      43.596  22.444  25.399  1.00  0.00     0.010 A 
ATOM     35  C   UNL A   1      43.037  22.455  27.753  1.00  0.00     0.010 A 
ATOM     36  C   UNL A   1      43.552  23.118  26.630  1.00  0.00    -0.014 A 
BRANCH  36  37
ATOM     37  C   UNL A   1      43.980  24.536  26.750  1.00  0.00     0.031 A 
ATOM     38  C   UNL A   1      45.429  24.913  26.611  1.00  0.00     0.074 A 
ATOM     39  C   UNL A   1      43.065  25.474  27.070  1.00  0.00     0.049 A 
ATOM     40  N   UNL A   1      45.996  26.079  26.789  1.00  0.00    -0.248 NA
ATOM     41  C   UNL A   1      46.366  23.839  26.243  1.00  0.00     0.031 C 
ATOM     42  C   UNL A   1      41.633  25.230  27.265  1.00  0.00     0.029 A 
ATOM     43  N   UNL A   1      43.203  26.820  27.304  1.00  0.00    -0.354 N 
ATOM     44  C   UNL A   1      47.352  25.881  26.561  1.00  0.00     0.074 A 
ATOM     45  C   UNL A   1      47.530  24.473  26.276  1.00  0.00     0.031 C 
ATOM     46  C   UNL A   1      41.027  26.386  27.577  1.00  0.00     0.029 A 
ATOM     47  C   UNL A   1      42.028  27.443  27.656  1.00  0.00     0.049 A 
ATOM     48  H   UNL A   1      44.063  27.294  27.229  1.00  0.00     0.167 HD
ATOM     49  C   UNL A   1      48.354  26.792  26.571  1.00  0.00     0.031 A 
ATOM     50  C   UNL A   1      41.784  28.715  28.028  1.00  0.00     0.031 A 
ATOM     51  C   UNL A   1      48.174  28.191  26.860  1.00  0.00     0.049 A 
ATOM     52  C   UNL A   1      42.924  29.695  28.080  1.00  0.00     0.074 A 
ATOM     53  C   UNL A   1      49.124  29.198  26.856  1.00  0.00     0.029 A 
ATOM     54  N   UNL A   1      46.970  28.781  27.212  1.00  0.00    -0.354 N 
ATOM     55  N   UNL A   1      44.191  29.500  27.798  1.00  0.00    -0.248 NA
ATOM     56  C   UNL A   1      42.602  31.066  28.496  1.00  0.00     0.031 C 
ATOM     57  C   UNL A   1      48.505  30.385  27.261  1.00  0.00     0.029 A 
ATOM     58  C   UNL A   1      47.157  30.131  27.458  1.00  0.00     0.049 A 
ATOM     59  H   UNL A   1      46.108  28.309  27.278  1.00  0.00     0.167 HD
ATOM     60  C   UNL A   1      44.812  30.728  27.987  1.00  0.00     0.074 A 
ATOM     61  C   UNL A   1      43.779  31.666  28.379  1.00  0.00     0.031 C 
ATOM     62  C   UNL A   1      46.122  31.052  27.853  1.00  0.00     0.031 A 
BRANCH  49  63
ATOM     63  C   UNL A   1      49.747  26.307  26.259  1.00  0.00    -0.014 A 
ATOM     64  C   UNL A   1      50.281  26.431  24.964  1.00  0.00     0.010 A 
ATOM     65  C   UNL A   1      50.556  25.787  27.286  1.00  0.00     0.010 A 
ATOM     66  C   UNL A   1      51.589  26.019  24.695  1.00  0.00     0.020 A 
ATOM     67  C   UNL A   1      51.875  25.399  27.027  1.00  0.00     0.020 A 
ATOM     68  C   UNL A   1      52.379  25.508  25.729  1.00  0.00     0.054 A 
BRANCH  68  69
ATOM     69  S   UNL A   1      54.087  25.023  25.358  1.00  0.00     0.124 S 
ATOM     70  O   UNL A   1      54.417  25.913  24.248  1.00  0.00    -0.237 OA
ATOM     71  O   UNL A   1      54.777  25.305  26.614  1.00  0.00    -0.237 OA
ATOM     72  O   UNL A   1      53.981  23.610  25.011  1.00  0.00    -0.744 OA
ENDBRANCH  68  69
ENDBRANCH  49  63
BRANCH  50  73
ATOM     73  C   UNL A   1      40.405  29.130  28.409  1.00  0.00    -0.014 A 
ATOM     74  C   UNL A   1      40.056  29.313  29.758  1.00  0.00     0.010 A 
ATOM     75  C   UNL A   1      39.426  29.333  27.417  1.00  0.00     0.010 A 
ATOM     76  C   UNL A   1      38.748  29.662  30.110  1.00  0.00     0.020 A 
ATOM     77  C   UNL A   1      38.127  29.713  27.763  1.00  0.00     0.020 A 
ATOM     78  C   UNL A   1      37.793  29.860  29.110  1.00  0.00     0.054 A 
BRANCH  78  79
ATOM     79  S   UNL A   1      36.110  30.340  29.588  1.00  0.00     0.124 S 
ATOM     80  O   UNL A   1      35.318  29.810  28.483  1.00  0.00    -0.237 OA
ATOM     81  O   UNL A   1      35.941  29.662  30.871  1.00  0.00    -0.237 OA
ATOM     82  O   UNL A   1      36.181  31.797  29.667  1.00  0.00    -0.744 OA
ENDBRANCH  78  79
ENDBRANCH  50  73
BRANCH  62  83
ATOM     83  C   UNL A   1      46.512  32.482  28.116  1.00  0.00    -0.014 A 
ATOM     84  C   UNL A   1      46.479  33.443  27.091  1.00  0.00     0.010 A 
ATOM     85  C   UNL A   1      46.866  32.881  29.418  1.00  0.00     0.010 A 
ATOM     86  C   UNL A   1      46.819  34.773  27.357  1.00  0.00     0.020 A 
ATOM     87  C   UNL A   1      47.178  34.215  29.695  1.00  0.00     0.020 A 
ATOM     88  C   UNL A   1      47.164  35.150  28.659  1.00  0.00     0.054 A 
BRANCH  88  89
ATOM     89  S   UNL A   1      47.551  36.892  28.986  1.00  0.00     0.124 S 
ATOM     90  O   UNL A   1      48.982  36.837  29.270  1.00  0.00    -0.237 OA
ATOM     91  O   UNL A   1      47.184  37.542  27.730  1.00  0.00    -0.237 OA
ATOM     92  O   UNL A   1      46.702  37.227  30.127  1.00  0.00    -0.744 OA
ENDBRANCH  88  89
ENDBRANCH  62  83
ENDBRANCH  36  37
ENDBRANCH  28  31
ENDBRANCH  26  27
ENDBRANCH   1  26
TORSDOF 16
ENDMDL
