MODEL 1
REMARK VINA RESULT:      -9.4      0.000      0.000
REMARK SMILES C/C=C/c1cncc(-c2ccc([C@@H](C)C(=O)NCCCNC(=O)c3ccc(-c4c5nc(c(-c6ccc(S(=O)(=O)[O-])cc6)c6ccc([nH]6)c(-c6ccc(S(=O)(=O)[O-])cc6)c6nc(c(-c7ccc(S(=O)(=O)[O-])cc7)c7ccc4[nH]7)C=C6)C=C5)cc3)cc2)c1
REMARK SMILES IDX 19 1 18 2 17 3 15 4 16 5 13 7 14 8 12 9 9 10 10 11 85 12
REMARK SMILES IDX 11 13 84 14 8 15 4 16 5 17 86 18 6 19 7 20 3 21 1 22 2 23
REMARK SMILES IDX 20 24 21 25 22 26 23 28 24 29 25 30 83 31 26 32 82 33 27 34
REMARK SMILES IDX 28 35 29 36 76 37 30 38 81 39 75 40 77 41 31 42 80 43 74 44
REMARK SMILES IDX 73 45 32 47 62 48 43 49 61 50 44 51 47 52 60 53 78 54 45 55
REMARK SMILES IDX 46 56 59 58 79 59 48 60 33 61 34 62 42 63 35 64 41 65 36 66
REMARK SMILES IDX 37 67 38 68 39 69 40 70 63 71 64 72 72 73 65 74 71 75 66 76
REMARK SMILES IDX 67 77 68 78 69 79 70 80 49 81 50 82 58 83 51 84 57 85 52 86
REMARK SMILES IDX 53 87 54 88 55 89 56 90
REMARK H PARENT 17 6 21 27 77 46 47 57
REMARK Flexibility Score: inf
ROOT
ATOM      1  C   UNL A   1      41.857  22.131  25.779  1.00  0.00     0.042 C 
ENDROOT
BRANCH   1   2
ATOM      2  C   UNL A   1      43.118  21.280  25.908  1.00  0.00     0.117 C 
BRANCH   2   3
ATOM      3  N   UNL A   1      44.088  21.860  26.817  1.00  0.00    -0.356 N 
ATOM      4  C   UNL A   1      44.958  22.898  26.682  1.00  0.00     0.227 C 
ATOM      5  O   UNL A   1      45.698  23.116  27.650  1.00  0.00    -0.274 OA
ATOM      6  H   UNL A   1      44.125  21.419  27.696  1.00  0.00     0.163 HD
BRANCH   4   7
ATOM      7  C   UNL A   1      45.044  23.797  25.440  1.00  0.00     0.105 C 
ATOM      8  C   UNL A   1      45.983  23.275  24.351  1.00  0.00     0.023 C 
BRANCH   7   9
ATOM      9  C   UNL A   1      45.171  25.278  25.763  1.00  0.00    -0.036 A 
ATOM     10  C   UNL A   1      45.525  28.075  26.262  1.00  0.00    -0.017 A 
ATOM     11  C   UNL A   1      44.336  27.561  25.719  1.00  0.00     0.009 A 
ATOM     12  C   UNL A   1      46.529  27.145  26.572  1.00  0.00     0.009 A 
ATOM     13  C   UNL A   1      44.148  26.192  25.512  1.00  0.00     0.005 A 
ATOM     14  C   UNL A   1      46.364  25.776  26.310  1.00  0.00     0.005 A 
BRANCH  10  15
ATOM     15  C   UNL A   1      45.684  29.528  26.496  1.00  0.00     0.001 A 
ATOM     16  C   UNL A   1      44.884  31.700  27.287  1.00  0.00    -0.007 A 
ATOM     17  C   UNL A   1      46.119  32.227  26.921  1.00  0.00     0.119 A 
ATOM     18  C   UNL A   1      44.678  30.330  27.064  1.00  0.00     0.020 A 
ATOM     19  N   UNL A   1      47.113  31.508  26.361  1.00  0.00    -0.263 NA
ATOM     20  C   UNL A   1      46.869  30.193  26.164  1.00  0.00     0.119 A 
BRANCH  16  21
ATOM     21  C   UNL A   1      43.845  32.600  27.802  1.00  0.00     0.005 C 
ATOM     22  C   UNL A   1      42.879  34.808  28.451  1.00  0.00     0.035 C 
ATOM     23  C   UNL A   1      43.973  33.929  27.933  1.00  0.00    -0.030 C 
ENDBRANCH  16  21
ENDBRANCH  10  15
ENDBRANCH   7   9
ENDBRANCH   4   7
ENDBRANCH   2   3
ENDBRANCH   1   2
BRANCH   1  24
ATOM     24  C   UNL A   1      40.668  21.601  26.570  1.00  0.00     0.118 C 
BRANCH  24  25
ATOM     25  N   UNL A   1      39.395  21.967  25.961  1.00  0.00    -0.352 N 
ATOM     26  C   UNL A   1      38.633  23.102  26.096  1.00  0.00     0.251 C 
ATOM     27  H   UNL A   1      39.021  21.289  25.355  1.00  0.00     0.163 HD
ATOM     28  O   UNL A   1      37.486  23.100  25.656  1.00  0.00    -0.269 OA
BRANCH  26  29
ATOM     29  C   UNL A   1      39.166  24.312  26.766  1.00  0.00     0.039 A 
ATOM     30  C   UNL A   1      39.950  25.202  26.023  1.00  0.00     0.014 A 
ATOM     31  C   UNL A   1      38.950  24.552  28.124  1.00  0.00     0.014 A 
ATOM     32  C   UNL A   1      40.463  26.355  26.626  1.00  0.00     0.010 A 
ATOM     33  C   UNL A   1      39.392  25.740  28.704  1.00  0.00     0.010 A 
ATOM     34  C   UNL A   1      40.160  26.650  27.965  1.00  0.00    -0.014 A 
BRANCH  34  35
ATOM     35  C   UNL A   1      40.649  27.895  28.616  1.00  0.00     0.031 A 
ATOM     36  C   UNL A   1      42.068  27.977  29.117  1.00  0.00     0.074 A 
ATOM     37  C   UNL A   1      39.804  28.927  28.809  1.00  0.00     0.049 A 
ATOM     38  N   UNL A   1      42.653  28.939  29.784  1.00  0.00    -0.248 NA
ATOM     39  C   UNL A   1      42.936  26.818  28.853  1.00  0.00     0.031 C 
ATOM     40  C   UNL A   1      38.399  28.962  28.394  1.00  0.00     0.029 A 
ATOM     41  N   UNL A   1      40.001  30.146  29.409  1.00  0.00    -0.354 N 
ATOM     42  C   UNL A   1      43.949  28.498  30.030  1.00  0.00     0.074 A 
ATOM     43  C   UNL A   1      44.048  27.160  29.488  1.00  0.00     0.031 C 
ATOM     44  C   UNL A   1      37.870  30.151  28.728  1.00  0.00     0.029 A 
ATOM     45  C   UNL A   1      38.881  30.944  29.420  1.00  0.00     0.049 A 
ATOM     46  H   UNL A   1      40.862  30.422  29.797  1.00  0.00     0.167 HD
ATOM     47  C   UNL A   1      44.971  29.153  30.630  1.00  0.00     0.031 A 
ATOM     48  C   UNL A   1      38.685  32.172  29.938  1.00  0.00     0.031 A 
ATOM     49  C   UNL A   1      44.873  30.486  31.160  1.00  0.00     0.049 A 
ATOM     50  C   UNL A   1      39.827  32.865  30.631  1.00  0.00     0.074 A 
ATOM     51  C   UNL A   1      45.861  31.250  31.759  1.00  0.00     0.029 A 
ATOM     52  N   UNL A   1      43.722  31.259  31.151  1.00  0.00    -0.354 N 
ATOM     53  N   UNL A   1      41.057  32.446  30.815  1.00  0.00    -0.248 NA
ATOM     54  C   UNL A   1      39.558  34.201  31.181  1.00  0.00     0.031 C 
ATOM     55  C   UNL A   1      45.294  32.467  32.151  1.00  0.00     0.029 A 
ATOM     56  C   UNL A   1      43.969  32.483  31.747  1.00  0.00     0.049 A 
ATOM     57  H   UNL A   1      42.857  30.978  30.774  1.00  0.00     0.167 HD
ATOM     58  C   UNL A   1      41.715  33.480  31.473  1.00  0.00     0.074 A 
ATOM     59  C   UNL A   1      40.751  34.548  31.643  1.00  0.00     0.031 C 
ATOM     60  C   UNL A   1      43.001  33.539  31.898  1.00  0.00     0.031 A 
BRANCH  47  61
ATOM     61  C   UNL A   1      46.291  28.433  30.740  1.00  0.00    -0.014 A 
ATOM     62  C   UNL A   1      46.548  27.556  31.810  1.00  0.00     0.010 A 
ATOM     63  C   UNL A   1      47.270  28.600  29.745  1.00  0.00     0.010 A 
ATOM     64  C   UNL A   1      47.773  26.893  31.906  1.00  0.00     0.020 A 
ATOM     65  C   UNL A   1      48.488  27.916  29.821  1.00  0.00     0.020 A 
ATOM     66  C   UNL A   1      48.737  27.079  30.911  1.00  0.00     0.054 A 
BRANCH  66  67
ATOM     67  S   UNL A   1      50.311  26.188  31.050  1.00  0.00     0.124 S 
ATOM     68  O   UNL A   1      51.086  27.078  31.911  1.00  0.00    -0.237 OA
ATOM     69  O   UNL A   1      49.910  24.922  31.657  1.00  0.00    -0.237 OA
ATOM     70  O   UNL A   1      50.781  26.093  29.670  1.00  0.00    -0.744 OA
ENDBRANCH  66  67
ENDBRANCH  47  61
BRANCH  48  71
ATOM     71  C   UNL A   1      37.357  32.836  29.816  1.00  0.00    -0.014 A 
ATOM     72  C   UNL A   1      37.029  33.564  28.658  1.00  0.00     0.010 A 
ATOM     73  C   UNL A   1      36.418  32.756  30.860  1.00  0.00     0.010 A 
ATOM     74  C   UNL A   1      35.802  34.228  28.561  1.00  0.00     0.020 A 
ATOM     75  C   UNL A   1      35.177  33.393  30.754  1.00  0.00     0.020 A 
ATOM     76  C   UNL A   1      34.886  34.141  29.612  1.00  0.00     0.054 A 
BRANCH  76  77
ATOM     77  S   UNL A   1      33.295  35.000  29.457  1.00  0.00     0.124 S 
ATOM     78  O   UNL A   1      32.780  34.930  30.820  1.00  0.00    -0.237 OA
ATOM     79  O   UNL A   1      33.697  36.328  29.000  1.00  0.00    -0.237 OA
ATOM     80  O   UNL A   1      32.569  34.202  28.472  1.00  0.00    -0.744 OA
ENDBRANCH  76  77
ENDBRANCH  48  71
BRANCH  60  81
ATOM     81  C   UNL A   1      43.456  34.816  32.552  1.00  0.00    -0.014 A 
ATOM     82  C   UNL A   1      43.405  34.981  33.947  1.00  0.00     0.010 A 
ATOM     83  C   UNL A   1      43.999  35.844  31.758  1.00  0.00     0.010 A 
ATOM     84  C   UNL A   1      43.864  36.164  34.535  1.00  0.00     0.020 A 
ATOM     85  C   UNL A   1      44.484  37.016  32.344  1.00  0.00     0.020 A 
ATOM     86  C   UNL A   1      44.402  37.173  33.730  1.00  0.00     0.054 A 
BRANCH  86  87
ATOM     87  S   UNL A   1      45.040  38.675  34.521  1.00  0.00     0.124 S 
ATOM     88  O   UNL A   1      44.624  39.713  33.582  1.00  0.00    -0.237 OA
ATOM     89  O   UNL A   1      44.347  38.677  35.808  1.00  0.00    -0.237 OA
ATOM     90  O   UNL A   1      46.481  38.442  34.597  1.00  0.00    -0.744 OA
ENDBRANCH  86  87
ENDBRANCH  60  81
ENDBRANCH  34  35
ENDBRANCH  26  29
ENDBRANCH  24  25
ENDBRANCH   1  24
TORSDOF 16
ENDMDL
MODEL 2
REMARK VINA RESULT:      -9.0      2.964     10.555
REMARK SMILES C/C=C/c1cncc(-c2ccc([C@@H](C)C(=O)NCCCNC(=O)c3ccc(-c4c5nc(c(-c6ccc(S(=O)(=O)[O-])cc6)c6ccc([nH]6)c(-c6ccc(S(=O)(=O)[O-])cc6)c6nc(c(-c7ccc(S(=O)(=O)[O-])cc7)c7ccc4[nH]7)C=C6)C=C5)cc3)cc2)c1
REMARK SMILES IDX 19 1 18 2 17 3 15 4 16 5 13 7 14 8 12 9 9 10 10 11 85 12
REMARK SMILES IDX 11 13 84 14 8 15 4 16 5 17 86 18 6 19 7 20 3 21 1 22 2 23
REMARK SMILES IDX 20 24 21 25 22 26 23 28 24 29 25 30 83 31 26 32 82 33 27 34
REMARK SMILES IDX 28 35 29 36 76 37 30 38 81 39 75 40 77 41 31 42 80 43 74 44
REMARK SMILES IDX 73 45 32 47 62 48 43 49 61 50 44 51 47 52 60 53 78 54 45 55
REMARK SMILES IDX 46 56 59 58 79 59 48 60 33 61 34 62 42 63 35 64 41 65 36 66
REMARK SMILES IDX 37 67 38 68 39 69 40 70 63 71 64 72 72 73 65 74 71 75 66 76
REMARK SMILES IDX 67 77 68 78 69 79 70 80 49 81 50 82 58 83 51 84 57 85 52 86
REMARK SMILES IDX 53 87 54 88 55 89 56 90
REMARK H PARENT 17 6 21 27 77 46 47 57
REMARK Flexibility Score: inf
ROOT
ATOM      1  C   UNL A   1      34.775  33.414  29.518  1.00  0.00     0.042 C 
ENDROOT
BRANCH   1   2
ATOM      2  C   UNL A   1      36.123  33.126  30.171  1.00  0.00     0.117 C 
BRANCH   2   3
ATOM      3  N   UNL A   1      36.547  34.191  31.060  1.00  0.00    -0.356 N 
ATOM      4  C   UNL A   1      36.670  34.254  32.414  1.00  0.00     0.227 C 
ATOM      5  O   UNL A   1      37.023  35.347  32.878  1.00  0.00    -0.274 OA
ATOM      6  H   UNL A   1      36.792  35.024  30.597  1.00  0.00     0.163 HD
BRANCH   4   7
ATOM      7  C   UNL A   1      36.425  33.070  33.361  1.00  0.00     0.105 C 
ATOM      8  C   UNL A   1      35.674  33.436  34.643  1.00  0.00     0.023 C 
BRANCH   7   9
ATOM      9  C   UNL A   1      37.637  32.170  33.543  1.00  0.00    -0.036 A 
ATOM     10  C   UNL A   1      39.938  30.475  33.727  1.00  0.00    -0.017 A 
ATOM     11  C   UNL A   1      39.930  31.778  34.251  1.00  0.00     0.009 A 
ATOM     12  C   UNL A   1      38.751  30.032  33.125  1.00  0.00     0.009 A 
ATOM     13  C   UNL A   1      38.795  32.591  34.197  1.00  0.00     0.005 A 
ATOM     14  C   UNL A   1      37.628  30.869  33.018  1.00  0.00     0.005 A 
BRANCH  10  15
ATOM     15  C   UNL A   1      41.147  29.627  33.826  1.00  0.00     0.001 A 
ATOM     16  C   UNL A   1      43.434  29.183  34.574  1.00  0.00    -0.007 A 
ATOM     17  C   UNL A   1      43.328  27.931  33.976  1.00  0.00     0.119 A 
ATOM     18  C   UNL A   1      42.319  30.033  34.488  1.00  0.00     0.020 A 
ATOM     19  N   UNL A   1      42.234  27.497  33.317  1.00  0.00    -0.263 NA
ATOM     20  C   UNL A   1      41.187  28.349  33.259  1.00  0.00     0.119 A 
BRANCH  16  21
ATOM     21  C   UNL A   1      44.708  29.582  35.182  1.00  0.00     0.005 C 
ATOM     22  C   UNL A   1      46.422  31.209  35.988  1.00  0.00     0.035 C 
ATOM     23  C   UNL A   1      45.118  30.850  35.348  1.00  0.00    -0.030 C 
ENDBRANCH  16  21
ENDBRANCH  10  15
ENDBRANCH   7   9
ENDBRANCH   4   7
ENDBRANCH   2   3
ENDBRANCH   1   2
BRANCH   1  24
ATOM     24  C   UNL A   1      34.696  33.005  28.053  1.00  0.00     0.118 C 
BRANCH  24  25
ATOM     25  N   UNL A   1      33.919  31.786  27.863  1.00  0.00    -0.352 N 
ATOM     26  C   UNL A   1      34.320  30.474  27.783  1.00  0.00     0.251 C 
ATOM     27  H   UNL A   1      32.949  31.926  27.777  1.00  0.00     0.163 HD
ATOM     28  O   UNL A   1      33.513  29.631  27.401  1.00  0.00    -0.269 OA
BRANCH  26  29
ATOM     29  C   UNL A   1      35.700  30.067  28.140  1.00  0.00     0.039 A 
ATOM     30  C   UNL A   1      36.699  30.151  27.163  1.00  0.00     0.014 A 
ATOM     31  C   UNL A   1      36.010  29.555  29.401  1.00  0.00     0.014 A 
ATOM     32  C   UNL A   1      38.012  29.779  27.470  1.00  0.00     0.010 A 
ATOM     33  C   UNL A   1      37.333  29.263  29.732  1.00  0.00     0.010 A 
ATOM     34  C   UNL A   1      38.346  29.362  28.769  1.00  0.00    -0.014 A 
BRANCH  34  35
ATOM     35  C   UNL A   1      39.743  29.010  29.137  1.00  0.00     0.031 A 
ATOM     36  C   UNL A   1      40.624  30.027  29.814  1.00  0.00     0.074 A 
ATOM     37  C   UNL A   1      40.238  27.799  28.810  1.00  0.00     0.049 A 
ATOM     38  N   UNL A   1      41.890  29.939  30.135  1.00  0.00    -0.248 NA
ATOM     39  C   UNL A   1      40.009  31.321  30.155  1.00  0.00     0.031 C 
ATOM     40  C   UNL A   1      39.494  26.734  28.130  1.00  0.00     0.029 A 
ATOM     41  N   UNL A   1      41.485  27.259  29.003  1.00  0.00    -0.354 N 
ATOM     42  C   UNL A   1      42.224  31.165  30.702  1.00  0.00     0.074 A 
ATOM     43  C   UNL A   1      41.043  31.998  30.631  1.00  0.00     0.031 C 
ATOM     44  C   UNL A   1      40.292  25.662  27.987  1.00  0.00     0.029 A 
ATOM     45  C   UNL A   1      41.613  25.977  28.521  1.00  0.00     0.049 A 
ATOM     46  H   UNL A   1      42.219  27.744  29.443  1.00  0.00     0.167 HD
ATOM     47  C   UNL A   1      43.398  31.555  31.253  1.00  0.00     0.031 A 
ATOM     48  C   UNL A   1      42.676  25.150  28.502  1.00  0.00     0.031 A 
ATOM     49  C   UNL A   1      44.568  30.723  31.330  1.00  0.00     0.049 A 
ATOM     50  C   UNL A   1      43.980  25.620  29.089  1.00  0.00     0.074 A 
ATOM     51  C   UNL A   1      45.798  31.014  31.897  1.00  0.00     0.029 A 
ATOM     52  N   UNL A   1      44.656  29.432  30.831  1.00  0.00    -0.354 N 
ATOM     53  N   UNL A   1      44.262  26.769  29.658  1.00  0.00    -0.248 NA
ATOM     54  C   UNL A   1      45.109  24.681  29.038  1.00  0.00     0.031 C 
ATOM     55  C   UNL A   1      46.641  29.916  31.701  1.00  0.00     0.029 A 
ATOM     56  C   UNL A   1      45.921  28.920  31.062  1.00  0.00     0.049 A 
ATOM     57  H   UNL A   1      43.925  28.951  30.380  1.00  0.00     0.167 HD
ATOM     58  C   UNL A   1      45.590  26.675  30.061  1.00  0.00     0.074 A 
ATOM     59  C   UNL A   1      46.051  25.355  29.682  1.00  0.00     0.031 C 
ATOM     60  C   UNL A   1      46.359  27.599  30.688  1.00  0.00     0.031 A 
BRANCH  47  61
ATOM     61  C   UNL A   1      43.471  32.949  31.822  1.00  0.00    -0.014 A 
ATOM     62  C   UNL A   1      43.766  34.051  30.997  1.00  0.00     0.010 A 
ATOM     63  C   UNL A   1      43.203  33.169  33.185  1.00  0.00     0.010 A 
ATOM     64  C   UNL A   1      43.833  35.339  31.531  1.00  0.00     0.020 A 
ATOM     65  C   UNL A   1      43.240  34.462  33.719  1.00  0.00     0.020 A 
ATOM     66  C   UNL A   1      43.572  35.536  32.891  1.00  0.00     0.054 A 
BRANCH  66  67
ATOM     67  S   UNL A   1      43.645  37.224  33.552  1.00  0.00     0.124 S 
ATOM     68  O   UNL A   1      44.798  37.148  34.445  1.00  0.00    -0.237 OA
ATOM     69  O   UNL A   1      43.833  38.031  32.350  1.00  0.00    -0.237 OA
ATOM     70  O   UNL A   1      42.354  37.393  34.217  1.00  0.00    -0.744 OA
ENDBRANCH  66  67
ENDBRANCH  47  61
BRANCH  48  71
ATOM     71  C   UNL A   1      42.557  23.786  27.915  1.00  0.00    -0.014 A 
ATOM     72  C   UNL A   1      42.772  23.582  26.540  1.00  0.00     0.010 A 
ATOM     73  C   UNL A   1      42.217  22.686  28.724  1.00  0.00     0.010 A 
ATOM     74  C   UNL A   1      42.614  22.311  25.979  1.00  0.00     0.020 A 
ATOM     75  C   UNL A   1      42.088  21.408  28.171  1.00  0.00     0.020 A 
ATOM     76  C   UNL A   1      42.269  21.233  26.798  1.00  0.00     0.054 A 
BRANCH  76  77
ATOM     77  S   UNL A   1      42.083  19.591  26.048  1.00  0.00     0.124 S 
ATOM     78  O   UNL A   1      42.504  18.713  27.136  1.00  0.00    -0.237 OA
ATOM     79  O   UNL A   1      40.661  19.553  25.719  1.00  0.00    -0.237 OA
ATOM     80  O   UNL A   1      42.983  19.636  24.898  1.00  0.00    -0.744 OA
ENDBRANCH  76  77
ENDBRANCH  48  71
BRANCH  60  81
ATOM     81  C   UNL A   1      47.767  27.204  31.043  1.00  0.00    -0.014 A 
ATOM     82  C   UNL A   1      48.056  26.530  32.242  1.00  0.00     0.010 A 
ATOM     83  C   UNL A   1      48.808  27.459  30.130  1.00  0.00     0.010 A 
ATOM     84  C   UNL A   1      49.367  26.143  32.535  1.00  0.00     0.020 A 
ATOM     85  C   UNL A   1      50.114  27.049  30.407  1.00  0.00     0.020 A 
ATOM     86  C   UNL A   1      50.388  26.404  31.615  1.00  0.00     0.054 A 
BRANCH  86  87
ATOM     87  S   UNL A   1      52.071  25.844  31.995  1.00  0.00     0.124 S 
ATOM     88  O   UNL A   1      52.380  26.609  33.200  1.00  0.00    -0.237 OA
ATOM     89  O   UNL A   1      51.893  24.407  32.192  1.00  0.00    -0.237 OA
ATOM     90  O   UNL A   1      52.836  26.214  30.807  1.00  0.00    -0.744 OA
ENDBRANCH  86  87
ENDBRANCH  60  81
ENDBRANCH  34  35
ENDBRANCH  26  29
ENDBRANCH  24  25
ENDBRANCH   1  24
TORSDOF 16
ENDMDL
MODEL 3
REMARK VINA RESULT:      -8.9      4.399     12.092
REMARK SMILES C/C=C/c1cncc(-c2ccc([C@@H](C)C(=O)NCCCNC(=O)c3ccc(-c4c5nc(c(-c6ccc(S(=O)(=O)[O-])cc6)c6ccc([nH]6)c(-c6ccc(S(=O)(=O)[O-])cc6)c6nc(c(-c7ccc(S(=O)(=O)[O-])cc7)c7ccc4[nH]7)C=C6)C=C5)cc3)cc2)c1
REMARK SMILES IDX 19 1 18 2 17 3 15 4 16 5 13 7 14 8 12 9 9 10 10 11 85 12
REMARK SMILES IDX 11 13 84 14 8 15 4 16 5 17 86 18 6 19 7 20 3 21 1 22 2 23
REMARK SMILES IDX 20 24 21 25 22 26 23 28 24 29 25 30 83 31 26 32 82 33 27 34
REMARK SMILES IDX 28 35 29 36 76 37 30 38 81 39 75 40 77 41 31 42 80 43 74 44
REMARK SMILES IDX 73 45 32 47 62 48 43 49 61 50 44 51 47 52 60 53 78 54 45 55
REMARK SMILES IDX 46 56 59 58 79 59 48 60 33 61 34 62 42 63 35 64 41 65 36 66
REMARK SMILES IDX 37 67 38 68 39 69 40 70 63 71 64 72 72 73 65 74 71 75 66 76
REMARK SMILES IDX 67 77 68 78 69 79 70 80 49 81 50 82 58 83 51 84 57 85 52 86
REMARK SMILES IDX 53 87 54 88 55 89 56 90
REMARK H PARENT 17 6 21 27 77 46 47 57
REMARK Flexibility Score: inf
ROOT
ATOM      1  C   UNL A   1      34.910  29.828  27.004  1.00  0.00     0.042 C 
ENDROOT
BRANCH   1   2
ATOM      2  C   UNL A   1      33.474  30.343  26.991  1.00  0.00     0.117 C 
BRANCH   2   3
ATOM      3  N   UNL A   1      32.549  29.424  27.626  1.00  0.00    -0.356 N 
ATOM      4  C   UNL A   1      31.876  28.338  27.158  1.00  0.00     0.227 C 
ATOM      5  O   UNL A   1      31.113  27.783  27.960  1.00  0.00    -0.274 OA
ATOM      6  H   UNL A   1      32.376  29.623  28.574  1.00  0.00     0.163 HD
BRANCH   4   7
ATOM      7  C   UNL A   1      32.029  27.771  25.739  1.00  0.00     0.105 C 
ATOM      8  C   UNL A   1      30.776  27.903  24.871  1.00  0.00     0.023 C 
BRANCH   7   9
ATOM      9  C   UNL A   1      32.722  26.418  25.691  1.00  0.00    -0.036 A 
ATOM     10  C   UNL A   1      33.943  23.838  25.470  1.00  0.00    -0.017 A 
ATOM     11  C   UNL A   1      34.679  25.024  25.317  1.00  0.00     0.009 A 
ATOM     12  C   UNL A   1      32.578  23.977  25.760  1.00  0.00     0.009 A 
ATOM     13  C   UNL A   1      34.092  26.283  25.464  1.00  0.00     0.005 A 
ATOM     14  C   UNL A   1      31.974  25.242  25.850  1.00  0.00     0.005 A 
BRANCH  10  15
ATOM     15  C   UNL A   1      34.599  22.517  25.337  1.00  0.00     0.001 A 
ATOM     16  C   UNL A   1      34.588  20.129  24.806  1.00  0.00    -0.007 A 
ATOM     17  C   UNL A   1      35.951  20.116  25.088  1.00  0.00     0.119 A 
ATOM     18  C   UNL A   1      33.916  21.355  24.939  1.00  0.00     0.020 A 
ATOM     19  N   UNL A   1      36.652  21.197  25.488  1.00  0.00    -0.263 NA
ATOM     20  C   UNL A   1      35.964  22.354  25.602  1.00  0.00     0.119 A 
BRANCH  16  21
ATOM     21  C   UNL A   1      33.913  18.871  24.471  1.00  0.00     0.005 C 
ATOM     22  C   UNL A   1      33.802  16.472  23.791  1.00  0.00     0.035 C 
ATOM     23  C   UNL A   1      34.534  17.736  24.111  1.00  0.00    -0.030 C 
ENDBRANCH  16  21
ENDBRANCH  10  15
ENDBRANCH   7   9
ENDBRANCH   4   7
ENDBRANCH   2   3
ENDBRANCH   1   2
BRANCH   1  24
ATOM     24  C   UNL A   1      35.338  29.216  28.331  1.00  0.00     0.118 C 
BRANCH  24  25
ATOM     25  N   UNL A   1      35.501  30.221  29.374  1.00  0.00    -0.352 N 
ATOM     26  C   UNL A   1      36.607  30.579  30.106  1.00  0.00     0.251 C 
ATOM     27  H   UNL A   1      34.685  30.726  29.588  1.00  0.00     0.163 HD
ATOM     28  O   UNL A   1      36.459  31.303  31.086  1.00  0.00    -0.269 OA
BRANCH  26  29
ATOM     29  C   UNL A   1      37.961  30.098  29.740  1.00  0.00     0.039 A 
ATOM     30  C   UNL A   1      38.320  30.065  28.388  1.00  0.00     0.014 A 
ATOM     31  C   UNL A   1      38.858  29.630  30.703  1.00  0.00     0.014 A 
ATOM     32  C   UNL A   1      39.592  29.621  28.011  1.00  0.00     0.010 A 
ATOM     33  C   UNL A   1      40.152  29.266  30.335  1.00  0.00     0.010 A 
ATOM     34  C   UNL A   1      40.531  29.248  28.986  1.00  0.00    -0.014 A 
BRANCH  34  35
ATOM     35  C   UNL A   1      41.907  28.821  28.617  1.00  0.00     0.031 A 
ATOM     36  C   UNL A   1      43.027  29.829  28.586  1.00  0.00     0.074 A 
ATOM     37  C   UNL A   1      42.138  27.544  28.255  1.00  0.00     0.049 A 
ATOM     38  N   UNL A   1      44.270  29.670  28.209  1.00  0.00    -0.248 NA
ATOM     39  C   UNL A   1      42.701  31.201  29.012  1.00  0.00     0.031 C 
ATOM     40  C   UNL A   1      41.134  26.477  28.219  1.00  0.00     0.029 A 
ATOM     41  N   UNL A   1      43.292  26.924  27.843  1.00  0.00    -0.354 N 
ATOM     42  C   UNL A   1      44.869  30.918  28.340  1.00  0.00     0.074 A 
ATOM     43  C   UNL A   1      43.840  31.836  28.779  1.00  0.00     0.031 C 
ATOM     44  C   UNL A   1      41.721  25.332  27.833  1.00  0.00     0.029 A 
ATOM     45  C   UNL A   1      43.129  25.590  27.551  1.00  0.00     0.049 A 
ATOM     46  H   UNL A   1      44.154  27.391  27.763  1.00  0.00     0.167 HD
ATOM     47  C   UNL A   1      46.163  31.266  28.138  1.00  0.00     0.031 A 
ATOM     48  C   UNL A   1      44.011  24.679  27.096  1.00  0.00     0.031 A 
ATOM     49  C   UNL A   1      47.186  30.351  27.710  1.00  0.00     0.049 A 
ATOM     50  C   UNL A   1      45.434  25.098  26.845  1.00  0.00     0.074 A 
ATOM     51  C   UNL A   1      48.533  30.598  27.506  1.00  0.00     0.029 A 
ATOM     52  N   UNL A   1      46.979  29.009  27.425  1.00  0.00    -0.354 N 
ATOM     53  N   UNL A   1      45.989  26.275  27.016  1.00  0.00    -0.248 NA
ATOM     54  C   UNL A   1      46.353  24.066  26.346  1.00  0.00     0.031 C 
ATOM     55  C   UNL A   1      49.131  29.417  27.056  1.00  0.00     0.029 A 
ATOM     56  C   UNL A   1      48.168  28.420  27.033  1.00  0.00     0.049 A 
ATOM     57  H   UNL A   1      46.114  28.545  27.494  1.00  0.00     0.167 HD
ATOM     58  C   UNL A   1      47.329  26.114  26.677  1.00  0.00     0.074 A 
ATOM     59  C   UNL A   1      47.502  24.725  26.303  1.00  0.00     0.031 C 
ATOM     60  C   UNL A   1      48.325  27.034  26.674  1.00  0.00     0.031 A 
BRANCH  47  61
ATOM     61  C   UNL A   1      46.544  32.703  28.383  1.00  0.00    -0.014 A 
ATOM     62  C   UNL A   1      46.346  33.683  27.391  1.00  0.00     0.010 A 
ATOM     63  C   UNL A   1      47.067  33.092  29.630  1.00  0.00     0.010 A 
ATOM     64  C   UNL A   1      46.703  35.012  27.626  1.00  0.00     0.020 A 
ATOM     65  C   UNL A   1      47.398  34.428  29.880  1.00  0.00     0.020 A 
ATOM     66  C   UNL A   1      47.229  35.376  28.869  1.00  0.00     0.054 A 
BRANCH  66  67
ATOM     67  S   UNL A   1      47.663  37.115  29.152  1.00  0.00     0.124 S 
ATOM     68  O   UNL A   1      48.027  37.108  30.566  1.00  0.00    -0.237 OA
ATOM     69  O   UNL A   1      48.768  37.325  28.220  1.00  0.00    -0.237 OA
ATOM     70  O   UNL A   1      46.434  37.836  28.830  1.00  0.00    -0.744 OA
ENDBRANCH  66  67
ENDBRANCH  47  61
BRANCH  48  71
ATOM     71  C   UNL A   1      43.581  23.273  26.855  1.00  0.00    -0.014 A 
ATOM     72  C   UNL A   1      42.866  22.568  27.840  1.00  0.00     0.010 A 
ATOM     73  C   UNL A   1      43.896  22.625  25.646  1.00  0.00     0.010 A 
ATOM     74  C   UNL A   1      42.504  21.233  27.635  1.00  0.00     0.020 A 
ATOM     75  C   UNL A   1      43.508  21.300  25.425  1.00  0.00     0.020 A 
ATOM     76  C   UNL A   1      42.831  20.607  26.430  1.00  0.00     0.054 A 
BRANCH  76  77
ATOM     77  S   UNL A   1      42.338  18.878  26.183  1.00  0.00     0.124 S 
ATOM     78  O   UNL A   1      42.589  18.301  27.499  1.00  0.00    -0.237 OA
ATOM     79  O   UNL A   1      40.933  19.001  25.803  1.00  0.00    -0.237 OA
ATOM     80  O   UNL A   1      43.227  18.418  25.118  1.00  0.00    -0.744 OA
ENDBRANCH  76  77
ENDBRANCH  48  71
BRANCH  60  81
ATOM     81  C   UNL A   1      49.703  26.561  26.295  1.00  0.00    -0.014 A 
ATOM     82  C   UNL A   1      50.220  26.776  25.006  1.00  0.00     0.010 A 
ATOM     83  C   UNL A   1      50.514  25.945  27.266  1.00  0.00     0.010 A 
ATOM     84  C   UNL A   1      51.515  26.358  24.686  1.00  0.00     0.020 A 
ATOM     85  C   UNL A   1      51.818  25.551  26.958  1.00  0.00     0.020 A 
ATOM     86  C   UNL A   1      52.306  25.749  25.665  1.00  0.00     0.054 A 
BRANCH  86  87
ATOM     87  S   UNL A   1      54.002  25.265  25.240  1.00  0.00     0.124 S 
ATOM     88  O   UNL A   1      54.091  25.670  23.840  1.00  0.00    -0.237 OA
ATOM     89  O   UNL A   1      54.803  26.052  26.174  1.00  0.00    -0.237 OA
ATOM     90  O   UNL A   1      54.021  23.823  25.475  1.00  0.00    -0.744 OA
ENDBRANCH  86  87
ENDBRANCH  60  81
ENDBRANCH  34  35
ENDBRANCH  26  29
ENDBRANCH  24  25
ENDBRANCH   1  24
TORSDOF 16
ENDMDL
