MODEL 1
REMARK VINA RESULT:     -10.3      0.000      0.000
REMARK SMILES CCC(CC)(CC)NC(=O)NC[C@@H]1CC[C@H](C(=O)NCCCNC(=O)c2ccc(-c3c4nc(c(-c5ccc(S(=O)(=O)[O-])cc5)c5ccc([nH]5)c(-c5ccc(S(=O)(=O)[O-])cc5)c5nc(c(-c6ccc(S(=O)(=O)[O-])cc6)c6ccc3[nH]6)C=C5)C=C4)cc2)O1
REMARK SMILES IDX 20 1 19 2 17 3 18 4 16 6 13 7 14 8 86 9 15 10 12 11 11 12
REMARK SMILES IDX 8 13 9 14 10 16 3 18 2 19 1 20 4 21 5 22 6 23 7 24 21 25
REMARK SMILES IDX 22 26 23 27 24 28 25 30 26 31 27 32 85 33 28 34 84 35 29 36
REMARK SMILES IDX 30 37 31 38 78 39 32 40 83 41 77 42 79 43 33 44 82 45 76 46
REMARK SMILES IDX 75 47 34 49 64 50 45 51 63 52 46 53 49 54 62 55 80 56 47 57
REMARK SMILES IDX 48 58 61 60 81 61 50 62 35 63 36 64 44 65 37 66 43 67 38 68
REMARK SMILES IDX 39 69 40 70 41 71 42 72 65 73 66 74 74 75 67 76 73 77 68 78
REMARK SMILES IDX 69 79 70 80 71 81 72 82 51 83 52 84 60 85 53 86 59 87 54 88
REMARK SMILES IDX 55 89 56 90 57 91 58 92
REMARK H PARENT 19 5 8 15 11 17 23 29 79 48 49 59
REMARK Flexibility Score: inf
ROOT
ATOM      1  C   UNL A   1      33.481  26.001  25.782  1.00  0.00     0.117 C 
ENDROOT
BRANCH   1   2
ATOM      2  N   UNL A   1      34.559  25.151  25.323  1.00  0.00    -0.354 N 
ATOM      3  C   UNL A   1      34.712  24.514  24.126  1.00  0.00     0.249 C 
ATOM      4  O   UNL A   1      35.753  23.866  23.963  1.00  0.00    -0.272 OA
ATOM      5  H   UNL A   1      35.289  25.013  25.970  1.00  0.00     0.163 HD
BRANCH   3   6
ATOM      6  C   UNL A   1      33.624  24.530  23.023  1.00  0.00     0.207 C 
ATOM      7  C   UNL A   1      31.654  25.544  22.305  1.00  0.00     0.138 C 
ATOM      8  C   UNL A   1      31.234  24.355  23.149  1.00  0.00     0.037 C 
ATOM      9  O   UNL A   1      33.016  25.794  22.721  1.00  0.00    -0.363 OA
ATOM     10  C   UNL A   1      32.498  23.529  23.265  1.00  0.00     0.045 C 
BRANCH   7  11
ATOM     11  C   UNL A   1      30.844  26.860  22.396  1.00  0.00     0.149 C 
BRANCH  11  12
ATOM     12  N   UNL A   1      31.606  28.082  22.620  1.00  0.00    -0.336 N 
ATOM     13  N   UNL A   1      30.237  29.769  23.598  1.00  0.00    -0.333 N 
ATOM     14  C   UNL A   1      31.363  29.044  23.533  1.00  0.00     0.315 C 
ATOM     15  H   UNL A   1      30.220  30.315  24.418  1.00  0.00     0.165 HD
ATOM     16  O   UNL A   1      32.274  29.326  24.317  1.00  0.00    -0.249 OA
ATOM     17  H   UNL A   1      32.387  28.222  22.037  1.00  0.00     0.165 HD
BRANCH  13  18
ATOM     18  C   UNL A   1      29.009  29.990  22.796  1.00  0.00     0.041 C 
BRANCH  18  19
ATOM     19  C   UNL A   1      29.304  30.474  21.368  1.00  0.00     0.025 C 
ATOM     20  C   UNL A   1      28.137  31.121  20.618  1.00  0.00     0.006 C 
ENDBRANCH  18  19
BRANCH  18  21
ATOM     21  C   UNL A   1      28.160  31.117  23.500  1.00  0.00     0.025 C 
ATOM     22  C   UNL A   1      28.910  32.435  23.716  1.00  0.00     0.006 C 
ENDBRANCH  18  21
BRANCH  18  23
ATOM     23  C   UNL A   1      28.117  28.696  22.767  1.00  0.00     0.025 C 
ATOM     24  C   UNL A   1      26.838  28.698  23.595  1.00  0.00     0.006 C 
ENDBRANCH  18  23
ENDBRANCH  13  18
ENDBRANCH  11  12
ENDBRANCH   7  11
ENDBRANCH   3   6
ENDBRANCH   1   2
BRANCH   1  25
ATOM     25  C   UNL A   1      33.950  27.424  26.088  1.00  0.00     0.042 C 
BRANCH  25  26
ATOM     26  C   UNL A   1      33.400  28.052  27.371  1.00  0.00     0.118 C 
BRANCH  26  27
ATOM     27  N   UNL A   1      33.423  29.510  27.409  1.00  0.00    -0.352 N 
ATOM     28  C   UNL A   1      34.402  30.441  27.684  1.00  0.00     0.251 C 
ATOM     29  H   UNL A   1      32.553  29.916  27.194  1.00  0.00     0.163 HD
ATOM     30  O   UNL A   1      34.089  31.624  27.641  1.00  0.00    -0.269 OA
BRANCH  28  31
ATOM     31  C   UNL A   1      35.789  30.072  28.079  1.00  0.00     0.039 A 
ATOM     32  C   UNL A   1      36.009  29.646  29.401  1.00  0.00     0.014 A 
ATOM     33  C   UNL A   1      36.877  30.165  27.218  1.00  0.00     0.014 A 
ATOM     34  C   UNL A   1      37.271  29.206  29.816  1.00  0.00     0.010 A 
ATOM     35  C   UNL A   1      38.123  29.670  27.607  1.00  0.00     0.010 A 
ATOM     36  C   UNL A   1      38.333  29.183  28.908  1.00  0.00    -0.014 A 
BRANCH  36  37
ATOM     37  C   UNL A   1      39.702  28.752  29.290  1.00  0.00     0.031 A 
ATOM     38  C   UNL A   1      40.621  29.758  29.929  1.00  0.00     0.074 A 
ATOM     39  C   UNL A   1      40.158  27.524  28.977  1.00  0.00     0.049 A 
ATOM     40  N   UNL A   1      41.912  29.698  30.119  1.00  0.00    -0.248 NA
ATOM     41  C   UNL A   1      40.000  31.017  30.375  1.00  0.00     0.031 C 
ATOM     42  C   UNL A   1      39.372  26.452  28.365  1.00  0.00     0.029 A 
ATOM     43  N   UNL A   1      41.415  26.983  29.105  1.00  0.00    -0.354 N 
ATOM     44  C   UNL A   1      42.267  30.929  30.659  1.00  0.00     0.074 A 
ATOM     45  C   UNL A   1      41.061  31.723  30.738  1.00  0.00     0.031 C 
ATOM     46  C   UNL A   1      40.165  25.384  28.167  1.00  0.00     0.029 A 
ATOM     47  C   UNL A   1      41.525  25.712  28.591  1.00  0.00     0.049 A 
ATOM     48  H   UNL A   1      42.165  27.461  29.526  1.00  0.00     0.167 HD
ATOM     49  C   UNL A   1      43.487  31.358  31.058  1.00  0.00     0.031 A 
ATOM     50  C   UNL A   1      42.603  24.914  28.453  1.00  0.00     0.031 A 
ATOM     51  C   UNL A   1      44.677  30.552  31.012  1.00  0.00     0.049 A 
ATOM     52  C   UNL A   1      43.951  25.409  28.906  1.00  0.00     0.074 A 
ATOM     53  C   UNL A   1      45.954  30.877  31.436  1.00  0.00     0.029 A 
ATOM     54  N   UNL A   1      44.733  29.256  30.524  1.00  0.00    -0.354 N 
ATOM     55  N   UNL A   1      44.270  26.572  29.423  1.00  0.00    -0.248 NA
ATOM     56  C   UNL A   1      45.084  24.483  28.763  1.00  0.00     0.031 C 
ATOM     57  C   UNL A   1      46.790  29.788  31.172  1.00  0.00     0.029 A 
ATOM     58  C   UNL A   1      46.023  28.768  30.632  1.00  0.00     0.049 A 
ATOM     59  H   UNL A   1      43.969  28.756  30.156  1.00  0.00     0.167 HD
ATOM     60  C   UNL A   1      45.632  26.503  29.700  1.00  0.00     0.074 A 
ATOM     61  C   UNL A   1      46.077  25.185  29.294  1.00  0.00     0.031 C 
ATOM     62  C   UNL A   1      46.442  27.445  30.244  1.00  0.00     0.031 A 
BRANCH  49  63
ATOM     63  C   UNL A   1      43.593  32.771  31.566  1.00  0.00    -0.014 A 
ATOM     64  C   UNL A   1      43.562  33.055  32.943  1.00  0.00     0.010 A 
ATOM     65  C   UNL A   1      43.743  33.830  30.651  1.00  0.00     0.010 A 
ATOM     66  C   UNL A   1      43.626  34.376  33.393  1.00  0.00     0.020 A 
ATOM     67  C   UNL A   1      43.840  35.149  31.100  1.00  0.00     0.020 A 
ATOM     68  C   UNL A   1      43.760  35.415  32.467  1.00  0.00     0.054 A 
BRANCH  68  69
ATOM     69  S   UNL A   1      43.853  37.119  33.081  1.00  0.00     0.124 S 
ATOM     70  O   UNL A   1      42.656  37.204  33.913  1.00  0.00    -0.237 OA
ATOM     71  O   UNL A   1      45.122  37.132  33.804  1.00  0.00    -0.237 OA
ATOM     72  O   UNL A   1      43.825  37.927  31.864  1.00  0.00    -0.744 OA
ENDBRANCH  68  69
ENDBRANCH  49  63
BRANCH  50  73
ATOM     73  C   UNL A   1      42.456  23.556  27.858  1.00  0.00    -0.014 A 
ATOM     74  C   UNL A   1      42.480  23.386  26.463  1.00  0.00     0.010 A 
ATOM     75  C   UNL A   1      42.294  22.426  28.681  1.00  0.00     0.010 A 
ATOM     76  C   UNL A   1      42.329  22.115  25.900  1.00  0.00     0.020 A 
ATOM     77  C   UNL A   1      42.168  21.150  28.123  1.00  0.00     0.020 A 
ATOM     78  C   UNL A   1      42.176  21.004  26.734  1.00  0.00     0.054 A 
BRANCH  78  79
ATOM     79  S   UNL A   1      42.037  19.357  25.982  1.00  0.00     0.124 S 
ATOM     80  O   UNL A   1      42.580  18.499  27.030  1.00  0.00    -0.237 OA
ATOM     81  O   UNL A   1      40.600  19.239  25.747  1.00  0.00    -0.237 OA
ATOM     82  O   UNL A   1      42.852  19.466  24.774  1.00  0.00    -0.744 OA
ENDBRANCH  78  79
ENDBRANCH  50  73
BRANCH  62  83
ATOM     83  C   UNL A   1      47.878  27.075  30.495  1.00  0.00    -0.014 A 
ATOM     84  C   UNL A   1      48.875  27.306  29.532  1.00  0.00     0.010 A 
ATOM     85  C   UNL A   1      48.246  26.568  31.757  1.00  0.00     0.010 A 
ATOM     86  C   UNL A   1      50.212  27.021  29.820  1.00  0.00     0.020 A 
ATOM     87  C   UNL A   1      49.584  26.305  32.055  1.00  0.00     0.020 A 
ATOM     88  C   UNL A   1      50.559  26.525  31.081  1.00  0.00     0.054 A 
BRANCH  88  89
ATOM     89  S   UNL A   1      52.310  26.228  31.454  1.00  0.00     0.124 S 
ATOM     90  O   UNL A   1      52.576  27.235  32.478  1.00  0.00    -0.237 OA
ATOM     91  O   UNL A   1      52.308  24.843  31.920  1.00  0.00    -0.237 OA
ATOM     92  O   UNL A   1      52.980  26.448  30.174  1.00  0.00    -0.744 OA
ENDBRANCH  88  89
ENDBRANCH  62  83
ENDBRANCH  36  37
ENDBRANCH  28  31
ENDBRANCH  26  27
ENDBRANCH  25  26
ENDBRANCH   1  25
TORSDOF 19
ENDMDL
MODEL 2
REMARK VINA RESULT:     -10.3      2.969      5.383
REMARK SMILES CCC(CC)(CC)NC(=O)NC[C@@H]1CC[C@H](C(=O)NCCCNC(=O)c2ccc(-c3c4nc(c(-c5ccc(S(=O)(=O)[O-])cc5)c5ccc([nH]5)c(-c5ccc(S(=O)(=O)[O-])cc5)c5nc(c(-c6ccc(S(=O)(=O)[O-])cc6)c6ccc3[nH]6)C=C5)C=C4)cc2)O1
REMARK SMILES IDX 20 1 19 2 17 3 18 4 16 6 13 7 14 8 86 9 15 10 12 11 11 12
REMARK SMILES IDX 8 13 9 14 10 16 3 18 2 19 1 20 4 21 5 22 6 23 7 24 21 25
REMARK SMILES IDX 22 26 23 27 24 28 25 30 26 31 27 32 85 33 28 34 84 35 29 36
REMARK SMILES IDX 30 37 31 38 78 39 32 40 83 41 77 42 79 43 33 44 82 45 76 46
REMARK SMILES IDX 75 47 34 49 64 50 45 51 63 52 46 53 49 54 62 55 80 56 47 57
REMARK SMILES IDX 48 58 61 60 81 61 50 62 35 63 36 64 44 65 37 66 43 67 38 68
REMARK SMILES IDX 39 69 40 70 41 71 42 72 65 73 66 74 74 75 67 76 73 77 68 78
REMARK SMILES IDX 69 79 70 80 71 81 72 82 51 83 52 84 60 85 53 86 59 87 54 88
REMARK SMILES IDX 55 89 56 90 57 91 58 92
REMARK H PARENT 19 5 8 15 11 17 23 29 79 48 49 59
REMARK Flexibility Score: inf
ROOT
ATOM      1  C   UNL A   1      33.652  28.883  25.066  1.00  0.00     0.117 C 
ENDROOT
BRANCH   1   2
ATOM      2  N   UNL A   1      32.410  29.219  24.402  1.00  0.00    -0.354 N 
ATOM      3  C   UNL A   1      31.504  28.401  23.791  1.00  0.00     0.249 C 
ATOM      4  O   UNL A   1      30.492  28.934  23.322  1.00  0.00    -0.272 OA
ATOM      5  H   UNL A   1      32.187  30.177  24.389  1.00  0.00     0.163 HD
BRANCH   3   6
ATOM      6  C   UNL A   1      31.731  26.877  23.621  1.00  0.00     0.207 C 
ATOM      7  C   UNL A   1      33.025  25.058  24.287  1.00  0.00     0.138 C 
ATOM      8  C   UNL A   1      33.691  25.620  23.044  1.00  0.00     0.037 C 
ATOM      9  O   UNL A   1      32.214  26.156  24.764  1.00  0.00    -0.363 OA
ATOM     10  C   UNL A   1      32.635  26.525  22.444  1.00  0.00     0.045 C 
BRANCH   7  11
ATOM     11  C   UNL A   1      33.907  24.534  25.446  1.00  0.00     0.149 C 
BRANCH  11  12
ATOM     12  N   UNL A   1      33.831  23.107  25.731  1.00  0.00    -0.336 N 
ATOM     13  N   UNL A   1      35.938  22.275  26.468  1.00  0.00    -0.333 N 
ATOM     14  C   UNL A   1      34.607  22.397  26.574  1.00  0.00     0.315 C 
ATOM     15  H   UNL A   1      36.312  21.827  27.261  1.00  0.00     0.165 HD
ATOM     16  O   UNL A   1      34.040  21.753  27.462  1.00  0.00    -0.249 OA
ATOM     17  H   UNL A   1      33.133  22.603  25.252  1.00  0.00     0.165 HD
BRANCH  13  18
ATOM     18  C   UNL A   1      37.012  22.618  25.504  1.00  0.00     0.041 C 
BRANCH  18  19
ATOM     19  C   UNL A   1      36.548  23.586  24.406  1.00  0.00     0.025 C 
ATOM     20  C   UNL A   1      36.349  22.985  23.012  1.00  0.00     0.006 C 
ENDBRANCH  18  19
BRANCH  18  21
ATOM     21  C   UNL A   1      37.469  21.290  24.786  1.00  0.00     0.025 C 
ATOM     22  C   UNL A   1      36.559  20.085  25.043  1.00  0.00     0.006 C 
ENDBRANCH  18  21
BRANCH  18  23
ATOM     23  C   UNL A   1      38.273  23.192  26.249  1.00  0.00     0.025 C 
ATOM     24  C   UNL A   1      39.496  22.291  26.367  1.00  0.00     0.006 C 
ENDBRANCH  18  23
ENDBRANCH  13  18
ENDBRANCH  11  12
ENDBRANCH   7  11
ENDBRANCH   3   6
ENDBRANCH   1   2
BRANCH   1  25
ATOM     25  C   UNL A   1      33.629  29.228  26.555  1.00  0.00     0.042 C 
BRANCH  25  26
ATOM     26  C   UNL A   1      34.974  29.162  27.281  1.00  0.00     0.118 C 
BRANCH  26  27
ATOM     27  N   UNL A   1      35.064  29.963  28.498  1.00  0.00    -0.352 N 
ATOM     28  C   UNL A   1      36.097  30.291  29.350  1.00  0.00     0.251 C 
ATOM     29  H   UNL A   1      34.201  30.351  28.769  1.00  0.00     0.163 HD
ATOM     30  O   UNL A   1      35.834  30.993  30.318  1.00  0.00    -0.269 OA
BRANCH  28  31
ATOM     31  C   UNL A   1      37.487  29.787  29.176  1.00  0.00     0.039 A 
ATOM     32  C   UNL A   1      38.023  29.759  27.876  1.00  0.00     0.014 A 
ATOM     33  C   UNL A   1      38.262  29.311  30.227  1.00  0.00     0.014 A 
ATOM     34  C   UNL A   1      39.350  29.377  27.652  1.00  0.00     0.010 A 
ATOM     35  C   UNL A   1      39.604  28.987  30.019  1.00  0.00     0.010 A 
ATOM     36  C   UNL A   1      40.163  29.019  28.731  1.00  0.00    -0.014 A 
BRANCH  36  37
ATOM     37  C   UNL A   1      41.571  28.579  28.559  1.00  0.00     0.031 A 
ATOM     38  C   UNL A   1      42.659  29.617  28.593  1.00  0.00     0.074 A 
ATOM     39  C   UNL A   1      41.869  27.297  28.268  1.00  0.00     0.049 A 
ATOM     40  N   UNL A   1      43.910  29.520  28.228  1.00  0.00    -0.248 NA
ATOM     41  C   UNL A   1      42.269  30.956  29.068  1.00  0.00     0.031 C 
ATOM     42  C   UNL A   1      40.913  26.190  28.212  1.00  0.00     0.029 A 
ATOM     43  N   UNL A   1      43.069  26.717  27.933  1.00  0.00    -0.354 N 
ATOM     44  C   UNL A   1      44.443  30.796  28.378  1.00  0.00     0.074 A 
ATOM     45  C   UNL A   1      43.373  31.652  28.841  1.00  0.00     0.031 C 
ATOM     46  C   UNL A   1      41.562  25.067  27.858  1.00  0.00     0.029 A 
ATOM     47  C   UNL A   1      42.968  25.383  27.615  1.00  0.00     0.049 A 
ATOM     48  H   UNL A   1      43.920  27.211  27.922  1.00  0.00     0.167 HD
ATOM     49  C   UNL A   1      45.711  31.214  28.156  1.00  0.00     0.031 A 
ATOM     50  C   UNL A   1      43.897  24.521  27.155  1.00  0.00     0.031 A 
ATOM     51  C   UNL A   1      46.780  30.352  27.733  1.00  0.00     0.049 A 
ATOM     52  C   UNL A   1      45.303  25.007  26.918  1.00  0.00     0.074 A 
ATOM     53  C   UNL A   1      48.111  30.669  27.525  1.00  0.00     0.029 A 
ATOM     54  N   UNL A   1      46.642  28.999  27.465  1.00  0.00    -0.354 N 
ATOM     55  N   UNL A   1      45.795  26.213  27.074  1.00  0.00    -0.248 NA
ATOM     56  C   UNL A   1      46.281  24.014  26.449  1.00  0.00     0.031 C 
ATOM     57  C   UNL A   1      48.772  29.513  27.098  1.00  0.00     0.029 A 
ATOM     58  C   UNL A   1      47.862  28.466  27.090  1.00  0.00     0.049 A 
ATOM     59  H   UNL A   1      45.801  28.491  27.533  1.00  0.00     0.167 HD
ATOM     60  C   UNL A   1      47.146  26.115  26.757  1.00  0.00     0.074 A 
ATOM     61  C   UNL A   1      47.395  24.734  26.402  1.00  0.00     0.031 C 
ATOM     62  C   UNL A   1      48.096  27.083  26.761  1.00  0.00     0.031 A 
BRANCH  49  63
ATOM     63  C   UNL A   1      46.002  32.678  28.356  1.00  0.00    -0.014 A 
ATOM     64  C   UNL A   1      46.319  33.191  29.627  1.00  0.00     0.010 A 
ATOM     65  C   UNL A   1      45.973  33.550  27.253  1.00  0.00     0.010 A 
ATOM     66  C   UNL A   1      46.552  34.558  29.798  1.00  0.00     0.020 A 
ATOM     67  C   UNL A   1      46.236  34.912  27.415  1.00  0.00     0.020 A 
ATOM     68  C   UNL A   1      46.504  35.411  28.692  1.00  0.00     0.054 A 
BRANCH  68  69
ATOM     69  S   UNL A   1      46.822  37.178  28.942  1.00  0.00     0.124 S 
ATOM     70  O   UNL A   1      45.484  37.684  29.241  1.00  0.00    -0.237 OA
ATOM     71  O   UNL A   1      47.759  37.181  30.062  1.00  0.00    -0.237 OA
ATOM     72  O   UNL A   1      47.382  37.613  27.665  1.00  0.00    -0.744 OA
ENDBRANCH  68  69
ENDBRANCH  49  63
BRANCH  50  73
ATOM     73  C   UNL A   1      43.531  23.102  26.887  1.00  0.00    -0.014 A 
ATOM     74  C   UNL A   1      42.946  22.318  27.896  1.00  0.00     0.010 A 
ATOM     75  C   UNL A   1      43.762  22.528  25.623  1.00  0.00     0.010 A 
ATOM     76  C   UNL A   1      42.613  20.982  27.653  1.00  0.00     0.020 A 
ATOM     77  C   UNL A   1      43.407  21.200  25.369  1.00  0.00     0.020 A 
ATOM     78  C   UNL A   1      42.843  20.431  26.390  1.00  0.00     0.054 A 
BRANCH  78  79
ATOM     79  S   UNL A   1      42.352  18.710  26.081  1.00  0.00     0.124 S 
ATOM     80  O   UNL A   1      43.252  18.328  24.998  1.00  0.00    -0.237 OA
ATOM     81  O   UNL A   1      42.606  18.074  27.372  1.00  0.00    -0.237 OA
ATOM     82  O   UNL A   1      40.941  18.820  25.716  1.00  0.00    -0.744 OA
ENDBRANCH  78  79
ENDBRANCH  50  73
BRANCH  62  83
ATOM     83  C   UNL A   1      49.509  26.681  26.436  1.00  0.00    -0.014 A 
ATOM     84  C   UNL A   1      50.308  25.993  27.365  1.00  0.00     0.010 A 
ATOM     85  C   UNL A   1      50.010  26.920  25.142  1.00  0.00     0.010 A 
ATOM     86  C   UNL A   1      51.591  25.567  27.010  1.00  0.00     0.020 A 
ATOM     87  C   UNL A   1      51.282  26.473  24.777  1.00  0.00     0.020 A 
ATOM     88  C   UNL A   1      52.068  25.806  25.718  1.00  0.00     0.054 A 
BRANCH  88  89
ATOM     89  S   UNL A   1      53.710  25.182  25.260  1.00  0.00     0.124 S 
ATOM     90  O   UNL A   1      53.801  25.571  23.856  1.00  0.00    -0.237 OA
ATOM     91  O   UNL A   1      54.594  25.905  26.172  1.00  0.00    -0.237 OA
ATOM     92  O   UNL A   1      53.614  23.744  25.505  1.00  0.00    -0.744 OA
ENDBRANCH  88  89
ENDBRANCH  62  83
ENDBRANCH  36  37
ENDBRANCH  28  31
ENDBRANCH  26  27
ENDBRANCH  25  26
ENDBRANCH   1  25
TORSDOF 19
ENDMDL
MODEL 3
REMARK VINA RESULT:     -10.1      2.903      9.340
REMARK SMILES CCC(CC)(CC)NC(=O)NC[C@@H]1CC[C@H](C(=O)NCCCNC(=O)c2ccc(-c3c4nc(c(-c5ccc(S(=O)(=O)[O-])cc5)c5ccc([nH]5)c(-c5ccc(S(=O)(=O)[O-])cc5)c5nc(c(-c6ccc(S(=O)(=O)[O-])cc6)c6ccc3[nH]6)C=C5)C=C4)cc2)O1
REMARK SMILES IDX 20 1 19 2 17 3 18 4 16 6 13 7 14 8 86 9 15 10 12 11 11 12
REMARK SMILES IDX 8 13 9 14 10 16 3 18 2 19 1 20 4 21 5 22 6 23 7 24 21 25
REMARK SMILES IDX 22 26 23 27 24 28 25 30 26 31 27 32 85 33 28 34 84 35 29 36
REMARK SMILES IDX 30 37 31 38 78 39 32 40 83 41 77 42 79 43 33 44 82 45 76 46
REMARK SMILES IDX 75 47 34 49 64 50 45 51 63 52 46 53 49 54 62 55 80 56 47 57
REMARK SMILES IDX 48 58 61 60 81 61 50 62 35 63 36 64 44 65 37 66 43 67 38 68
REMARK SMILES IDX 39 69 40 70 41 71 42 72 65 73 66 74 74 75 67 76 73 77 68 78
REMARK SMILES IDX 69 79 70 80 71 81 72 82 51 83 52 84 60 85 53 86 59 87 54 88
REMARK SMILES IDX 55 89 56 90 57 91 58 92
REMARK H PARENT 19 5 8 15 11 17 23 29 79 48 49 59
REMARK Flexibility Score: inf
ROOT
ATOM      1  C   UNL A   1      33.257  29.909  26.221  1.00  0.00     0.117 C 
ENDROOT
BRANCH   1   2
ATOM      2  N   UNL A   1      33.305  29.708  24.788  1.00  0.00    -0.354 N 
ATOM      3  C   UNL A   1      32.499  28.947  23.991  1.00  0.00     0.249 C 
ATOM      4  O   UNL A   1      32.727  28.969  22.776  1.00  0.00    -0.272 OA
ATOM      5  H   UNL A   1      34.024  30.191  24.321  1.00  0.00     0.163 HD
BRANCH   3   6
ATOM      6  C   UNL A   1      31.378  28.038  24.557  1.00  0.00     0.207 C 
ATOM      7  C   UNL A   1      30.408  25.923  24.455  1.00  0.00     0.138 C 
ATOM      8  C   UNL A   1      29.649  26.785  23.462  1.00  0.00     0.037 C 
ATOM      9  O   UNL A   1      31.654  26.633  24.640  1.00  0.00    -0.363 OA
ATOM     10  C   UNL A   1      30.044  28.199  23.835  1.00  0.00     0.045 C 
BRANCH   7  11
ATOM     11  C   UNL A   1      30.710  24.447  24.099  1.00  0.00     0.149 C 
BRANCH  11  12
ATOM     12  N   UNL A   1      30.519  23.467  25.161  1.00  0.00    -0.336 N 
ATOM     13  N   UNL A   1      32.550  23.100  26.351  1.00  0.00    -0.333 N 
ATOM     14  C   UNL A   1      31.232  23.342  26.298  1.00  0.00     0.315 C 
ATOM     15  H   UNL A   1      32.882  23.181  27.275  1.00  0.00     0.165 HD
ATOM     16  O   UNL A   1      30.611  23.379  27.365  1.00  0.00    -0.249 OA
ATOM     17  H   UNL A   1      29.786  22.822  25.033  1.00  0.00     0.165 HD
BRANCH  13  18
ATOM     18  C   UNL A   1      33.653  22.744  25.425  1.00  0.00     0.041 C 
BRANCH  18  19
ATOM     19  C   UNL A   1      34.946  22.352  26.155  1.00  0.00     0.025 C 
ATOM     20  C   UNL A   1      36.104  23.349  26.064  1.00  0.00     0.006 C 
ENDBRANCH  18  19
BRANCH  18  21
ATOM     21  C   UNL A   1      33.984  24.011  24.546  1.00  0.00     0.025 C 
ATOM     22  C   UNL A   1      34.167  23.716  23.054  1.00  0.00     0.006 C 
ENDBRANCH  18  21
BRANCH  18  23
ATOM     23  C   UNL A   1      33.209  21.605  24.436  1.00  0.00     0.025 C 
ATOM     24  C   UNL A   1      32.605  20.342  25.036  1.00  0.00     0.006 C 
ENDBRANCH  18  23
ENDBRANCH  13  18
ENDBRANCH  11  12
ENDBRANCH   7  11
ENDBRANCH   3   6
ENDBRANCH   1   2
BRANCH   1  25
ATOM     25  C   UNL A   1      34.465  29.304  26.936  1.00  0.00     0.042 C 
BRANCH  25  26
ATOM     26  C   UNL A   1      35.330  30.279  27.739  1.00  0.00     0.118 C 
BRANCH  26  27
ATOM     27  N   UNL A   1      35.412  30.005  29.169  1.00  0.00    -0.352 N 
ATOM     28  C   UNL A   1      36.450  29.697  30.023  1.00  0.00     0.251 C 
ATOM     29  H   UNL A   1      34.539  30.047  29.621  1.00  0.00     0.163 HD
ATOM     30  O   UNL A   1      36.178  29.508  31.202  1.00  0.00    -0.269 OA
BRANCH  28  31
ATOM     31  C   UNL A   1      37.858  29.533  29.568  1.00  0.00     0.039 A 
ATOM     32  C   UNL A   1      38.846  29.308  30.542  1.00  0.00     0.014 A 
ATOM     33  C   UNL A   1      38.243  29.629  28.235  1.00  0.00     0.014 A 
ATOM     34  C   UNL A   1      40.175  29.062  30.177  1.00  0.00     0.010 A 
ATOM     35  C   UNL A   1      39.553  29.324  27.861  1.00  0.00     0.010 A 
ATOM     36  C   UNL A   1      40.531  29.035  28.826  1.00  0.00    -0.014 A 
BRANCH  36  37
ATOM     37  C   UNL A   1      41.927  28.806  28.373  1.00  0.00     0.031 A 
ATOM     38  C   UNL A   1      42.326  27.420  27.943  1.00  0.00     0.074 A 
ATOM     39  C   UNL A   1      42.852  29.783  28.446  1.00  0.00     0.049 A 
ATOM     40  N   UNL A   1      43.519  26.924  27.749  1.00  0.00    -0.248 NA
ATOM     41  C   UNL A   1      41.230  26.458  27.744  1.00  0.00     0.031 C 
ATOM     42  C   UNL A   1      42.598  31.171  28.838  1.00  0.00     0.029 A 
ATOM     43  N   UNL A   1      44.207  29.744  28.221  1.00  0.00    -0.354 N 
ATOM     44  C   UNL A   1      43.320  25.579  27.457  1.00  0.00     0.074 A 
ATOM     45  C   UNL A   1      41.896  25.334  27.527  1.00  0.00     0.031 C 
ATOM     46  C   UNL A   1      43.760  31.848  28.830  1.00  0.00     0.029 A 
ATOM     47  C   UNL A   1      44.846  30.934  28.482  1.00  0.00     0.049 A 
ATOM     48  H   UNL A   1      44.675  28.939  27.902  1.00  0.00     0.167 HD
ATOM     49  C   UNL A   1      44.240  24.634  27.152  1.00  0.00     0.031 A 
ATOM     50  C   UNL A   1      46.157  31.244  28.468  1.00  0.00     0.031 A 
ATOM     51  C   UNL A   1      45.651  24.890  27.047  1.00  0.00     0.049 A 
ATOM     52  C   UNL A   1      47.165  30.178  28.123  1.00  0.00     0.074 A 
ATOM     53  C   UNL A   1      46.662  24.012  26.698  1.00  0.00     0.029 A 
ATOM     54  N   UNL A   1      46.248  26.120  27.277  1.00  0.00    -0.354 N 
ATOM     55  N   UNL A   1      46.961  28.913  27.840  1.00  0.00    -0.248 NA
ATOM     56  C   UNL A   1      48.578  30.583  28.090  1.00  0.00     0.031 C 
ATOM     57  C   UNL A   1      47.876  24.703  26.750  1.00  0.00     0.029 A 
ATOM     58  C   UNL A   1      47.614  26.024  27.082  1.00  0.00     0.049 A 
ATOM     59  H   UNL A   1      45.772  26.940  27.539  1.00  0.00     0.167 HD
ATOM     60  C   UNL A   1      48.216  28.382  27.560  1.00  0.00     0.074 A 
ATOM     61  C   UNL A   1      49.172  29.460  27.706  1.00  0.00     0.031 C 
ATOM     62  C   UNL A   1      48.548  27.114  27.210  1.00  0.00     0.031 A 
BRANCH  49  63
ATOM     63  C   UNL A   1      43.744  23.231  26.926  1.00  0.00    -0.014 A 
ATOM     64  C   UNL A   1      43.098  22.513  27.947  1.00  0.00     0.010 A 
ATOM     65  C   UNL A   1      43.912  22.628  25.665  1.00  0.00     0.010 A 
ATOM     66  C   UNL A   1      42.675  21.199  27.729  1.00  0.00     0.020 A 
ATOM     67  C   UNL A   1      43.462  21.326  25.433  1.00  0.00     0.020 A 
ATOM     68  C   UNL A   1      42.866  20.612  26.474  1.00  0.00     0.054 A 
BRANCH  68  69
ATOM     69  S   UNL A   1      42.297  18.910  26.215  1.00  0.00     0.124 S 
ATOM     70  O   UNL A   1      40.912  19.117  25.798  1.00  0.00    -0.237 OA
ATOM     71  O   UNL A   1      43.200  18.423  25.176  1.00  0.00    -0.237 OA
ATOM     72  O   UNL A   1      42.466  18.286  27.526  1.00  0.00    -0.744 OA
ENDBRANCH  68  69
ENDBRANCH  49  63
BRANCH  50  73
ATOM     73  C   UNL A   1      46.601  32.629  28.790  1.00  0.00    -0.014 A 
ATOM     74  C   UNL A   1      46.892  32.990  30.116  1.00  0.00     0.010 A 
ATOM     75  C   UNL A   1      46.737  33.593  27.774  1.00  0.00     0.010 A 
ATOM     76  C   UNL A   1      47.296  34.293  30.426  1.00  0.00     0.020 A 
ATOM     77  C   UNL A   1      47.165  34.890  28.075  1.00  0.00     0.020 A 
ATOM     78  C   UNL A   1      47.432  35.234  29.402  1.00  0.00     0.054 A 
BRANCH  78  79
ATOM     79  S   UNL A   1      48.011  36.904  29.820  1.00  0.00     0.124 S 
ATOM     80  O   UNL A   1      47.850  37.607  28.550  1.00  0.00    -0.237 OA
ATOM     81  O   UNL A   1      47.091  37.299  30.884  1.00  0.00    -0.237 OA
ATOM     82  O   UNL A   1      49.391  36.688  30.247  1.00  0.00    -0.744 OA
ENDBRANCH  78  79
ENDBRANCH  50  73
BRANCH  62  83
ATOM     83  C   UNL A   1      49.991  26.827  26.897  1.00  0.00    -0.014 A 
ATOM     84  C   UNL A   1      50.898  26.449  27.901  1.00  0.00     0.010 A 
ATOM     85  C   UNL A   1      50.420  26.851  25.556  1.00  0.00     0.010 A 
ATOM     86  C   UNL A   1      52.215  26.117  27.572  1.00  0.00     0.020 A 
ATOM     87  C   UNL A   1      51.729  26.496  25.222  1.00  0.00     0.020 A 
ATOM     88  C   UNL A   1      52.621  26.139  26.235  1.00  0.00     0.054 A 
BRANCH  88  89
ATOM     89  S   UNL A   1      54.316  25.637  25.825  1.00  0.00     0.124 S 
ATOM     90  O   UNL A   1      54.823  25.195  27.121  1.00  0.00    -0.237 OA
ATOM     91  O   UNL A   1      54.108  24.580  24.838  1.00  0.00    -0.237 OA
ATOM     92  O   UNL A   1      54.923  26.859  25.302  1.00  0.00    -0.744 OA
ENDBRANCH  88  89
ENDBRANCH  62  83
ENDBRANCH  36  37
ENDBRANCH  28  31
ENDBRANCH  26  27
ENDBRANCH  25  26
ENDBRANCH   1  25
TORSDOF 19
ENDMDL
