MODEL 1
REMARK VINA RESULT:     -12.2      0.000      0.000
REMARK SMILES C[C@H](C(=O)NCCCNC(=O)c1ccc(-c2c3nc(c(-c4ccc(S(=O)(=O)[O-])cc4)c4ccc([nH]4)c(-c4ccc(S(=O)(=O)[O-])cc4)c4nc(c(-c5ccc(S(=O)(=O)[O-])cc5)c5ccc2[nH]5)C=C4)C=C3)cc1)c1ccc2c(c1)[nH]c1ccc(Cl)cc12
REMARK SMILES IDX 8 1 7 2 6 3 5 4 3 5 4 6 2 8 1 9 72 10 73 11 77 12 74 13
REMARK SMILES IDX 76 14 75 15 78 16 85 17 79 18 84 20 80 21 82 22 81 23 83 24
REMARK SMILES IDX 9 25 10 26 11 28 12 29 13 30 71 31 14 32 70 33 15 34 16 35
REMARK SMILES IDX 17 36 64 37 18 38 69 39 63 40 65 41 19 42 68 43 62 44 61 45
REMARK SMILES IDX 20 47 50 48 31 49 49 50 32 51 35 52 48 53 66 54 33 55 34 56
REMARK SMILES IDX 47 58 67 59 36 60 21 61 22 62 30 63 23 64 29 65 24 66 25 67
REMARK SMILES IDX 26 68 27 69 28 70 51 71 52 72 60 73 53 74 59 75 54 76 55 77
REMARK SMILES IDX 56 78 57 79 58 80 37 81 38 82 46 83 39 84 45 85 40 86 41 87
REMARK SMILES IDX 42 88 43 89 44 90
REMARK H PARENT 5 7 78 19 9 27 65 46 35 57
REMARK Flexibility Score: inf
ROOT
ATOM      1  C   UNL A   1      33.500  29.402  26.789  1.00  0.00     0.118 C 
ENDROOT
BRANCH   1   2
ATOM      2  C   UNL A   1      32.609  29.570  25.564  1.00  0.00     0.042 C 
BRANCH   2   3
ATOM      3  C   UNL A   1      33.067  28.843  24.306  1.00  0.00     0.117 C 
BRANCH   3   4
ATOM      4  N   UNL A   1      32.279  29.123  23.113  1.00  0.00    -0.356 N 
ATOM      5  C   UNL A   1      30.936  29.024  22.894  1.00  0.00     0.227 C 
ATOM      6  O   UNL A   1      30.508  29.595  21.882  1.00  0.00    -0.274 OA
ATOM      7  H   UNL A   1      32.802  29.433  22.339  1.00  0.00     0.163 HD
BRANCH   5   8
ATOM      8  C   UNL A   1      29.978  28.167  23.740  1.00  0.00     0.105 C 
ATOM      9  C   UNL A   1      28.581  28.345  23.129  1.00  0.00     0.023 C 
BRANCH   8  10
ATOM     10  C   UNL A   1      30.410  26.728  24.000  1.00  0.00    -0.034 A 
ATOM     11  C   UNL A   1      30.821  25.874  22.964  1.00  0.00     0.005 A 
ATOM     12  C   UNL A   1      30.459  26.262  25.330  1.00  0.00     0.031 A 
ATOM     13  C   UNL A   1      31.415  24.634  23.229  1.00  0.00     0.011 A 
ATOM     14  C   UNL A   1      31.147  25.068  25.579  1.00  0.00     0.047 A 
ATOM     15  C   UNL A   1      31.642  24.254  24.564  1.00  0.00     0.007 A 
ATOM     16  N   UNL A   1      31.531  24.505  26.772  1.00  0.00    -0.355 N 
ATOM     17  C   UNL A   1      32.347  23.175  25.183  1.00  0.00     0.009 A 
ATOM     18  C   UNL A   1      32.299  23.383  26.561  1.00  0.00     0.047 A 
ATOM     19  H   UNL A   1      31.289  24.855  27.659  1.00  0.00     0.167 HD
ATOM     20  C   UNL A   1      33.067  22.067  24.689  1.00  0.00     0.031 A 
ATOM     21  C   UNL A   1      32.959  22.559  27.478  1.00  0.00     0.028 A 
ATOM     22  C   UNL A   1      33.716  21.225  25.597  1.00  0.00     0.041 A 
ATOM     23  C   UNL A   1      33.673  21.470  26.967  1.00  0.00     0.022 A 
ATOM     24  Cl  UNL A   1      34.587  19.860  25.009  1.00  0.00    -0.084 Cl
ENDBRANCH   8  10
ENDBRANCH   5   8
ENDBRANCH   3   4
ENDBRANCH   2   3
ENDBRANCH   1   2
BRANCH   1  25
ATOM     25  N   UNL A   1      33.576  30.576  27.650  1.00  0.00    -0.352 N 
ATOM     26  C   UNL A   1      34.567  31.033  28.489  1.00  0.00     0.251 C 
ATOM     27  H   UNL A   1      32.772  31.145  27.627  1.00  0.00     0.163 HD
ATOM     28  O   UNL A   1      34.351  32.033  29.173  1.00  0.00    -0.269 OA
BRANCH  26  29
ATOM     29  C   UNL A   1      35.858  30.316  28.631  1.00  0.00     0.039 A 
ATOM     30  C   UNL A   1      36.726  30.273  27.534  1.00  0.00     0.014 A 
ATOM     31  C   UNL A   1      36.235  29.695  29.822  1.00  0.00     0.014 A 
ATOM     32  C   UNL A   1      38.011  29.740  27.676  1.00  0.00     0.010 A 
ATOM     33  C   UNL A   1      37.548  29.254  29.992  1.00  0.00     0.010 A 
ATOM     34  C   UNL A   1      38.462  29.300  28.930  1.00  0.00    -0.014 A 
BRANCH  34  35
ATOM     35  C   UNL A   1      39.894  28.969  29.178  1.00  0.00     0.031 A 
ATOM     36  C   UNL A   1      40.862  30.025  29.647  1.00  0.00     0.074 A 
ATOM     37  C   UNL A   1      40.351  27.738  28.861  1.00  0.00     0.049 A 
ATOM     38  N   UNL A   1      42.162  29.951  29.771  1.00  0.00    -0.248 NA
ATOM     39  C   UNL A   1      40.302  31.342  29.993  1.00  0.00     0.031 C 
ATOM     40  C   UNL A   1      39.535  26.635  28.341  1.00  0.00     0.029 A 
ATOM     41  N   UNL A   1      41.619  27.211  28.903  1.00  0.00    -0.354 N 
ATOM     42  C   UNL A   1      42.580  31.214  30.175  1.00  0.00     0.074 A 
ATOM     43  C   UNL A   1      41.398  32.044  30.253  1.00  0.00     0.031 C 
ATOM     44  C   UNL A   1      40.318  25.566  28.128  1.00  0.00     0.029 A 
ATOM     45  C   UNL A   1      41.698  25.916  28.442  1.00  0.00     0.049 A 
ATOM     46  H   UNL A   1      42.400  27.714  29.234  1.00  0.00     0.167 HD
ATOM     47  C   UNL A   1      43.832  31.639  30.466  1.00  0.00     0.031 A 
ATOM     48  C   UNL A   1      42.760  25.106  28.260  1.00  0.00     0.031 A 
ATOM     49  C   UNL A   1      45.004  30.805  30.431  1.00  0.00     0.049 A 
ATOM     50  C   UNL A   1      44.138  25.609  28.590  1.00  0.00     0.074 A 
ATOM     51  C   UNL A   1      46.295  31.124  30.816  1.00  0.00     0.029 A 
ATOM     52  N   UNL A   1      45.033  29.495  29.980  1.00  0.00    -0.354 N 
ATOM     53  N   UNL A   1      44.494  26.779  29.063  1.00  0.00    -0.248 NA
ATOM     54  C   UNL A   1      45.257  24.685  28.356  1.00  0.00     0.031 C 
ATOM     55  C   UNL A   1      47.116  30.025  30.548  1.00  0.00     0.029 A 
ATOM     56  C   UNL A   1      46.327  29.006  30.040  1.00  0.00     0.049 A 
ATOM     57  H   UNL A   1      44.251  28.988  29.665  1.00  0.00     0.167 HD
ATOM     58  C   UNL A   1      45.876  26.725  29.195  1.00  0.00     0.074 A 
ATOM     59  C   UNL A   1      46.291  25.403  28.775  1.00  0.00     0.031 C 
ATOM     60  C   UNL A   1      46.728  27.689  29.618  1.00  0.00     0.031 A 
BRANCH  47  61
ATOM     61  C   UNL A   1      44.020  33.081  30.857  1.00  0.00    -0.014 A 
ATOM     62  C   UNL A   1      44.271  34.068  29.889  1.00  0.00     0.010 A 
ATOM     63  C   UNL A   1      43.835  33.465  32.199  1.00  0.00     0.010 A 
ATOM     64  C   UNL A   1      44.350  35.414  30.257  1.00  0.00     0.020 A 
ATOM     65  C   UNL A   1      43.893  34.812  32.567  1.00  0.00     0.020 A 
ATOM     66  C   UNL A   1      44.157  35.777  31.594  1.00  0.00     0.054 A 
BRANCH  66  67
ATOM     67  S   UNL A   1      44.199  37.538  32.030  1.00  0.00     0.124 S 
ATOM     68  O   UNL A   1      43.286  37.587  33.169  1.00  0.00    -0.237 OA
ATOM     69  O   UNL A   1      45.608  37.757  32.346  1.00  0.00    -0.237 OA
ATOM     70  O   UNL A   1      43.723  38.207  30.822  1.00  0.00    -0.744 OA
ENDBRANCH  66  67
ENDBRANCH  47  61
BRANCH  48  71
ATOM     71  C   UNL A   1      42.573  23.738  27.703  1.00  0.00    -0.014 A 
ATOM     72  C   UNL A   1      42.184  22.675  28.536  1.00  0.00     0.010 A 
ATOM     73  C   UNL A   1      42.815  23.487  26.340  1.00  0.00     0.010 A 
ATOM     74  C   UNL A   1      42.072  21.379  28.024  1.00  0.00     0.020 A 
ATOM     75  C   UNL A   1      42.678  22.198  25.818  1.00  0.00     0.020 A 
ATOM     76  C   UNL A   1      42.327  21.148  26.669  1.00  0.00     0.054 A 
BRANCH  76  77
ATOM     77  S   UNL A   1      42.163  19.462  26.017  1.00  0.00     0.124 S 
ATOM     78  O   UNL A   1      42.961  19.534  24.797  1.00  0.00    -0.237 OA
ATOM     79  O   UNL A   1      42.722  18.648  27.092  1.00  0.00    -0.237 OA
ATOM     80  O   UNL A   1      40.723  19.315  25.818  1.00  0.00    -0.744 OA
ENDBRANCH  76  77
ENDBRANCH  48  71
BRANCH  60  81
ATOM     81  C   UNL A   1      48.192  27.353  29.662  1.00  0.00    -0.014 A 
ATOM     82  C   UNL A   1      49.037  27.680  28.588  1.00  0.00     0.010 A 
ATOM     83  C   UNL A   1      48.741  26.763  30.815  1.00  0.00     0.010 A 
ATOM     84  C   UNL A   1      50.406  27.407  28.659  1.00  0.00     0.020 A 
ATOM     85  C   UNL A   1      50.112  26.511  30.899  1.00  0.00     0.020 A 
ATOM     86  C   UNL A   1      50.935  26.826  29.816  1.00  0.00     0.054 A 
BRANCH  86  87
ATOM     87  S   UNL A   1      52.724  26.540  29.907  1.00  0.00     0.124 S 
ATOM     88  O   UNL A   1      53.236  27.888  30.138  1.00  0.00    -0.237 OA
ATOM     89  O   UNL A   1      52.845  25.619  31.035  1.00  0.00    -0.237 OA
ATOM     90  O   UNL A   1      53.049  25.964  28.603  1.00  0.00    -0.744 OA
ENDBRANCH  86  87
ENDBRANCH  60  81
ENDBRANCH  34  35
ENDBRANCH  26  29
ENDBRANCH   1  25
TORSDOF 14
ENDMDL
MODEL 2
REMARK VINA RESULT:     -12.2      5.185     11.891
REMARK SMILES C[C@H](C(=O)NCCCNC(=O)c1ccc(-c2c3nc(c(-c4ccc(S(=O)(=O)[O-])cc4)c4ccc([nH]4)c(-c4ccc(S(=O)(=O)[O-])cc4)c4nc(c(-c5ccc(S(=O)(=O)[O-])cc5)c5ccc2[nH]5)C=C4)C=C3)cc1)c1ccc2c(c1)[nH]c1ccc(Cl)cc12
REMARK SMILES IDX 8 1 7 2 6 3 5 4 3 5 4 6 2 8 1 9 72 10 73 11 77 12 74 13
REMARK SMILES IDX 76 14 75 15 78 16 85 17 79 18 84 20 80 21 82 22 81 23 83 24
REMARK SMILES IDX 9 25 10 26 11 28 12 29 13 30 71 31 14 32 70 33 15 34 16 35
REMARK SMILES IDX 17 36 64 37 18 38 69 39 63 40 65 41 19 42 68 43 62 44 61 45
REMARK SMILES IDX 20 47 50 48 31 49 49 50 32 51 35 52 48 53 66 54 33 55 34 56
REMARK SMILES IDX 47 58 67 59 36 60 21 61 22 62 30 63 23 64 29 65 24 66 25 67
REMARK SMILES IDX 26 68 27 69 28 70 51 71 52 72 60 73 53 74 59 75 54 76 55 77
REMARK SMILES IDX 56 78 57 79 58 80 37 81 38 82 46 83 39 84 45 85 40 86 41 87
REMARK SMILES IDX 42 88 43 89 44 90
REMARK H PARENT 5 7 78 19 9 27 65 46 35 57
REMARK Flexibility Score: inf
ROOT
ATOM      1  C   UNL A   1      42.042  22.199  26.513  1.00  0.00     0.118 C 
ENDROOT
BRANCH   1   2
ATOM      2  C   UNL A   1      42.875  23.060  25.571  1.00  0.00     0.042 C 
BRANCH   2   3
ATOM      3  C   UNL A   1      43.497  24.306  26.187  1.00  0.00     0.117 C 
BRANCH   3   4
ATOM      4  N   UNL A   1      44.339  25.082  25.287  1.00  0.00    -0.356 N 
ATOM      5  C   UNL A   1      45.396  25.905  25.549  1.00  0.00     0.227 C 
ATOM      6  O   UNL A   1      46.101  26.208  24.578  1.00  0.00    -0.274 OA
ATOM      7  H   UNL A   1      44.108  24.999  24.334  1.00  0.00     0.163 HD
BRANCH   5   8
ATOM      8  C   UNL A   1      45.674  26.553  26.917  1.00  0.00     0.105 C 
ATOM      9  C   UNL A   1      47.109  26.165  27.298  1.00  0.00     0.023 C 
BRANCH   8  10
ATOM     10  C   UNL A   1      45.329  28.033  27.046  1.00  0.00    -0.034 A 
ATOM     11  C   UNL A   1      44.082  28.545  26.653  1.00  0.00     0.005 A 
ATOM     12  C   UNL A   1      46.269  28.902  27.637  1.00  0.00     0.031 A 
ATOM     13  C   UNL A   1      43.695  29.853  26.969  1.00  0.00     0.011 A 
ATOM     14  C   UNL A   1      45.827  30.170  28.034  1.00  0.00     0.047 A 
ATOM     15  C   UNL A   1      44.560  30.659  27.731  1.00  0.00     0.007 A 
ATOM     16  N   UNL A   1      46.451  31.118  28.809  1.00  0.00    -0.355 N 
ATOM     17  C   UNL A   1      44.431  31.939  28.355  1.00  0.00     0.009 A 
ATOM     18  C   UNL A   1      45.612  32.178  29.059  1.00  0.00     0.047 A 
ATOM     19  H   UNL A   1      47.375  31.048  29.141  1.00  0.00     0.167 HD
ATOM     20  C   UNL A   1      43.394  32.891  28.427  1.00  0.00     0.031 A 
ATOM     21  C   UNL A   1      45.803  33.308  29.860  1.00  0.00     0.028 A 
ATOM     22  C   UNL A   1      43.581  34.034  29.209  1.00  0.00     0.041 A 
ATOM     23  C   UNL A   1      44.760  34.238  29.922  1.00  0.00     0.022 A 
ATOM     24  Cl  UNL A   1      42.328  35.214  29.295  1.00  0.00    -0.084 Cl
ENDBRANCH   8  10
ENDBRANCH   5   8
ENDBRANCH   3   4
ENDBRANCH   2   3
ENDBRANCH   1   2
BRANCH   1  25
ATOM     25  N   UNL A   1      40.655  22.016  26.102  1.00  0.00    -0.352 N 
ATOM     26  C   UNL A   1      39.556  22.839  26.199  1.00  0.00     0.251 C 
ATOM     27  H   UNL A   1      40.472  21.146  25.678  1.00  0.00     0.163 HD
ATOM     28  O   UNL A   1      38.461  22.413  25.833  1.00  0.00    -0.269 OA
BRANCH  26  29
ATOM     29  C   UNL A   1      39.651  24.197  26.788  1.00  0.00     0.039 A 
ATOM     30  C   UNL A   1      39.268  24.378  28.122  1.00  0.00     0.014 A 
ATOM     31  C   UNL A   1      40.116  25.292  26.059  1.00  0.00     0.014 A 
ATOM     32  C   UNL A   1      39.487  25.606  28.755  1.00  0.00     0.010 A 
ATOM     33  C   UNL A   1      40.425  26.484  26.714  1.00  0.00     0.010 A 
ATOM     34  C   UNL A   1      40.144  26.646  28.078  1.00  0.00    -0.014 A 
BRANCH  34  35
ATOM     35  C   UNL A   1      40.622  27.866  28.788  1.00  0.00     0.031 A 
ATOM     36  C   UNL A   1      41.961  27.883  29.480  1.00  0.00     0.074 A 
ATOM     37  C   UNL A   1      39.791  28.924  28.914  1.00  0.00     0.049 A 
ATOM     38  N   UNL A   1      42.469  28.800  30.263  1.00  0.00    -0.248 NA
ATOM     39  C   UNL A   1      42.829  26.709  29.292  1.00  0.00     0.031 C 
ATOM     40  C   UNL A   1      38.443  29.020  28.345  1.00  0.00     0.029 A 
ATOM     41  N   UNL A   1      39.946  30.113  29.585  1.00  0.00    -0.354 N 
ATOM     42  C   UNL A   1      43.695  28.302  30.688  1.00  0.00     0.074 A 
ATOM     43  C   UNL A   1      43.846  26.991  30.094  1.00  0.00     0.031 C 
ATOM     44  C   UNL A   1      37.903  30.203  28.677  1.00  0.00     0.029 A 
ATOM     45  C   UNL A   1      38.839  30.931  29.527  1.00  0.00     0.049 A 
ATOM     46  H   UNL A   1      40.772  30.359  30.062  1.00  0.00     0.167 HD
ATOM     47  C   UNL A   1      44.616  28.888  31.489  1.00  0.00     0.031 A 
ATOM     48  C   UNL A   1      38.586  32.118  30.112  1.00  0.00     0.031 A 
ATOM     49  C   UNL A   1      44.488  30.209  32.045  1.00  0.00     0.049 A 
ATOM     50  C   UNL A   1      39.628  32.741  30.998  1.00  0.00     0.074 A 
ATOM     51  C   UNL A   1      45.421  30.925  32.777  1.00  0.00     0.029 A 
ATOM     52  N   UNL A   1      43.362  31.009  31.942  1.00  0.00    -0.354 N 
ATOM     53  N   UNL A   1      40.820  32.292  31.305  1.00  0.00    -0.248 NA
ATOM     54  C   UNL A   1      39.288  34.030  31.620  1.00  0.00     0.031 C 
ATOM     55  C   UNL A   1      44.839  32.136  33.162  1.00  0.00     0.029 A 
ATOM     56  C   UNL A   1      43.561  32.193  32.630  1.00  0.00     0.049 A 
ATOM     57  H   UNL A   1      42.542  30.771  31.452  1.00  0.00     0.167 HD
ATOM     58  C   UNL A   1      41.377  33.249  32.147  1.00  0.00     0.074 A 
ATOM     59  C   UNL A   1      40.402  34.311  32.282  1.00  0.00     0.031 C 
ATOM     60  C   UNL A   1      42.584  33.243  32.759  1.00  0.00     0.031 A 
BRANCH  47  61
ATOM     61  C   UNL A   1      45.864  28.114  31.822  1.00  0.00    -0.014 A 
ATOM     62  C   UNL A   1      45.871  27.160  32.854  1.00  0.00     0.010 A 
ATOM     63  C   UNL A   1      47.011  28.269  31.021  1.00  0.00     0.010 A 
ATOM     64  C   UNL A   1      47.010  26.384  33.089  1.00  0.00     0.020 A 
ATOM     65  C   UNL A   1      48.144  27.480  31.240  1.00  0.00     0.020 A 
ATOM     66  C   UNL A   1      48.138  26.547  32.279  1.00  0.00     0.054 A 
BRANCH  66  67
ATOM     67  S   UNL A   1      49.576  25.479  32.565  1.00  0.00     0.124 S 
ATOM     68  O   UNL A   1      50.600  26.449  32.946  1.00  0.00    -0.237 OA
ATOM     69  O   UNL A   1      49.115  24.601  33.637  1.00  0.00    -0.237 OA
ATOM     70  O   UNL A   1      49.786  24.826  31.276  1.00  0.00    -0.744 OA
ENDBRANCH  66  67
ENDBRANCH  47  61
BRANCH  48  71
ATOM     71  C   UNL A   1      37.272  32.788  29.912  1.00  0.00    -0.014 A 
ATOM     72  C   UNL A   1      37.032  33.563  28.763  1.00  0.00     0.010 A 
ATOM     73  C   UNL A   1      36.263  32.679  30.887  1.00  0.00     0.010 A 
ATOM     74  C   UNL A   1      35.821  34.244  28.608  1.00  0.00     0.020 A 
ATOM     75  C   UNL A   1      35.041  33.337  30.723  1.00  0.00     0.020 A 
ATOM     76  C   UNL A   1      34.836  34.131  29.593  1.00  0.00     0.054 A 
BRANCH  76  77
ATOM     77  S   UNL A   1      33.263  35.010  29.370  1.00  0.00     0.124 S 
ATOM     78  O   UNL A   1      33.714  36.318  28.905  1.00  0.00    -0.237 OA
ATOM     79  O   UNL A   1      32.575  34.188  28.379  1.00  0.00    -0.237 OA
ATOM     80  O   UNL A   1      32.671  34.988  30.706  1.00  0.00    -0.744 OA
ENDBRANCH  76  77
ENDBRANCH  48  71
BRANCH  60  81
ATOM     81  C   UNL A   1      42.931  34.423  33.623  1.00  0.00    -0.014 A 
ATOM     82  C   UNL A   1      42.702  34.391  35.010  1.00  0.00     0.010 A 
ATOM     83  C   UNL A   1      43.552  35.549  33.054  1.00  0.00     0.010 A 
ATOM     84  C   UNL A   1      43.073  35.473  35.811  1.00  0.00     0.020 A 
ATOM     85  C   UNL A   1      43.946  36.623  33.856  1.00  0.00     0.020 A 
ATOM     86  C   UNL A   1      43.695  36.583  35.229  1.00  0.00     0.054 A 
BRANCH  86  87
ATOM     87  S   UNL A   1      44.222  37.948  36.300  1.00  0.00     0.124 S 
ATOM     88  O   UNL A   1      43.407  37.732  37.492  1.00  0.00    -0.237 OA
ATOM     89  O   UNL A   1      45.653  37.696  36.461  1.00  0.00    -0.237 OA
ATOM     90  O   UNL A   1      43.890  39.143  35.525  1.00  0.00    -0.744 OA
ENDBRANCH  86  87
ENDBRANCH  60  81
ENDBRANCH  34  35
ENDBRANCH  26  29
ENDBRANCH   1  25
TORSDOF 14
ENDMDL
MODEL 3
REMARK VINA RESULT:     -12.2      3.455      9.676
REMARK SMILES C[C@H](C(=O)NCCCNC(=O)c1ccc(-c2c3nc(c(-c4ccc(S(=O)(=O)[O-])cc4)c4ccc([nH]4)c(-c4ccc(S(=O)(=O)[O-])cc4)c4nc(c(-c5ccc(S(=O)(=O)[O-])cc5)c5ccc2[nH]5)C=C4)C=C3)cc1)c1ccc2c(c1)[nH]c1ccc(Cl)cc12
REMARK SMILES IDX 8 1 7 2 6 3 5 4 3 5 4 6 2 8 1 9 72 10 73 11 77 12 74 13
REMARK SMILES IDX 76 14 75 15 78 16 85 17 79 18 84 20 80 21 82 22 81 23 83 24
REMARK SMILES IDX 9 25 10 26 11 28 12 29 13 30 71 31 14 32 70 33 15 34 16 35
REMARK SMILES IDX 17 36 64 37 18 38 69 39 63 40 65 41 19 42 68 43 62 44 61 45
REMARK SMILES IDX 20 47 50 48 31 49 49 50 32 51 35 52 48 53 66 54 33 55 34 56
REMARK SMILES IDX 47 58 67 59 36 60 21 61 22 62 30 63 23 64 29 65 24 66 25 67
REMARK SMILES IDX 26 68 27 69 28 70 51 71 52 72 60 73 53 74 59 75 54 76 55 77
REMARK SMILES IDX 56 78 57 79 58 80 37 81 38 82 46 83 39 84 45 85 40 86 41 87
REMARK SMILES IDX 42 88 43 89 44 90
REMARK H PARENT 5 7 78 19 9 27 65 46 35 57
REMARK Flexibility Score: inf
ROOT
ATOM      1  C   UNL A   1      37.152  23.372  25.171  1.00  0.00     0.118 C 
ENDROOT
BRANCH   1   2
ATOM      2  C   UNL A   1      35.851  22.707  25.603  1.00  0.00     0.042 C 
BRANCH   2   3
ATOM      3  C   UNL A   1      35.779  21.199  25.404  1.00  0.00     0.117 C 
BRANCH   3   4
ATOM      4  N   UNL A   1      34.499  20.594  25.749  1.00  0.00    -0.356 N 
ATOM      5  C   UNL A   1      33.423  20.288  24.968  1.00  0.00     0.227 C 
ATOM      6  O   UNL A   1      32.588  19.523  25.470  1.00  0.00    -0.274 OA
ATOM      7  H   UNL A   1      34.394  20.369  26.701  1.00  0.00     0.163 HD
BRANCH   5   8
ATOM      8  C   UNL A   1      33.140  20.919  23.593  1.00  0.00     0.105 C 
ATOM      9  C   UNL A   1      32.151  19.985  22.882  1.00  0.00     0.023 C 
BRANCH   8  10
ATOM     10  C   UNL A   1      32.774  22.399  23.591  1.00  0.00    -0.034 A 
ATOM     11  C   UNL A   1      33.485  23.342  22.831  1.00  0.00     0.005 A 
ATOM     12  C   UNL A   1      31.648  22.824  24.326  1.00  0.00     0.031 A 
ATOM     13  C   UNL A   1      33.018  24.652  22.665  1.00  0.00     0.011 A 
ATOM     14  C   UNL A   1      31.143  24.103  24.066  1.00  0.00     0.047 A 
ATOM     15  C   UNL A   1      31.789  25.019  23.241  1.00  0.00     0.007 A 
ATOM     16  N   UNL A   1      29.962  24.682  24.464  1.00  0.00    -0.355 N 
ATOM     17  C   UNL A   1      30.955  26.177  23.146  1.00  0.00     0.009 A 
ATOM     18  C   UNL A   1      29.800  25.918  23.884  1.00  0.00     0.047 A 
ATOM     19  H   UNL A   1      29.317  24.267  25.082  1.00  0.00     0.167 HD
ATOM     20  C   UNL A   1      31.057  27.401  22.454  1.00  0.00     0.031 A 
ATOM     21  C   UNL A   1      28.722  26.807  23.945  1.00  0.00     0.028 A 
ATOM     22  C   UNL A   1      29.995  28.306  22.522  1.00  0.00     0.041 A 
ATOM     23  C   UNL A   1      28.842  28.013  23.246  1.00  0.00     0.022 A 
ATOM     24  Cl  UNL A   1      30.112  29.812  21.694  1.00  0.00    -0.084 Cl
ENDBRANCH   8  10
ENDBRANCH   5   8
ENDBRANCH   3   4
ENDBRANCH   2   3
ENDBRANCH   1   2
BRANCH   1  25
ATOM     25  N   UNL A   1      38.359  22.637  25.530  1.00  0.00    -0.352 N 
ATOM     26  C   UNL A   1      39.478  23.006  26.241  1.00  0.00     0.251 C 
ATOM     27  H   UNL A   1      38.376  21.707  25.205  1.00  0.00     0.163 HD
ATOM     28  O   UNL A   1      40.406  22.206  26.347  1.00  0.00    -0.269 OA
BRANCH  26  29
ATOM     29  C   UNL A   1      39.614  24.363  26.827  1.00  0.00     0.039 A 
ATOM     30  C   UNL A   1      39.018  24.621  28.066  1.00  0.00     0.014 A 
ATOM     31  C   UNL A   1      40.323  25.380  26.188  1.00  0.00     0.014 A 
ATOM     32  C   UNL A   1      39.253  25.836  28.719  1.00  0.00     0.010 A 
ATOM     33  C   UNL A   1      40.638  26.550  26.879  1.00  0.00     0.010 A 
ATOM     34  C   UNL A   1      40.132  26.780  28.167  1.00  0.00    -0.014 A 
BRANCH  34  35
ATOM     35  C   UNL A   1      40.605  27.961  28.943  1.00  0.00     0.031 A 
ATOM     36  C   UNL A   1      41.909  27.919  29.698  1.00  0.00     0.074 A 
ATOM     37  C   UNL A   1      39.795  29.036  29.067  1.00  0.00     0.049 A 
ATOM     38  N   UNL A   1      42.401  28.793  30.538  1.00  0.00    -0.248 NA
ATOM     39  C   UNL A   1      42.756  26.729  29.508  1.00  0.00     0.031 C 
ATOM     40  C   UNL A   1      38.480  29.187  28.438  1.00  0.00     0.029 A 
ATOM     41  N   UNL A   1      39.947  30.196  29.787  1.00  0.00    -0.354 N 
ATOM     42  C   UNL A   1      43.592  28.248  31.002  1.00  0.00     0.074 A 
ATOM     43  C   UNL A   1      43.740  26.956  30.369  1.00  0.00     0.031 C 
ATOM     44  C   UNL A   1      37.954  30.372  28.787  1.00  0.00     0.029 A 
ATOM     45  C   UNL A   1      38.865  31.044  29.706  1.00  0.00     0.049 A 
ATOM     46  H   UNL A   1      40.755  30.403  30.312  1.00  0.00     0.167 HD
ATOM     47  C   UNL A   1      44.488  28.781  31.867  1.00  0.00     0.031 A 
ATOM     48  C   UNL A   1      38.613  32.216  30.321  1.00  0.00     0.031 A 
ATOM     49  C   UNL A   1      44.365  30.085  32.464  1.00  0.00     0.049 A 
ATOM     50  C   UNL A   1      39.626  32.780  31.279  1.00  0.00     0.074 A 
ATOM     51  C   UNL A   1      45.278  30.749  33.265  1.00  0.00     0.029 A 
ATOM     52  N   UNL A   1      43.265  30.917  32.336  1.00  0.00    -0.354 N 
ATOM     53  N   UNL A   1      40.790  32.289  31.626  1.00  0.00    -0.248 NA
ATOM     54  C   UNL A   1      39.288  34.054  31.931  1.00  0.00     0.031 C 
ATOM     55  C   UNL A   1      44.708  31.961  33.666  1.00  0.00     0.029 A 
ATOM     56  C   UNL A   1      43.460  32.071  33.076  1.00  0.00     0.049 A 
ATOM     57  H   UNL A   1      42.465  30.718  31.799  1.00  0.00     0.167 HD
ATOM     58  C   UNL A   1      41.329  33.200  32.527  1.00  0.00     0.074 A 
ATOM     59  C   UNL A   1      40.376  34.283  32.654  1.00  0.00     0.031 C 
ATOM     60  C   UNL A   1      42.505  33.141  33.196  1.00  0.00     0.031 A 
BRANCH  47  61
ATOM     61  C   UNL A   1      45.698  27.963  32.231  1.00  0.00    -0.014 A 
ATOM     62  C   UNL A   1      45.693  27.124  33.358  1.00  0.00     0.010 A 
ATOM     63  C   UNL A   1      46.813  27.955  31.371  1.00  0.00     0.010 A 
ATOM     64  C   UNL A   1      46.790  26.301  33.629  1.00  0.00     0.020 A 
ATOM     65  C   UNL A   1      47.903  27.118  31.629  1.00  0.00     0.020 A 
ATOM     66  C   UNL A   1      47.887  26.301  32.761  1.00  0.00     0.054 A 
BRANCH  66  67
ATOM     67  S   UNL A   1      49.266  25.173  33.103  1.00  0.00     0.124 S 
ATOM     68  O   UNL A   1      48.583  24.046  33.733  1.00  0.00    -0.237 OA
ATOM     69  O   UNL A   1      49.807  24.914  31.771  1.00  0.00    -0.237 OA
ATOM     70  O   UNL A   1      50.136  25.946  33.986  1.00  0.00    -0.744 OA
ENDBRANCH  66  67
ENDBRANCH  47  61
BRANCH  48  71
ATOM     71  C   UNL A   1      37.327  32.928  30.083  1.00  0.00    -0.014 A 
ATOM     72  C   UNL A   1      36.255  32.787  30.981  1.00  0.00     0.010 A 
ATOM     73  C   UNL A   1      37.160  33.728  28.937  1.00  0.00     0.010 A 
ATOM     74  C   UNL A   1      35.028  33.404  30.722  1.00  0.00     0.020 A 
ATOM     75  C   UNL A   1      35.943  34.368  28.688  1.00  0.00     0.020 A 
ATOM     76  C   UNL A   1      34.878  34.185  29.573  1.00  0.00     0.054 A 
BRANCH  76  77
ATOM     77  S   UNL A   1      33.283  34.991  29.258  1.00  0.00     0.124 S 
ATOM     78  O   UNL A   1      32.687  34.100  28.268  1.00  0.00    -0.237 OA
ATOM     79  O   UNL A   1      32.655  34.984  30.577  1.00  0.00    -0.237 OA
ATOM     80  O   UNL A   1      33.664  36.313  28.765  1.00  0.00    -0.744 OA
ENDBRANCH  76  77
ENDBRANCH  48  71
BRANCH  60  81
ATOM     81  C   UNL A   1      42.838  34.280  34.119  1.00  0.00    -0.014 A 
ATOM     82  C   UNL A   1      42.525  34.212  35.487  1.00  0.00     0.010 A 
ATOM     83  C   UNL A   1      43.529  35.401  33.625  1.00  0.00     0.010 A 
ATOM     84  C   UNL A   1      42.883  35.255  36.345  1.00  0.00     0.020 A 
ATOM     85  C   UNL A   1      43.909  36.435  34.484  1.00  0.00     0.020 A 
ATOM     86  C   UNL A   1      43.575  36.360  35.838  1.00  0.00     0.054 A 
BRANCH  86  87
ATOM     87  S   UNL A   1      44.083  37.671  36.983  1.00  0.00     0.124 S 
ATOM     88  O   UNL A   1      44.146  38.835  36.104  1.00  0.00    -0.237 OA
ATOM     89  O   UNL A   1      42.999  37.680  37.963  1.00  0.00    -0.237 OA
ATOM     90  O   UNL A   1      45.371  37.205  37.493  1.00  0.00    -0.744 OA
ENDBRANCH  86  87
ENDBRANCH  60  81
ENDBRANCH  34  35
ENDBRANCH  26  29
ENDBRANCH   1  25
TORSDOF 14
ENDMDL
