MODEL 1
REMARK VINA RESULT:     -12.0      0.000      0.000
REMARK SMILES CC[C@@]1(C)NC(=O)N(/N=C/c2ccccc2C(=O)NCCCNC(=O)c2ccc(-c3c4nc(c(-c5ccc(S(=O)(=O)[O-])cc5)c5ccc([nH]5)c(-c5ccc(S(=O)(=O)[O-])cc5)c5nc(c(-c6ccc(S(=O)(=O)[O-])cc6)c6ccc3[nH]6)C=C5)C=C4)cc2)C1=O
REMARK SMILES IDX 21 1 20 2 19 3 17 4 18 5 16 7 11 8 12 9 13 10 15 11 14 12
REMARK SMILES IDX 10 13 9 14 8 15 3 16 4 17 5 18 86 19 6 20 87 22 7 23 2 24
REMARK SMILES IDX 1 25 22 26 23 27 24 28 25 30 26 31 27 32 85 33 28 34 84 35
REMARK SMILES IDX 29 36 30 37 31 38 78 39 32 40 83 41 77 42 79 43 33 44 82 45
REMARK SMILES IDX 76 46 75 47 34 49 64 50 45 51 63 52 46 53 49 54 62 55 80 56
REMARK SMILES IDX 47 57 48 58 61 60 81 61 50 62 35 63 36 64 44 65 37 66 43 67
REMARK SMILES IDX 38 68 39 69 40 70 41 71 42 72 65 73 66 74 74 75 67 76 73 77
REMARK SMILES IDX 68 78 69 79 70 80 71 81 72 82 51 83 52 84 60 85 53 86 59 87
REMARK SMILES IDX 54 88 55 89 56 90 57 91 58 92
REMARK H PARENT 19 6 5 21 23 29 79 48 49 59
REMARK Flexibility Score: inf
ROOT
ATOM      1  C   UNL A   1      37.930  22.803  26.158  1.00  0.00     0.042 C 
ENDROOT
BRANCH   1   2
ATOM      2  C   UNL A   1      36.541  22.969  25.617  1.00  0.00     0.118 C 
BRANCH   2   3
ATOM      3  N   UNL A   1      35.446  23.143  26.518  1.00  0.00    -0.352 N 
ATOM      4  C   UNL A   1      34.309  22.367  26.586  1.00  0.00     0.251 C 
ATOM      5  O   UNL A   1      33.690  22.394  27.654  1.00  0.00    -0.269 OA
ATOM      6  H   UNL A   1      35.511  23.891  27.155  1.00  0.00     0.163 HD
BRANCH   4   7
ATOM      7  C   UNL A   1      33.671  21.668  25.416  1.00  0.00     0.048 A 
ATOM      8  C   UNL A   1      32.979  22.155  24.287  1.00  0.00     0.007 A 
ATOM      9  C   UNL A   1      32.369  21.248  23.390  1.00  0.00     0.010 A 
ATOM     10  C   UNL A   1      32.479  19.869  23.561  1.00  0.00     0.001 A 
ATOM     11  C   UNL A   1      33.776  20.258  25.546  1.00  0.00     0.014 A 
ATOM     12  C   UNL A   1      33.195  19.371  24.636  1.00  0.00     0.001 A 
BRANCH   8  13
ATOM     13  C   UNL A   1      32.693  23.562  23.918  1.00  0.00     0.143 C 
ATOM     14  N   UNL A   1      33.499  24.545  24.142  1.00  0.00    -0.169 NA
BRANCH  14  15
ATOM     15  N   UNL A   1      33.031  25.853  24.017  1.00  0.00    -0.146 N 
ATOM     16  C   UNL A   1      32.380  28.118  24.356  1.00  0.00     0.120 C 
ATOM     17  C   UNL A   1      30.893  28.375  24.121  1.00  0.00     0.045 C 
ATOM     18  N   UNL A   1      33.041  27.897  23.095  1.00  0.00    -0.322 N 
ATOM     19  C   UNL A   1      32.548  26.714  24.992  1.00  0.00     0.276 C 
ATOM     20  C   UNL A   1      33.352  26.569  22.875  1.00  0.00     0.346 C 
ATOM     21  H   UNL A   1      33.250  28.617  22.457  1.00  0.00     0.166 HD
ATOM     22  O   UNL A   1      32.262  26.464  26.157  1.00  0.00    -0.270 OA
ATOM     23  O   UNL A   1      33.925  26.180  21.873  1.00  0.00    -0.246 OA
BRANCH  16  24
ATOM     24  C   UNL A   1      33.055  29.203  25.213  1.00  0.00     0.035 C 
ATOM     25  C   UNL A   1      32.077  30.084  25.982  1.00  0.00     0.007 C 
ENDBRANCH  16  24
ENDBRANCH  14  15
ENDBRANCH   8  13
ENDBRANCH   4   7
ENDBRANCH   2   3
ENDBRANCH   1   2
BRANCH   1  26
ATOM     26  C   UNL A   1      38.602  24.064  26.658  1.00  0.00     0.118 C 
BRANCH  26  27
ATOM     27  N   UNL A   1      39.804  24.482  25.937  1.00  0.00    -0.352 N 
ATOM     28  C   UNL A   1      40.726  25.483  26.157  1.00  0.00     0.251 C 
ATOM     29  H   UNL A   1      39.993  23.942  25.136  1.00  0.00     0.163 HD
ATOM     30  O   UNL A   1      41.637  25.639  25.342  1.00  0.00    -0.269 OA
BRANCH  28  31
ATOM     31  C   UNL A   1      40.588  26.455  27.271  1.00  0.00     0.039 A 
ATOM     32  C   UNL A   1      39.742  26.126  28.340  1.00  0.00     0.014 A 
ATOM     33  C   UNL A   1      41.287  27.656  27.320  1.00  0.00     0.014 A 
ATOM     34  C   UNL A   1      39.729  26.903  29.497  1.00  0.00     0.010 A 
ATOM     35  C   UNL A   1      41.383  28.367  28.504  1.00  0.00     0.010 A 
ATOM     36  C   UNL A   1      40.576  28.009  29.588  1.00  0.00    -0.014 A 
BRANCH  36  37
ATOM     37  C   UNL A   1      40.406  28.996  30.664  1.00  0.00     0.031 A 
ATOM     38  C   UNL A   1      41.310  28.843  31.853  1.00  0.00     0.074 A 
ATOM     39  C   UNL A   1      39.465  29.953  30.587  1.00  0.00     0.049 A 
ATOM     40  N   UNL A   1      41.336  29.519  32.966  1.00  0.00    -0.248 NA
ATOM     41  C   UNL A   1      42.306  27.753  31.786  1.00  0.00     0.031 C 
ATOM     42  C   UNL A   1      38.553  30.164  29.461  1.00  0.00     0.029 A 
ATOM     43  N   UNL A   1      39.123  30.929  31.483  1.00  0.00    -0.354 N 
ATOM     44  C   UNL A   1      42.340  28.931  33.727  1.00  0.00     0.074 A 
ATOM     45  C   UNL A   1      42.849  27.803  32.988  1.00  0.00     0.031 C 
ATOM     46  C   UNL A   1      37.764  31.220  29.730  1.00  0.00     0.029 A 
ATOM     47  C   UNL A   1      38.096  31.736  31.055  1.00  0.00     0.049 A 
ATOM     48  H   UNL A   1      39.571  31.043  32.352  1.00  0.00     0.167 HD
ATOM     49  C   UNL A   1      42.814  29.317  34.931  1.00  0.00     0.031 A 
ATOM     50  C   UNL A   1      37.505  32.774  31.680  1.00  0.00     0.031 A 
ATOM     51  C   UNL A   1      42.279  30.435  35.650  1.00  0.00     0.049 A 
ATOM     52  C   UNL A   1      38.029  33.167  33.040  1.00  0.00     0.074 A 
ATOM     53  C   UNL A   1      42.651  30.929  36.883  1.00  0.00     0.029 A 
ATOM     54  N   UNL A   1      41.242  31.234  35.184  1.00  0.00    -0.354 N 
ATOM     55  N   UNL A   1      38.994  32.616  33.745  1.00  0.00    -0.248 NA
ATOM     56  C   UNL A   1      37.403  34.329  33.680  1.00  0.00     0.031 C 
ATOM     57  C   UNL A   1      41.805  32.002  37.185  1.00  0.00     0.029 A 
ATOM     58  C   UNL A   1      40.954  32.215  36.109  1.00  0.00     0.049 A 
ATOM     59  H   UNL A   1      40.783  31.117  34.321  1.00  0.00     0.167 HD
ATOM     60  C   UNL A   1      39.118  33.391  34.892  1.00  0.00     0.074 A 
ATOM     61  C   UNL A   1      38.135  34.453  34.780  1.00  0.00     0.031 C 
ATOM     62  C   UNL A   1      39.966  33.253  35.943  1.00  0.00     0.031 A 
BRANCH  49  63
ATOM     63  C   UNL A   1      43.930  28.499  35.520  1.00  0.00    -0.014 A 
ATOM     64  C   UNL A   1      43.664  27.385  36.341  1.00  0.00     0.010 A 
ATOM     65  C   UNL A   1      45.264  28.873  35.288  1.00  0.00     0.010 A 
ATOM     66  C   UNL A   1      44.709  26.693  36.957  1.00  0.00     0.020 A 
ATOM     67  C   UNL A   1      46.314  28.163  35.875  1.00  0.00     0.020 A 
ATOM     68  C   UNL A   1      46.028  27.088  36.722  1.00  0.00     0.054 A 
BRANCH  68  69
ATOM     69  S   UNL A   1      47.369  26.164  37.522  1.00  0.00     0.124 S 
ATOM     70  O   UNL A   1      48.347  26.057  36.442  1.00  0.00    -0.237 OA
ATOM     71  O   UNL A   1      47.745  27.042  38.627  1.00  0.00    -0.237 OA
ATOM     72  O   UNL A   1      46.737  24.908  37.916  1.00  0.00    -0.744 OA
ENDBRANCH  68  69
ENDBRANCH  49  63
BRANCH  50  73
ATOM     73  C   UNL A   1      36.390  33.519  31.029  1.00  0.00    -0.014 A 
ATOM     74  C   UNL A   1      36.532  34.046  29.733  1.00  0.00     0.010 A 
ATOM     75  C   UNL A   1      35.171  33.710  31.706  1.00  0.00     0.010 A 
ATOM     76  C   UNL A   1      35.492  34.769  29.137  1.00  0.00     0.020 A 
ATOM     77  C   UNL A   1      34.117  34.407  31.103  1.00  0.00     0.020 A 
ATOM     78  C   UNL A   1      34.290  34.944  29.826  1.00  0.00     0.054 A 
BRANCH  78  79
ATOM     79  S   UNL A   1      32.940  35.852  29.019  1.00  0.00     0.124 S 
ATOM     80  O   UNL A   1      33.658  36.927  28.343  1.00  0.00    -0.237 OA
ATOM     81  O   UNL A   1      32.353  34.835  28.149  1.00  0.00    -0.237 OA
ATOM     82  O   UNL A   1      32.094  36.270  30.135  1.00  0.00    -0.744 OA
ENDBRANCH  78  79
ENDBRANCH  50  73
BRANCH  62  83
ATOM     83  C   UNL A   1      39.906  34.306  37.014  1.00  0.00    -0.014 A 
ATOM     84  C   UNL A   1      40.645  35.496  36.918  1.00  0.00     0.010 A 
ATOM     85  C   UNL A   1      39.044  34.112  38.110  1.00  0.00     0.010 A 
ATOM     86  C   UNL A   1      40.559  36.457  37.927  1.00  0.00     0.020 A 
ATOM     87  C   UNL A   1      38.930  35.086  39.101  1.00  0.00     0.020 A 
ATOM     88  C   UNL A   1      39.704  36.243  39.014  1.00  0.00     0.054 A 
BRANCH  88  89
ATOM     89  S   UNL A   1      39.594  37.514  40.299  1.00  0.00     0.124 S 
ATOM     90  O   UNL A   1      38.741  38.514  39.665  1.00  0.00    -0.237 OA
ATOM     91  O   UNL A   1      38.991  36.789  41.415  1.00  0.00    -0.237 OA
ATOM     92  O   UNL A   1      40.983  37.919  40.506  1.00  0.00    -0.744 OA
ENDBRANCH  88  89
ENDBRANCH  62  83
ENDBRANCH  36  37
ENDBRANCH  28  31
ENDBRANCH  26  27
ENDBRANCH   1  26
TORSDOF 16
ENDMDL
MODEL 2
REMARK VINA RESULT:     -11.9      0.850      8.297
REMARK SMILES CC[C@@]1(C)NC(=O)N(/N=C/c2ccccc2C(=O)NCCCNC(=O)c2ccc(-c3c4nc(c(-c5ccc(S(=O)(=O)[O-])cc5)c5ccc([nH]5)c(-c5ccc(S(=O)(=O)[O-])cc5)c5nc(c(-c6ccc(S(=O)(=O)[O-])cc6)c6ccc3[nH]6)C=C5)C=C4)cc2)C1=O
REMARK SMILES IDX 21 1 20 2 19 3 17 4 18 5 16 7 11 8 12 9 13 10 15 11 14 12
REMARK SMILES IDX 10 13 9 14 8 15 3 16 4 17 5 18 86 19 6 20 87 22 7 23 2 24
REMARK SMILES IDX 1 25 22 26 23 27 24 28 25 30 26 31 27 32 85 33 28 34 84 35
REMARK SMILES IDX 29 36 30 37 31 38 78 39 32 40 83 41 77 42 79 43 33 44 82 45
REMARK SMILES IDX 76 46 75 47 34 49 64 50 45 51 63 52 46 53 49 54 62 55 80 56
REMARK SMILES IDX 47 57 48 58 61 60 81 61 50 62 35 63 36 64 44 65 37 66 43 67
REMARK SMILES IDX 38 68 39 69 40 70 41 71 42 72 65 73 66 74 74 75 67 76 73 77
REMARK SMILES IDX 68 78 69 79 70 80 71 81 72 82 51 83 52 84 60 85 53 86 59 87
REMARK SMILES IDX 54 88 55 89 56 90 57 91 58 92
REMARK H PARENT 19 6 5 21 23 29 79 48 49 59
REMARK Flexibility Score: inf
ROOT
ATOM      1  C   UNL A   1      37.997  23.011  26.151  1.00  0.00     0.042 C 
ENDROOT
BRANCH   1   2
ATOM      2  C   UNL A   1      36.569  23.089  25.699  1.00  0.00     0.118 C 
BRANCH   2   3
ATOM      3  N   UNL A   1      35.519  23.118  26.668  1.00  0.00    -0.352 N 
ATOM      4  C   UNL A   1      34.454  22.247  26.747  1.00  0.00     0.251 C 
ATOM      5  O   UNL A   1      33.899  22.158  27.847  1.00  0.00    -0.269 OA
ATOM      6  H   UNL A   1      35.563  23.829  27.347  1.00  0.00     0.163 HD
BRANCH   4   7
ATOM      7  C   UNL A   1      33.805  21.568  25.571  1.00  0.00     0.048 A 
ATOM      8  C   UNL A   1      33.229  22.075  24.387  1.00  0.00     0.007 A 
ATOM      9  C   UNL A   1      32.572  21.200  23.493  1.00  0.00     0.010 A 
ATOM     10  C   UNL A   1      32.521  19.826  23.724  1.00  0.00     0.001 A 
ATOM     11  C   UNL A   1      33.749  20.163  25.762  1.00  0.00     0.014 A 
ATOM     12  C   UNL A   1      33.123  19.303  24.856  1.00  0.00     0.001 A 
BRANCH   8  13
ATOM     13  C   UNL A   1      33.117  23.488  23.948  1.00  0.00     0.143 C 
ATOM     14  N   UNL A   1      34.094  24.331  23.974  1.00  0.00    -0.169 NA
BRANCH  14  15
ATOM     15  N   UNL A   1      33.827  25.690  23.810  1.00  0.00    -0.146 N 
ATOM     16  C   UNL A   1      33.068  27.825  23.080  1.00  0.00     0.120 C 
ATOM     17  C   UNL A   1      34.194  28.779  22.688  1.00  0.00     0.045 C 
ATOM     18  N   UNL A   1      33.041  27.669  24.513  1.00  0.00    -0.322 N 
ATOM     19  C   UNL A   1      33.468  26.387  22.665  1.00  0.00     0.276 C 
ATOM     20  C   UNL A   1      33.549  26.454  24.931  1.00  0.00     0.346 C 
ATOM     21  H   UNL A   1      32.695  28.355  25.129  1.00  0.00     0.166 HD
ATOM     22  O   UNL A   1      33.470  25.997  21.503  1.00  0.00    -0.270 OA
ATOM     23  O   UNL A   1      33.599  26.125  26.104  1.00  0.00    -0.246 OA
BRANCH  16  24
ATOM     24  C   UNL A   1      31.704  28.219  22.487  1.00  0.00     0.035 C 
ATOM     25  C   UNL A   1      30.540  27.378  22.999  1.00  0.00     0.007 C 
ENDBRANCH  16  24
ENDBRANCH  14  15
ENDBRANCH   8  13
ENDBRANCH   4   7
ENDBRANCH   2   3
ENDBRANCH   1   2
BRANCH   1  26
ATOM     26  C   UNL A   1      38.606  24.302  26.654  1.00  0.00     0.118 C 
BRANCH  26  27
ATOM     27  N   UNL A   1      39.713  24.841  25.865  1.00  0.00    -0.352 N 
ATOM     28  C   UNL A   1      40.629  25.844  26.102  1.00  0.00     0.251 C 
ATOM     29  H   UNL A   1      39.827  24.402  24.991  1.00  0.00     0.163 HD
ATOM     30  O   UNL A   1      41.443  26.124  25.220  1.00  0.00    -0.269 OA
BRANCH  28  31
ATOM     31  C   UNL A   1      40.588  26.679  27.329  1.00  0.00     0.039 A 
ATOM     32  C   UNL A   1      39.783  26.256  28.395  1.00  0.00     0.014 A 
ATOM     33  C   UNL A   1      41.341  27.838  27.481  1.00  0.00     0.014 A 
ATOM     34  C   UNL A   1      39.860  26.887  29.636  1.00  0.00     0.010 A 
ATOM     35  C   UNL A   1      41.526  28.398  28.734  1.00  0.00     0.010 A 
ATOM     36  C   UNL A   1      40.758  27.942  29.810  1.00  0.00    -0.014 A 
BRANCH  36  37
ATOM     37  C   UNL A   1      40.684  28.798  31.004  1.00  0.00     0.031 A 
ATOM     38  C   UNL A   1      39.643  29.880  30.979  1.00  0.00     0.074 A 
ATOM     39  C   UNL A   1      41.531  28.629  32.034  1.00  0.00     0.049 A 
ATOM     40  N   UNL A   1      39.401  30.815  31.853  1.00  0.00    -0.248 NA
ATOM     41  C   UNL A   1      38.775  29.930  29.785  1.00  0.00     0.031 C 
ATOM     42  C   UNL A   1      42.565  27.597  32.127  1.00  0.00     0.029 A 
ATOM     43  N   UNL A   1      41.652  29.332  33.201  1.00  0.00    -0.354 N 
ATOM     44  C   UNL A   1      38.362  31.562  31.309  1.00  0.00     0.074 A 
ATOM     45  C   UNL A   1      38.069  31.024  30.005  1.00  0.00     0.031 C 
ATOM     46  C   UNL A   1      43.206  27.726  33.304  1.00  0.00     0.029 A 
ATOM     47  C   UNL A   1      42.647  28.865  34.027  1.00  0.00     0.049 A 
ATOM     48  H   UNL A   1      41.081  30.100  33.429  1.00  0.00     0.167 HD
ATOM     49  C   UNL A   1      37.692  32.595  31.865  1.00  0.00     0.031 A 
ATOM     50  C   UNL A   1      43.045  29.321  35.232  1.00  0.00     0.031 A 
ATOM     51  C   UNL A   1      38.015  33.118  33.158  1.00  0.00     0.049 A 
ATOM     52  C   UNL A   1      42.303  30.498  35.818  1.00  0.00     0.074 A 
ATOM     53  C   UNL A   1      37.432  34.168  33.837  1.00  0.00     0.029 A 
ATOM     54  N   UNL A   1      39.025  32.617  33.970  1.00  0.00    -0.354 N 
ATOM     55  N   UNL A   1      41.308  31.186  35.304  1.00  0.00    -0.248 NA
ATOM     56  C   UNL A   1      42.723  30.946  37.151  1.00  0.00     0.031 C 
ATOM     57  C   UNL A   1      38.122  34.333  35.043  1.00  0.00     0.029 A 
ATOM     58  C   UNL A   1      39.089  33.341  35.142  1.00  0.00     0.049 A 
ATOM     59  H   UNL A   1      39.608  31.856  33.742  1.00  0.00     0.167 HD
ATOM     60  C   UNL A   1      40.954  32.123  36.269  1.00  0.00     0.074 A 
ATOM     61  C   UNL A   1      41.838  31.903  37.399  1.00  0.00     0.031 C 
ATOM     62  C   UNL A   1      39.987  33.074  36.238  1.00  0.00     0.031 A 
BRANCH  49  63
ATOM     63  C   UNL A   1      36.590  33.211  31.049  1.00  0.00    -0.014 A 
ATOM     64  C   UNL A   1      36.863  33.890  29.845  1.00  0.00     0.010 A 
ATOM     65  C   UNL A   1      35.265  33.151  31.513  1.00  0.00     0.010 A 
ATOM     66  C   UNL A   1      35.841  34.538  29.149  1.00  0.00     0.020 A 
ATOM     67  C   UNL A   1      34.233  33.769  30.802  1.00  0.00     0.020 A 
ATOM     68  C   UNL A   1      34.532  34.475  29.633  1.00  0.00     0.054 A 
BRANCH  68  69
ATOM     69  S   UNL A   1      33.219  35.313  28.703  1.00  0.00     0.124 S 
ATOM     70  O   UNL A   1      33.985  36.224  27.856  1.00  0.00    -0.237 OA
ATOM     71  O   UNL A   1      32.567  34.207  28.008  1.00  0.00    -0.237 OA
ATOM     72  O   UNL A   1      32.415  35.955  29.739  1.00  0.00    -0.744 OA
ENDBRANCH  68  69
ENDBRANCH  49  63
BRANCH  50  73
ATOM     73  C   UNL A   1      44.163  28.660  35.963  1.00  0.00    -0.014 A 
ATOM     74  C   UNL A   1      45.493  29.078  35.780  1.00  0.00     0.010 A 
ATOM     75  C   UNL A   1      43.905  27.599  36.851  1.00  0.00     0.010 A 
ATOM     76  C   UNL A   1      46.543  28.435  36.447  1.00  0.00     0.020 A 
ATOM     77  C   UNL A   1      44.948  26.972  37.544  1.00  0.00     0.020 A 
ATOM     78  C   UNL A   1      46.263  27.386  37.326  1.00  0.00     0.054 A 
BRANCH  78  79
ATOM     79  S   UNL A   1      47.636  26.593  38.211  1.00  0.00     0.124 S 
ATOM     80  O   UNL A   1      48.770  27.425  37.822  1.00  0.00    -0.237 OA
ATOM     81  O   UNL A   1      47.217  26.704  39.606  1.00  0.00    -0.237 OA
ATOM     82  O   UNL A   1      47.646  25.233  37.677  1.00  0.00    -0.744 OA
ENDBRANCH  78  79
ENDBRANCH  50  73
BRANCH  62  83
ATOM     83  C   UNL A   1      39.798  33.899  37.481  1.00  0.00    -0.014 A 
ATOM     84  C   UNL A   1      38.951  33.481  38.520  1.00  0.00     0.010 A 
ATOM     85  C   UNL A   1      40.534  35.091  37.624  1.00  0.00     0.010 A 
ATOM     86  C   UNL A   1      38.806  34.267  39.664  1.00  0.00     0.020 A 
ATOM     87  C   UNL A   1      40.418  35.859  38.781  1.00  0.00     0.020 A 
ATOM     88  C   UNL A   1      39.538  35.453  39.786  1.00  0.00     0.054 A 
BRANCH  88  89
ATOM     89  S   UNL A   1      39.349  36.445  41.289  1.00  0.00     0.124 S 
ATOM     90  O   UNL A   1      38.293  35.725  41.996  1.00  0.00    -0.237 OA
ATOM     91  O   UNL A   1      40.677  36.368  41.893  1.00  0.00    -0.237 OA
ATOM     92  O   UNL A   1      38.976  37.766  40.787  1.00  0.00    -0.744 OA
ENDBRANCH  88  89
ENDBRANCH  62  83
ENDBRANCH  36  37
ENDBRANCH  28  31
ENDBRANCH  26  27
ENDBRANCH   1  26
TORSDOF 16
ENDMDL
MODEL 3
REMARK VINA RESULT:     -11.9      6.432     12.070
REMARK SMILES CC[C@@]1(C)NC(=O)N(/N=C/c2ccccc2C(=O)NCCCNC(=O)c2ccc(-c3c4nc(c(-c5ccc(S(=O)(=O)[O-])cc5)c5ccc([nH]5)c(-c5ccc(S(=O)(=O)[O-])cc5)c5nc(c(-c6ccc(S(=O)(=O)[O-])cc6)c6ccc3[nH]6)C=C5)C=C4)cc2)C1=O
REMARK SMILES IDX 21 1 20 2 19 3 17 4 18 5 16 7 11 8 12 9 13 10 15 11 14 12
REMARK SMILES IDX 10 13 9 14 8 15 3 16 4 17 5 18 86 19 6 20 87 22 7 23 2 24
REMARK SMILES IDX 1 25 22 26 23 27 24 28 25 30 26 31 27 32 85 33 28 34 84 35
REMARK SMILES IDX 29 36 30 37 31 38 78 39 32 40 83 41 77 42 79 43 33 44 82 45
REMARK SMILES IDX 76 46 75 47 34 49 64 50 45 51 63 52 46 53 49 54 62 55 80 56
REMARK SMILES IDX 47 57 48 58 61 60 81 61 50 62 35 63 36 64 44 65 37 66 43 67
REMARK SMILES IDX 38 68 39 69 40 70 41 71 42 72 65 73 66 74 74 75 67 76 73 77
REMARK SMILES IDX 68 78 69 79 70 80 71 81 72 82 51 83 52 84 60 85 53 86 59 87
REMARK SMILES IDX 54 88 55 89 56 90 57 91 58 92
REMARK H PARENT 19 6 5 21 23 29 79 48 49 59
REMARK Flexibility Score: inf
ROOT
ATOM      1  C   UNL A   1      33.996  29.722  27.129  1.00  0.00     0.042 C 
ENDROOT
BRANCH   1   2
ATOM      2  C   UNL A   1      33.564  28.573  26.267  1.00  0.00     0.118 C 
BRANCH   2   3
ATOM      3  N   UNL A   1      33.948  28.536  24.891  1.00  0.00    -0.352 N 
ATOM      4  C   UNL A   1      33.108  28.640  23.803  1.00  0.00     0.251 C 
ATOM      5  O   UNL A   1      33.627  29.001  22.743  1.00  0.00    -0.269 OA
ATOM      6  H   UNL A   1      34.908  28.426  24.702  1.00  0.00     0.163 HD
BRANCH   4   7
ATOM      7  C   UNL A   1      31.681  28.161  23.766  1.00  0.00     0.048 A 
ATOM      8  C   UNL A   1      31.100  26.903  24.027  1.00  0.00     0.007 A 
ATOM      9  C   UNL A   1      29.721  26.702  23.792  1.00  0.00     0.010 A 
ATOM     10  C   UNL A   1      28.898  27.739  23.357  1.00  0.00     0.001 A 
ATOM     11  C   UNL A   1      30.808  29.197  23.341  1.00  0.00     0.014 A 
ATOM     12  C   UNL A   1      29.440  28.995  23.142  1.00  0.00     0.001 A 
BRANCH   8  13
ATOM     13  C   UNL A   1      31.769  25.648  24.447  1.00  0.00     0.143 C 
ATOM     14  N   UNL A   1      31.162  24.517  24.584  1.00  0.00    -0.169 NA
BRANCH  14  15
ATOM     15  N   UNL A   1      31.806  23.472  25.246  1.00  0.00    -0.146 N 
ATOM     16  C   UNL A   1      33.371  21.901  26.114  1.00  0.00     0.120 C 
ATOM     17  C   UNL A   1      33.078  20.455  25.717  1.00  0.00     0.045 C 
ATOM     18  N   UNL A   1      32.405  22.343  27.088  1.00  0.00    -0.322 N 
ATOM     19  C   UNL A   1      32.993  22.827  24.930  1.00  0.00     0.276 C 
ATOM     20  C   UNL A   1      31.459  23.199  26.559  1.00  0.00     0.346 C 
ATOM     21  H   UNL A   1      32.419  22.065  28.033  1.00  0.00     0.166 HD
ATOM     22  O   UNL A   1      33.659  22.914  23.904  1.00  0.00    -0.270 OA
ATOM     23  O   UNL A   1      30.566  23.693  27.224  1.00  0.00    -0.246 OA
BRANCH  16  24
ATOM     24  C   UNL A   1      34.826  22.126  26.557  1.00  0.00     0.035 C 
ATOM     25  C   UNL A   1      35.855  21.385  25.711  1.00  0.00     0.007 C 
ENDBRANCH  16  24
ENDBRANCH  14  15
ENDBRANCH   8  13
ENDBRANCH   4   7
ENDBRANCH   2   3
ENDBRANCH   1   2
BRANCH   1  26
ATOM     26  C   UNL A   1      35.366  29.600  27.759  1.00  0.00     0.118 C 
BRANCH  26  27
ATOM     27  N   UNL A   1      35.431  29.814  29.205  1.00  0.00    -0.352 N 
ATOM     28  C   UNL A   1      36.466  29.756  30.114  1.00  0.00     0.251 C 
ATOM     29  H   UNL A   1      34.563  30.044  29.610  1.00  0.00     0.163 HD
ATOM     30  O   UNL A   1      36.218  29.941  31.307  1.00  0.00    -0.269 OA
BRANCH  28  31
ATOM     31  C   UNL A   1      37.842  29.357  29.722  1.00  0.00     0.039 A 
ATOM     32  C   UNL A   1      38.238  29.554  28.392  1.00  0.00     0.014 A 
ATOM     33  C   UNL A   1      38.764  28.834  30.622  1.00  0.00     0.014 A 
ATOM     34  C   UNL A   1      39.570  29.386  28.017  1.00  0.00     0.010 A 
ATOM     35  C   UNL A   1      40.110  28.784  30.301  1.00  0.00     0.010 A 
ATOM     36  C   UNL A   1      40.512  29.029  28.984  1.00  0.00    -0.014 A 
BRANCH  36  37
ATOM     37  C   UNL A   1      41.858  28.587  28.591  1.00  0.00     0.031 A 
ATOM     38  C   UNL A   1      42.925  29.644  28.577  1.00  0.00     0.074 A 
ATOM     39  C   UNL A   1      42.095  27.314  28.234  1.00  0.00     0.049 A 
ATOM     40  N   UNL A   1      44.171  29.558  28.209  1.00  0.00    -0.248 NA
ATOM     41  C   UNL A   1      42.516  30.996  29.011  1.00  0.00     0.031 C 
ATOM     42  C   UNL A   1      41.107  26.232  28.227  1.00  0.00     0.029 A 
ATOM     43  N   UNL A   1      43.248  26.717  27.805  1.00  0.00    -0.354 N 
ATOM     44  C   UNL A   1      44.687  30.840  28.362  1.00  0.00     0.074 A 
ATOM     45  C   UNL A   1      43.610  31.701  28.782  1.00  0.00     0.031 C 
ATOM     46  C   UNL A   1      41.707  25.096  27.827  1.00  0.00     0.029 A 
ATOM     47  C   UNL A   1      43.108  25.379  27.525  1.00  0.00     0.049 A 
ATOM     48  H   UNL A   1      44.101  27.200  27.707  1.00  0.00     0.167 HD
ATOM     49  C   UNL A   1      45.960  31.257  28.191  1.00  0.00     0.031 A 
ATOM     50  C   UNL A   1      44.023  24.497  27.075  1.00  0.00     0.031 A 
ATOM     51  C   UNL A   1      47.008  30.382  27.758  1.00  0.00     0.049 A 
ATOM     52  C   UNL A   1      45.431  24.994  26.858  1.00  0.00     0.074 A 
ATOM     53  C   UNL A   1      48.337  30.671  27.529  1.00  0.00     0.029 A 
ATOM     54  N   UNL A   1      46.831  29.031  27.489  1.00  0.00    -0.354 N 
ATOM     55  N   UNL A   1      45.915  26.205  27.024  1.00  0.00    -0.248 NA
ATOM     56  C   UNL A   1      46.421  24.005  26.414  1.00  0.00     0.031 C 
ATOM     57  C   UNL A   1      48.956  29.502  27.073  1.00  0.00     0.029 A 
ATOM     58  C   UNL A   1      48.025  28.471  27.087  1.00  0.00     0.049 A 
ATOM     59  H   UNL A   1      45.978  28.545  27.574  1.00  0.00     0.167 HD
ATOM     60  C   UNL A   1      47.274  26.115  26.746  1.00  0.00     0.074 A 
ATOM     61  C   UNL A   1      47.533  24.727  26.410  1.00  0.00     0.031 C 
ATOM     62  C   UNL A   1      48.229  27.079  26.769  1.00  0.00     0.031 A 
BRANCH  49  63
ATOM     63  C   UNL A   1      46.241  32.712  28.446  1.00  0.00    -0.014 A 
ATOM     64  C   UNL A   1      46.123  33.670  27.420  1.00  0.00     0.010 A 
ATOM     65  C   UNL A   1      46.674  33.123  29.718  1.00  0.00     0.010 A 
ATOM     66  C   UNL A   1      46.480  35.001  27.648  1.00  0.00     0.020 A 
ATOM     67  C   UNL A   1      46.999  34.461  29.960  1.00  0.00     0.020 A 
ATOM     68  C   UNL A   1      46.918  35.388  28.917  1.00  0.00     0.054 A 
BRANCH  68  69
ATOM     69  S   UNL A   1      47.361  37.125  29.192  1.00  0.00     0.124 S 
ATOM     70  O   UNL A   1      48.814  37.047  29.328  1.00  0.00    -0.237 OA
ATOM     71  O   UNL A   1      46.877  37.773  27.977  1.00  0.00    -0.237 OA
ATOM     72  O   UNL A   1      46.641  37.477  30.413  1.00  0.00    -0.744 OA
ENDBRANCH  68  69
ENDBRANCH  49  63
BRANCH  50  73
ATOM     73  C   UNL A   1      43.651  23.074  26.829  1.00  0.00    -0.014 A 
ATOM     74  C   UNL A   1      43.030  22.306  27.831  1.00  0.00     0.010 A 
ATOM     75  C   UNL A   1      43.919  22.472  25.585  1.00  0.00     0.010 A 
ATOM     76  C   UNL A   1      42.709  20.962  27.605  1.00  0.00     0.020 A 
ATOM     77  C   UNL A   1      43.573  21.137  25.344  1.00  0.00     0.020 A 
ATOM     78  C   UNL A   1      42.981  20.386  26.361  1.00  0.00     0.054 A 
BRANCH  78  79
ATOM     79  S   UNL A   1      42.521  18.653  26.077  1.00  0.00     0.124 S 
ATOM     80  O   UNL A   1      42.758  18.056  27.387  1.00  0.00    -0.237 OA
ATOM     81  O   UNL A   1      41.121  18.762  25.674  1.00  0.00    -0.237 OA
ATOM     82  O   UNL A   1      43.434  18.226  25.020  1.00  0.00    -0.744 OA
ENDBRANCH  78  79
ENDBRANCH  50  73
BRANCH  62  83
ATOM     83  C   UNL A   1      49.641  26.651  26.485  1.00  0.00    -0.014 A 
ATOM     84  C   UNL A   1      50.191  26.738  25.195  1.00  0.00     0.010 A 
ATOM     85  C   UNL A   1      50.444  26.205  27.552  1.00  0.00     0.010 A 
ATOM     86  C   UNL A   1      51.509  26.340  24.968  1.00  0.00     0.020 A 
ATOM     87  C   UNL A   1      51.772  25.840  27.333  1.00  0.00     0.020 A 
ATOM     88  C   UNL A   1      52.290  25.891  26.039  1.00  0.00     0.054 A 
BRANCH  88  89
ATOM     89  S   UNL A   1      54.004  25.399  25.722  1.00  0.00     0.124 S 
ATOM     90  O   UNL A   1      54.541  26.584  25.059  1.00  0.00    -0.237 OA
ATOM     91  O   UNL A   1      54.517  25.143  27.066  1.00  0.00    -0.237 OA
ATOM     92  O   UNL A   1      53.874  24.215  24.875  1.00  0.00    -0.744 OA
ENDBRANCH  88  89
ENDBRANCH  62  83
ENDBRANCH  36  37
ENDBRANCH  28  31
ENDBRANCH  26  27
ENDBRANCH   1  26
TORSDOF 16
ENDMDL
