MODEL 1
REMARK VINA RESULT:     -11.4      0.000      0.000
REMARK SMILES COc1nc2c(cc1C(=O)NCc1ccc(C(=O)NCCCNC(=O)c3ccc(-c4c5nc(c(-c6ccc(S(=O)(=O)[O-])cc6)c6ccc([nH]6)c(-c6ccc(S(=O)(=O)[O-])cc6)c6nc(c(-c7ccc(S(=O)(=O)[O-])cc7)c7ccc4[nH]7)C=C6)C=C5)cc3)s1)CCC2
REMARK SMILES IDX 20 1 19 2 17 3 18 4 16 6 13 7 14 8 86 9 15 10 12 11 11 12
REMARK SMILES IDX 9 13 10 14 8 16 3 17 4 18 5 19 7 20 6 21 89 22 87 23 88 24
REMARK SMILES IDX 2 25 1 26 21 27 22 28 23 29 24 30 25 32 26 33 27 34 85 35
REMARK SMILES IDX 28 36 84 37 29 38 30 39 31 40 78 41 32 42 83 43 77 44 79 45
REMARK SMILES IDX 33 46 82 47 76 48 75 49 34 51 64 52 45 53 63 54 46 55 49 56
REMARK SMILES IDX 62 57 80 58 47 59 48 60 61 62 81 63 50 64 35 65 36 66 44 67
REMARK SMILES IDX 37 68 43 69 38 70 39 71 40 72 41 73 42 74 65 75 66 76 74 77
REMARK SMILES IDX 67 78 73 79 68 80 69 81 70 82 71 83 72 84 51 85 52 86 60 87
REMARK SMILES IDX 53 88 59 89 54 90 55 91 56 92 57 93 58 94
REMARK H PARENT 19 5 11 15 23 31 79 50 49 61
REMARK Flexibility Score: inf
ROOT
ATOM      1  C   UNL A   1      33.671  28.903  24.617  1.00  0.00     0.118 C 
ENDROOT
BRANCH   1   2
ATOM      2  N   UNL A   1      32.451  29.241  23.922  1.00  0.00    -0.351 N 
ATOM      3  C   UNL A   1      31.606  28.510  23.126  1.00  0.00     0.261 C 
ATOM      4  O   UNL A   1      30.679  29.171  22.644  1.00  0.00    -0.268 OA
ATOM      5  H   UNL A   1      32.171  30.177  24.042  1.00  0.00     0.163 HD
BRANCH   3   6
ATOM      6  C   UNL A   1      31.774  27.076  22.895  1.00  0.00     0.092 A 
ATOM      7  C   UNL A   1      31.495  24.612  23.242  1.00  0.00     0.025 A 
ATOM      8  C   UNL A   1      32.463  24.902  22.309  1.00  0.00     0.018 A 
ATOM      9  S   UNL A   1      30.744  26.039  23.809  1.00  0.00    -0.133 S 
ATOM     10  C   UNL A   1      32.600  26.311  22.089  1.00  0.00     0.026 A 
BRANCH   7  11
ATOM     11  C   UNL A   1      31.074  23.314  23.837  1.00  0.00     0.163 C 
BRANCH  11  12
ATOM     12  N   UNL A   1      31.277  23.261  25.264  1.00  0.00    -0.347 N 
ATOM     13  C   UNL A   1      32.323  23.124  26.128  1.00  0.00     0.257 C 
ATOM     14  O   UNL A   1      32.061  23.481  27.284  1.00  0.00    -0.269 OA
ATOM     15  H   UNL A   1      30.425  23.344  25.749  1.00  0.00     0.164 HD
BRANCH  13  16
ATOM     16  C   UNL A   1      33.684  22.561  25.889  1.00  0.00     0.102 A 
ATOM     17  C   UNL A   1      34.081  21.269  25.528  1.00  0.00     0.226 A 
ATOM     18  N   UNL A   1      35.378  20.862  25.371  1.00  0.00    -0.218 NA
ATOM     19  C   UNL A   1      36.318  21.800  25.554  1.00  0.00     0.048 A 
ATOM     20  C   UNL A   1      34.729  23.508  26.018  1.00  0.00     0.025 A 
ATOM     21  C   UNL A   1      36.043  23.120  25.847  1.00  0.00    -0.025 A 
ATOM     22  C   UNL A   1      37.798  21.578  25.414  1.00  0.00     0.057 C 
ATOM     23  C   UNL A   1      37.283  23.947  25.878  1.00  0.00     0.038 C 
ATOM     24  C   UNL A   1      38.357  22.863  26.051  1.00  0.00     0.011 C 
BRANCH  17  25
ATOM     25  O   UNL A   1      33.189  20.271  25.274  1.00  0.00    -0.480 OA
ATOM     26  C   UNL A   1      33.877  19.168  24.684  1.00  0.00     0.280 C 
ENDBRANCH  17  25
ENDBRANCH  13  16
ENDBRANCH  11  12
ENDBRANCH   7  11
ENDBRANCH   3   6
ENDBRANCH   1   2
BRANCH   1  27
ATOM     27  C   UNL A   1      33.433  27.808  25.652  1.00  0.00     0.042 C 
BRANCH  27  28
ATOM     28  C   UNL A   1      33.642  28.308  27.081  1.00  0.00     0.118 C 
BRANCH  28  29
ATOM     29  N   UNL A   1      33.579  29.763  27.148  1.00  0.00    -0.352 N 
ATOM     30  C   UNL A   1      34.415  30.635  27.800  1.00  0.00     0.251 C 
ATOM     31  H   UNL A   1      32.834  30.179  26.655  1.00  0.00     0.163 HD
ATOM     32  O   UNL A   1      34.047  31.779  28.040  1.00  0.00    -0.269 OA
BRANCH  30  33
ATOM     33  C   UNL A   1      35.761  30.180  28.190  1.00  0.00     0.039 A 
ATOM     34  C   UNL A   1      35.984  29.717  29.488  1.00  0.00     0.014 A 
ATOM     35  C   UNL A   1      36.808  30.248  27.264  1.00  0.00     0.014 A 
ATOM     36  C   UNL A   1      37.259  29.278  29.846  1.00  0.00     0.010 A 
ATOM     37  C   UNL A   1      38.060  29.755  27.603  1.00  0.00     0.010 A 
ATOM     38  C   UNL A   1      38.298  29.283  28.902  1.00  0.00    -0.014 A 
BRANCH  38  39
ATOM     39  C   UNL A   1      39.665  28.853  29.266  1.00  0.00     0.031 A 
ATOM     40  C   UNL A   1      40.563  29.804  30.006  1.00  0.00     0.074 A 
ATOM     41  C   UNL A   1      40.105  27.636  28.896  1.00  0.00     0.049 A 
ATOM     42  N   UNL A   1      41.805  29.639  30.376  1.00  0.00    -0.248 NA
ATOM     43  C   UNL A   1      39.997  31.118  30.364  1.00  0.00     0.031 C 
ATOM     44  C   UNL A   1      39.324  26.643  28.154  1.00  0.00     0.029 A 
ATOM     45  N   UNL A   1      41.318  27.028  29.091  1.00  0.00    -0.354 N 
ATOM     46  C   UNL A   1      42.170  30.824  31.002  1.00  0.00     0.074 A 
ATOM     47  C   UNL A   1      41.038  31.719  30.922  1.00  0.00     0.031 C 
ATOM     48  C   UNL A   1      40.071  25.540  27.980  1.00  0.00     0.029 A 
ATOM     49  C   UNL A   1      41.390  25.759  28.565  1.00  0.00     0.049 A 
ATOM     50  H   UNL A   1      42.068  27.459  29.561  1.00  0.00     0.167 HD
ATOM     51  C   UNL A   1      43.338  31.128  31.610  1.00  0.00     0.031 A 
ATOM     52  C   UNL A   1      42.406  24.875  28.556  1.00  0.00     0.031 A 
ATOM     53  C   UNL A   1      44.451  30.225  31.701  1.00  0.00     0.049 A 
ATOM     54  C   UNL A   1      43.704  25.247  29.219  1.00  0.00     0.074 A 
ATOM     55  C   UNL A   1      45.663  30.425  32.338  1.00  0.00     0.029 A 
ATOM     56  N   UNL A   1      44.488  28.956  31.147  1.00  0.00    -0.354 N 
ATOM     57  N   UNL A   1      44.017  26.358  29.840  1.00  0.00    -0.248 NA
ATOM     58  C   UNL A   1      44.781  24.247  29.186  1.00  0.00     0.031 C 
ATOM     59  C   UNL A   1      46.451  29.290  32.129  1.00  0.00     0.029 A 
ATOM     60  C   UNL A   1      45.710  28.366  31.409  1.00  0.00     0.049 A 
ATOM     61  H   UNL A   1      43.753  28.537  30.642  1.00  0.00     0.167 HD
ATOM     62  C   UNL A   1      45.321  26.185  30.291  1.00  0.00     0.074 A 
ATOM     63  C   UNL A   1      45.735  24.860  29.877  1.00  0.00     0.031 C 
ATOM     64  C   UNL A   1      46.101  27.045  30.990  1.00  0.00     0.031 A 
BRANCH  51  65
ATOM     65  C   UNL A   1      43.471  32.483  32.244  1.00  0.00    -0.014 A 
ATOM     66  C   UNL A   1      43.528  33.642  31.450  1.00  0.00     0.010 A 
ATOM     67  C   UNL A   1      43.447  32.606  33.645  1.00  0.00     0.010 A 
ATOM     68  C   UNL A   1      43.562  34.904  32.048  1.00  0.00     0.020 A 
ATOM     69  C   UNL A   1      43.459  33.867  34.246  1.00  0.00     0.020 A 
ATOM     70  C   UNL A   1      43.515  35.008  33.442  1.00  0.00     0.054 A 
BRANCH  70  71
ATOM     71  S   UNL A   1      43.503  36.664  34.182  1.00  0.00     0.124 S 
ATOM     72  O   UNL A   1      42.088  36.849  34.494  1.00  0.00    -0.237 OA
ATOM     73  O   UNL A   1      44.385  36.497  35.334  1.00  0.00    -0.237 OA
ATOM     74  O   UNL A   1      44.020  37.524  33.119  1.00  0.00    -0.744 OA
ENDBRANCH  70  71
ENDBRANCH  51  65
BRANCH  52  75
ATOM     75  C   UNL A   1      42.217  23.545  27.919  1.00  0.00    -0.014 A 
ATOM     76  C   UNL A   1      42.388  23.390  26.533  1.00  0.00     0.010 A 
ATOM     77  C   UNL A   1      41.909  22.418  28.702  1.00  0.00     0.010 A 
ATOM     78  C   UNL A   1      42.256  22.131  25.940  1.00  0.00     0.020 A 
ATOM     79  C   UNL A   1      41.798  21.154  28.116  1.00  0.00     0.020 A 
ATOM     80  C   UNL A   1      41.972  21.019  26.738  1.00  0.00     0.054 A 
BRANCH  80  81
ATOM     81  S   UNL A   1      41.859  19.390  25.946  1.00  0.00     0.124 S 
ATOM     82  O   UNL A   1      42.774  19.530  24.818  1.00  0.00    -0.237 OA
ATOM     83  O   UNL A   1      42.304  18.499  27.015  1.00  0.00    -0.237 OA
ATOM     84  O   UNL A   1      40.445  19.275  25.594  1.00  0.00    -0.744 OA
ENDBRANCH  80  81
ENDBRANCH  52  75
BRANCH  64  85
ATOM     85  C   UNL A   1      47.478  26.591  31.379  1.00  0.00    -0.014 A 
ATOM     86  C   UNL A   1      47.710  25.973  32.618  1.00  0.00     0.010 A 
ATOM     87  C   UNL A   1      48.520  26.663  30.435  1.00  0.00     0.010 A 
ATOM     88  C   UNL A   1      48.965  25.433  32.910  1.00  0.00     0.020 A 
ATOM     89  C   UNL A   1      49.769  26.105  30.714  1.00  0.00     0.020 A 
ATOM     90  C   UNL A   1      49.982  25.491  31.950  1.00  0.00     0.054 A 
BRANCH  90  91
ATOM     91  S   UNL A   1      51.578  24.719  32.333  1.00  0.00     0.124 S 
ATOM     92  O   UNL A   1      51.311  23.309  32.059  1.00  0.00    -0.237 OA
ATOM     93  O   UNL A   1      52.479  25.381  31.393  1.00  0.00    -0.237 OA
ATOM     94  O   UNL A   1      51.796  25.046  33.740  1.00  0.00    -0.744 OA
ENDBRANCH  90  91
ENDBRANCH  64  85
ENDBRANCH  38  39
ENDBRANCH  30  33
ENDBRANCH  28  29
ENDBRANCH  27  28
ENDBRANCH   1  27
TORSDOF 17
ENDMDL
MODEL 2
REMARK VINA RESULT:     -11.0      4.242     10.490
REMARK SMILES COc1nc2c(cc1C(=O)NCc1ccc(C(=O)NCCCNC(=O)c3ccc(-c4c5nc(c(-c6ccc(S(=O)(=O)[O-])cc6)c6ccc([nH]6)c(-c6ccc(S(=O)(=O)[O-])cc6)c6nc(c(-c7ccc(S(=O)(=O)[O-])cc7)c7ccc4[nH]7)C=C6)C=C5)cc3)s1)CCC2
REMARK SMILES IDX 20 1 19 2 17 3 18 4 16 6 13 7 14 8 86 9 15 10 12 11 11 12
REMARK SMILES IDX 9 13 10 14 8 16 3 17 4 18 5 19 7 20 6 21 89 22 87 23 88 24
REMARK SMILES IDX 2 25 1 26 21 27 22 28 23 29 24 30 25 32 26 33 27 34 85 35
REMARK SMILES IDX 28 36 84 37 29 38 30 39 31 40 78 41 32 42 83 43 77 44 79 45
REMARK SMILES IDX 33 46 82 47 76 48 75 49 34 51 64 52 45 53 63 54 46 55 49 56
REMARK SMILES IDX 62 57 80 58 47 59 48 60 61 62 81 63 50 64 35 65 36 66 44 67
REMARK SMILES IDX 37 68 43 69 38 70 39 71 40 72 41 73 42 74 65 75 66 76 74 77
REMARK SMILES IDX 67 78 73 79 68 80 69 81 70 82 71 83 72 84 51 85 52 86 60 87
REMARK SMILES IDX 53 88 59 89 54 90 55 91 56 92 57 93 58 94
REMARK H PARENT 19 5 11 15 23 31 79 50 49 61
REMARK Flexibility Score: inf
ROOT
ATOM      1  C   UNL A   1      38.438  23.387  26.393  1.00  0.00     0.118 C 
ENDROOT
BRANCH   1   2
ATOM      2  N   UNL A   1      38.009  23.072  25.051  1.00  0.00    -0.351 N 
ATOM      3  C   UNL A   1      36.767  22.971  24.477  1.00  0.00     0.261 C 
ATOM      4  O   UNL A   1      36.793  22.610  23.294  1.00  0.00    -0.268 OA
ATOM      5  H   UNL A   1      38.749  22.896  24.428  1.00  0.00     0.163 HD
BRANCH   3   6
ATOM      6  C   UNL A   1      35.531  23.289  25.190  1.00  0.00     0.092 A 
ATOM      7  C   UNL A   1      33.528  24.609  25.906  1.00  0.00     0.025 A 
ATOM      8  C   UNL A   1      33.710  23.481  26.671  1.00  0.00     0.018 A 
ATOM      9  S   UNL A   1      34.696  24.701  24.661  1.00  0.00    -0.133 S 
ATOM     10  C   UNL A   1      34.839  22.710  26.241  1.00  0.00     0.026 A 
BRANCH   7  11
ATOM     11  C   UNL A   1      32.552  25.726  26.035  1.00  0.00     0.163 C 
BRANCH  11  12
ATOM     12  N   UNL A   1      33.131  27.013  25.735  1.00  0.00    -0.347 N 
ATOM     13  C   UNL A   1      32.738  28.184  25.158  1.00  0.00     0.257 C 
ATOM     14  O   UNL A   1      33.476  29.142  25.428  1.00  0.00    -0.269 OA
ATOM     15  H   UNL A   1      34.070  27.058  26.026  1.00  0.00     0.164 HD
BRANCH  13  16
ATOM     16  C   UNL A   1      31.607  28.448  24.223  1.00  0.00     0.102 A 
ATOM     17  C   UNL A   1      31.109  27.683  23.162  1.00  0.00     0.226 A 
ATOM     18  N   UNL A   1      30.076  28.054  22.345  1.00  0.00    -0.218 NA
ATOM     19  C   UNL A   1      29.496  29.230  22.622  1.00  0.00     0.048 A 
ATOM     20  C   UNL A   1      30.913  29.654  24.485  1.00  0.00     0.025 A 
ATOM     21  C   UNL A   1      29.856  30.037  23.682  1.00  0.00    -0.025 A 
ATOM     22  C   UNL A   1      28.336  29.820  21.869  1.00  0.00     0.057 C 
ATOM     23  C   UNL A   1      28.958  31.220  23.804  1.00  0.00     0.038 C 
ATOM     24  C   UNL A   1      28.334  31.264  22.402  1.00  0.00     0.011 C 
BRANCH  17  25
ATOM     25  O   UNL A   1      31.608  26.456  22.845  1.00  0.00    -0.480 OA
ATOM     26  C   UNL A   1      32.611  26.604  21.839  1.00  0.00     0.280 C 
ENDBRANCH  17  25
ENDBRANCH  13  16
ENDBRANCH  11  12
ENDBRANCH   7  11
ENDBRANCH   3   6
ENDBRANCH   1   2
BRANCH   1  27
ATOM     27  C   UNL A   1      39.685  22.596  26.775  1.00  0.00     0.042 C 
BRANCH  27  28
ATOM     28  C   UNL A   1      40.811  23.501  27.277  1.00  0.00     0.118 C 
BRANCH  28  29
ATOM     29  N   UNL A   1      41.383  24.287  26.190  1.00  0.00    -0.352 N 
ATOM     30  C   UNL A   1      41.394  25.650  26.023  1.00  0.00     0.251 C 
ATOM     31  H   UNL A   1      41.823  23.769  25.477  1.00  0.00     0.163 HD
ATOM     32  O   UNL A   1      41.608  26.134  24.918  1.00  0.00    -0.269 OA
BRANCH  30  33
ATOM     33  C   UNL A   1      41.163  26.516  27.192  1.00  0.00     0.039 A 
ATOM     34  C   UNL A   1      40.094  26.248  28.050  1.00  0.00     0.014 A 
ATOM     35  C   UNL A   1      41.999  27.616  27.412  1.00  0.00     0.014 A 
ATOM     36  C   UNL A   1      39.888  27.067  29.160  1.00  0.00     0.010 A 
ATOM     37  C   UNL A   1      41.830  28.393  28.550  1.00  0.00     0.010 A 
ATOM     38  C   UNL A   1      40.762  28.134  29.422  1.00  0.00    -0.014 A 
BRANCH  38  39
ATOM     39  C   UNL A   1      40.547  29.034  30.575  1.00  0.00     0.031 A 
ATOM     40  C   UNL A   1      41.395  28.869  31.805  1.00  0.00     0.074 A 
ATOM     41  C   UNL A   1      39.569  29.959  30.529  1.00  0.00     0.049 A 
ATOM     42  N   UNL A   1      41.334  29.522  32.935  1.00  0.00    -0.248 NA
ATOM     43  C   UNL A   1      42.435  27.825  31.766  1.00  0.00     0.031 C 
ATOM     44  C   UNL A   1      38.673  30.188  29.394  1.00  0.00     0.029 A 
ATOM     45  N   UNL A   1      39.165  30.877  31.463  1.00  0.00    -0.354 N 
ATOM     46  C   UNL A   1      42.320  28.966  33.741  1.00  0.00     0.074 A 
ATOM     47  C   UNL A   1      42.934  27.893  32.992  1.00  0.00     0.031 C 
ATOM     48  C   UNL A   1      37.841  31.200  29.690  1.00  0.00     0.029 A 
ATOM     49  C   UNL A   1      38.122  31.668  31.043  1.00  0.00     0.049 A 
ATOM     50  H   UNL A   1      39.582  30.962  32.351  1.00  0.00     0.167 HD
ATOM     51  C   UNL A   1      42.696  29.337  34.985  1.00  0.00     0.031 A 
ATOM     52  C   UNL A   1      37.465  32.656  31.681  1.00  0.00     0.031 A 
ATOM     53  C   UNL A   1      42.093  30.417  35.714  1.00  0.00     0.049 A 
ATOM     54  C   UNL A   1      37.887  33.033  33.075  1.00  0.00     0.074 A 
ATOM     55  C   UNL A   1      42.435  30.899  36.965  1.00  0.00     0.029 A 
ATOM     56  N   UNL A   1      41.033  31.185  35.259  1.00  0.00    -0.354 N 
ATOM     57  N   UNL A   1      38.847  32.522  33.806  1.00  0.00    -0.248 NA
ATOM     58  C   UNL A   1      37.143  34.120  33.726  1.00  0.00     0.031 C 
ATOM     59  C   UNL A   1      41.549  31.930  37.286  1.00  0.00     0.029 A 
ATOM     60  C   UNL A   1      40.692  32.124  36.214  1.00  0.00     0.049 A 
ATOM     61  H   UNL A   1      40.589  31.076  34.387  1.00  0.00     0.167 HD
ATOM     62  C   UNL A   1      38.838  33.238  34.997  1.00  0.00     0.074 A 
ATOM     63  C   UNL A   1      37.780  34.223  34.886  1.00  0.00     0.031 C 
ATOM     64  C   UNL A   1      39.638  33.097  36.082  1.00  0.00     0.031 A 
BRANCH  51  65
ATOM     65  C   UNL A   1      43.822  28.585  35.635  1.00  0.00    -0.014 A 
ATOM     66  C   UNL A   1      43.564  27.443  36.414  1.00  0.00     0.010 A 
ATOM     67  C   UNL A   1      45.153  28.968  35.389  1.00  0.00     0.010 A 
ATOM     68  C   UNL A   1      44.621  26.698  36.941  1.00  0.00     0.020 A 
ATOM     69  C   UNL A   1      46.213  28.212  35.897  1.00  0.00     0.020 A 
ATOM     70  C   UNL A   1      45.939  27.081  36.670  1.00  0.00     0.054 A 
BRANCH  70  71
ATOM     71  S   UNL A   1      47.285  26.056  37.322  1.00  0.00     0.124 S 
ATOM     72  O   UNL A   1      47.057  26.133  38.763  1.00  0.00    -0.237 OA
ATOM     73  O   UNL A   1      47.015  24.759  36.710  1.00  0.00    -0.237 OA
ATOM     74  O   UNL A   1      48.494  26.729  36.851  1.00  0.00    -0.744 OA
ENDBRANCH  70  71
ENDBRANCH  51  65
BRANCH  52  75
ATOM     75  C   UNL A   1      36.361  33.371  30.987  1.00  0.00    -0.014 A 
ATOM     76  C   UNL A   1      35.125  33.561  31.628  1.00  0.00     0.010 A 
ATOM     77  C   UNL A   1      36.556  33.904  29.700  1.00  0.00     0.010 A 
ATOM     78  C   UNL A   1      34.102  34.274  30.993  1.00  0.00     0.020 A 
ATOM     79  C   UNL A   1      35.544  34.635  29.072  1.00  0.00     0.020 A 
ATOM     80  C   UNL A   1      34.323  34.816  29.724  1.00  0.00     0.054 A 
BRANCH  80  81
ATOM     81  S   UNL A   1      32.995  35.780  28.950  1.00  0.00     0.124 S 
ATOM     82  O   UNL A   1      33.737  36.827  28.257  1.00  0.00    -0.237 OA
ATOM     83  O   UNL A   1      32.355  34.785  28.092  1.00  0.00    -0.237 OA
ATOM     84  O   UNL A   1      32.190  36.230  30.083  1.00  0.00    -0.744 OA
ENDBRANCH  80  81
ENDBRANCH  52  75
BRANCH  64  85
ATOM     85  C   UNL A   1      39.431  34.031  37.239  1.00  0.00    -0.014 A 
ATOM     86  C   UNL A   1      38.840  33.582  38.431  1.00  0.00     0.010 A 
ATOM     87  C   UNL A   1      39.958  35.335  37.175  1.00  0.00     0.010 A 
ATOM     88  C   UNL A   1      38.779  34.424  39.544  1.00  0.00     0.020 A 
ATOM     89  C   UNL A   1      39.918  36.171  38.293  1.00  0.00     0.020 A 
ATOM     90  C   UNL A   1      39.330  35.708  39.472  1.00  0.00     0.054 A 
BRANCH  90  91
ATOM     91  S   UNL A   1      39.297  36.749  40.956  1.00  0.00     0.124 S 
ATOM     92  O   UNL A   1      38.745  38.000  40.442  1.00  0.00    -0.237 OA
ATOM     93  O   UNL A   1      38.420  35.994  41.847  1.00  0.00    -0.237 OA
ATOM     94  O   UNL A   1      40.697  36.813  41.369  1.00  0.00    -0.744 OA
ENDBRANCH  90  91
ENDBRANCH  64  85
ENDBRANCH  38  39
ENDBRANCH  30  33
ENDBRANCH  28  29
ENDBRANCH  27  28
ENDBRANCH   1  27
TORSDOF 17
ENDMDL
MODEL 3
REMARK VINA RESULT:     -10.9      4.143      9.474
REMARK SMILES COc1nc2c(cc1C(=O)NCc1ccc(C(=O)NCCCNC(=O)c3ccc(-c4c5nc(c(-c6ccc(S(=O)(=O)[O-])cc6)c6ccc([nH]6)c(-c6ccc(S(=O)(=O)[O-])cc6)c6nc(c(-c7ccc(S(=O)(=O)[O-])cc7)c7ccc4[nH]7)C=C6)C=C5)cc3)s1)CCC2
REMARK SMILES IDX 20 1 19 2 17 3 18 4 16 6 13 7 14 8 86 9 15 10 12 11 11 12
REMARK SMILES IDX 9 13 10 14 8 16 3 17 4 18 5 19 7 20 6 21 89 22 87 23 88 24
REMARK SMILES IDX 2 25 1 26 21 27 22 28 23 29 24 30 25 32 26 33 27 34 85 35
REMARK SMILES IDX 28 36 84 37 29 38 30 39 31 40 78 41 32 42 83 43 77 44 79 45
REMARK SMILES IDX 33 46 82 47 76 48 75 49 34 51 64 52 45 53 63 54 46 55 49 56
REMARK SMILES IDX 62 57 80 58 47 59 48 60 61 62 81 63 50 64 35 65 36 66 44 67
REMARK SMILES IDX 37 68 43 69 38 70 39 71 40 72 41 73 42 74 65 75 66 76 74 77
REMARK SMILES IDX 67 78 73 79 68 80 69 81 70 82 71 83 72 84 51 85 52 86 60 87
REMARK SMILES IDX 53 88 59 89 54 90 55 91 56 92 57 93 58 94
REMARK H PARENT 19 5 11 15 23 31 79 50 49 61
REMARK Flexibility Score: inf
ROOT
ATOM      1  C   UNL A   1      31.749  30.897  25.962  1.00  0.00     0.118 C 
ENDROOT
BRANCH   1   2
ATOM      2  N   UNL A   1      32.998  30.236  26.256  1.00  0.00    -0.351 N 
ATOM      3  C   UNL A   1      33.344  28.912  26.356  1.00  0.00     0.261 C 
ATOM      4  O   UNL A   1      34.518  28.728  26.695  1.00  0.00    -0.268 OA
ATOM      5  H   UNL A   1      33.748  30.854  26.415  1.00  0.00     0.163 HD
BRANCH   3   6
ATOM      6  C   UNL A   1      32.414  27.823  26.061  1.00  0.00     0.092 A 
ATOM      7  C   UNL A   1      31.255  26.045  24.733  1.00  0.00     0.025 A 
ATOM      8  C   UNL A   1      30.654  26.263  25.950  1.00  0.00     0.018 A 
ATOM      9  S   UNL A   1      32.651  27.016  24.556  1.00  0.00    -0.133 S 
ATOM     10  C   UNL A   1      31.336  27.259  26.722  1.00  0.00     0.026 A 
BRANCH   7  11
ATOM     11  C   UNL A   1      30.855  25.179  23.590  1.00  0.00     0.163 C 
BRANCH  11  12
ATOM     12  N   UNL A   1      31.984  24.678  22.845  1.00  0.00    -0.347 N 
ATOM     13  C   UNL A   1      32.634  23.490  22.681  1.00  0.00     0.257 C 
ATOM     14  O   UNL A   1      33.348  23.452  21.670  1.00  0.00    -0.269 OA
ATOM     15  H   UNL A   1      32.401  25.389  22.308  1.00  0.00     0.164 HD
BRANCH  13  16
ATOM     16  C   UNL A   1      32.650  22.287  23.563  1.00  0.00     0.102 A 
ATOM     17  C   UNL A   1      32.774  22.181  24.952  1.00  0.00     0.226 A 
ATOM     18  N   UNL A   1      32.810  21.004  25.649  1.00  0.00    -0.218 NA
ATOM     19  C   UNL A   1      32.686  19.884  24.924  1.00  0.00     0.048 A 
ATOM     20  C   UNL A   1      32.475  21.064  22.869  1.00  0.00     0.025 A 
ATOM     21  C   UNL A   1      32.492  19.867  23.558  1.00  0.00    -0.025 A 
ATOM     22  C   UNL A   1      32.680  18.489  25.484  1.00  0.00     0.057 C 
ATOM     23  C   UNL A   1      32.275  18.483  23.050  1.00  0.00     0.038 C 
ATOM     24  C   UNL A   1      32.848  17.650  24.205  1.00  0.00     0.011 C 
BRANCH  17  25
ATOM     25  O   UNL A   1      32.854  23.270  25.767  1.00  0.00    -0.480 OA
ATOM     26  C   UNL A   1      32.182  22.986  26.994  1.00  0.00     0.280 C 
ENDBRANCH  17  25
ENDBRANCH  13  16
ENDBRANCH  11  12
ENDBRANCH   7  11
ENDBRANCH   3   6
ENDBRANCH   1   2
BRANCH   1  27
ATOM     27  C   UNL A   1      31.519  32.085  26.891  1.00  0.00     0.042 C 
BRANCH  27  28
ATOM     28  C   UNL A   1      32.826  32.622  27.475  1.00  0.00     0.118 C 
BRANCH  28  29
ATOM     29  N   UNL A   1      32.730  34.049  27.763  1.00  0.00    -0.352 N 
ATOM     30  C   UNL A   1      33.259  34.755  28.815  1.00  0.00     0.251 C 
ATOM     31  H   UNL A   1      32.216  34.580  27.112  1.00  0.00     0.163 HD
ATOM     32  O   UNL A   1      32.819  35.863  29.096  1.00  0.00    -0.269 OA
BRANCH  30  33
ATOM     33  C   UNL A   1      34.370  34.168  29.585  1.00  0.00     0.039 A 
ATOM     34  C   UNL A   1      34.095  33.413  30.727  1.00  0.00     0.014 A 
ATOM     35  C   UNL A   1      35.688  34.401  29.181  1.00  0.00     0.014 A 
ATOM     36  C   UNL A   1      35.151  32.852  31.444  1.00  0.00     0.010 A 
ATOM     37  C   UNL A   1      36.734  33.792  29.861  1.00  0.00     0.010 A 
ATOM     38  C   UNL A   1      36.474  33.029  31.007  1.00  0.00    -0.014 A 
BRANCH  38  39
ATOM     39  C   UNL A   1      37.612  32.470  31.768  1.00  0.00     0.031 A 
ATOM     40  C   UNL A   1      38.349  31.280  31.221  1.00  0.00     0.074 A 
ATOM     41  C   UNL A   1      37.947  33.003  32.958  1.00  0.00     0.049 A 
ATOM     42  N   UNL A   1      39.339  30.615  31.752  1.00  0.00    -0.248 NA
ATOM     43  C   UNL A   1      37.906  30.761  29.914  1.00  0.00     0.031 C 
ATOM     44  C   UNL A   1      37.283  34.143  33.593  1.00  0.00     0.029 A 
ATOM     45  N   UNL A   1      38.930  32.652  33.847  1.00  0.00    -0.354 N 
ATOM     46  C   UNL A   1      39.633  29.599  30.852  1.00  0.00     0.074 A 
ATOM     47  C   UNL A   1      38.689  29.703  29.763  1.00  0.00     0.031 C 
ATOM     48  C   UNL A   1      37.895  34.414  34.758  1.00  0.00     0.029 A 
ATOM     49  C   UNL A   1      38.970  33.448  34.967  1.00  0.00     0.049 A 
ATOM     50  H   UNL A   1      39.549  31.901  33.698  1.00  0.00     0.167 HD
ATOM     51  C   UNL A   1      40.620  28.677  30.918  1.00  0.00     0.031 A 
ATOM     52  C   UNL A   1      39.780  33.402  36.042  1.00  0.00     0.031 A 
ATOM     53  C   UNL A   1      41.566  28.593  31.995  1.00  0.00     0.049 A 
ATOM     54  C   UNL A   1      40.855  32.351  36.103  1.00  0.00     0.074 A 
ATOM     55  C   UNL A   1      42.632  27.721  32.130  1.00  0.00     0.029 A 
ATOM     56  N   UNL A   1      41.565  29.409  33.114  1.00  0.00    -0.354 N 
ATOM     57  N   UNL A   1      41.142  31.423  35.223  1.00  0.00    -0.248 NA
ATOM     58  C   UNL A   1      41.716  32.344  37.294  1.00  0.00     0.031 C 
ATOM     59  C   UNL A   1      43.248  27.982  33.356  1.00  0.00     0.029 A 
ATOM     60  C   UNL A   1      42.599  29.049  33.957  1.00  0.00     0.049 A 
ATOM     61  H   UNL A   1      40.922  30.137  33.284  1.00  0.00     0.167 HD
ATOM     62  C   UNL A   1      42.231  30.733  35.742  1.00  0.00     0.074 A 
ATOM     63  C   UNL A   1      42.555  31.355  37.011  1.00  0.00     0.031 C 
ATOM     64  C   UNL A   1      42.905  29.683  35.213  1.00  0.00     0.031 A 
BRANCH  51  65
ATOM     65  C   UNL A   1      40.744  27.695  29.788  1.00  0.00    -0.014 A 
ATOM     66  C   UNL A   1      39.792  26.675  29.619  1.00  0.00     0.010 A 
ATOM     67  C   UNL A   1      41.767  27.851  28.835  1.00  0.00     0.010 A 
ATOM     68  C   UNL A   1      39.864  25.821  28.516  1.00  0.00     0.020 A 
ATOM     69  C   UNL A   1      41.829  27.012  27.719  1.00  0.00     0.020 A 
ATOM     70  C   UNL A   1      40.875  26.003  27.567  1.00  0.00     0.054 A 
BRANCH  70  71
ATOM     71  S   UNL A   1      40.903  24.913  26.118  1.00  0.00     0.124 S 
ATOM     72  O   UNL A   1      41.268  25.837  25.047  1.00  0.00    -0.237 OA
ATOM     73  O   UNL A   1      41.926  23.936  26.482  1.00  0.00    -0.237 OA
ATOM     74  O   UNL A   1      39.540  24.392  26.048  1.00  0.00    -0.744 OA
ENDBRANCH  70  71
ENDBRANCH  51  65
BRANCH  52  75
ATOM     75  C   UNL A   1      39.616  34.403  37.130  1.00  0.00    -0.014 A 
ATOM     76  C   UNL A   1      38.960  34.055  38.322  1.00  0.00     0.010 A 
ATOM     77  C   UNL A   1      40.155  35.695  36.995  1.00  0.00     0.010 A 
ATOM     78  C   UNL A   1      38.846  34.982  39.363  1.00  0.00     0.020 A 
ATOM     79  C   UNL A   1      40.063  36.617  38.042  1.00  0.00     0.020 A 
ATOM     80  C   UNL A   1      39.408  36.253  39.220  1.00  0.00     0.054 A 
BRANCH  80  81
ATOM     81  S   UNL A   1      39.290  37.416  40.608  1.00  0.00     0.124 S 
ATOM     82  O   UNL A   1      38.369  38.423  40.091  1.00  0.00    -0.237 OA
ATOM     83  O   UNL A   1      38.765  36.566  41.675  1.00  0.00    -0.237 OA
ATOM     84  O   UNL A   1      40.667  37.867  40.798  1.00  0.00    -0.744 OA
ENDBRANCH  80  81
ENDBRANCH  52  75
BRANCH  64  85
ATOM     85  C   UNL A   1      44.076  29.138  35.979  1.00  0.00    -0.014 A 
ATOM     86  C   UNL A   1      45.344  29.732  35.877  1.00  0.00     0.010 A 
ATOM     87  C   UNL A   1      43.868  28.105  36.913  1.00  0.00     0.010 A 
ATOM     88  C   UNL A   1      46.389  29.302  36.698  1.00  0.00     0.020 A 
ATOM     89  C   UNL A   1      44.905  27.688  37.750  1.00  0.00     0.020 A 
ATOM     90  C   UNL A   1      46.159  28.292  37.638  1.00  0.00     0.054 A 
BRANCH  90  91
ATOM     91  S   UNL A   1      47.518  27.805  38.736  1.00  0.00     0.124 S 
ATOM     92  O   UNL A   1      48.610  28.656  38.270  1.00  0.00    -0.237 OA
ATOM     93  O   UNL A   1      46.986  28.134  40.056  1.00  0.00    -0.237 OA
ATOM     94  O   UNL A   1      47.688  26.379  38.472  1.00  0.00    -0.744 OA
ENDBRANCH  90  91
ENDBRANCH  64  85
ENDBRANCH  38  39
ENDBRANCH  30  33
ENDBRANCH  28  29
ENDBRANCH  27  28
ENDBRANCH   1  27
TORSDOF 17
ENDMDL
