MODEL 1
REMARK VINA RESULT:     -11.4      0.000      0.000
REMARK SMILES CCOc1cccc(OCC)c1-c1ccc([C@@H](C)C(=O)NCCCNC(=O)c2ccc(-c3c4nc(c(-c5ccc(S(=O)(=O)[O-])cc5)c5ccc([nH]5)c(-c5ccc(S(=O)(=O)[O-])cc5)c5nc(c(-c6ccc(S(=O)(=O)[O-])cc6)c6ccc3[nH]6)C=C5)C=C4)cc2)cc1F
REMARK SMILES IDX 22 1 21 2 19 3 20 4 17 6 18 7 16 8 13 9 14 10 89 11 15 12
REMARK SMILES IDX 88 13 90 14 12 15 4 16 5 17 6 18 8 19 7 20 3 21 2 22 1 23
REMARK SMILES IDX 9 24 10 25 11 26 23 27 24 28 25 29 26 30 27 32 28 33 29 34
REMARK SMILES IDX 87 35 30 36 86 37 31 38 32 39 33 40 80 41 34 42 85 43 79 44
REMARK SMILES IDX 81 45 35 46 84 47 78 48 77 49 36 51 66 52 47 53 65 54 48 55
REMARK SMILES IDX 51 56 64 57 82 58 49 59 50 60 63 62 83 63 52 64 37 65 38 66
REMARK SMILES IDX 46 67 39 68 45 69 40 70 41 71 42 72 43 73 44 74 67 75 68 76
REMARK SMILES IDX 76 77 69 78 75 79 70 80 71 81 72 82 73 83 74 84 53 85 54 86
REMARK SMILES IDX 62 87 55 88 61 89 56 90 57 91 58 92 59 93 60 94
REMARK H PARENT 21 5 25 31 81 50 51 61
REMARK Flexibility Score: inf
ROOT
ATOM      1  C   UNL A   1      37.074  22.843  24.836  1.00  0.00     0.117 C 
ENDROOT
BRANCH   1   2
ATOM      2  N   UNL A   1      35.963  21.908  24.965  1.00  0.00    -0.356 N 
ATOM      3  C   UNL A   1      34.865  21.829  25.769  1.00  0.00     0.227 C 
ATOM      4  O   UNL A   1      34.151  20.832  25.585  1.00  0.00    -0.274 OA
ATOM      5  H   UNL A   1      36.017  21.163  24.323  1.00  0.00     0.163 HD
BRANCH   3   6
ATOM      6  C   UNL A   1      34.456  22.851  26.858  1.00  0.00     0.105 C 
ATOM      7  C   UNL A   1      33.811  22.244  28.099  1.00  0.00     0.023 C 
BRANCH   6   8
ATOM      8  C   UNL A   1      33.704  24.055  26.317  1.00  0.00    -0.033 A 
ATOM      9  C   UNL A   1      32.472  26.473  25.457  1.00  0.00     0.025 A 
ATOM     10  C   UNL A   1      33.820  26.212  25.223  1.00  0.00     0.012 A 
ATOM     11  C   UNL A   1      31.744  25.493  26.144  1.00  0.00     0.131 A 
ATOM     12  C   UNL A   1      34.369  24.977  25.525  1.00  0.00     0.005 A 
ATOM     13  C   UNL A   1      32.358  24.316  26.608  1.00  0.00     0.044 A 
ATOM     14  F   UNL A   1      30.442  25.675  26.409  1.00  0.00    -0.206 F 
BRANCH   9  15
ATOM     15  C   UNL A   1      31.956  27.787  25.051  1.00  0.00     0.069 A 
ATOM     16  C   UNL A   1      31.025  27.815  23.976  1.00  0.00     0.130 A 
ATOM     17  C   UNL A   1      30.342  28.976  23.608  1.00  0.00     0.047 A 
ATOM     18  C   UNL A   1      30.554  30.145  24.321  1.00  0.00     0.008 A 
ATOM     19  C   UNL A   1      32.186  28.996  25.751  1.00  0.00     0.130 A 
ATOM     20  C   UNL A   1      31.474  30.152  25.368  1.00  0.00     0.047 A 
BRANCH  16  21
ATOM     21  O   UNL A   1      30.832  26.681  23.221  1.00  0.00    -0.493 OA
BRANCH  21  22
ATOM     22  C   UNL A   1      31.409  26.769  21.914  1.00  0.00     0.226 C 
ATOM     23  C   UNL A   1      32.495  25.711  21.794  1.00  0.00     0.049 C 
ENDBRANCH  21  22
ENDBRANCH  16  21
BRANCH  19  24
ATOM     24  O   UNL A   1      33.029  29.305  26.785  1.00  0.00    -0.493 OA
BRANCH  24  25
ATOM     25  C   UNL A   1      33.181  30.587  27.371  1.00  0.00     0.226 C 
ATOM     26  C   UNL A   1      34.655  30.912  27.575  1.00  0.00     0.049 C 
ENDBRANCH  24  25
ENDBRANCH  19  24
ENDBRANCH   9  15
ENDBRANCH   6   8
ENDBRANCH   3   6
ENDBRANCH   1   2
BRANCH   1  27
ATOM     27  C   UNL A   1      38.074  22.727  25.995  1.00  0.00     0.042 C 
BRANCH  27  28
ATOM     28  C   UNL A   1      38.601  24.039  26.553  1.00  0.00     0.118 C 
BRANCH  28  29
ATOM     29  N   UNL A   1      39.812  24.477  25.885  1.00  0.00    -0.352 N 
ATOM     30  C   UNL A   1      40.622  25.562  26.106  1.00  0.00     0.251 C 
ATOM     31  H   UNL A   1      40.103  23.895  25.145  1.00  0.00     0.163 HD
ATOM     32  O   UNL A   1      41.489  25.814  25.265  1.00  0.00    -0.269 OA
BRANCH  30  33
ATOM     33  C   UNL A   1      40.487  26.440  27.299  1.00  0.00     0.039 A 
ATOM     34  C   UNL A   1      41.205  27.642  27.321  1.00  0.00     0.014 A 
ATOM     35  C   UNL A   1      39.744  26.077  28.427  1.00  0.00     0.014 A 
ATOM     36  C   UNL A   1      41.159  28.477  28.443  1.00  0.00     0.010 A 
ATOM     37  C   UNL A   1      39.624  26.953  29.509  1.00  0.00     0.010 A 
ATOM     38  C   UNL A   1      40.350  28.151  29.544  1.00  0.00    -0.014 A 
BRANCH  38  39
ATOM     39  C   UNL A   1      40.294  29.035  30.741  1.00  0.00     0.031 A 
ATOM     40  C   UNL A   1      39.273  30.144  30.827  1.00  0.00     0.074 A 
ATOM     41  C   UNL A   1      41.182  28.865  31.742  1.00  0.00     0.049 A 
ATOM     42  N   UNL A   1      39.081  31.017  31.785  1.00  0.00    -0.248 NA
ATOM     43  C   UNL A   1      38.367  30.313  29.678  1.00  0.00     0.031 C 
ATOM     44  C   UNL A   1      42.257  27.870  31.762  1.00  0.00     0.029 A 
ATOM     45  N   UNL A   1      41.325  29.528  32.937  1.00  0.00    -0.354 N 
ATOM     46  C   UNL A   1      38.057  31.849  31.343  1.00  0.00     0.074 A 
ATOM     47  C   UNL A   1      37.696  31.405  30.015  1.00  0.00     0.031 C 
ATOM     48  C   UNL A   1      42.930  27.971  32.919  1.00  0.00     0.029 A 
ATOM     49  C   UNL A   1      42.359  29.055  33.712  1.00  0.00     0.049 A 
ATOM     50  H   UNL A   1      40.743  30.273  33.213  1.00  0.00     0.167 HD
ATOM     51  C   UNL A   1      37.458  32.879  31.990  1.00  0.00     0.031 A 
ATOM     52  C   UNL A   1      42.799  29.447  34.924  1.00  0.00     0.031 A 
ATOM     53  C   UNL A   1      37.792  33.298  33.325  1.00  0.00     0.049 A 
ATOM     54  C   UNL A   1      42.081  30.557  35.642  1.00  0.00     0.074 A 
ATOM     55  C   UNL A   1      37.189  34.280  34.093  1.00  0.00     0.029 A 
ATOM     56  N   UNL A   1      38.814  32.762  34.092  1.00  0.00    -0.354 N 
ATOM     57  N   UNL A   1      41.064  31.278  35.236  1.00  0.00    -0.248 NA
ATOM     58  C   UNL A   1      42.558  30.890  36.990  1.00  0.00     0.031 C 
ATOM     59  C   UNL A   1      37.877  34.367  35.309  1.00  0.00     0.029 A 
ATOM     60  C   UNL A   1      38.870  33.401  35.319  1.00  0.00     0.049 A 
ATOM     61  H   UNL A   1      39.411  32.032  33.807  1.00  0.00     0.167 HD
ATOM     62  C   UNL A   1      40.760  32.130  36.293  1.00  0.00     0.074 A 
ATOM     63  C   UNL A   1      41.688  31.820  37.360  1.00  0.00     0.031 C 
ATOM     64  C   UNL A   1      39.798  33.082  36.373  1.00  0.00     0.031 A 
BRANCH  51  65
ATOM     65  C   UNL A   1      36.372  33.631  31.263  1.00  0.00    -0.014 A 
ATOM     66  C   UNL A   1      36.487  33.941  29.896  1.00  0.00     0.010 A 
ATOM     67  C   UNL A   1      35.188  33.973  31.943  1.00  0.00     0.010 A 
ATOM     68  C   UNL A   1      35.452  34.605  29.230  1.00  0.00     0.020 A 
ATOM     69  C   UNL A   1      34.139  34.611  31.274  1.00  0.00     0.020 A 
ATOM     70  C   UNL A   1      34.284  34.935  29.923  1.00  0.00     0.054 A 
BRANCH  70  71
ATOM     71  S   UNL A   1      32.938  35.752  29.023  1.00  0.00     0.124 S 
ATOM     72  O   UNL A   1      32.380  34.646  28.247  1.00  0.00    -0.237 OA
ATOM     73  O   UNL A   1      32.087  36.249  30.104  1.00  0.00    -0.237 OA
ATOM     74  O   UNL A   1      33.614  36.782  28.244  1.00  0.00    -0.744 OA
ENDBRANCH  70  71
ENDBRANCH  51  65
BRANCH  52  75
ATOM     75  C   UNL A   1      43.971  28.770  35.546  1.00  0.00    -0.014 A 
ATOM     76  C   UNL A   1      45.276  29.241  35.323  1.00  0.00     0.010 A 
ATOM     77  C   UNL A   1      43.782  27.642  36.366  1.00  0.00     0.010 A 
ATOM     78  C   UNL A   1      46.374  28.579  35.882  1.00  0.00     0.020 A 
ATOM     79  C   UNL A   1      44.874  26.996  36.952  1.00  0.00     0.020 A 
ATOM     80  C   UNL A   1      46.165  27.460  36.693  1.00  0.00     0.054 A 
BRANCH  80  81
ATOM     81  S   UNL A   1      47.599  26.635  37.439  1.00  0.00     0.124 S 
ATOM     82  O   UNL A   1      48.633  26.856  36.433  1.00  0.00    -0.237 OA
ATOM     83  O   UNL A   1      47.768  27.367  38.693  1.00  0.00    -0.237 OA
ATOM     84  O   UNL A   1      47.155  25.251  37.590  1.00  0.00    -0.744 OA
ENDBRANCH  80  81
ENDBRANCH  52  75
BRANCH  64  85
ATOM     85  C   UNL A   1      39.670  33.825  37.675  1.00  0.00    -0.014 A 
ATOM     86  C   UNL A   1      38.805  33.384  38.691  1.00  0.00     0.010 A 
ATOM     87  C   UNL A   1      40.450  34.978  37.891  1.00  0.00     0.010 A 
ATOM     88  C   UNL A   1      38.680  34.111  39.878  1.00  0.00     0.020 A 
ATOM     89  C   UNL A   1      40.350  35.690  39.089  1.00  0.00     0.020 A 
ATOM     90  C   UNL A   1      39.448  35.264  40.065  1.00  0.00     0.054 A 
BRANCH  90  91
ATOM     91  S   UNL A   1      39.275  36.190  41.615  1.00  0.00     0.124 S 
ATOM     92  O   UNL A   1      40.506  35.839  42.317  1.00  0.00    -0.237 OA
ATOM     93  O   UNL A   1      39.185  37.575  41.156  1.00  0.00    -0.237 OA
ATOM     94  O   UNL A   1      38.047  35.656  42.202  1.00  0.00    -0.744 OA
ENDBRANCH  90  91
ENDBRANCH  64  85
ENDBRANCH  38  39
ENDBRANCH  30  33
ENDBRANCH  28  29
ENDBRANCH  27  28
ENDBRANCH   1  27
TORSDOF 19
ENDMDL
MODEL 2
REMARK VINA RESULT:     -11.2      3.034      8.726
REMARK SMILES CCOc1cccc(OCC)c1-c1ccc([C@@H](C)C(=O)NCCCNC(=O)c2ccc(-c3c4nc(c(-c5ccc(S(=O)(=O)[O-])cc5)c5ccc([nH]5)c(-c5ccc(S(=O)(=O)[O-])cc5)c5nc(c(-c6ccc(S(=O)(=O)[O-])cc6)c6ccc3[nH]6)C=C5)C=C4)cc2)cc1F
REMARK SMILES IDX 22 1 21 2 19 3 20 4 17 6 18 7 16 8 13 9 14 10 89 11 15 12
REMARK SMILES IDX 88 13 90 14 12 15 4 16 5 17 6 18 8 19 7 20 3 21 2 22 1 23
REMARK SMILES IDX 9 24 10 25 11 26 23 27 24 28 25 29 26 30 27 32 28 33 29 34
REMARK SMILES IDX 87 35 30 36 86 37 31 38 32 39 33 40 80 41 34 42 85 43 79 44
REMARK SMILES IDX 81 45 35 46 84 47 78 48 77 49 36 51 66 52 47 53 65 54 48 55
REMARK SMILES IDX 51 56 64 57 82 58 49 59 50 60 63 62 83 63 52 64 37 65 38 66
REMARK SMILES IDX 46 67 39 68 45 69 40 70 41 71 42 72 43 73 44 74 67 75 68 76
REMARK SMILES IDX 76 77 69 78 75 79 70 80 71 81 72 82 73 83 74 84 53 85 54 86
REMARK SMILES IDX 62 87 55 88 61 89 56 90 57 91 58 92 59 93 60 94
REMARK H PARENT 21 5 25 31 81 50 51 61
REMARK Flexibility Score: inf
ROOT
ATOM      1  C   UNL A   1      31.753  28.480  27.118  1.00  0.00     0.117 C 
ENDROOT
BRANCH   1   2
ATOM      2  N   UNL A   1      30.909  27.293  27.070  1.00  0.00    -0.356 N 
ATOM      3  C   UNL A   1      30.721  26.285  26.172  1.00  0.00     0.227 C 
ATOM      4  O   UNL A   1      29.862  25.450  26.493  1.00  0.00    -0.274 OA
ATOM      5  H   UNL A   1      30.345  27.195  27.872  1.00  0.00     0.163 HD
BRANCH   3   6
ATOM      6  C   UNL A   1      31.469  26.110  24.828  1.00  0.00     0.105 C 
ATOM      7  C   UNL A   1      30.576  26.099  23.592  1.00  0.00     0.023 C 
BRANCH   6   8
ATOM      8  C   UNL A   1      32.495  24.990  24.838  1.00  0.00    -0.033 A 
ATOM      9  C   UNL A   1      34.587  23.068  25.007  1.00  0.00     0.025 A 
ATOM     10  C   UNL A   1      33.985  23.600  26.144  1.00  0.00     0.012 A 
ATOM     11  C   UNL A   1      34.122  23.526  23.768  1.00  0.00     0.131 A 
ATOM     12  C   UNL A   1      32.881  24.428  26.044  1.00  0.00     0.005 A 
ATOM     13  C   UNL A   1      33.118  24.507  23.680  1.00  0.00     0.044 A 
ATOM     14  F   UNL A   1      34.656  23.062  22.628  1.00  0.00    -0.206 F 
BRANCH   9  15
ATOM     15  C   UNL A   1      35.716  22.149  25.205  1.00  0.00     0.069 A 
ATOM     16  C   UNL A   1      35.513  20.786  24.855  1.00  0.00     0.130 A 
ATOM     17  C   UNL A   1      36.553  19.853  24.842  1.00  0.00     0.047 A 
ATOM     18  C   UNL A   1      37.837  20.263  25.157  1.00  0.00     0.008 A 
ATOM     19  C   UNL A   1      37.029  22.547  25.555  1.00  0.00     0.130 A 
ATOM     20  C   UNL A   1      38.064  21.590  25.521  1.00  0.00     0.047 A 
BRANCH  16  21
ATOM     21  O   UNL A   1      34.239  20.341  24.584  1.00  0.00    -0.493 OA
BRANCH  21  22
ATOM     22  C   UNL A   1      34.123  18.914  24.607  1.00  0.00     0.226 C 
ATOM     23  C   UNL A   1      32.994  18.507  23.673  1.00  0.00     0.049 C 
ENDBRANCH  21  22
ENDBRANCH  16  21
BRANCH  19  24
ATOM     24  O   UNL A   1      37.537  23.750  25.967  1.00  0.00    -0.493 OA
BRANCH  24  25
ATOM     25  C   UNL A   1      38.907  24.028  26.209  1.00  0.00     0.226 C 
ATOM     26  C   UNL A   1      39.114  24.493  27.645  1.00  0.00     0.049 C 
ENDBRANCH  24  25
ENDBRANCH  19  24
ENDBRANCH   9  15
ENDBRANCH   6   8
ENDBRANCH   3   6
ENDBRANCH   1   2
BRANCH   1  27
ATOM     27  C   UNL A   1      33.240  28.149  26.925  1.00  0.00     0.042 C 
BRANCH  27  28
ATOM     28  C   UNL A   1      34.076  29.218  26.242  1.00  0.00     0.118 C 
BRANCH  28  29
ATOM     29  N   UNL A   1      33.789  30.549  26.744  1.00  0.00    -0.352 N 
ATOM     30  C   UNL A   1      34.400  31.295  27.721  1.00  0.00     0.251 C 
ATOM     31  H   UNL A   1      33.025  30.992  26.310  1.00  0.00     0.163 HD
ATOM     32  O   UNL A   1      33.835  32.327  28.093  1.00  0.00    -0.269 OA
BRANCH  30  33
ATOM     33  C   UNL A   1      35.692  30.904  28.345  1.00  0.00     0.039 A 
ATOM     34  C   UNL A   1      35.715  29.765  29.160  1.00  0.00     0.014 A 
ATOM     35  C   UNL A   1      36.855  31.669  28.221  1.00  0.00     0.014 A 
ATOM     36  C   UNL A   1      36.891  29.386  29.817  1.00  0.00     0.010 A 
ATOM     37  C   UNL A   1      38.052  31.239  28.802  1.00  0.00     0.010 A 
ATOM     38  C   UNL A   1      38.080  30.108  29.629  1.00  0.00    -0.014 A 
BRANCH  38  39
ATOM     39  C   UNL A   1      39.336  29.711  30.324  1.00  0.00     0.031 A 
ATOM     40  C   UNL A   1      39.733  30.369  31.623  1.00  0.00     0.074 A 
ATOM     41  C   UNL A   1      40.142  28.780  29.772  1.00  0.00     0.049 A 
ATOM     42  N   UNL A   1      40.793  30.159  32.365  1.00  0.00    -0.248 NA
ATOM     43  C   UNL A   1      38.840  31.416  32.147  1.00  0.00     0.031 C 
ATOM     44  C   UNL A   1      39.907  28.108  28.492  1.00  0.00     0.029 A 
ATOM     45  N   UNL A   1      41.324  28.241  30.215  1.00  0.00    -0.354 N 
ATOM     46  C   UNL A   1      40.706  31.062  33.420  1.00  0.00     0.074 A 
ATOM     47  C   UNL A   1      39.513  31.851  33.202  1.00  0.00     0.031 C 
ATOM     48  C   UNL A   1      40.898  27.229  28.267  1.00  0.00     0.029 A 
ATOM     49  C   UNL A   1      41.854  27.296  29.367  1.00  0.00     0.049 A 
ATOM     50  H   UNL A   1      41.754  28.506  31.061  1.00  0.00     0.167 HD
ATOM     51  C   UNL A   1      41.532  31.211  34.483  1.00  0.00     0.031 A 
ATOM     52  C   UNL A   1      42.981  26.563  29.462  1.00  0.00     0.031 A 
ATOM     53  C   UNL A   1      42.699  30.404  34.719  1.00  0.00     0.049 A 
ATOM     54  C   UNL A   1      43.853  26.711  30.679  1.00  0.00     0.074 A 
ATOM     55  C   UNL A   1      43.555  30.427  35.807  1.00  0.00     0.029 A 
ATOM     56  N   UNL A   1      43.174  29.426  33.859  1.00  0.00    -0.354 N 
ATOM     57  N   UNL A   1      43.708  27.518  31.703  1.00  0.00    -0.248 NA
ATOM     58  C   UNL A   1      45.027  25.833  30.764  1.00  0.00     0.031 C 
ATOM     59  C   UNL A   1      44.574  29.494  35.582  1.00  0.00     0.029 A 
ATOM     60  C   UNL A   1      44.319  28.851  34.383  1.00  0.00     0.049 A 
ATOM     61  H   UNL A   1      42.757  29.177  33.002  1.00  0.00     0.167 HD
ATOM     62  C   UNL A   1      44.756  27.221  32.569  1.00  0.00     0.074 A 
ATOM     63  C   UNL A   1      45.514  26.150  31.955  1.00  0.00     0.031 C 
ATOM     64  C   UNL A   1      45.063  27.784  33.763  1.00  0.00     0.031 A 
BRANCH  51  65
ATOM     65  C   UNL A   1      41.207  32.292  35.483  1.00  0.00    -0.014 A 
ATOM     66  C   UNL A   1      41.763  33.579  35.373  1.00  0.00     0.010 A 
ATOM     67  C   UNL A   1      40.278  32.036  36.508  1.00  0.00     0.010 A 
ATOM     68  C   UNL A   1      41.419  34.580  36.287  1.00  0.00     0.020 A 
ATOM     69  C   UNL A   1      39.910  33.041  37.406  1.00  0.00     0.020 A 
ATOM     70  C   UNL A   1      40.493  34.305  37.297  1.00  0.00     0.054 A 
BRANCH  70  71
ATOM     71  S   UNL A   1      40.029  35.635  38.440  1.00  0.00     0.124 S 
ATOM     72  O   UNL A   1      38.894  35.041  39.146  1.00  0.00    -0.237 OA
ATOM     73  O   UNL A   1      41.242  35.808  39.239  1.00  0.00    -0.237 OA
ATOM     74  O   UNL A   1      39.700  36.750  37.561  1.00  0.00    -0.744 OA
ENDBRANCH  70  71
ENDBRANCH  51  65
BRANCH  52  75
ATOM     75  C   UNL A   1      43.343  25.607  28.379  1.00  0.00    -0.014 A 
ATOM     76  C   UNL A   1      42.919  24.268  28.430  1.00  0.00     0.010 A 
ATOM     77  C   UNL A   1      44.120  26.036  27.288  1.00  0.00     0.010 A 
ATOM     78  C   UNL A   1      43.291  23.367  27.427  1.00  0.00     0.020 A 
ATOM     79  C   UNL A   1      44.470  25.147  26.268  1.00  0.00     0.020 A 
ATOM     80  C   UNL A   1      44.066  23.814  26.353  1.00  0.00     0.054 A 
BRANCH  80  81
ATOM     81  S   UNL A   1      44.510  22.639  25.042  1.00  0.00     0.124 S 
ATOM     82  O   UNL A   1      43.210  22.084  24.679  1.00  0.00    -0.237 OA
ATOM     83  O   UNL A   1      45.133  23.503  24.040  1.00  0.00    -0.237 OA
ATOM     84  O   UNL A   1      45.424  21.715  25.709  1.00  0.00    -0.744 OA
ENDBRANCH  80  81
ENDBRANCH  52  75
BRANCH  64  85
ATOM     85  C   UNL A   1      46.244  27.221  34.508  1.00  0.00    -0.014 A 
ATOM     86  C   UNL A   1      47.504  27.842  34.462  1.00  0.00     0.010 A 
ATOM     87  C   UNL A   1      46.079  26.058  35.284  1.00  0.00     0.010 A 
ATOM     88  C   UNL A   1      48.593  27.279  35.135  1.00  0.00     0.020 A 
ATOM     89  C   UNL A   1      47.158  25.511  35.982  1.00  0.00     0.020 A 
ATOM     90  C   UNL A   1      48.413  26.112  35.885  1.00  0.00     0.054 A 
BRANCH  90  91
ATOM     91  S   UNL A   1      49.838  25.402  36.754  1.00  0.00     0.124 S 
ATOM     92  O   UNL A   1      49.204  24.398  37.603  1.00  0.00    -0.237 OA
ATOM     93  O   UNL A   1      50.655  24.878  35.662  1.00  0.00    -0.237 OA
ATOM     94  O   UNL A   1      50.415  26.543  37.462  1.00  0.00    -0.744 OA
ENDBRANCH  90  91
ENDBRANCH  64  85
ENDBRANCH  38  39
ENDBRANCH  30  33
ENDBRANCH  28  29
ENDBRANCH  27  28
ENDBRANCH   1  27
TORSDOF 19
ENDMDL
MODEL 3
REMARK VINA RESULT:     -11.0      3.034      8.985
REMARK SMILES CCOc1cccc(OCC)c1-c1ccc([C@@H](C)C(=O)NCCCNC(=O)c2ccc(-c3c4nc(c(-c5ccc(S(=O)(=O)[O-])cc5)c5ccc([nH]5)c(-c5ccc(S(=O)(=O)[O-])cc5)c5nc(c(-c6ccc(S(=O)(=O)[O-])cc6)c6ccc3[nH]6)C=C5)C=C4)cc2)cc1F
REMARK SMILES IDX 22 1 21 2 19 3 20 4 17 6 18 7 16 8 13 9 14 10 89 11 15 12
REMARK SMILES IDX 88 13 90 14 12 15 4 16 5 17 6 18 8 19 7 20 3 21 2 22 1 23
REMARK SMILES IDX 9 24 10 25 11 26 23 27 24 28 25 29 26 30 27 32 28 33 29 34
REMARK SMILES IDX 87 35 30 36 86 37 31 38 32 39 33 40 80 41 34 42 85 43 79 44
REMARK SMILES IDX 81 45 35 46 84 47 78 48 77 49 36 51 66 52 47 53 65 54 48 55
REMARK SMILES IDX 51 56 64 57 82 58 49 59 50 60 63 62 83 63 52 64 37 65 38 66
REMARK SMILES IDX 46 67 39 68 45 69 40 70 41 71 42 72 43 73 44 74 67 75 68 76
REMARK SMILES IDX 76 77 69 78 75 79 70 80 71 81 72 82 73 83 74 84 53 85 54 86
REMARK SMILES IDX 62 87 55 88 61 89 56 90 57 91 58 92 59 93 60 94
REMARK H PARENT 21 5 25 31 81 50 51 61
REMARK Flexibility Score: inf
ROOT
ATOM      1  C   UNL A   1      31.776  28.633  27.072  1.00  0.00     0.117 C 
ENDROOT
BRANCH   1   2
ATOM      2  N   UNL A   1      31.074  27.357  27.028  1.00  0.00    -0.356 N 
ATOM      3  C   UNL A   1      31.061  26.298  26.168  1.00  0.00     0.227 C 
ATOM      4  O   UNL A   1      30.281  25.385  26.474  1.00  0.00    -0.274 OA
ATOM      5  H   UNL A   1      30.471  27.227  27.796  1.00  0.00     0.163 HD
BRANCH   3   6
ATOM      6  C   UNL A   1      31.914  26.155  24.884  1.00  0.00     0.105 C 
ATOM      7  C   UNL A   1      31.116  25.947  23.602  1.00  0.00     0.023 C 
BRANCH   6   8
ATOM      8  C   UNL A   1      33.083  25.195  25.028  1.00  0.00    -0.033 A 
ATOM      9  C   UNL A   1      35.131  23.221  25.121  1.00  0.00     0.025 A 
ATOM     10  C   UNL A   1      34.741  23.819  23.925  1.00  0.00     0.012 A 
ATOM     11  C   UNL A   1      34.464  23.629  26.283  1.00  0.00     0.131 A 
ATOM     12  C   UNL A   1      33.842  24.871  23.915  1.00  0.00     0.005 A 
ATOM     13  C   UNL A   1      33.423  24.573  26.236  1.00  0.00     0.044 A 
ATOM     14  F   UNL A   1      34.783  23.095  27.472  1.00  0.00    -0.206 F 
BRANCH   9  15
ATOM     15  C   UNL A   1      36.135  22.152  25.047  1.00  0.00     0.069 A 
ATOM     16  C   UNL A   1      37.478  22.499  25.358  1.00  0.00     0.130 A 
ATOM     17  C   UNL A   1      38.490  21.544  25.484  1.00  0.00     0.047 A 
ATOM     18  C   UNL A   1      38.181  20.203  25.324  1.00  0.00     0.008 A 
ATOM     19  C   UNL A   1      35.841  20.779  24.857  1.00  0.00     0.130 A 
ATOM     20  C   UNL A   1      36.876  19.833  25.002  1.00  0.00     0.047 A 
BRANCH  16  21
ATOM     21  O   UNL A   1      37.822  23.826  25.474  1.00  0.00    -0.493 OA
BRANCH  21  22
ATOM     22  C   UNL A   1      39.005  24.037  26.253  1.00  0.00     0.226 C 
ATOM     23  C   UNL A   1      38.606  24.681  27.572  1.00  0.00     0.049 C 
ENDBRANCH  21  22
ENDBRANCH  16  21
BRANCH  19  24
ATOM     24  O   UNL A   1      34.681  20.134  24.518  1.00  0.00    -0.493 OA
BRANCH  24  25
ATOM     25  C   UNL A   1      33.375  20.526  24.908  1.00  0.00     0.226 C 
ATOM     26  C   UNL A   1      32.548  20.919  23.691  1.00  0.00     0.049 C 
ENDBRANCH  24  25
ENDBRANCH  19  24
ENDBRANCH   9  15
ENDBRANCH   6   8
ENDBRANCH   3   6
ENDBRANCH   1   2
BRANCH   1  27
ATOM     27  C   UNL A   1      33.300  28.461  27.144  1.00  0.00     0.042 C 
BRANCH  27  28
ATOM     28  C   UNL A   1      34.125  29.542  26.467  1.00  0.00     0.118 C 
BRANCH  28  29
ATOM     29  N   UNL A   1      33.883  30.857  27.033  1.00  0.00    -0.352 N 
ATOM     30  C   UNL A   1      34.529  31.542  28.031  1.00  0.00     0.251 C 
ATOM     31  H   UNL A   1      33.124  31.339  26.632  1.00  0.00     0.163 HD
ATOM     32  O   UNL A   1      33.999  32.571  28.458  1.00  0.00    -0.269 OA
BRANCH  30  33
ATOM     33  C   UNL A   1      35.819  31.090  28.615  1.00  0.00     0.039 A 
ATOM     34  C   UNL A   1      35.799  30.013  29.511  1.00  0.00     0.014 A 
ATOM     35  C   UNL A   1      37.031  31.744  28.374  1.00  0.00     0.014 A 
ATOM     36  C   UNL A   1      36.977  29.584  30.133  1.00  0.00     0.010 A 
ATOM     37  C   UNL A   1      38.221  31.258  28.924  1.00  0.00     0.010 A 
ATOM     38  C   UNL A   1      38.206  30.190  29.831  1.00  0.00    -0.014 A 
BRANCH  38  39
ATOM     39  C   UNL A   1      39.465  29.738  30.487  1.00  0.00     0.031 A 
ATOM     40  C   UNL A   1      39.967  30.427  31.733  1.00  0.00     0.074 A 
ATOM     41  C   UNL A   1      40.178  28.729  29.948  1.00  0.00     0.049 A 
ATOM     42  N   UNL A   1      41.045  30.180  32.436  1.00  0.00    -0.248 NA
ATOM     43  C   UNL A   1      39.174  31.558  32.243  1.00  0.00     0.031 C 
ATOM     44  C   UNL A   1      39.837  28.014  28.715  1.00  0.00     0.029 A 
ATOM     45  N   UNL A   1      41.341  28.130  30.364  1.00  0.00    -0.354 N 
ATOM     46  C   UNL A   1      41.070  31.136  33.447  1.00  0.00     0.074 A 
ATOM     47  C   UNL A   1      39.925  31.994  33.243  1.00  0.00     0.031 C 
ATOM     48  C   UNL A   1      40.753  27.059  28.491  1.00  0.00     0.029 A 
ATOM     49  C   UNL A   1      41.764  27.110  29.542  1.00  0.00     0.049 A 
ATOM     50  H   UNL A   1      41.828  28.404  31.175  1.00  0.00     0.167 HD
ATOM     51  C   UNL A   1      41.955  31.276  34.464  1.00  0.00     0.031 A 
ATOM     52  C   UNL A   1      42.842  26.306  29.623  1.00  0.00     0.031 A 
ATOM     53  C   UNL A   1      43.075  30.401  34.687  1.00  0.00     0.049 A 
ATOM     54  C   UNL A   1      43.780  26.450  30.792  1.00  0.00     0.074 A 
ATOM     55  C   UNL A   1      43.982  30.416  35.733  1.00  0.00     0.029 A 
ATOM     56  N   UNL A   1      43.440  29.353  33.857  1.00  0.00    -0.354 N 
ATOM     57  N   UNL A   1      43.739  27.312  31.779  1.00  0.00    -0.248 NA
ATOM     58  C   UNL A   1      44.895  25.497  30.867  1.00  0.00     0.031 C 
ATOM     59  C   UNL A   1      44.923  29.405  35.510  1.00  0.00     0.029 A 
ATOM     60  C   UNL A   1      44.568  28.724  34.357  1.00  0.00     0.049 A 
ATOM     61  H   UNL A   1      42.967  29.093  33.033  1.00  0.00     0.167 HD
ATOM     62  C   UNL A   1      44.806  26.984  32.610  1.00  0.00     0.074 A 
ATOM     63  C   UNL A   1      45.459  25.835  32.018  1.00  0.00     0.031 C 
ATOM     64  C   UNL A   1      45.207  27.581  33.760  1.00  0.00     0.031 A 
BRANCH  51  65
ATOM     65  C   UNL A   1      41.753  32.423  35.421  1.00  0.00    -0.014 A 
ATOM     66  C   UNL A   1      41.000  32.267  36.599  1.00  0.00     0.010 A 
ATOM     67  C   UNL A   1      42.382  33.657  35.173  1.00  0.00     0.010 A 
ATOM     68  C   UNL A   1      40.856  33.331  37.495  1.00  0.00     0.020 A 
ATOM     69  C   UNL A   1      42.264  34.714  36.079  1.00  0.00     0.020 A 
ATOM     70  C   UNL A   1      41.490  34.548  37.229  1.00  0.00     0.054 A 
BRANCH  70  71
ATOM     71  S   UNL A   1      41.326  35.897  38.431  1.00  0.00     0.124 S 
ATOM     72  O   UNL A   1      40.576  36.892  37.665  1.00  0.00    -0.237 OA
ATOM     73  O   UNL A   1      40.588  35.263  39.524  1.00  0.00    -0.237 OA
ATOM     74  O   UNL A   1      42.704  36.257  38.741  1.00  0.00    -0.744 OA
ENDBRANCH  70  71
ENDBRANCH  51  65
BRANCH  52  75
ATOM     75  C   UNL A   1      43.086  25.277  28.575  1.00  0.00    -0.014 A 
ATOM     76  C   UNL A   1      43.923  25.549  27.479  1.00  0.00     0.010 A 
ATOM     77  C   UNL A   1      42.472  24.014  28.668  1.00  0.00     0.010 A 
ATOM     78  C   UNL A   1      44.119  24.590  26.480  1.00  0.00     0.020 A 
ATOM     79  C   UNL A   1      42.689  23.042  27.688  1.00  0.00     0.020 A 
ATOM     80  C   UNL A   1      43.499  23.343  26.591  1.00  0.00     0.054 A 
BRANCH  80  81
ATOM     81  S   UNL A   1      43.792  22.098  25.304  1.00  0.00     0.124 S 
ATOM     82  O   UNL A   1      43.617  22.878  24.083  1.00  0.00    -0.237 OA
ATOM     83  O   UNL A   1      45.159  21.664  25.588  1.00  0.00    -0.237 OA
ATOM     84  O   UNL A   1      42.763  21.093  25.561  1.00  0.00    -0.744 OA
ENDBRANCH  80  81
ENDBRANCH  52  75
BRANCH  64  85
ATOM     85  C   UNL A   1      46.381  26.972  34.478  1.00  0.00    -0.014 A 
ATOM     86  C   UNL A   1      46.210  25.954  35.433  1.00  0.00     0.010 A 
ATOM     87  C   UNL A   1      47.682  27.415  34.174  1.00  0.00     0.010 A 
ATOM     88  C   UNL A   1      47.314  25.429  36.111  1.00  0.00     0.020 A 
ATOM     89  C   UNL A   1      48.790  26.872  34.827  1.00  0.00     0.020 A 
ATOM     90  C   UNL A   1      48.597  25.898  35.808  1.00  0.00     0.054 A 
BRANCH  90  91
ATOM     91  S   UNL A   1      50.016  25.199  36.696  1.00  0.00     0.124 S 
ATOM     92  O   UNL A   1      50.132  23.877  36.088  1.00  0.00    -0.237 OA
ATOM     93  O   UNL A   1      51.091  26.135  36.374  1.00  0.00    -0.237 OA
ATOM     94  O   UNL A   1      49.589  25.208  38.093  1.00  0.00    -0.744 OA
ENDBRANCH  90  91
ENDBRANCH  64  85
ENDBRANCH  38  39
ENDBRANCH  30  33
ENDBRANCH  28  29
ENDBRANCH  27  28
ENDBRANCH   1  27
TORSDOF 19
ENDMDL
