MODEL 1
REMARK VINA RESULT:     -10.4      0.000      0.000
REMARK SMILES O=C(NCCCNC(=O)[C@@H]1C[C@H]1c1cccc(F)c1F)c1ccc(-c2c3nc(c(-c4ccc(S(=O)(=O)[O-])cc4)c4ccc([nH]4)c(-c4ccc(S(=O)(=O)[O-])cc4)c4nc(c(-c5ccc(S(=O)(=O)[O-])cc5)c5ccc2[nH]5)C=C4)C=C3)cc1
REMARK SMILES IDX 4 1 3 2 1 3 2 4 21 6 22 7 80 8 23 9 79 10 24 11 25 12 26 13
REMARK SMILES IDX 73 14 27 15 78 16 72 17 74 18 28 19 77 20 71 21 70 22 29 24
REMARK SMILES IDX 59 25 40 26 58 27 41 28 44 29 57 30 75 31 42 32 43 33 56 35
REMARK SMILES IDX 76 36 45 37 30 38 31 39 39 40 32 41 38 42 33 43 34 44 35 45
REMARK SMILES IDX 36 46 37 47 60 48 61 49 69 50 62 51 68 52 63 53 64 54 65 55
REMARK SMILES IDX 66 56 67 57 46 58 47 59 55 60 48 61 54 62 49 63 50 64 51 65
REMARK SMILES IDX 52 66 53 67 5 68 6 69 7 70 8 71 9 73 10 74 11 75 12 76 13 77
REMARK SMILES IDX 14 78 19 79 15 80 17 81 20 82 16 83 18 84
REMARK H PARENT 3 5 74 23 44 34 7 72
REMARK Flexibility Score: inf
ROOT
ATOM      1  C   UNL A   1      33.343  28.344  27.299  1.00  0.00     0.118 C 
ENDROOT
BRANCH   1   2
ATOM      2  N   UNL A   1      33.271  29.785  27.502  1.00  0.00    -0.352 N 
ATOM      3  O   UNL A   1      33.872  31.791  28.323  1.00  0.00    -0.269 OA
ATOM      4  C   UNL A   1      34.199  30.643  28.039  1.00  0.00     0.251 C 
ATOM      5  H   UNL A   1      32.429  30.207  27.213  1.00  0.00     0.163 HD
BRANCH   4   6
ATOM      6  C   UNL A   1      35.583  30.178  28.278  1.00  0.00     0.039 A 
ATOM      7  C   UNL A   1      36.543  30.256  27.267  1.00  0.00     0.014 A 
ATOM      8  C   UNL A   1      35.936  29.696  29.543  1.00  0.00     0.014 A 
ATOM      9  C   UNL A   1      37.811  29.730  27.470  1.00  0.00     0.010 A 
ATOM     10  C   UNL A   1      37.244  29.265  29.779  1.00  0.00     0.010 A 
ATOM     11  C   UNL A   1      38.188  29.271  28.740  1.00  0.00    -0.014 A 
BRANCH  11  12
ATOM     12  C   UNL A   1      39.613  28.947  28.991  1.00  0.00     0.031 A 
ATOM     13  C   UNL A   1      40.204  27.625  28.593  1.00  0.00     0.074 A 
ATOM     14  C   UNL A   1      40.370  29.881  29.603  1.00  0.00     0.049 A 
ATOM     15  N   UNL A   1      41.425  27.194  28.767  1.00  0.00    -0.248 NA
ATOM     16  C   UNL A   1      39.318  26.662  27.919  1.00  0.00     0.031 C 
ATOM     17  C   UNL A   1      39.892  31.197  30.046  1.00  0.00     0.029 A 
ATOM     18  N   UNL A   1      41.695  29.880  29.957  1.00  0.00    -0.354 N 
ATOM     19  C   UNL A   1      41.453  25.903  28.252  1.00  0.00     0.074 A 
ATOM     20  C   UNL A   1      40.122  25.618  27.762  1.00  0.00     0.031 C 
ATOM     21  C   UNL A   1      40.911  31.881  30.584  1.00  0.00     0.029 A 
ATOM     22  C   UNL A   1      42.092  31.029  30.598  1.00  0.00     0.049 A 
ATOM     23  H   UNL A   1      42.303  29.127  29.771  1.00  0.00     0.167 HD
ATOM     24  C   UNL A   1      42.498  25.042  28.202  1.00  0.00     0.031 A 
ATOM     25  C   UNL A   1      43.263  31.353  31.177  1.00  0.00     0.031 A 
ATOM     26  C   UNL A   1      43.819  25.348  28.689  1.00  0.00     0.049 A 
ATOM     27  C   UNL A   1      44.383  30.354  31.143  1.00  0.00     0.074 A 
ATOM     28  C   UNL A   1      44.959  24.565  28.617  1.00  0.00     0.029 A 
ATOM     29  N   UNL A   1      44.175  26.510  29.354  1.00  0.00    -0.354 N 
ATOM     30  N   UNL A   1      44.413  29.174  30.572  1.00  0.00    -0.248 NA
ATOM     31  C   UNL A   1      45.624  30.725  31.836  1.00  0.00     0.031 C 
ATOM     32  C   UNL A   1      45.983  25.221  29.306  1.00  0.00     0.029 A 
ATOM     33  C   UNL A   1      45.501  26.443  29.747  1.00  0.00     0.049 A 
ATOM     34  H   UNL A   1      43.574  27.272  29.523  1.00  0.00     0.167 HD
ATOM     35  C   UNL A   1      45.679  28.665  30.831  1.00  0.00     0.074 A 
ATOM     36  C   UNL A   1      46.395  29.679  31.578  1.00  0.00     0.031 C 
ATOM     37  C   UNL A   1      46.197  27.460  30.492  1.00  0.00     0.031 A 
BRANCH  24  38
ATOM     38  C   UNL A   1      42.269  23.666  27.635  1.00  0.00    -0.014 A 
ATOM     39  C   UNL A   1      42.477  23.390  26.272  1.00  0.00     0.010 A 
ATOM     40  C   UNL A   1      41.966  22.604  28.509  1.00  0.00     0.010 A 
ATOM     41  C   UNL A   1      42.380  22.079  25.795  1.00  0.00     0.020 A 
ATOM     42  C   UNL A   1      41.892  21.289  28.039  1.00  0.00     0.020 A 
ATOM     43  C   UNL A   1      42.096  21.036  26.682  1.00  0.00     0.054 A 
BRANCH  43  44
ATOM     44  S   UNL A   1      42.053  19.338  26.045  1.00  0.00     0.124 S 
ATOM     45  O   UNL A   1      42.581  18.579  27.177  1.00  0.00    -0.237 OA
ATOM     46  O   UNL A   1      40.634  19.138  25.764  1.00  0.00    -0.237 OA
ATOM     47  O   UNL A   1      42.920  19.383  24.870  1.00  0.00    -0.744 OA
ENDBRANCH  43  44
ENDBRANCH  24  38
BRANCH  25  48
ATOM     48  C   UNL A   1      43.406  32.646  31.900  1.00  0.00    -0.014 A 
ATOM     49  C   UNL A   1      43.042  32.763  33.252  1.00  0.00     0.010 A 
ATOM     50  C   UNL A   1      43.897  33.778  31.223  1.00  0.00     0.010 A 
ATOM     51  C   UNL A   1      43.128  33.998  33.901  1.00  0.00     0.020 A 
ATOM     52  C   UNL A   1      44.021  35.005  31.878  1.00  0.00     0.020 A 
ATOM     53  C   UNL A   1      43.613  35.112  33.207  1.00  0.00     0.054 A 
BRANCH  53  54
ATOM     54  S   UNL A   1      43.720  36.703  34.070  1.00  0.00     0.124 S 
ATOM     55  O   UNL A   1      43.739  37.647  32.957  1.00  0.00    -0.237 OA
ATOM     56  O   UNL A   1      42.506  36.705  34.882  1.00  0.00    -0.237 OA
ATOM     57  O   UNL A   1      44.966  36.599  34.825  1.00  0.00    -0.744 OA
ENDBRANCH  53  54
ENDBRANCH  25  48
BRANCH  37  58
ATOM     58  C   UNL A   1      47.611  27.174  30.919  1.00  0.00    -0.014 A 
ATOM     59  C   UNL A   1      48.693  27.451  30.063  1.00  0.00     0.010 A 
ATOM     60  C   UNL A   1      47.865  26.681  32.211  1.00  0.00     0.010 A 
ATOM     61  C   UNL A   1      50.004  27.223  30.488  1.00  0.00     0.020 A 
ATOM     62  C   UNL A   1      49.175  26.481  32.650  1.00  0.00     0.020 A 
ATOM     63  C   UNL A   1      50.237  26.745  31.781  1.00  0.00     0.054 A 
BRANCH  63  64
ATOM     64  S   UNL A   1      51.951  26.522  32.328  1.00  0.00     0.124 S 
ATOM     65  O   UNL A   1      52.693  26.690  31.080  1.00  0.00    -0.237 OA
ATOM     66  O   UNL A   1      52.115  27.593  33.307  1.00  0.00    -0.237 OA
ATOM     67  O   UNL A   1      51.965  25.169  32.883  1.00  0.00    -0.744 OA
ENDBRANCH  63  64
ENDBRANCH  37  58
ENDBRANCH  11  12
ENDBRANCH   4   6
ENDBRANCH   1   2
BRANCH   1  68
ATOM     68  C   UNL A   1      33.813  27.983  25.901  1.00  0.00     0.042 C 
BRANCH  68  69
ATOM     69  C   UNL A   1      32.921  26.963  25.218  1.00  0.00     0.117 C 
BRANCH  69  70
ATOM     70  N   UNL A   1      32.113  26.210  26.150  1.00  0.00    -0.356 N 
ATOM     71  C   UNL A   1      32.155  24.865  26.382  1.00  0.00     0.223 C 
ATOM     72  H   UNL A   1      31.458  26.725  26.676  1.00  0.00     0.163 HD
ATOM     73  O   UNL A   1      31.393  24.347  27.191  1.00  0.00    -0.275 OA
BRANCH  71  74
ATOM     74  C   UNL A   1      33.155  24.052  25.639  1.00  0.00     0.086 C 
ATOM     75  C   UNL A   1      32.863  22.593  25.404  1.00  0.00     0.023 C 
ATOM     76  C   UNL A   1      33.964  22.980  26.362  1.00  0.00     0.035 C 
BRANCH  76  77
ATOM     77  C   UNL A   1      35.411  22.682  26.001  1.00  0.00    -0.005 A 
ATOM     78  C   UNL A   1      36.433  23.639  26.159  1.00  0.00     0.007 A 
ATOM     79  C   UNL A   1      35.818  21.413  25.559  1.00  0.00     0.162 A 
ATOM     80  C   UNL A   1      37.773  23.362  25.859  1.00  0.00     0.004 A 
ATOM     81  C   UNL A   1      37.153  21.129  25.267  1.00  0.00     0.159 A 
ATOM     82  F   UNL A   1      34.910  20.433  25.430  1.00  0.00    -0.203 F 
ATOM     83  C   UNL A   1      38.134  22.100  25.410  1.00  0.00     0.042 A 
ATOM     84  F   UNL A   1      37.502  19.902  24.857  1.00  0.00    -0.204 F 
ENDBRANCH  76  77
ENDBRANCH  71  74
ENDBRANCH  69  70
ENDBRANCH  68  69
ENDBRANCH   1  68
TORSDOF 14
ENDMDL
MODEL 2
REMARK VINA RESULT:     -10.4      3.703     10.225
REMARK SMILES O=C(NCCCNC(=O)[C@@H]1C[C@H]1c1cccc(F)c1F)c1ccc(-c2c3nc(c(-c4ccc(S(=O)(=O)[O-])cc4)c4ccc([nH]4)c(-c4ccc(S(=O)(=O)[O-])cc4)c4nc(c(-c5ccc(S(=O)(=O)[O-])cc5)c5ccc2[nH]5)C=C4)C=C3)cc1
REMARK SMILES IDX 4 1 3 2 1 3 2 4 21 6 22 7 80 8 23 9 79 10 24 11 25 12 26 13
REMARK SMILES IDX 73 14 27 15 78 16 72 17 74 18 28 19 77 20 71 21 70 22 29 24
REMARK SMILES IDX 59 25 40 26 58 27 41 28 44 29 57 30 75 31 42 32 43 33 56 35
REMARK SMILES IDX 76 36 45 37 30 38 31 39 39 40 32 41 38 42 33 43 34 44 35 45
REMARK SMILES IDX 36 46 37 47 60 48 61 49 69 50 62 51 68 52 63 53 64 54 65 55
REMARK SMILES IDX 66 56 67 57 46 58 47 59 55 60 48 61 54 62 49 63 50 64 51 65
REMARK SMILES IDX 52 66 53 67 5 68 6 69 7 70 8 71 9 73 10 74 11 75 12 76 13 77
REMARK SMILES IDX 14 78 19 79 15 80 17 81 20 82 16 83 18 84
REMARK H PARENT 3 5 74 23 44 34 7 72
REMARK Flexibility Score: inf
ROOT
ATOM      1  C   UNL A   1      40.976  21.476  27.360  1.00  0.00     0.118 C 
ENDROOT
BRANCH   1   2
ATOM      2  N   UNL A   1      39.840  21.647  26.464  1.00  0.00    -0.352 N 
ATOM      3  O   UNL A   1      37.987  22.614  25.634  1.00  0.00    -0.269 OA
ATOM      4  C   UNL A   1      39.023  22.735  26.280  1.00  0.00     0.251 C 
ATOM      5  H   UNL A   1      39.625  20.863  25.908  1.00  0.00     0.163 HD
BRANCH   4   6
ATOM      6  C   UNL A   1      39.391  24.042  26.867  1.00  0.00     0.039 A 
ATOM      7  C   UNL A   1      39.190  24.291  28.226  1.00  0.00     0.014 A 
ATOM      8  C   UNL A   1      39.983  25.017  26.057  1.00  0.00     0.014 A 
ATOM      9  C   UNL A   1      39.449  25.552  28.748  1.00  0.00     0.010 A 
ATOM     10  C   UNL A   1      40.341  26.250  26.608  1.00  0.00     0.010 A 
ATOM     11  C   UNL A   1      40.068  26.529  27.956  1.00  0.00    -0.014 A 
BRANCH  11  12
ATOM     12  C   UNL A   1      40.555  27.771  28.601  1.00  0.00     0.031 A 
ATOM     13  C   UNL A   1      39.643  28.936  28.858  1.00  0.00     0.074 A 
ATOM     14  C   UNL A   1      41.857  27.830  28.947  1.00  0.00     0.049 A 
ATOM     15  N   UNL A   1      39.931  30.093  29.393  1.00  0.00    -0.248 NA
ATOM     16  C   UNL A   1      38.232  28.792  28.464  1.00  0.00     0.031 C 
ATOM     17  C   UNL A   1      42.837  26.758  28.729  1.00  0.00     0.029 A 
ATOM     18  N   UNL A   1      42.587  28.819  29.553  1.00  0.00    -0.354 N 
ATOM     19  C   UNL A   1      38.752  30.828  29.378  1.00  0.00     0.074 A 
ATOM     20  C   UNL A   1      37.741  29.986  28.774  1.00  0.00     0.031 C 
ATOM     21  C   UNL A   1      44.025  27.136  29.219  1.00  0.00     0.029 A 
ATOM     22  C   UNL A   1      43.915  28.502  29.712  1.00  0.00     0.049 A 
ATOM     23  H   UNL A   1      42.197  29.675  29.847  1.00  0.00     0.167 HD
ATOM     24  C   UNL A   1      38.543  32.089  29.824  1.00  0.00     0.031 A 
ATOM     25  C   UNL A   1      44.948  29.240  30.161  1.00  0.00     0.031 A 
ATOM     26  C   UNL A   1      39.561  32.910  30.429  1.00  0.00     0.049 A 
ATOM     27  C   UNL A   1      44.686  30.650  30.603  1.00  0.00     0.074 A 
ATOM     28  C   UNL A   1      39.427  34.174  30.977  1.00  0.00     0.029 A 
ATOM     29  N   UNL A   1      40.897  32.564  30.548  1.00  0.00    -0.354 N 
ATOM     30  N   UNL A   1      43.545  31.293  30.662  1.00  0.00    -0.248 NA
ATOM     31  C   UNL A   1      45.849  31.438  31.032  1.00  0.00     0.031 C 
ATOM     32  C   UNL A   1      40.695  34.624  31.356  1.00  0.00     0.029 A 
ATOM     33  C   UNL A   1      41.609  33.612  31.109  1.00  0.00     0.049 A 
ATOM     34  H   UNL A   1      41.285  31.701  30.275  1.00  0.00     0.167 HD
ATOM     35  C   UNL A   1      43.852  32.559  31.142  1.00  0.00     0.074 A 
ATOM     36  C   UNL A   1      45.280  32.578  31.391  1.00  0.00     0.031 C 
ATOM     37  C   UNL A   1      43.029  33.615  31.347  1.00  0.00     0.031 A 
BRANCH  24  38
ATOM     38  C   UNL A   1      37.175  32.696  29.654  1.00  0.00    -0.014 A 
ATOM     39  C   UNL A   1      36.286  32.817  30.736  1.00  0.00     0.010 A 
ATOM     40  C   UNL A   1      36.827  33.271  28.416  1.00  0.00     0.010 A 
ATOM     41  C   UNL A   1      35.073  33.496  30.581  1.00  0.00     0.020 A 
ATOM     42  C   UNL A   1      35.626  33.970  28.264  1.00  0.00     0.020 A 
ATOM     43  C   UNL A   1      34.754  34.074  29.348  1.00  0.00     0.054 A 
BRANCH  43  44
ATOM     44  S   UNL A   1      33.209  35.015  29.201  1.00  0.00     0.124 S 
ATOM     45  O   UNL A   1      32.697  34.969  30.569  1.00  0.00    -0.237 OA
ATOM     46  O   UNL A   1      33.675  36.324  28.750  1.00  0.00    -0.237 OA
ATOM     47  O   UNL A   1      32.432  34.259  28.222  1.00  0.00    -0.744 OA
ENDBRANCH  43  44
ENDBRANCH  24  38
BRANCH  25  48
ATOM     48  C   UNL A   1      46.327  28.682  30.141  1.00  0.00    -0.014 A 
ATOM     49  C   UNL A   1      47.131  28.780  28.994  1.00  0.00     0.010 A 
ATOM     50  C   UNL A   1      46.838  28.031  31.280  1.00  0.00     0.010 A 
ATOM     51  C   UNL A   1      48.404  28.202  28.972  1.00  0.00     0.020 A 
ATOM     52  C   UNL A   1      48.122  27.484  31.276  1.00  0.00     0.020 A 
ATOM     53  C   UNL A   1      48.888  27.553  30.113  1.00  0.00     0.054 A 
BRANCH  53  54
ATOM     54  S   UNL A   1      50.543  26.813  30.064  1.00  0.00     0.124 S 
ATOM     55  O   UNL A   1      50.961  26.920  31.457  1.00  0.00    -0.237 OA
ATOM     56  O   UNL A   1      50.270  25.460  29.586  1.00  0.00    -0.237 OA
ATOM     57  O   UNL A   1      51.269  27.662  29.123  1.00  0.00    -0.744 OA
ENDBRANCH  53  54
ENDBRANCH  25  48
BRANCH  37  58
ATOM     58  C   UNL A   1      43.650  34.881  31.873  1.00  0.00    -0.014 A 
ATOM     59  C   UNL A   1      44.051  35.906  30.998  1.00  0.00     0.010 A 
ATOM     60  C   UNL A   1      43.776  35.072  33.261  1.00  0.00     0.010 A 
ATOM     61  C   UNL A   1      44.585  37.094  31.501  1.00  0.00     0.020 A 
ATOM     62  C   UNL A   1      44.281  36.271  33.769  1.00  0.00     0.020 A 
ATOM     63  C   UNL A   1      44.690  37.272  32.885  1.00  0.00     0.054 A 
BRANCH  63  64
ATOM     64  S   UNL A   1      45.325  38.850  33.511  1.00  0.00     0.124 S 
ATOM     65  O   UNL A   1      44.313  39.214  34.501  1.00  0.00    -0.237 OA
ATOM     66  O   UNL A   1      46.629  38.478  34.051  1.00  0.00    -0.237 OA
ATOM     67  O   UNL A   1      45.368  39.703  32.324  1.00  0.00    -0.744 OA
ENDBRANCH  63  64
ENDBRANCH  37  58
ENDBRANCH  11  12
ENDBRANCH   4   6
ENDBRANCH   1   2
BRANCH   1  68
ATOM     68  C   UNL A   1      41.547  20.070  27.304  1.00  0.00     0.042 C 
BRANCH  68  69
ATOM     69  C   UNL A   1      41.921  19.635  25.900  1.00  0.00     0.117 C 
BRANCH  69  70
ATOM     70  N   UNL A   1      43.032  18.712  25.875  1.00  0.00    -0.356 N 
ATOM     71  C   UNL A   1      44.294  18.949  25.407  1.00  0.00     0.223 C 
ATOM     72  H   UNL A   1      42.861  17.812  26.235  1.00  0.00     0.163 HD
ATOM     73  O   UNL A   1      45.142  18.064  25.426  1.00  0.00    -0.275 OA
BRANCH  71  74
ATOM     74  C   UNL A   1      44.611  20.307  24.889  1.00  0.00     0.086 C 
ATOM     75  C   UNL A   1      46.054  20.733  24.826  1.00  0.00     0.023 C 
ATOM     76  C   UNL A   1      45.136  21.385  25.831  1.00  0.00     0.035 C 
BRANCH  76  77
ATOM     77  C   UNL A   1      44.763  22.850  25.666  1.00  0.00    -0.005 A 
ATOM     78  C   UNL A   1      43.569  23.251  25.034  1.00  0.00     0.007 A 
ATOM     79  C   UNL A   1      45.554  23.881  26.200  1.00  0.00     0.162 A 
ATOM     80  C   UNL A   1      43.203  24.597  24.907  1.00  0.00     0.004 A 
ATOM     81  C   UNL A   1      45.191  25.223  26.082  1.00  0.00     0.159 A 
ATOM     82  F   UNL A   1      46.683  23.576  26.859  1.00  0.00    -0.203 F 
ATOM     83  C   UNL A   1      44.020  25.589  25.434  1.00  0.00     0.042 A 
ATOM     84  F   UNL A   1      45.969  26.176  26.613  1.00  0.00    -0.204 F 
ENDBRANCH  76  77
ENDBRANCH  71  74
ENDBRANCH  69  70
ENDBRANCH  68  69
ENDBRANCH   1  68
TORSDOF 14
ENDMDL
MODEL 3
REMARK VINA RESULT:     -10.3      3.100      9.469
REMARK SMILES O=C(NCCCNC(=O)[C@@H]1C[C@H]1c1cccc(F)c1F)c1ccc(-c2c3nc(c(-c4ccc(S(=O)(=O)[O-])cc4)c4ccc([nH]4)c(-c4ccc(S(=O)(=O)[O-])cc4)c4nc(c(-c5ccc(S(=O)(=O)[O-])cc5)c5ccc2[nH]5)C=C4)C=C3)cc1
REMARK SMILES IDX 4 1 3 2 1 3 2 4 21 6 22 7 80 8 23 9 79 10 24 11 25 12 26 13
REMARK SMILES IDX 73 14 27 15 78 16 72 17 74 18 28 19 77 20 71 21 70 22 29 24
REMARK SMILES IDX 59 25 40 26 58 27 41 28 44 29 57 30 75 31 42 32 43 33 56 35
REMARK SMILES IDX 76 36 45 37 30 38 31 39 39 40 32 41 38 42 33 43 34 44 35 45
REMARK SMILES IDX 36 46 37 47 60 48 61 49 69 50 62 51 68 52 63 53 64 54 65 55
REMARK SMILES IDX 66 56 67 57 46 58 47 59 55 60 48 61 54 62 49 63 50 64 51 65
REMARK SMILES IDX 52 66 53 67 5 68 6 69 7 70 8 71 9 73 10 74 11 75 12 76 13 77
REMARK SMILES IDX 14 78 19 79 15 80 17 81 20 82 16 83 18 84
REMARK H PARENT 3 5 74 23 44 34 7 72
REMARK Flexibility Score: inf
ROOT
ATOM      1  C   UNL A   1      36.999  23.703  25.047  1.00  0.00     0.118 C 
ENDROOT
BRANCH   1   2
ATOM      2  N   UNL A   1      38.002  22.704  25.393  1.00  0.00    -0.352 N 
ATOM      3  O   UNL A   1      40.001  21.927  26.071  1.00  0.00    -0.269 OA
ATOM      4  C   UNL A   1      39.191  22.849  26.065  1.00  0.00     0.251 C 
ATOM      5  H   UNL A   1      37.797  21.787  25.099  1.00  0.00     0.163 HD
BRANCH   4   6
ATOM      6  C   UNL A   1      39.492  24.116  26.767  1.00  0.00     0.039 A 
ATOM      7  C   UNL A   1      39.094  24.304  28.092  1.00  0.00     0.014 A 
ATOM      8  C   UNL A   1      40.218  25.112  26.106  1.00  0.00     0.014 A 
ATOM      9  C   UNL A   1      39.296  25.530  28.712  1.00  0.00     0.010 A 
ATOM     10  C   UNL A   1      40.514  26.307  26.767  1.00  0.00     0.010 A 
ATOM     11  C   UNL A   1      40.047  26.527  28.072  1.00  0.00    -0.014 A 
BRANCH  11  12
ATOM     12  C   UNL A   1      40.456  27.723  28.847  1.00  0.00     0.031 A 
ATOM     13  C   UNL A   1      39.525  28.881  29.059  1.00  0.00     0.074 A 
ATOM     14  C   UNL A   1      41.706  27.745  29.353  1.00  0.00     0.049 A 
ATOM     15  N   UNL A   1      39.750  30.001  29.695  1.00  0.00    -0.248 NA
ATOM     16  C   UNL A   1      38.173  28.778  28.487  1.00  0.00     0.031 C 
ATOM     17  C   UNL A   1      42.700  26.676  29.194  1.00  0.00     0.029 A 
ATOM     18  N   UNL A   1      42.359  28.687  30.104  1.00  0.00    -0.354 N 
ATOM     19  C   UNL A   1      38.585  30.749  29.579  1.00  0.00     0.074 A 
ATOM     20  C   UNL A   1      37.653  29.957  28.806  1.00  0.00     0.031 C 
ATOM     21  C   UNL A   1      43.820  27.010  29.848  1.00  0.00     0.029 A 
ATOM     22  C   UNL A   1      43.656  28.345  30.406  1.00  0.00     0.049 A 
ATOM     23  H   UNL A   1      41.941  29.529  30.398  1.00  0.00     0.167 HD
ATOM     24  C   UNL A   1      38.328  31.985  30.071  1.00  0.00     0.031 A 
ATOM     25  C   UNL A   1      44.629  29.042  31.022  1.00  0.00     0.031 A 
ATOM     26  C   UNL A   1      39.268  32.755  30.846  1.00  0.00     0.049 A 
ATOM     27  C   UNL A   1      44.321  30.427  31.514  1.00  0.00     0.074 A 
ATOM     28  C   UNL A   1      39.073  33.986  31.448  1.00  0.00     0.029 A 
ATOM     29  N   UNL A   1      40.577  32.386  31.108  1.00  0.00    -0.354 N 
ATOM     30  N   UNL A   1      43.184  31.079  31.470  1.00  0.00    -0.248 NA
ATOM     31  C   UNL A   1      45.426  31.173  32.129  1.00  0.00     0.031 C 
ATOM     32  C   UNL A   1      40.286  34.397  32.008  1.00  0.00     0.029 A 
ATOM     33  C   UNL A   1      41.219  33.390  31.814  1.00  0.00     0.049 A 
ATOM     34  H   UNL A   1      40.992  31.536  30.832  1.00  0.00     0.167 HD
ATOM     35  C   UNL A   1      43.436  32.310  32.061  1.00  0.00     0.074 A 
ATOM     36  C   UNL A   1      44.821  32.298  32.484  1.00  0.00     0.031 C 
ATOM     37  C   UNL A   1      42.599  33.363  32.225  1.00  0.00     0.031 A 
BRANCH  24  38
ATOM     38  C   UNL A   1      36.995  32.617  29.771  1.00  0.00    -0.014 A 
ATOM     39  C   UNL A   1      35.928  32.548  30.684  1.00  0.00     0.010 A 
ATOM     40  C   UNL A   1      36.853  33.402  28.610  1.00  0.00     0.010 A 
ATOM     41  C   UNL A   1      34.742  33.249  30.438  1.00  0.00     0.020 A 
ATOM     42  C   UNL A   1      35.678  34.122  28.373  1.00  0.00     0.020 A 
ATOM     43  C   UNL A   1      34.627  34.037  29.288  1.00  0.00     0.054 A 
BRANCH  43  44
ATOM     44  S   UNL A   1      33.107  34.994  29.037  1.00  0.00     0.124 S 
ATOM     45  O   UNL A   1      32.409  34.193  28.033  1.00  0.00    -0.237 OA
ATOM     46  O   UNL A   1      32.506  34.993  30.368  1.00  0.00    -0.237 OA
ATOM     47  O   UNL A   1      33.584  36.294  28.571  1.00  0.00    -0.744 OA
ENDBRANCH  43  44
ENDBRANCH  24  38
BRANCH  25  48
ATOM     48  C   UNL A   1      45.997  28.470  31.140  1.00  0.00    -0.014 A 
ATOM     49  C   UNL A   1      46.950  28.660  30.125  1.00  0.00     0.010 A 
ATOM     50  C   UNL A   1      46.348  27.712  32.273  1.00  0.00     0.010 A 
ATOM     51  C   UNL A   1      48.213  28.068  30.223  1.00  0.00     0.020 A 
ATOM     52  C   UNL A   1      47.620  27.151  32.393  1.00  0.00     0.020 A 
ATOM     53  C   UNL A   1      48.537  27.314  31.356  1.00  0.00     0.054 A 
BRANCH  53  54
ATOM     54  S   UNL A   1      50.182  26.558  31.465  1.00  0.00     0.124 S 
ATOM     55  O   UNL A   1      49.922  25.203  30.991  1.00  0.00    -0.237 OA
ATOM     56  O   UNL A   1      50.976  27.400  30.574  1.00  0.00    -0.237 OA
ATOM     57  O   UNL A   1      50.517  26.674  32.882  1.00  0.00    -0.744 OA
ENDBRANCH  53  54
ENDBRANCH  25  48
BRANCH  37  58
ATOM     58  C   UNL A   1      43.155  34.587  32.900  1.00  0.00    -0.014 A 
ATOM     59  C   UNL A   1      43.704  35.640  32.146  1.00  0.00     0.010 A 
ATOM     60  C   UNL A   1      43.072  34.713  34.298  1.00  0.00     0.010 A 
ATOM     61  C   UNL A   1      44.177  36.790  32.781  1.00  0.00     0.020 A 
ATOM     62  C   UNL A   1      43.515  35.874  34.934  1.00  0.00     0.020 A 
ATOM     63  C   UNL A   1      44.074  36.902  34.171  1.00  0.00     0.054 A 
BRANCH  63  64
ATOM     64  S   UNL A   1      44.634  38.435  34.962  1.00  0.00     0.124 S 
ATOM     65  O   UNL A   1      44.209  38.237  36.346  1.00  0.00    -0.237 OA
ATOM     66  O   UNL A   1      46.077  38.401  34.735  1.00  0.00    -0.237 OA
ATOM     67  O   UNL A   1      43.919  39.482  34.235  1.00  0.00    -0.744 OA
ENDBRANCH  63  64
ENDBRANCH  37  58
ENDBRANCH  11  12
ENDBRANCH   4   6
ENDBRANCH   1   2
BRANCH   1  68
ATOM     68  C   UNL A   1      35.808  23.672  25.988  1.00  0.00     0.042 C 
BRANCH  68  69
ATOM     69  C   UNL A   1      34.486  23.481  25.269  1.00  0.00     0.117 C 
BRANCH  69  70
ATOM     70  N   UNL A   1      34.467  24.088  23.957  1.00  0.00    -0.356 N 
ATOM     71  C   UNL A   1      33.924  25.292  23.612  1.00  0.00     0.223 C 
ATOM     72  H   UNL A   1      34.893  23.575  23.233  1.00  0.00     0.163 HD
ATOM     73  O   UNL A   1      33.959  25.682  22.450  1.00  0.00    -0.275 OA
BRANCH  71  74
ATOM     74  C   UNL A   1      33.304  26.120  24.682  1.00  0.00     0.086 C 
ATOM     75  C   UNL A   1      31.866  26.538  24.524  1.00  0.00     0.023 C 
ATOM     76  C   UNL A   1      32.953  27.580  24.417  1.00  0.00     0.035 C 
BRANCH  76  77
ATOM     77  C   UNL A   1      33.077  28.646  25.494  1.00  0.00    -0.005 A 
ATOM     78  C   UNL A   1      34.211  28.742  26.324  1.00  0.00     0.007 A 
ATOM     79  C   UNL A   1      32.099  29.640  25.670  1.00  0.00     0.162 A 
ATOM     80  C   UNL A   1      34.348  29.741  27.296  1.00  0.00     0.004 A 
ATOM     81  C   UNL A   1      32.234  30.642  26.631  1.00  0.00     0.159 A 
ATOM     82  F   UNL A   1      31.011  29.645  24.884  1.00  0.00    -0.203 F 
ATOM     83  C   UNL A   1      33.352  30.696  27.451  1.00  0.00     0.042 A 
ATOM     84  F   UNL A   1      31.282  31.576  26.762  1.00  0.00    -0.204 F 
ENDBRANCH  76  77
ENDBRANCH  71  74
ENDBRANCH  69  70
ENDBRANCH  68  69
ENDBRANCH   1  68
TORSDOF 14
ENDMDL
