MODEL 1
REMARK VINA RESULT:     -12.8      0.000      0.000
REMARK SMILES C[C@H](S[C@H]1[NH+]=C(Cl)[NH+]=C2N=CN=C21)C(=O)NCCCNC(=O)c1ccc(-c2c3nc(c(-c4ccc(S(=O)(=O)[O-])cc4)c4ccc([nH]4)c(-c4ccc(S(=O)(=O)[O-])cc4)c4nc(c(-c5ccc(S(=O)(=O)[O-])cc5)c5ccc2[nH]5)C=C4)C=C3)cc1
REMARK SMILES IDX 18 1 17 2 16 3 14 4 15 5 2 7 1 8 3 9 4 10 5 11 13 12 6 13
REMARK SMILES IDX 9 15 12 16 7 17 8 18 10 19 11 20 19 22 20 23 21 24 22 26
REMARK SMILES IDX 23 27 24 28 82 29 25 30 81 31 26 32 27 33 28 34 75 35 29 36
REMARK SMILES IDX 80 37 74 38 76 39 30 40 79 41 73 42 72 43 31 45 61 46 42 47
REMARK SMILES IDX 60 48 43 49 46 50 59 51 77 52 44 53 45 54 58 56 78 57 47 58
REMARK SMILES IDX 32 59 33 60 41 61 34 62 40 63 35 64 36 65 37 66 38 67 39 68
REMARK SMILES IDX 62 69 63 70 71 71 64 72 70 73 65 74 66 75 67 76 68 77 69 78
REMARK SMILES IDX 48 79 49 80 57 81 50 82 56 83 51 84 52 85 53 86 54 87 55 88
REMARK H PARENT 16 6 5 14 8 21 20 25 76 44 46 55
REMARK Flexibility Score: inf
ROOT
ATOM      1  C   UNL A   1      37.454  21.458  24.840  1.00  0.00     0.042 C 
ENDROOT
BRANCH   1   2
ATOM      2  C   UNL A   1      35.607  20.151  24.943  1.00  0.00     0.117 C 
BRANCH   2   3
ATOM      3  N   UNL A   1      34.109  20.599  24.778  1.00  0.00    -0.355 N 
ATOM      4  C   UNL A   1      33.303  21.390  25.544  1.00  0.00     0.233 C 
ATOM      5  O   UNL A   1      32.094  21.357  25.316  1.00  0.00    -0.274 OA
ATOM      6  H   UNL A   1      33.671  20.243  23.972  1.00  0.00     0.163 HD
BRANCH   4   7
ATOM      7  C   UNL A   1      33.894  22.310  26.592  1.00  0.00     0.139 C 
ATOM      8  C   UNL A   1      32.892  22.586  27.720  1.00  0.00     0.030 C 
BRANCH   7   9
ATOM      9  S   UNL A   1      34.762  23.819  25.996  1.00  0.00    -0.069 SA
BRANCH   9  10
ATOM     10  C   UNL A   1      33.459  25.043  25.644  1.00  0.00     0.384 C 
ATOM     11  N   UNL A   1      33.647  26.398  26.158  1.00  0.00    -0.156 N 
ATOM     12  C   UNL A   1      33.214  25.085  24.207  1.00  0.00     0.214 C 
ATOM     13  C   UNL A   1      33.715  27.550  25.598  1.00  0.00     0.514 C 
ATOM     14  H   UNL A   1      33.742  26.435  27.138  1.00  0.00     0.455 HD
ATOM     15  C   UNL A   1      33.500  26.925  23.472  1.00  0.00     0.338 C 
ATOM     16  N   UNL A   1      32.867  24.129  22.968  1.00  0.00    -0.225 NA
ATOM     17  Cl  UNL A   1      33.920  28.885  26.662  1.00  0.00     0.068 Cl
ATOM     18  N   UNL A   1      33.641  27.916  24.268  1.00  0.00    -0.118 N 
ATOM     19  N   UNL A   1      33.367  26.678  21.666  1.00  0.00    -0.173 NA
ATOM     20  C   UNL A   1      32.954  25.103  21.414  1.00  0.00     0.229 C 
ATOM     21  H   UNL A   1      33.692  28.851  23.962  1.00  0.00     0.464 HD
ENDBRANCH   9  10
ENDBRANCH   7   9
ENDBRANCH   4   7
ENDBRANCH   2   3
ENDBRANCH   1   2
BRANCH   1  22
ATOM     22  C   UNL A   1      38.562  21.883  26.079  1.00  0.00     0.118 C 
BRANCH  22  23
ATOM     23  N   UNL A   1      39.979  21.558  25.862  1.00  0.00    -0.352 N 
ATOM     24  C   UNL A   1      41.060  22.408  26.028  1.00  0.00     0.251 C 
ATOM     25  H   UNL A   1      40.180  20.641  25.568  1.00  0.00     0.163 HD
ATOM     26  O   UNL A   1      42.157  22.166  25.544  1.00  0.00    -0.269 OA
BRANCH  24  27
ATOM     27  C   UNL A   1      40.859  23.521  26.974  1.00  0.00     0.039 A 
ATOM     28  C   UNL A   1      41.610  23.735  28.119  1.00  0.00     0.014 A 
ATOM     29  C   UNL A   1      39.920  24.461  26.575  1.00  0.00     0.014 A 
ATOM     30  C   UNL A   1      41.410  24.949  28.796  1.00  0.00     0.010 A 
ATOM     31  C   UNL A   1      40.173  25.751  26.938  1.00  0.00     0.010 A 
ATOM     32  C   UNL A   1      40.658  25.990  28.191  1.00  0.00    -0.014 A 
BRANCH  32  33
ATOM     33  C   UNL A   1      40.726  27.420  28.547  1.00  0.00     0.031 A 
ATOM     34  C   UNL A   1      41.860  28.025  27.806  1.00  0.00     0.074 A 
ATOM     35  C   UNL A   1      39.861  28.125  29.343  1.00  0.00     0.049 A 
ATOM     36  N   UNL A   1      43.074  27.951  28.233  1.00  0.00    -0.248 NA
ATOM     37  C   UNL A   1      41.786  28.358  26.369  1.00  0.00     0.031 C 
ATOM     38  C   UNL A   1      38.602  27.726  29.994  1.00  0.00     0.029 A 
ATOM     39  N   UNL A   1      39.983  29.425  29.797  1.00  0.00    -0.354 N 
ATOM     40  C   UNL A   1      43.850  28.596  27.298  1.00  0.00     0.074 A 
ATOM     41  C   UNL A   1      43.077  28.593  26.084  1.00  0.00     0.031 C 
ATOM     42  C   UNL A   1      37.989  28.798  30.573  1.00  0.00     0.029 A 
ATOM     43  C   UNL A   1      38.858  29.965  30.475  1.00  0.00     0.049 A 
ATOM     44  H   UNL A   1      40.805  29.948  29.660  1.00  0.00     0.167 HD
ATOM     45  C   UNL A   1      44.872  29.367  27.755  1.00  0.00     0.031 A 
ATOM     46  C   UNL A   1      38.747  31.166  31.151  1.00  0.00     0.031 A 
ATOM     47  C   UNL A   1      45.117  29.081  29.159  1.00  0.00     0.049 A 
ATOM     48  C   UNL A   1      40.137  31.580  31.477  1.00  0.00     0.074 A 
ATOM     49  C   UNL A   1      45.492  27.965  29.882  1.00  0.00     0.029 A 
ATOM     50  N   UNL A   1      44.432  29.897  30.031  1.00  0.00    -0.354 N 
ATOM     51  N   UNL A   1      40.870  30.918  32.329  1.00  0.00    -0.248 NA
ATOM     52  C   UNL A   1      40.854  32.300  30.435  1.00  0.00     0.031 C 
ATOM     53  C   UNL A   1      44.664  27.976  31.048  1.00  0.00     0.029 A 
ATOM     54  C   UNL A   1      43.931  29.164  31.074  1.00  0.00     0.049 A 
ATOM     55  H   UNL A   1      44.318  30.869  29.920  1.00  0.00     0.167 HD
ATOM     56  C   UNL A   1      42.070  30.722  31.665  1.00  0.00     0.074 A 
ATOM     57  C   UNL A   1      42.000  31.614  30.497  1.00  0.00     0.031 C 
ATOM     58  C   UNL A   1      42.843  29.622  31.917  1.00  0.00     0.031 A 
BRANCH  45  59
ATOM     59  C   UNL A   1      45.226  30.701  27.152  1.00  0.00    -0.014 A 
ATOM     60  C   UNL A   1      46.592  31.008  27.000  1.00  0.00     0.010 A 
ATOM     61  C   UNL A   1      44.306  31.761  26.999  1.00  0.00     0.010 A 
ATOM     62  C   UNL A   1      47.019  32.313  26.740  1.00  0.00     0.020 A 
ATOM     63  C   UNL A   1      44.722  33.064  26.710  1.00  0.00     0.020 A 
ATOM     64  C   UNL A   1      46.080  33.331  26.590  1.00  0.00     0.054 A 
BRANCH  64  65
ATOM     65  S   UNL A   1      46.663  35.006  26.231  1.00  0.00     0.124 S 
ATOM     66  O   UNL A   1      45.490  35.814  26.548  1.00  0.00    -0.237 OA
ATOM     67  O   UNL A   1      47.789  35.135  27.152  1.00  0.00    -0.237 OA
ATOM     68  O   UNL A   1      47.025  34.946  24.817  1.00  0.00    -0.744 OA
ENDBRANCH  64  65
ENDBRANCH  45  59
BRANCH  46  69
ATOM     69  C   UNL A   1      37.671  32.232  31.044  1.00  0.00    -0.014 A 
ATOM     70  C   UNL A   1      36.520  32.110  30.211  1.00  0.00     0.010 A 
ATOM     71  C   UNL A   1      37.628  33.256  32.003  1.00  0.00     0.010 A 
ATOM     72  C   UNL A   1      35.372  32.936  30.380  1.00  0.00     0.020 A 
ATOM     73  C   UNL A   1      36.493  34.069  32.183  1.00  0.00     0.020 A 
ATOM     74  C   UNL A   1      35.359  33.898  31.390  1.00  0.00     0.054 A 
BRANCH  74  75
ATOM     75  S   UNL A   1      33.841  34.852  31.764  1.00  0.00     0.124 S 
ATOM     76  O   UNL A   1      34.368  36.152  32.167  1.00  0.00    -0.237 OA
ATOM     77  O   UNL A   1      33.122  34.831  30.492  1.00  0.00    -0.237 OA
ATOM     78  O   UNL A   1      33.210  34.084  32.837  1.00  0.00    -0.744 OA
ENDBRANCH  74  75
ENDBRANCH  46  69
BRANCH  58  79
ATOM     79  C   UNL A   1      42.516  28.772  33.132  1.00  0.00    -0.014 A 
ATOM     80  C   UNL A   1      41.593  27.704  33.181  1.00  0.00     0.010 A 
ATOM     81  C   UNL A   1      43.298  29.020  34.270  1.00  0.00     0.010 A 
ATOM     82  C   UNL A   1      41.440  26.939  34.357  1.00  0.00     0.020 A 
ATOM     83  C   UNL A   1      43.166  28.258  35.429  1.00  0.00     0.020 A 
ATOM     84  C   UNL A   1      42.225  27.233  35.479  1.00  0.00     0.054 A 
BRANCH  84  85
ATOM     85  S   UNL A   1      42.025  26.283  37.016  1.00  0.00     0.124 S 
ATOM     86  O   UNL A   1      43.159  26.732  37.818  1.00  0.00    -0.237 OA
ATOM     87  O   UNL A   1      40.709  26.705  37.491  1.00  0.00    -0.237 OA
ATOM     88  O   UNL A   1      42.095  24.889  36.575  1.00  0.00    -0.744 OA
ENDBRANCH  84  85
ENDBRANCH  58  79
ENDBRANCH  32  33
ENDBRANCH  24  27
ENDBRANCH  22  23
ENDBRANCH   1  22
TORSDOF 15
ENDMDL
MODEL 2
REMARK VINA RESULT:     -12.7      2.137      3.365
REMARK SMILES C[C@H](S[C@H]1[NH+]=C(Cl)[NH+]=C2N=CN=C21)C(=O)NCCCNC(=O)c1ccc(-c2c3nc(c(-c4ccc(S(=O)(=O)[O-])cc4)c4ccc([nH]4)c(-c4ccc(S(=O)(=O)[O-])cc4)c4nc(c(-c5ccc(S(=O)(=O)[O-])cc5)c5ccc2[nH]5)C=C4)C=C3)cc1
REMARK SMILES IDX 18 1 17 2 16 3 14 4 15 5 2 7 1 8 3 9 4 10 5 11 13 12 6 13
REMARK SMILES IDX 9 15 12 16 7 17 8 18 10 19 11 20 19 22 20 23 21 24 22 26
REMARK SMILES IDX 23 27 24 28 82 29 25 30 81 31 26 32 27 33 28 34 75 35 29 36
REMARK SMILES IDX 80 37 74 38 76 39 30 40 79 41 73 42 72 43 31 45 61 46 42 47
REMARK SMILES IDX 60 48 43 49 46 50 59 51 77 52 44 53 45 54 58 56 78 57 47 58
REMARK SMILES IDX 32 59 33 60 41 61 34 62 40 63 35 64 36 65 37 66 38 67 39 68
REMARK SMILES IDX 62 69 63 70 71 71 64 72 70 73 65 74 66 75 67 76 68 77 69 78
REMARK SMILES IDX 48 79 49 80 57 81 50 82 56 83 51 84 52 85 53 86 54 87 55 88
REMARK H PARENT 16 6 5 14 8 21 20 25 76 44 46 55
REMARK Flexibility Score: inf
ROOT
ATOM      1  C   UNL A   1      38.804  21.643  25.737  1.00  0.00     0.042 C 
ENDROOT
BRANCH   1   2
ATOM      2  C   UNL A   1      37.058  23.076  25.559  1.00  0.00     0.117 C 
BRANCH   2   3
ATOM      3  N   UNL A   1      36.083  23.247  24.339  1.00  0.00    -0.355 N 
ATOM      4  C   UNL A   1      34.772  22.912  24.164  1.00  0.00     0.233 C 
ATOM      5  O   UNL A   1      34.332  22.921  23.015  1.00  0.00    -0.274 OA
ATOM      6  H   UNL A   1      36.494  23.675  23.554  1.00  0.00     0.163 HD
BRANCH   4   7
ATOM      7  C   UNL A   1      33.889  22.600  25.354  1.00  0.00     0.139 C 
ATOM      8  C   UNL A   1      34.078  23.631  26.475  1.00  0.00     0.030 C 
BRANCH   7   9
ATOM      9  S   UNL A   1      33.868  20.861  25.955  1.00  0.00    -0.069 SA
BRANCH   9  10
ATOM     10  C   UNL A   1      32.508  20.038  25.065  1.00  0.00     0.384 C 
ATOM     11  N   UNL A   1      32.206  20.500  23.711  1.00  0.00    -0.156 N 
ATOM     12  C   UNL A   1      32.739  18.597  25.060  1.00  0.00     0.214 C 
ATOM     13  C   UNL A   1      32.189  19.920  22.567  1.00  0.00     0.514 C 
ATOM     14  H   UNL A   1      31.968  21.454  23.668  1.00  0.00     0.455 HD
ATOM     15  C   UNL A   1      32.823  17.879  23.193  1.00  0.00     0.338 C 
ATOM     16  N   UNL A   1      33.038  17.374  26.051  1.00  0.00    -0.225 NA
ATOM     17  Cl  UNL A   1      31.730  20.909  21.238  1.00  0.00     0.068 Cl
ATOM     18  N   UNL A   1      32.469  18.615  22.209  1.00  0.00    -0.118 N 
ATOM     19  N   UNL A   1      33.342  16.144  23.437  1.00  0.00    -0.173 NA
ATOM     20  C   UNL A   1      33.400  15.871  25.061  1.00  0.00     0.229 C 
ATOM     21  H   UNL A   1      32.403  18.285  21.284  1.00  0.00     0.464 HD
ENDBRANCH   9  10
ENDBRANCH   7   9
ENDBRANCH   4   7
ENDBRANCH   2   3
ENDBRANCH   1   2
BRANCH   1  22
ATOM     22  C   UNL A   1      40.237  21.778  26.670  1.00  0.00     0.118 C 
BRANCH  22  23
ATOM     23  N   UNL A   1      41.480  22.109  25.958  1.00  0.00    -0.352 N 
ATOM     24  C   UNL A   1      42.074  23.357  25.863  1.00  0.00     0.251 C 
ATOM     25  H   UNL A   1      41.937  21.367  25.502  1.00  0.00     0.163 HD
ATOM     26  O   UNL A   1      42.922  23.610  25.017  1.00  0.00    -0.269 OA
BRANCH  24  27
ATOM     27  C   UNL A   1      41.762  24.299  26.953  1.00  0.00     0.039 A 
ATOM     28  C   UNL A   1      42.605  24.594  28.014  1.00  0.00     0.014 A 
ATOM     29  C   UNL A   1      40.580  25.007  26.789  1.00  0.00     0.014 A 
ATOM     30  C   UNL A   1      42.229  25.657  28.851  1.00  0.00     0.010 A 
ATOM     31  C   UNL A   1      40.576  26.283  27.270  1.00  0.00     0.010 A 
ATOM     32  C   UNL A   1      41.173  26.526  28.474  1.00  0.00    -0.014 A 
BRANCH  32  33
ATOM     33  C   UNL A   1      40.957  27.892  28.988  1.00  0.00     0.031 A 
ATOM     34  C   UNL A   1      41.936  28.791  28.330  1.00  0.00     0.074 A 
ATOM     35  C   UNL A   1      39.978  28.316  29.848  1.00  0.00     0.049 A 
ATOM     36  N   UNL A   1      43.146  28.915  28.758  1.00  0.00    -0.248 NA
ATOM     37  C   UNL A   1      41.779  29.260  26.938  1.00  0.00     0.031 C 
ATOM     38  C   UNL A   1      38.833  27.602  30.438  1.00  0.00     0.029 A 
ATOM     39  N   UNL A   1      39.842  29.554  30.446  1.00  0.00    -0.354 N 
ATOM     40  C   UNL A   1      43.765  29.804  27.908  1.00  0.00     0.074 A 
ATOM     41  C   UNL A   1      42.992  29.780  26.694  1.00  0.00     0.031 C 
ATOM     42  C   UNL A   1      38.025  28.458  31.126  1.00  0.00     0.029 A 
ATOM     43  C   UNL A   1      38.640  29.779  31.168  1.00  0.00     0.049 A 
ATOM     44  H   UNL A   1      40.540  30.244  30.376  1.00  0.00     0.167 HD
ATOM     45  C   UNL A   1      44.616  30.709  28.459  1.00  0.00     0.031 A 
ATOM     46  C   UNL A   1      38.298  30.850  31.973  1.00  0.00     0.031 A 
ATOM     47  C   UNL A   1      44.931  30.323  29.824  1.00  0.00     0.049 A 
ATOM     48  C   UNL A   1      39.582  31.496  32.356  1.00  0.00     0.074 A 
ATOM     49  C   UNL A   1      45.532  29.232  30.422  1.00  0.00     0.029 A 
ATOM     50  N   UNL A   1      44.107  30.883  30.775  1.00  0.00    -0.354 N 
ATOM     51  N   UNL A   1      40.443  30.904  33.137  1.00  0.00    -0.248 NA
ATOM     52  C   UNL A   1      40.125  32.457  31.408  1.00  0.00     0.031 C 
ATOM     53  C   UNL A   1      44.734  28.947  31.574  1.00  0.00     0.029 A 
ATOM     54  C   UNL A   1      43.777  29.952  31.725  1.00  0.00     0.049 A 
ATOM     55  H   UNL A   1      43.800  31.818  30.772  1.00  0.00     0.167 HD
ATOM     56  C   UNL A   1      41.650  31.029  32.467  1.00  0.00     0.074 A 
ATOM     57  C   UNL A   1      41.387  32.013  31.405  1.00  0.00     0.031 C 
ATOM     58  C   UNL A   1      42.630  30.086  32.603  1.00  0.00     0.031 A 
BRANCH  45  59
ATOM     59  C   UNL A   1      44.687  32.145  28.012  1.00  0.00    -0.014 A 
ATOM     60  C   UNL A   1      45.928  32.625  27.550  1.00  0.00     0.010 A 
ATOM     61  C   UNL A   1      43.689  33.103  28.290  1.00  0.00     0.010 A 
ATOM     62  C   UNL A   1      46.169  33.994  27.403  1.00  0.00     0.020 A 
ATOM     63  C   UNL A   1      43.911  34.473  28.119  1.00  0.00     0.020 A 
ATOM     64  C   UNL A   1      45.155  34.909  27.683  1.00  0.00     0.054 A 
BRANCH  64  65
ATOM     65  S   UNL A   1      45.490  36.673  27.461  1.00  0.00     0.124 S 
ATOM     66  O   UNL A   1      44.199  37.176  27.004  1.00  0.00    -0.237 OA
ATOM     67  O   UNL A   1      45.885  37.074  28.809  1.00  0.00    -0.237 OA
ATOM     68  O   UNL A   1      46.563  36.695  26.471  1.00  0.00    -0.744 OA
ENDBRANCH  64  65
ENDBRANCH  45  59
BRANCH  46  69
ATOM     69  C   UNL A   1      37.029  31.684  31.974  1.00  0.00    -0.014 A 
ATOM     70  C   UNL A   1      36.313  32.029  33.158  1.00  0.00     0.010 A 
ATOM     71  C   UNL A   1      36.684  32.400  30.818  1.00  0.00     0.010 A 
ATOM     72  C   UNL A   1      35.350  33.077  33.182  1.00  0.00     0.020 A 
ATOM     73  C   UNL A   1      35.740  33.445  30.836  1.00  0.00     0.020 A 
ATOM     74  C   UNL A   1      35.089  33.798  32.017  1.00  0.00     0.054 A 
BRANCH  74  75
ATOM     75  S   UNL A   1      33.999  35.270  32.044  1.00  0.00     0.124 S 
ATOM     76  O   UNL A   1      34.793  36.246  32.784  1.00  0.00    -0.237 OA
ATOM     77  O   UNL A   1      33.808  35.561  30.625  1.00  0.00    -0.237 OA
ATOM     78  O   UNL A   1      32.802  34.798  32.739  1.00  0.00    -0.744 OA
ENDBRANCH  74  75
ENDBRANCH  46  69
BRANCH  58  79
ATOM     79  C   UNL A   1      42.497  29.058  33.711  1.00  0.00    -0.014 A 
ATOM     80  C   UNL A   1      42.896  29.221  35.057  1.00  0.00     0.010 A 
ATOM     81  C   UNL A   1      41.810  27.884  33.366  1.00  0.00     0.010 A 
ATOM     82  C   UNL A   1      42.641  28.211  36.010  1.00  0.00     0.020 A 
ATOM     83  C   UNL A   1      41.539  26.891  34.305  1.00  0.00     0.020 A 
ATOM     84  C   UNL A   1      41.972  27.046  35.619  1.00  0.00     0.054 A 
BRANCH  84  85
ATOM     85  S   UNL A   1      41.660  25.717  36.821  1.00  0.00     0.124 S 
ATOM     86  O   UNL A   1      42.911  25.666  37.572  1.00  0.00    -0.237 OA
ATOM     87  O   UNL A   1      40.501  26.213  37.560  1.00  0.00    -0.237 OA
ATOM     88  O   UNL A   1      41.395  24.546  35.984  1.00  0.00    -0.744 OA
ENDBRANCH  84  85
ENDBRANCH  58  79
ENDBRANCH  32  33
ENDBRANCH  24  27
ENDBRANCH  22  23
ENDBRANCH   1  22
TORSDOF 15
ENDMDL
MODEL 3
REMARK VINA RESULT:     -12.7      3.548      8.407
REMARK SMILES C[C@H](S[C@H]1[NH+]=C(Cl)[NH+]=C2N=CN=C21)C(=O)NCCCNC(=O)c1ccc(-c2c3nc(c(-c4ccc(S(=O)(=O)[O-])cc4)c4ccc([nH]4)c(-c4ccc(S(=O)(=O)[O-])cc4)c4nc(c(-c5ccc(S(=O)(=O)[O-])cc5)c5ccc2[nH]5)C=C4)C=C3)cc1
REMARK SMILES IDX 18 1 17 2 16 3 14 4 15 5 2 7 1 8 3 9 4 10 5 11 13 12 6 13
REMARK SMILES IDX 9 15 12 16 7 17 8 18 10 19 11 20 19 22 20 23 21 24 22 26
REMARK SMILES IDX 23 27 24 28 82 29 25 30 81 31 26 32 27 33 28 34 75 35 29 36
REMARK SMILES IDX 80 37 74 38 76 39 30 40 79 41 73 42 72 43 31 45 61 46 42 47
REMARK SMILES IDX 60 48 43 49 46 50 59 51 77 52 44 53 45 54 58 56 78 57 47 58
REMARK SMILES IDX 32 59 33 60 41 61 34 62 40 63 35 64 36 65 37 66 38 67 39 68
REMARK SMILES IDX 62 69 63 70 71 71 64 72 70 73 65 74 66 75 67 76 68 77 69 78
REMARK SMILES IDX 48 79 49 80 57 81 50 82 56 83 51 84 52 85 53 86 54 87 55 88
REMARK H PARENT 16 6 5 14 8 21 20 25 76 44 46 55
REMARK Flexibility Score: inf
ROOT
ATOM      1  C   UNL A   1      33.021  30.068  26.025  1.00  0.00     0.042 C 
ENDROOT
BRANCH   1   2
ATOM      2  C   UNL A   1      31.427  28.535  25.535  1.00  0.00     0.117 C 
BRANCH   2   3
ATOM      3  N   UNL A   1      30.776  28.248  24.133  1.00  0.00    -0.355 N 
ATOM      4  C   UNL A   1      31.317  27.923  22.924  1.00  0.00     0.233 C 
ATOM      5  O   UNL A   1      30.592  28.016  21.934  1.00  0.00    -0.274 OA
ATOM      6  H   UNL A   1      29.794  28.315  24.126  1.00  0.00     0.163 HD
BRANCH   4   7
ATOM      7  C   UNL A   1      32.741  27.415  22.827  1.00  0.00     0.139 C 
ATOM      8  C   UNL A   1      33.722  28.559  22.536  1.00  0.00     0.030 C 
BRANCH   7   9
ATOM      9  S   UNL A   1      33.033  25.918  21.798  1.00  0.00    -0.069 SA
BRANCH   9  10
ATOM     10  C   UNL A   1      33.171  24.525  22.964  1.00  0.00     0.384 C 
ATOM     11  N   UNL A   1      34.467  24.301  23.601  1.00  0.00    -0.156 N 
ATOM     12  C   UNL A   1      32.130  24.643  23.979  1.00  0.00     0.214 C 
ATOM     13  C   UNL A   1      34.853  24.272  24.824  1.00  0.00     0.514 C 
ATOM     14  H   UNL A   1      35.196  24.139  22.959  1.00  0.00     0.455 HD
ATOM     15  C   UNL A   1      32.913  24.726  25.820  1.00  0.00     0.338 C 
ATOM     16  N   UNL A   1      30.544  24.816  24.131  1.00  0.00    -0.225 NA
ATOM     17  Cl  UNL A   1      36.520  23.932  25.072  1.00  0.00     0.068 Cl
ATOM     18  N   UNL A   1      34.152  24.461  26.000  1.00  0.00    -0.118 N 
ATOM     19  N   UNL A   1      31.467  25.100  26.872  1.00  0.00    -0.173 NA
ATOM     20  C   UNL A   1      30.136  25.089  25.901  1.00  0.00     0.229 C 
ATOM     21  H   UNL A   1      34.566  24.397  26.891  1.00  0.00     0.464 HD
ENDBRANCH   9  10
ENDBRANCH   7   9
ENDBRANCH   4   7
ENDBRANCH   2   3
ENDBRANCH   1   2
BRANCH   1  22
ATOM     22  C   UNL A   1      33.202  31.046  27.422  1.00  0.00     0.118 C 
BRANCH  22  23
ATOM     23  N   UNL A   1      32.695  32.425  27.354  1.00  0.00    -0.352 N 
ATOM     24  C   UNL A   1      33.042  33.478  28.184  1.00  0.00     0.251 C 
ATOM     25  H   UNL A   1      32.042  32.619  26.645  1.00  0.00     0.163 HD
ATOM     26  O   UNL A   1      32.366  34.495  28.260  1.00  0.00    -0.269 OA
BRANCH  24  27
ATOM     27  C   UNL A   1      34.366  33.379  28.824  1.00  0.00     0.039 A 
ATOM     28  C   UNL A   1      34.628  32.706  30.008  1.00  0.00     0.014 A 
ATOM     29  C   UNL A   1      35.412  33.908  28.082  1.00  0.00     0.014 A 
ATOM     30  C   UNL A   1      35.976  32.547  30.368  1.00  0.00     0.010 A 
ATOM     31  C   UNL A   1      36.612  33.270  28.200  1.00  0.00     0.010 A 
ATOM     32  C   UNL A   1      37.005  32.849  29.438  1.00  0.00    -0.014 A 
BRANCH  32  33
ATOM     33  C   UNL A   1      38.388  32.337  29.488  1.00  0.00     0.031 A 
ATOM     34  C   UNL A   1      38.350  30.880  29.210  1.00  0.00     0.074 A 
ATOM     35  C   UNL A   1      39.539  33.059  29.663  1.00  0.00     0.049 A 
ATOM     36  N   UNL A   1      38.089  30.016  30.130  1.00  0.00    -0.248 NA
ATOM     37  C   UNL A   1      38.167  30.332  27.852  1.00  0.00     0.031 C 
ATOM     38  C   UNL A   1      39.766  34.511  29.765  1.00  0.00     0.029 A 
ATOM     39  N   UNL A   1      40.825  32.587  29.850  1.00  0.00    -0.354 N 
ATOM     40  C   UNL A   1      38.121  28.783  29.519  1.00  0.00     0.074 A 
ATOM     41  C   UNL A   1      37.913  29.041  28.118  1.00  0.00     0.031 C 
ATOM     42  C   UNL A   1      41.099  34.798  29.786  1.00  0.00     0.029 A 
ATOM     43  C   UNL A   1      41.862  33.557  29.842  1.00  0.00     0.049 A 
ATOM     44  H   UNL A   1      41.013  31.630  29.982  1.00  0.00     0.167 HD
ATOM     45  C   UNL A   1      38.680  27.755  30.209  1.00  0.00     0.031 A 
ATOM     46  C   UNL A   1      43.203  33.397  30.141  1.00  0.00     0.031 A 
ATOM     47  C   UNL A   1      38.845  28.128  31.604  1.00  0.00     0.049 A 
ATOM     48  C   UNL A   1      43.293  32.152  30.949  1.00  0.00     0.074 A 
ATOM     49  C   UNL A   1      37.994  28.494  32.628  1.00  0.00     0.029 A 
ATOM     50  N   UNL A   1      40.072  28.676  31.902  1.00  0.00    -0.354 N 
ATOM     51  N   UNL A   1      42.792  32.075  32.151  1.00  0.00    -0.248 NA
ATOM     52  C   UNL A   1      43.370  30.905  30.203  1.00  0.00     0.031 C 
ATOM     53  C   UNL A   1      38.644  29.585  33.286  1.00  0.00     0.029 A 
ATOM     54  C   UNL A   1      39.922  29.745  32.746  1.00  0.00     0.049 A 
ATOM     55  H   UNL A   1      40.934  28.347  31.557  1.00  0.00     0.167 HD
ATOM     56  C   UNL A   1      42.046  30.907  32.134  1.00  0.00     0.074 A 
ATOM     57  C   UNL A   1      42.456  30.221  30.898  1.00  0.00     0.031 C 
ATOM     58  C   UNL A   1      40.933  30.771  32.917  1.00  0.00     0.031 A 
BRANCH  45  59
ATOM     59  C   UNL A   1      39.562  26.718  29.563  1.00  0.00    -0.014 A 
ATOM     60  C   UNL A   1      40.932  27.017  29.432  1.00  0.00     0.010 A 
ATOM     61  C   UNL A   1      39.070  25.614  28.836  1.00  0.00     0.010 A 
ATOM     62  C   UNL A   1      41.762  26.269  28.592  1.00  0.00     0.020 A 
ATOM     63  C   UNL A   1      39.898  24.842  28.015  1.00  0.00     0.020 A 
ATOM     64  C   UNL A   1      41.239  25.181  27.894  1.00  0.00     0.054 A 
BRANCH  64  65
ATOM     65  S   UNL A   1      42.344  24.219  26.831  1.00  0.00     0.124 S 
ATOM     66  O   UNL A   1      41.759  22.884  26.911  1.00  0.00    -0.237 OA
ATOM     67  O   UNL A   1      42.194  24.901  25.548  1.00  0.00    -0.237 OA
ATOM     68  O   UNL A   1      43.650  24.374  27.466  1.00  0.00    -0.744 OA
ENDBRANCH  64  65
ENDBRANCH  45  59
BRANCH  46  69
ATOM     69  C   UNL A   1      44.422  33.853  29.359  1.00  0.00    -0.014 A 
ATOM     70  C   UNL A   1      45.753  33.788  29.866  1.00  0.00     0.010 A 
ATOM     71  C   UNL A   1      44.301  34.078  27.980  1.00  0.00     0.010 A 
ATOM     72  C   UNL A   1      46.892  33.885  29.017  1.00  0.00     0.020 A 
ATOM     73  C   UNL A   1      45.422  34.165  27.132  1.00  0.00     0.020 A 
ATOM     74  C   UNL A   1      46.714  34.048  27.643  1.00  0.00     0.054 A 
BRANCH  74  75
ATOM     75  S   UNL A   1      48.140  33.991  26.495  1.00  0.00     0.124 S 
ATOM     76  O   UNL A   1      48.449  32.566  26.435  1.00  0.00    -0.237 OA
ATOM     77  O   UNL A   1      47.594  34.569  25.269  1.00  0.00    -0.237 OA
ATOM     78  O   UNL A   1      49.150  34.812  27.162  1.00  0.00    -0.744 OA
ENDBRANCH  74  75
ENDBRANCH  46  69
BRANCH  58  79
ATOM     79  C   UNL A   1      40.689  31.794  34.011  1.00  0.00    -0.014 A 
ATOM     80  C   UNL A   1      41.031  31.659  35.374  1.00  0.00     0.010 A 
ATOM     81  C   UNL A   1      40.172  33.026  33.581  1.00  0.00     0.010 A 
ATOM     82  C   UNL A   1      40.820  32.722  36.278  1.00  0.00     0.020 A 
ATOM     83  C   UNL A   1      39.977  34.086  34.463  1.00  0.00     0.020 A 
ATOM     84  C   UNL A   1      40.282  33.928  35.813  1.00  0.00     0.054 A 
BRANCH  84  85
ATOM     85  S   UNL A   1      39.972  35.301  36.962  1.00  0.00     0.124 S 
ATOM     86  O   UNL A   1      39.577  36.384  36.066  1.00  0.00    -0.237 OA
ATOM     87  O   UNL A   1      38.913  34.775  37.820  1.00  0.00    -0.237 OA
ATOM     88  O   UNL A   1      41.259  35.493  37.631  1.00  0.00    -0.744 OA
ENDBRANCH  84  85
ENDBRANCH  58  79
ENDBRANCH  32  33
ENDBRANCH  24  27
ENDBRANCH  22  23
ENDBRANCH   1  22
TORSDOF 15
ENDMDL
