MODEL 1
REMARK VINA RESULT:      -8.9      0.000      0.000
REMARK SMILES N#Cc1cc(-c2cncc(C(=O)NCCCNC(=O)c3ccc(-c4c5nc(c(-c6ccc(S(=O)(=O)[O-])cc6)c6ccc([nH]6)c(-c6ccc(S(=O)(=O)[O-])cc6)c6nc(c(-c7ccc(S(=O)(=O)[O-])cc7)c7ccc4[nH]7)C=C6)C=C5)cc3)c2)ccc1Cl
REMARK SMILES IDX 15 1 14 2 13 3 11 4 12 5 10 7 6 8 7 9 80 10 8 11 9 12 5 13
REMARK SMILES IDX 3 14 4 15 83 16 82 17 84 18 81 19 2 20 1 21 16 22 17 23
REMARK SMILES IDX 18 24 19 26 20 27 21 28 79 29 22 30 78 31 23 32 24 33 25 34
REMARK SMILES IDX 72 35 26 36 77 37 71 38 73 39 27 40 76 41 70 42 69 43 28 45
REMARK SMILES IDX 58 46 39 47 57 48 40 49 43 50 56 51 74 52 41 53 42 54 55 56
REMARK SMILES IDX 75 57 44 58 29 59 30 60 38 61 31 62 37 63 32 64 33 65 34 66
REMARK SMILES IDX 35 67 36 68 59 69 60 70 68 71 61 72 67 73 62 74 63 75 64 76
REMARK SMILES IDX 65 77 66 78 45 79 46 80 54 81 47 82 53 83 48 84 49 85 50 86
REMARK SMILES IDX 51 87 52 88
REMARK H PARENT 13 6 17 25 73 44 43 55
REMARK Flexibility Score: inf
ROOT
ATOM      1  C   UNL A   1      35.054  33.267  29.555  1.00  0.00     0.042 C 
ENDROOT
BRANCH   1   2
ATOM      2  C   UNL A   1      36.421  33.896  29.824  1.00  0.00     0.118 C 
BRANCH   2   3
ATOM      3  N   UNL A   1      36.458  34.505  31.142  1.00  0.00    -0.352 N 
ATOM      4  C   UNL A   1      36.818  34.037  32.379  1.00  0.00     0.252 C 
ATOM      5  O   UNL A   1      36.773  34.832  33.319  1.00  0.00    -0.269 OA
ATOM      6  H   UNL A   1      36.168  35.445  31.148  1.00  0.00     0.163 HD
BRANCH   4   7
ATOM      7  C   UNL A   1      37.305  32.660  32.633  1.00  0.00     0.058 A 
ATOM      8  C   UNL A   1      38.946  30.988  33.289  1.00  0.00     0.001 A 
ATOM      9  C   UNL A   1      37.924  30.045  33.235  1.00  0.00     0.119 A 
ATOM     10  C   UNL A   1      38.620  32.300  32.917  1.00  0.00     0.025 A 
ATOM     11  N   UNL A   1      36.649  30.330  32.881  1.00  0.00    -0.263 NA
ATOM     12  C   UNL A   1      36.370  31.631  32.601  1.00  0.00     0.124 A 
BRANCH   8  13
ATOM     13  C   UNL A   1      40.294  30.678  33.767  1.00  0.00    -0.015 A 
ATOM     14  C   UNL A   1      42.224  29.164  33.785  1.00  0.00     0.071 A 
ATOM     15  C   UNL A   1      40.957  29.525  33.300  1.00  0.00     0.029 A 
ATOM     16  C   UNL A   1      42.839  29.966  34.749  1.00  0.00     0.058 A 
ATOM     17  C   UNL A   1      42.193  31.116  35.215  1.00  0.00     0.022 A 
ATOM     18  Cl  UNL A   1      44.392  29.588  35.401  1.00  0.00    -0.083 Cl
ATOM     19  C   UNL A   1      40.933  31.472  34.725  1.00  0.00     0.010 A 
BRANCH  14  20
ATOM     20  C   UNL A   1      42.843  27.977  33.272  1.00  0.00     0.101 C 
ATOM     21  N   UNL A   1      43.374  27.045  32.826  1.00  0.00    -0.192 NA
ENDBRANCH  14  20
ENDBRANCH   8  13
ENDBRANCH   4   7
ENDBRANCH   2   3
ENDBRANCH   1   2
BRANCH   1  22
ATOM     22  C   UNL A   1      34.882  32.853  28.096  1.00  0.00     0.118 C 
BRANCH  22  23
ATOM     23  N   UNL A   1      34.097  31.632  27.978  1.00  0.00    -0.352 N 
ATOM     24  C   UNL A   1      34.499  30.329  27.851  1.00  0.00     0.251 C 
ATOM     25  H   UNL A   1      33.122  31.763  27.995  1.00  0.00     0.163 HD
ATOM     26  O   UNL A   1      33.685  29.485  27.487  1.00  0.00    -0.269 OA
BRANCH  24  27
ATOM     27  C   UNL A   1      35.890  29.940  28.151  1.00  0.00     0.039 A 
ATOM     28  C   UNL A   1      36.853  30.058  27.147  1.00  0.00     0.014 A 
ATOM     29  C   UNL A   1      36.238  29.412  29.399  1.00  0.00     0.014 A 
ATOM     30  C   UNL A   1      38.168  29.674  27.407  1.00  0.00     0.010 A 
ATOM     31  C   UNL A   1      37.568  29.129  29.687  1.00  0.00     0.010 A 
ATOM     32  C   UNL A   1      38.543  29.233  28.688  1.00  0.00    -0.014 A 
BRANCH  32  33
ATOM     33  C   UNL A   1      39.953  28.876  28.979  1.00  0.00     0.031 A 
ATOM     34  C   UNL A   1      40.879  29.875  29.618  1.00  0.00     0.074 A 
ATOM     35  C   UNL A   1      40.405  27.654  28.636  1.00  0.00     0.049 A 
ATOM     36  N   UNL A   1      42.127  29.724  29.978  1.00  0.00    -0.248 NA
ATOM     37  C   UNL A   1      40.347  31.227  29.860  1.00  0.00     0.031 C 
ATOM     38  C   UNL A   1      39.617  26.626  27.951  1.00  0.00     0.029 A 
ATOM     39  N   UNL A   1      41.630  27.067  28.818  1.00  0.00    -0.354 N 
ATOM     40  C   UNL A   1      42.533  30.960  30.469  1.00  0.00     0.074 A 
ATOM     41  C   UNL A   1      41.419  31.865  30.305  1.00  0.00     0.031 C 
ATOM     42  C   UNL A   1      40.363  25.520  27.814  1.00  0.00     0.029 A 
ATOM     43  C   UNL A   1      41.696  25.776  28.349  1.00  0.00     0.049 A 
ATOM     44  H   UNL A   1      42.391  27.525  29.243  1.00  0.00     0.167 HD
ATOM     45  C   UNL A   1      43.720  31.304  31.023  1.00  0.00     0.031 A 
ATOM     46  C   UNL A   1      42.714  24.895  28.345  1.00  0.00     0.031 A 
ATOM     47  C   UNL A   1      44.825  30.392  31.173  1.00  0.00     0.049 A 
ATOM     48  C   UNL A   1      44.022  25.294  28.967  1.00  0.00     0.074 A 
ATOM     49  C   UNL A   1      46.046  30.616  31.784  1.00  0.00     0.029 A 
ATOM     50  N   UNL A   1      44.851  29.091  30.691  1.00  0.00    -0.354 N 
ATOM     51  N   UNL A   1      44.355  26.437  29.517  1.00  0.00    -0.248 NA
ATOM     52  C   UNL A   1      45.084  24.280  28.985  1.00  0.00     0.031 C 
ATOM     53  C   UNL A   1      46.841  29.481  31.595  1.00  0.00     0.029 A 
ATOM     54  C   UNL A   1      46.083  28.514  30.951  1.00  0.00     0.049 A 
ATOM     55  H   UNL A   1      44.104  28.644  30.231  1.00  0.00     0.167 HD
ATOM     56  C   UNL A   1      45.659  26.273  29.972  1.00  0.00     0.074 A 
ATOM     57  C   UNL A   1      46.043  24.913  29.646  1.00  0.00     0.031 C 
ATOM     58  C   UNL A   1      46.460  27.164  30.609  1.00  0.00     0.031 A 
BRANCH  45  59
ATOM     59  C   UNL A   1      43.897  32.734  31.469  1.00  0.00    -0.014 A 
ATOM     60  C   UNL A   1      43.516  33.162  32.756  1.00  0.00     0.010 A 
ATOM     61  C   UNL A   1      44.473  33.669  30.588  1.00  0.00     0.010 A 
ATOM     62  C   UNL A   1      43.652  34.502  33.127  1.00  0.00     0.020 A 
ATOM     63  C   UNL A   1      44.646  35.002  30.969  1.00  0.00     0.020 A 
ATOM     64  C   UNL A   1      44.212  35.415  32.230  1.00  0.00     0.054 A 
BRANCH  64  65
ATOM     65  S   UNL A   1      44.376  37.147  32.740  1.00  0.00     0.124 S 
ATOM     66  O   UNL A   1      44.389  37.838  31.453  1.00  0.00    -0.237 OA
ATOM     67  O   UNL A   1      43.181  37.355  33.552  1.00  0.00    -0.237 OA
ATOM     68  O   UNL A   1      45.639  37.177  33.473  1.00  0.00    -0.744 OA
ENDBRANCH  64  65
ENDBRANCH  45  59
BRANCH  46  69
ATOM     69  C   UNL A   1      42.517  23.555  27.725  1.00  0.00    -0.014 A 
ATOM     70  C   UNL A   1      42.961  23.285  26.419  1.00  0.00     0.010 A 
ATOM     71  C   UNL A   1      41.928  22.519  28.474  1.00  0.00     0.010 A 
ATOM     72  C   UNL A   1      42.817  22.004  25.875  1.00  0.00     0.020 A 
ATOM     73  C   UNL A   1      41.815  21.231  27.948  1.00  0.00     0.020 A 
ATOM     74  C   UNL A   1      42.256  20.983  26.647  1.00  0.00     0.054 A 
BRANCH  74  75
ATOM     75  S   UNL A   1      42.159  19.310  25.953  1.00  0.00     0.124 S 
ATOM     76  O   UNL A   1      42.687  18.496  27.044  1.00  0.00    -0.237 OA
ATOM     77  O   UNL A   1      40.730  19.165  25.685  1.00  0.00    -0.237 OA
ATOM     78  O   UNL A   1      43.003  19.384  24.762  1.00  0.00    -0.744 OA
ENDBRANCH  74  75
ENDBRANCH  46  69
BRANCH  58  79
ATOM     79  C   UNL A   1      47.827  26.691  31.033  1.00  0.00    -0.014 A 
ATOM     80  C   UNL A   1      48.964  26.899  30.232  1.00  0.00     0.010 A 
ATOM     81  C   UNL A   1      47.979  26.073  32.288  1.00  0.00     0.010 A 
ATOM     82  C   UNL A   1      50.221  26.465  30.663  1.00  0.00     0.020 A 
ATOM     83  C   UNL A   1      49.238  25.673  32.739  1.00  0.00     0.020 A 
ATOM     84  C   UNL A   1      50.349  25.857  31.916  1.00  0.00     0.054 A 
BRANCH  84  85
ATOM     85  S   UNL A   1      51.997  25.340  32.468  1.00  0.00     0.124 S 
ATOM     86  O   UNL A   1      52.201  26.179  33.645  1.00  0.00    -0.237 OA
ATOM     87  O   UNL A   1      51.810  23.916  32.736  1.00  0.00    -0.237 OA
ATOM     88  O   UNL A   1      52.857  25.647  31.328  1.00  0.00    -0.744 OA
ENDBRANCH  84  85
ENDBRANCH  58  79
ENDBRANCH  32  33
ENDBRANCH  24  27
ENDBRANCH  22  23
ENDBRANCH   1  22
TORSDOF 15
ENDMDL
MODEL 2
REMARK VINA RESULT:      -8.8      4.810     11.699
REMARK SMILES N#Cc1cc(-c2cncc(C(=O)NCCCNC(=O)c3ccc(-c4c5nc(c(-c6ccc(S(=O)(=O)[O-])cc6)c6ccc([nH]6)c(-c6ccc(S(=O)(=O)[O-])cc6)c6nc(c(-c7ccc(S(=O)(=O)[O-])cc7)c7ccc4[nH]7)C=C6)C=C5)cc3)c2)ccc1Cl
REMARK SMILES IDX 15 1 14 2 13 3 11 4 12 5 10 7 6 8 7 9 80 10 8 11 9 12 5 13
REMARK SMILES IDX 3 14 4 15 83 16 82 17 84 18 81 19 2 20 1 21 16 22 17 23
REMARK SMILES IDX 18 24 19 26 20 27 21 28 79 29 22 30 78 31 23 32 24 33 25 34
REMARK SMILES IDX 72 35 26 36 77 37 71 38 73 39 27 40 76 41 70 42 69 43 28 45
REMARK SMILES IDX 58 46 39 47 57 48 40 49 43 50 56 51 74 52 41 53 42 54 55 56
REMARK SMILES IDX 75 57 44 58 29 59 30 60 38 61 31 62 37 63 32 64 33 65 34 66
REMARK SMILES IDX 35 67 36 68 59 69 60 70 68 71 61 72 67 73 62 74 63 75 64 76
REMARK SMILES IDX 65 77 66 78 45 79 46 80 54 81 47 82 53 83 48 84 49 85 50 86
REMARK SMILES IDX 51 87 52 88
REMARK H PARENT 13 6 17 25 73 44 43 55
REMARK Flexibility Score: inf
ROOT
ATOM      1  C   UNL A   1      39.288  22.099  26.137  1.00  0.00     0.042 C 
ENDROOT
BRANCH   1   2
ATOM      2  C   UNL A   1      37.795  22.232  25.838  1.00  0.00     0.118 C 
BRANCH   2   3
ATOM      3  N   UNL A   1      37.574  22.522  24.432  1.00  0.00    -0.352 N 
ATOM      4  C   UNL A   1      36.494  22.990  23.731  1.00  0.00     0.252 C 
ATOM      5  O   UNL A   1      36.639  23.169  22.521  1.00  0.00    -0.269 OA
ATOM      6  H   UNL A   1      38.362  22.348  23.868  1.00  0.00     0.163 HD
BRANCH   4   7
ATOM      7  C   UNL A   1      35.194  23.342  24.353  1.00  0.00     0.058 A 
ATOM      8  C   UNL A   1      33.517  24.860  25.245  1.00  0.00     0.001 A 
ATOM      9  C   UNL A   1      32.651  23.773  25.316  1.00  0.00     0.119 A 
ATOM     10  C   UNL A   1      34.825  24.603  24.812  1.00  0.00     0.025 A 
ATOM     11  N   UNL A   1      32.990  22.511  24.963  1.00  0.00    -0.263 NA
ATOM     12  C   UNL A   1      34.248  22.330  24.480  1.00  0.00     0.124 A 
BRANCH   8  13
ATOM     13  C   UNL A   1      33.101  26.232  25.540  1.00  0.00    -0.015 A 
ATOM     14  C   UNL A   1      33.592  28.407  26.563  1.00  0.00     0.071 A 
ATOM     15  C   UNL A   1      33.982  27.106  26.208  1.00  0.00     0.029 A 
ATOM     16  C   UNL A   1      32.304  28.843  26.244  1.00  0.00     0.058 A 
ATOM     17  C   UNL A   1      31.423  27.987  25.575  1.00  0.00     0.022 A 
ATOM     18  Cl  UNL A   1      31.745  30.426  26.650  1.00  0.00    -0.083 Cl
ATOM     19  C   UNL A   1      31.819  26.694  25.222  1.00  0.00     0.010 A 
BRANCH  14  20
ATOM     20  C   UNL A   1      34.534  29.244  27.245  1.00  0.00     0.101 C 
ATOM     21  N   UNL A   1      35.322  29.880  27.815  1.00  0.00    -0.192 NA
ENDBRANCH  14  20
ENDBRANCH   8  13
ENDBRANCH   4   7
ENDBRANCH   2   3
ENDBRANCH   1   2
BRANCH   1  22
ATOM     22  C   UNL A   1      39.875  23.370  26.746  1.00  0.00     0.118 C 
BRANCH  22  23
ATOM     23  N   UNL A   1      41.162  23.701  26.147  1.00  0.00    -0.352 N 
ATOM     24  C   UNL A   1      41.945  24.814  26.290  1.00  0.00     0.251 C 
ATOM     25  H   UNL A   1      41.527  23.014  25.544  1.00  0.00     0.163 HD
ATOM     26  O   UNL A   1      42.850  25.016  25.485  1.00  0.00    -0.269 OA
BRANCH  24  27
ATOM     27  C   UNL A   1      41.711  25.759  27.399  1.00  0.00     0.039 A 
ATOM     28  C   UNL A   1      40.659  25.512  28.283  1.00  0.00     0.014 A 
ATOM     29  C   UNL A   1      42.490  26.912  27.540  1.00  0.00     0.014 A 
ATOM     30  C   UNL A   1      40.410  26.406  29.323  1.00  0.00     0.010 A 
ATOM     31  C   UNL A   1      42.306  27.745  28.637  1.00  0.00     0.010 A 
ATOM     32  C   UNL A   1      41.249  27.516  29.526  1.00  0.00    -0.014 A 
BRANCH  32  33
ATOM     33  C   UNL A   1      41.016  28.437  30.665  1.00  0.00     0.031 A 
ATOM     34  C   UNL A   1      41.853  28.339  31.912  1.00  0.00     0.074 A 
ATOM     35  C   UNL A   1      40.025  29.345  30.583  1.00  0.00     0.049 A 
ATOM     36  N   UNL A   1      41.815  29.083  32.986  1.00  0.00    -0.248 NA
ATOM     37  C   UNL A   1      42.841  27.249  31.975  1.00  0.00     0.031 C 
ATOM     38  C   UNL A   1      39.106  29.489  29.451  1.00  0.00     0.029 A 
ATOM     39  N   UNL A   1      39.626  30.319  31.460  1.00  0.00    -0.354 N 
ATOM     40  C   UNL A   1      42.756  28.542  33.856  1.00  0.00     0.074 A 
ATOM     41  C   UNL A   1      43.304  27.373  33.210  1.00  0.00     0.031 C 
ATOM     42  C   UNL A   1      38.282  30.522  29.682  1.00  0.00     0.029 A 
ATOM     43  C   UNL A   1      38.576  31.078  30.999  1.00  0.00     0.049 A 
ATOM     44  H   UNL A   1      40.049  30.462  32.338  1.00  0.00     0.167 HD
ATOM     45  C   UNL A   1      43.140  28.991  35.076  1.00  0.00     0.031 A 
ATOM     46  C   UNL A   1      37.918  32.105  31.569  1.00  0.00     0.031 A 
ATOM     47  C   UNL A   1      42.578  30.155  35.711  1.00  0.00     0.049 A 
ATOM     48  C   UNL A   1      38.361  32.591  32.920  1.00  0.00     0.074 A 
ATOM     49  C   UNL A   1      42.944  30.738  36.911  1.00  0.00     0.029 A 
ATOM     50  N   UNL A   1      41.521  30.901  35.209  1.00  0.00    -0.354 N 
ATOM     51  N   UNL A   1      39.321  32.128  33.686  1.00  0.00    -0.248 NA
ATOM     52  C   UNL A   1      37.647  33.746  33.476  1.00  0.00     0.031 C 
ATOM     53  C   UNL A   1      42.052  31.783  37.176  1.00  0.00     0.029 A 
ATOM     54  C   UNL A   1      41.192  31.912  36.096  1.00  0.00     0.049 A 
ATOM     55  H   UNL A   1      41.071  30.734  34.349  1.00  0.00     0.167 HD
ATOM     56  C   UNL A   1      39.344  32.953  34.804  1.00  0.00     0.074 A 
ATOM     57  C   UNL A   1      38.313  33.952  34.604  1.00  0.00     0.031 C 
ATOM     58  C   UNL A   1      40.152  32.893  35.893  1.00  0.00     0.031 A 
BRANCH  45  59
ATOM     59  C   UNL A   1      44.188  28.197  35.816  1.00  0.00    -0.014 A 
ATOM     60  C   UNL A   1      45.564  28.431  35.629  1.00  0.00     0.010 A 
ATOM     61  C   UNL A   1      43.788  27.207  36.733  1.00  0.00     0.010 A 
ATOM     62  C   UNL A   1      46.514  27.651  36.295  1.00  0.00     0.020 A 
ATOM     63  C   UNL A   1      44.734  26.452  37.431  1.00  0.00     0.020 A 
ATOM     64  C   UNL A   1      46.092  26.664  37.189  1.00  0.00     0.054 A 
BRANCH  64  65
ATOM     65  S   UNL A   1      47.346  25.669  38.041  1.00  0.00     0.124 S 
ATOM     66  O   UNL A   1      48.376  26.665  38.327  1.00  0.00    -0.237 OA
ATOM     67  O   UNL A   1      46.619  25.168  39.204  1.00  0.00    -0.237 OA
ATOM     68  O   UNL A   1      47.717  24.657  37.055  1.00  0.00    -0.744 OA
ENDBRANCH  64  65
ENDBRANCH  45  59
BRANCH  46  69
ATOM     69  C   UNL A   1      36.773  32.728  30.849  1.00  0.00    -0.014 A 
ATOM     70  C   UNL A   1      35.452  32.315  31.088  1.00  0.00     0.010 A 
ATOM     71  C   UNL A   1      37.006  33.790  29.954  1.00  0.00     0.010 A 
ATOM     72  C   UNL A   1      34.385  32.951  30.443  1.00  0.00     0.020 A 
ATOM     73  C   UNL A   1      35.943  34.450  29.336  1.00  0.00     0.020 A 
ATOM     74  C   UNL A   1      34.637  34.022  29.580  1.00  0.00     0.054 A 
BRANCH  74  75
ATOM     75  S   UNL A   1      33.234  34.888  28.823  1.00  0.00     0.124 S 
ATOM     76  O   UNL A   1      32.393  35.175  29.981  1.00  0.00    -0.237 OA
ATOM     77  O   UNL A   1      33.878  36.043  28.203  1.00  0.00    -0.237 OA
ATOM     78  O   UNL A   1      32.693  33.908  27.883  1.00  0.00    -0.744 OA
ENDBRANCH  74  75
ENDBRANCH  46  69
BRANCH  58  79
ATOM     79  C   UNL A   1      39.983  33.959  36.944  1.00  0.00    -0.014 A 
ATOM     80  C   UNL A   1      40.588  35.223  36.821  1.00  0.00     0.010 A 
ATOM     81  C   UNL A   1      39.154  33.704  38.052  1.00  0.00     0.010 A 
ATOM     82  C   UNL A   1      40.395  36.197  37.805  1.00  0.00     0.020 A 
ATOM     83  C   UNL A   1      38.928  34.687  39.017  1.00  0.00     0.020 A 
ATOM     84  C   UNL A   1      39.564  35.922  38.896  1.00  0.00     0.054 A 
BRANCH  84  85
ATOM     85  S   UNL A   1      39.300  37.217  40.137  1.00  0.00     0.124 S 
ATOM     86  O   UNL A   1      40.668  37.610  40.463  1.00  0.00    -0.237 OA
ATOM     87  O   UNL A   1      38.520  38.209  39.401  1.00  0.00    -0.237 OA
ATOM     88  O   UNL A   1      38.577  36.532  41.206  1.00  0.00    -0.744 OA
ENDBRANCH  84  85
ENDBRANCH  58  79
ENDBRANCH  32  33
ENDBRANCH  24  27
ENDBRANCH  22  23
ENDBRANCH   1  22
TORSDOF 15
ENDMDL
MODEL 3
REMARK VINA RESULT:      -8.7      3.684      6.220
REMARK SMILES N#Cc1cc(-c2cncc(C(=O)NCCCNC(=O)c3ccc(-c4c5nc(c(-c6ccc(S(=O)(=O)[O-])cc6)c6ccc([nH]6)c(-c6ccc(S(=O)(=O)[O-])cc6)c6nc(c(-c7ccc(S(=O)(=O)[O-])cc7)c7ccc4[nH]7)C=C6)C=C5)cc3)c2)ccc1Cl
REMARK SMILES IDX 15 1 14 2 13 3 11 4 12 5 10 7 6 8 7 9 80 10 8 11 9 12 5 13
REMARK SMILES IDX 3 14 4 15 83 16 82 17 84 18 81 19 2 20 1 21 16 22 17 23
REMARK SMILES IDX 18 24 19 26 20 27 21 28 79 29 22 30 78 31 23 32 24 33 25 34
REMARK SMILES IDX 72 35 26 36 77 37 71 38 73 39 27 40 76 41 70 42 69 43 28 45
REMARK SMILES IDX 58 46 39 47 57 48 40 49 43 50 56 51 74 52 41 53 42 54 55 56
REMARK SMILES IDX 75 57 44 58 29 59 30 60 38 61 31 62 37 63 32 64 33 65 34 66
REMARK SMILES IDX 35 67 36 68 59 69 60 70 68 71 61 72 67 73 62 74 63 75 64 76
REMARK SMILES IDX 65 77 66 78 45 79 46 80 54 81 47 82 53 83 48 84 49 85 50 86
REMARK SMILES IDX 51 87 52 88
REMARK H PARENT 13 6 17 25 73 44 43 55
REMARK Flexibility Score: inf
ROOT
ATOM      1  C   UNL A   1      33.044  27.890  25.620  1.00  0.00     0.042 C 
ENDROOT
BRANCH   1   2
ATOM      2  C   UNL A   1      31.545  28.050  25.870  1.00  0.00     0.118 C 
BRANCH   2   3
ATOM      3  N   UNL A   1      30.776  27.487  24.775  1.00  0.00    -0.352 N 
ATOM      4  C   UNL A   1      30.441  26.204  24.429  1.00  0.00     0.252 C 
ATOM      5  O   UNL A   1      29.727  26.054  23.436  1.00  0.00    -0.269 OA
ATOM      6  H   UNL A   1      30.422  28.165  24.155  1.00  0.00     0.163 HD
BRANCH   4   7
ATOM      7  C   UNL A   1      30.839  25.007  25.208  1.00  0.00     0.058 A 
ATOM      8  C   UNL A   1      32.309  23.174  25.835  1.00  0.00     0.001 A 
ATOM      9  C   UNL A   1      31.462  22.936  26.913  1.00  0.00     0.119 A 
ATOM     10  C   UNL A   1      31.937  24.192  24.947  1.00  0.00     0.025 A 
ATOM     11  N   UNL A   1      30.336  23.645  27.161  1.00  0.00    -0.263 NA
ATOM     12  C   UNL A   1      30.060  24.669  26.310  1.00  0.00     0.124 A 
BRANCH   8  13
ATOM     13  C   UNL A   1      33.571  22.459  25.640  1.00  0.00    -0.015 A 
ATOM     14  C   UNL A   1      36.024  22.486  25.611  1.00  0.00     0.071 A 
ATOM     15  C   UNL A   1      34.796  23.123  25.849  1.00  0.00     0.029 A 
ATOM     16  C   UNL A   1      36.029  21.165  25.157  1.00  0.00     0.058 A 
ATOM     17  C   UNL A   1      34.820  20.493  24.952  1.00  0.00     0.022 A 
ATOM     18  Cl  UNL A   1      37.496  20.313  24.834  1.00  0.00    -0.083 Cl
ATOM     19  C   UNL A   1      33.601  21.133  25.196  1.00  0.00     0.010 A 
BRANCH  14  20
ATOM     20  C   UNL A   1      37.234  23.219  25.839  1.00  0.00     0.101 C 
ATOM     21  N   UNL A   1      38.213  23.799  26.075  1.00  0.00    -0.192 NA
ENDBRANCH  14  20
ENDBRANCH   8  13
ENDBRANCH   4   7
ENDBRANCH   2   3
ENDBRANCH   1   2
BRANCH   1  22
ATOM     22  C   UNL A   1      33.880  28.248  26.846  1.00  0.00     0.118 C 
BRANCH  22  23
ATOM     23  N   UNL A   1      33.758  29.661  27.180  1.00  0.00    -0.352 N 
ATOM     24  C   UNL A   1      34.573  30.469  27.926  1.00  0.00     0.251 C 
ATOM     25  H   UNL A   1      32.964  30.107  26.807  1.00  0.00     0.163 HD
ATOM     26  O   UNL A   1      34.146  31.552  28.316  1.00  0.00    -0.269 OA
BRANCH  24  27
ATOM     27  C   UNL A   1      35.948  30.048  28.256  1.00  0.00     0.039 A 
ATOM     28  C   UNL A   1      36.934  30.141  27.271  1.00  0.00     0.014 A 
ATOM     29  C   UNL A   1      36.258  29.516  29.512  1.00  0.00     0.014 A 
ATOM     30  C   UNL A   1      38.233  29.727  27.558  1.00  0.00     0.010 A 
ATOM     31  C   UNL A   1      37.575  29.203  29.828  1.00  0.00     0.010 A 
ATOM     32  C   UNL A   1      38.572  29.280  28.848  1.00  0.00    -0.014 A 
BRANCH  32  33
ATOM     33  C   UNL A   1      39.967  28.891  29.168  1.00  0.00     0.031 A 
ATOM     34  C   UNL A   1      40.891  29.857  29.860  1.00  0.00     0.074 A 
ATOM     35  C   UNL A   1      40.408  27.671  28.805  1.00  0.00     0.049 A 
ATOM     36  N   UNL A   1      42.126  29.674  30.251  1.00  0.00    -0.248 NA
ATOM     37  C   UNL A   1      40.376  31.211  30.123  1.00  0.00     0.031 C 
ATOM     38  C   UNL A   1      39.622  26.675  28.072  1.00  0.00     0.029 A 
ATOM     39  N   UNL A   1      41.617  27.058  29.005  1.00  0.00    -0.354 N 
ATOM     40  C   UNL A   1      42.539  30.889  30.785  1.00  0.00     0.074 A 
ATOM     41  C   UNL A   1      41.445  31.818  30.615  1.00  0.00     0.031 C 
ATOM     42  C   UNL A   1      40.353  25.560  27.926  1.00  0.00     0.029 A 
ATOM     43  C   UNL A   1      41.675  25.779  28.505  1.00  0.00     0.049 A 
ATOM     44  H   UNL A   1      42.373  27.492  29.464  1.00  0.00     0.167 HD
ATOM     45  C   UNL A   1      43.716  31.198  31.381  1.00  0.00     0.031 A 
ATOM     46  C   UNL A   1      42.678  24.881  28.505  1.00  0.00     0.031 A 
ATOM     47  C   UNL A   1      44.800  30.263  31.538  1.00  0.00     0.049 A 
ATOM     48  C   UNL A   1      43.974  25.240  29.174  1.00  0.00     0.074 A 
ATOM     49  C   UNL A   1      46.007  30.449  32.188  1.00  0.00     0.029 A 
ATOM     50  N   UNL A   1      44.818  28.975  31.021  1.00  0.00    -0.354 N 
ATOM     51  N   UNL A   1      44.311  26.362  29.763  1.00  0.00    -0.248 NA
ATOM     52  C   UNL A   1      45.018  24.208  29.194  1.00  0.00     0.031 C 
ATOM     53  C   UNL A   1      46.787  29.306  31.991  1.00  0.00     0.029 A 
ATOM     54  C   UNL A   1      46.032  28.370  31.301  1.00  0.00     0.049 A 
ATOM     55  H   UNL A   1      44.077  28.554  30.529  1.00  0.00     0.167 HD
ATOM     56  C   UNL A   1      45.598  26.163  30.250  1.00  0.00     0.074 A 
ATOM     57  C   UNL A   1      45.969  24.806  29.898  1.00  0.00     0.031 C 
ATOM     58  C   UNL A   1      46.396  27.023  30.932  1.00  0.00     0.031 A 
BRANCH  45  59
ATOM     59  C   UNL A   1      43.903  32.613  31.870  1.00  0.00    -0.014 A 
ATOM     60  C   UNL A   1      44.508  33.601  31.069  1.00  0.00     0.010 A 
ATOM     61  C   UNL A   1      43.448  32.967  33.154  1.00  0.00     0.010 A 
ATOM     62  C   UNL A   1      44.707  34.892  31.564  1.00  0.00     0.020 A 
ATOM     63  C   UNL A   1      43.610  34.268  33.639  1.00  0.00     0.020 A 
ATOM     64  C   UNL A   1      44.260  35.217  32.847  1.00  0.00     0.054 A 
BRANCH  64  65
ATOM     65  S   UNL A   1      44.532  36.901  33.464  1.00  0.00     0.124 S 
ATOM     66  O   UNL A   1      44.256  37.703  32.274  1.00  0.00    -0.237 OA
ATOM     67  O   UNL A   1      43.547  37.010  34.536  1.00  0.00    -0.237 OA
ATOM     68  O   UNL A   1      45.926  36.893  33.898  1.00  0.00    -0.744 OA
ENDBRANCH  64  65
ENDBRANCH  45  59
BRANCH  46  69
ATOM     69  C   UNL A   1      42.476  23.562  27.844  1.00  0.00    -0.014 A 
ATOM     70  C   UNL A   1      43.031  23.287  26.582  1.00  0.00     0.010 A 
ATOM     71  C   UNL A   1      41.766  22.547  28.513  1.00  0.00     0.010 A 
ATOM     72  C   UNL A   1      42.878  22.023  26.003  1.00  0.00     0.020 A 
ATOM     73  C   UNL A   1      41.641  21.274  27.954  1.00  0.00     0.020 A 
ATOM     74  C   UNL A   1      42.194  21.021  26.698  1.00  0.00     0.054 A 
BRANCH  74  75
ATOM     75  S   UNL A   1      42.082  19.365  25.966  1.00  0.00     0.124 S 
ATOM     76  O   UNL A   1      40.645  19.221  25.755  1.00  0.00    -0.237 OA
ATOM     77  O   UNL A   1      42.892  19.502  24.758  1.00  0.00    -0.237 OA
ATOM     78  O   UNL A   1      42.654  18.497  26.994  1.00  0.00    -0.744 OA
ENDBRANCH  74  75
ENDBRANCH  46  69
BRANCH  58  79
ATOM     79  C   UNL A   1      47.742  26.515  31.381  1.00  0.00    -0.014 A 
ATOM     80  C   UNL A   1      47.926  25.919  32.642  1.00  0.00     0.010 A 
ATOM     81  C   UNL A   1      48.833  26.589  30.495  1.00  0.00     0.010 A 
ATOM     82  C   UNL A   1      49.184  25.442  33.020  1.00  0.00     0.020 A 
ATOM     83  C   UNL A   1      50.081  26.079  30.854  1.00  0.00     0.020 A 
ATOM     84  C   UNL A   1      50.253  25.522  32.121  1.00  0.00     0.054 A 
BRANCH  84  85
ATOM     85  S   UNL A   1      51.864  24.859  32.622  1.00  0.00     0.124 S 
ATOM     86  O   UNL A   1      51.933  25.255  34.026  1.00  0.00    -0.237 OA
ATOM     87  O   UNL A   1      51.708  23.427  32.381  1.00  0.00    -0.237 OA
ATOM     88  O   UNL A   1      52.809  25.536  31.738  1.00  0.00    -0.744 OA
ENDBRANCH  84  85
ENDBRANCH  58  79
ENDBRANCH  32  33
ENDBRANCH  24  27
ENDBRANCH  22  23
ENDBRANCH   1  22
TORSDOF 15
ENDMDL
