MODEL 1
REMARK VINA RESULT:     -12.8      0.000      0.000
REMARK SMILES Cc1ccc(C(c2ccccc2)(c2ccccc2)n2cnc(C[C@H]([NH3+])C(=O)NCCCNC(=O)c3ccc(-c4c5nc(c(-c6ccc(S(=O)(=O)[O-])cc6)c6ccc([nH]6)c(-c6ccc(S(=O)(=O)[O-])cc6)c6nc(c(-c7ccc(S(=O)(=O)[O-])cc7)c7ccc4[nH]7)C=C6)C=C5)cc3)c2)cc1
REMARK SMILES IDX 29 1 28 2 26 3 27 4 24 6 23 7 22 8 19 9 20 10 95 11 21 12
REMARK SMILES IDX 6 13 5 14 1 15 2 16 3 17 97 18 4 19 96 20 7 21 8 22 12 23
REMARK SMILES IDX 9 24 11 25 10 26 13 27 14 28 18 29 15 30 17 31 16 32 25 33
REMARK SMILES IDX 30 37 31 38 32 39 33 40 34 42 35 43 36 44 94 45 37 46 93 47
REMARK SMILES IDX 38 48 39 49 40 50 87 51 41 52 92 53 86 54 88 55 42 56 91 57
REMARK SMILES IDX 85 58 84 59 43 61 73 62 54 63 72 64 55 65 58 66 71 67 89 68
REMARK SMILES IDX 56 69 57 70 70 72 90 73 59 74 44 75 45 76 53 77 46 78 52 79
REMARK SMILES IDX 47 80 48 81 49 82 50 83 51 84 74 85 75 86 83 87 76 88 82 89
REMARK SMILES IDX 77 90 78 91 79 92 80 93 81 94 60 95 61 96 69 97 62 98 68 99
REMARK SMILES IDX 63 100 64 101 65 102 66 103 67 104
REMARK H PARENT 28 5 25 34 25 35 25 36 32 41 88 60 58 71
REMARK Flexibility Score: inf
ROOT
ATOM      1  C   UNL A   1      35.687  21.846  26.091  1.00  0.00     0.118 C 
ENDROOT
BRANCH   1   2
ATOM      2  N   UNL A   1      34.687  21.320  25.179  1.00  0.00    -0.351 N 
ATOM      3  C   UNL A   1      33.325  21.286  25.210  1.00  0.00     0.278 C 
ATOM      4  O   UNL A   1      32.765  20.651  24.306  1.00  0.00    -0.268 OA
ATOM      5  H   UNL A   1      35.071  20.902  24.375  1.00  0.00     0.163 HD
BRANCH   3   6
ATOM      6  C   UNL A   1      32.480  21.906  26.348  1.00  0.00     0.276 C 
BRANCH   6   7
ATOM      7  C   UNL A   1      30.997  22.168  26.073  1.00  0.00     0.133 C 
BRANCH   7   8
ATOM      8  C   UNL A   1      30.616  23.588  25.854  1.00  0.00     0.065 A 
ATOM      9  N   UNL A   1      30.435  25.610  25.014  1.00  0.00    -0.319 N 
ATOM     10  C   UNL A   1      29.943  25.566  26.300  1.00  0.00     0.201 A 
ATOM     11  C   UNL A   1      30.760  24.313  24.693  1.00  0.00     0.112 A 
ATOM     12  N   UNL A   1      30.070  24.371  26.829  1.00  0.00    -0.241 NA
BRANCH   9  13
ATOM     13  C   UNL A   1      30.670  26.850  24.199  1.00  0.00     0.121 C 
BRANCH  13  14
ATOM     14  C   UNL A   1      31.381  27.944  25.090  1.00  0.00    -0.013 A 
ATOM     15  C   UNL A   1      33.358  30.849  27.655  1.00  0.00     0.044 C 
ATOM     16  C   UNL A   1      32.695  29.833  26.774  1.00  0.00    -0.051 A 
ATOM     17  C   UNL A   1      32.119  30.230  25.564  1.00  0.00     0.004 A 
ATOM     18  C   UNL A   1      32.641  28.488  27.136  1.00  0.00     0.004 A 
ATOM     19  C   UNL A   1      31.473  29.302  24.735  1.00  0.00     0.007 A 
ATOM     20  C   UNL A   1      32.006  27.561  26.304  1.00  0.00     0.007 A 
ENDBRANCH  13  14
BRANCH  13  21
ATOM     21  C   UNL A   1      31.582  26.425  22.962  1.00  0.00    -0.013 A 
ATOM     22  C   UNL A   1      32.981  26.259  23.113  1.00  0.00     0.007 A 
ATOM     23  C   UNL A   1      31.093  26.292  21.645  1.00  0.00     0.007 A 
ATOM     24  C   UNL A   1      33.815  25.909  22.044  1.00  0.00     0.000 A 
ATOM     25  C   UNL A   1      31.926  25.948  20.571  1.00  0.00     0.000 A 
ATOM     26  C   UNL A   1      33.283  25.743  20.773  1.00  0.00     0.000 A 
ENDBRANCH  13  21
BRANCH  13  27
ATOM     27  C   UNL A   1      29.232  27.386  23.747  1.00  0.00    -0.013 A 
ATOM     28  C   UNL A   1      29.085  28.670  23.161  1.00  0.00     0.007 A 
ATOM     29  C   UNL A   1      28.033  26.726  24.088  1.00  0.00     0.007 A 
ATOM     30  C   UNL A   1      27.830  29.242  22.924  1.00  0.00     0.000 A 
ATOM     31  C   UNL A   1      26.777  27.312  23.878  1.00  0.00     0.000 A 
ATOM     32  C   UNL A   1      26.675  28.568  23.295  1.00  0.00     0.000 A 
ENDBRANCH  13  27
ENDBRANCH   9  13
ENDBRANCH   7   8
ENDBRANCH   6   7
BRANCH   6  33
ATOM     33  N   UNL A   1      33.149  23.131  26.869  1.00  0.00    -0.347 N 
ATOM     34  H   UNL A   1      32.886  23.932  26.297  1.00  0.00     0.345 HD
ATOM     35  H   UNL A   1      34.161  23.006  26.836  1.00  0.00     0.345 HD
ATOM     36  H   UNL A   1      32.858  23.293  27.834  1.00  0.00     0.345 HD
ENDBRANCH   6  33
ENDBRANCH   3   6
ENDBRANCH   1   2
BRANCH   1  37
ATOM     37  C   UNL A   1      37.057  21.978  25.437  1.00  0.00     0.042 C 
BRANCH  37  38
ATOM     38  C   UNL A   1      37.839  23.162  25.983  1.00  0.00     0.118 C 
BRANCH  38  39
ATOM     39  N   UNL A   1      39.059  22.786  26.683  1.00  0.00    -0.352 N 
ATOM     40  C   UNL A   1      39.989  23.627  27.270  1.00  0.00     0.251 C 
ATOM     41  H   UNL A   1      39.245  21.822  26.746  1.00  0.00     0.163 HD
ATOM     42  O   UNL A   1      41.092  23.230  27.607  1.00  0.00    -0.269 OA
BRANCH  40  43
ATOM     43  C   UNL A   1      39.549  25.004  27.583  1.00  0.00     0.039 A 
ATOM     44  C   UNL A   1      40.050  26.035  26.779  1.00  0.00     0.014 A 
ATOM     45  C   UNL A   1      38.906  25.283  28.785  1.00  0.00     0.014 A 
ATOM     46  C   UNL A   1      40.058  27.342  27.264  1.00  0.00     0.010 A 
ATOM     47  C   UNL A   1      39.019  26.556  29.310  1.00  0.00     0.010 A 
ATOM     48  C   UNL A   1      39.625  27.582  28.568  1.00  0.00    -0.014 A 
BRANCH  48  49
ATOM     49  C   UNL A   1      39.833  28.842  29.279  1.00  0.00     0.031 A 
ATOM     50  C   UNL A   1      38.835  29.937  29.180  1.00  0.00     0.074 A 
ATOM     51  C   UNL A   1      40.877  28.996  30.126  1.00  0.00     0.049 A 
ATOM     52  N   UNL A   1      39.086  31.184  29.419  1.00  0.00    -0.248 NA
ATOM     53  C   UNL A   1      37.462  29.708  28.741  1.00  0.00     0.031 C 
ATOM     54  C   UNL A   1      41.003  30.017  31.165  1.00  0.00     0.029 A 
ATOM     55  N   UNL A   1      42.137  28.398  30.093  1.00  0.00    -0.354 N 
ATOM     56  C   UNL A   1      37.876  31.836  29.501  1.00  0.00     0.074 A 
ATOM     57  C   UNL A   1      36.911  30.901  28.971  1.00  0.00     0.031 C 
ATOM     58  C   UNL A   1      42.302  30.190  31.442  1.00  0.00     0.029 A 
ATOM     59  C   UNL A   1      43.054  29.383  30.498  1.00  0.00     0.049 A 
ATOM     60  H   UNL A   1      42.344  27.470  29.837  1.00  0.00     0.167 HD
ATOM     61  C   UNL A   1      37.784  33.032  30.153  1.00  0.00     0.031 A 
ATOM     62  C   UNL A   1      44.113  29.819  29.757  1.00  0.00     0.031 A 
ATOM     63  C   UNL A   1      39.087  33.519  30.604  1.00  0.00     0.049 A 
ATOM     64  C   UNL A   1      44.123  31.315  29.546  1.00  0.00     0.074 A 
ATOM     65  C   UNL A   1      39.702  33.562  31.846  1.00  0.00     0.029 A 
ATOM     66  N   UNL A   1      40.068  33.835  29.670  1.00  0.00    -0.354 N 
ATOM     67  N   UNL A   1      43.103  32.090  29.786  1.00  0.00    -0.248 NA
ATOM     68  C   UNL A   1      45.256  32.050  28.990  1.00  0.00     0.031 C 
ATOM     69  C   UNL A   1      41.070  33.878  31.651  1.00  0.00     0.029 A 
ATOM     70  C   UNL A   1      41.286  34.034  30.293  1.00  0.00     0.049 A 
ATOM     71  H   UNL A   1      39.915  33.906  28.701  1.00  0.00     0.167 HD
ATOM     72  C   UNL A   1      43.398  33.377  29.414  1.00  0.00     0.074 A 
ATOM     73  C   UNL A   1      44.768  33.303  28.941  1.00  0.00     0.031 C 
ATOM     74  C   UNL A   1      42.471  34.376  29.515  1.00  0.00     0.031 A 
BRANCH  61  75
ATOM     75  C   UNL A   1      36.469  33.606  30.653  1.00  0.00    -0.014 A 
ATOM     76  C   UNL A   1      35.441  33.905  29.732  1.00  0.00     0.010 A 
ATOM     77  C   UNL A   1      36.201  33.936  31.994  1.00  0.00     0.010 A 
ATOM     78  C   UNL A   1      34.279  34.599  30.104  1.00  0.00     0.020 A 
ATOM     79  C   UNL A   1      35.063  34.666  32.377  1.00  0.00     0.020 A 
ATOM     80  C   UNL A   1      34.114  35.007  31.423  1.00  0.00     0.054 A 
BRANCH  80  81
ATOM     81  S   UNL A   1      32.660  35.991  31.873  1.00  0.00     0.124 S 
ATOM     82  O   UNL A   1      33.217  36.978  32.795  1.00  0.00    -0.237 OA
ATOM     83  O   UNL A   1      32.223  36.511  30.580  1.00  0.00    -0.237 OA
ATOM     84  O   UNL A   1      31.759  35.016  32.486  1.00  0.00    -0.744 OA
ENDBRANCH  80  81
ENDBRANCH  61  75
BRANCH  62  85
ATOM     85  C   UNL A   1      44.645  28.821  28.794  1.00  0.00    -0.014 A 
ATOM     86  C   UNL A   1      45.636  27.937  29.266  1.00  0.00     0.010 A 
ATOM     87  C   UNL A   1      43.893  28.467  27.660  1.00  0.00     0.010 A 
ATOM     88  C   UNL A   1      45.742  26.650  28.738  1.00  0.00     0.020 A 
ATOM     89  C   UNL A   1      44.002  27.176  27.126  1.00  0.00     0.020 A 
ATOM     90  C   UNL A   1      44.872  26.258  27.721  1.00  0.00     0.054 A 
BRANCH  90  91
ATOM     91  S   UNL A   1      44.751  24.484  27.342  1.00  0.00     0.124 S 
ATOM     92  O   UNL A   1      43.914  24.473  26.146  1.00  0.00    -0.237 OA
ATOM     93  O   UNL A   1      46.154  24.128  27.132  1.00  0.00    -0.237 OA
ATOM     94  O   UNL A   1      44.140  23.924  28.544  1.00  0.00    -0.744 OA
ENDBRANCH  90  91
ENDBRANCH  62  85
BRANCH  74  95
ATOM     95  C   UNL A   1      42.592  35.788  28.981  1.00  0.00    -0.014 A 
ATOM     96  C   UNL A   1      43.429  36.779  29.516  1.00  0.00     0.010 A 
ATOM     97  C   UNL A   1      41.893  36.129  27.794  1.00  0.00     0.010 A 
ATOM     98  C   UNL A   1      43.518  38.057  28.938  1.00  0.00     0.020 A 
ATOM     99  C   UNL A   1      42.006  37.382  27.185  1.00  0.00     0.020 A 
ATOM    100  C   UNL A   1      42.803  38.353  27.780  1.00  0.00     0.054 A 
BRANCH 100 101
ATOM    101  S   UNL A   1      42.974  39.981  27.006  1.00  0.00     0.124 S 
ATOM    102  O   UNL A   1      41.737  40.082  26.239  1.00  0.00    -0.237 OA
ATOM    103  O   UNL A   1      43.073  40.881  28.154  1.00  0.00    -0.237 OA
ATOM    104  O   UNL A   1      44.197  39.859  26.217  1.00  0.00    -0.744 OA
ENDBRANCH 100 101
ENDBRANCH  74  95
ENDBRANCH  48  49
ENDBRANCH  40  43
ENDBRANCH  38  39
ENDBRANCH  37  38
ENDBRANCH   1  37
TORSDOF 20
ENDMDL
MODEL 2
REMARK VINA RESULT:     -11.4      1.954      2.537
REMARK SMILES Cc1ccc(C(c2ccccc2)(c2ccccc2)n2cnc(C[C@H]([NH3+])C(=O)NCCCNC(=O)c3ccc(-c4c5nc(c(-c6ccc(S(=O)(=O)[O-])cc6)c6ccc([nH]6)c(-c6ccc(S(=O)(=O)[O-])cc6)c6nc(c(-c7ccc(S(=O)(=O)[O-])cc7)c7ccc4[nH]7)C=C6)C=C5)cc3)c2)cc1
REMARK SMILES IDX 29 1 28 2 26 3 27 4 24 6 23 7 22 8 19 9 20 10 95 11 21 12
REMARK SMILES IDX 6 13 5 14 1 15 2 16 3 17 97 18 4 19 96 20 7 21 8 22 12 23
REMARK SMILES IDX 9 24 11 25 10 26 13 27 14 28 18 29 15 30 17 31 16 32 25 33
REMARK SMILES IDX 30 37 31 38 32 39 33 40 34 42 35 43 36 44 94 45 37 46 93 47
REMARK SMILES IDX 38 48 39 49 40 50 87 51 41 52 92 53 86 54 88 55 42 56 91 57
REMARK SMILES IDX 85 58 84 59 43 61 73 62 54 63 72 64 55 65 58 66 71 67 89 68
REMARK SMILES IDX 56 69 57 70 70 72 90 73 59 74 44 75 45 76 53 77 46 78 52 79
REMARK SMILES IDX 47 80 48 81 49 82 50 83 51 84 74 85 75 86 83 87 76 88 82 89
REMARK SMILES IDX 77 90 78 91 79 92 80 93 81 94 60 95 61 96 69 97 62 98 68 99
REMARK SMILES IDX 63 100 64 101 65 102 66 103 67 104
REMARK H PARENT 28 5 25 34 25 35 25 36 32 41 88 60 58 71
REMARK Flexibility Score: inf
ROOT
ATOM      1  C   UNL A   1      35.840  21.651  25.677  1.00  0.00     0.118 C 
ENDROOT
BRANCH   1   2
ATOM      2  N   UNL A   1      34.824  20.792  25.098  1.00  0.00    -0.351 N 
ATOM      3  C   UNL A   1      33.490  20.636  25.335  1.00  0.00     0.278 C 
ATOM      4  O   UNL A   1      32.922  19.718  24.728  1.00  0.00    -0.268 OA
ATOM      5  H   UNL A   1      35.167  20.201  24.390  1.00  0.00     0.163 HD
BRANCH   3   6
ATOM      6  C   UNL A   1      32.704  21.471  26.373  1.00  0.00     0.276 C 
BRANCH   6   7
ATOM      7  C   UNL A   1      31.232  21.773  26.078  1.00  0.00     0.133 C 
BRANCH   7   8
ATOM      8  C   UNL A   1      30.899  23.197  25.815  1.00  0.00     0.065 A 
ATOM      9  N   UNL A   1      30.735  25.181  24.885  1.00  0.00    -0.319 N 
ATOM     10  C   UNL A   1      30.362  25.227  26.209  1.00  0.00     0.201 A 
ATOM     11  C   UNL A   1      30.969  23.854  24.608  1.00  0.00     0.112 A 
ATOM     12  N   UNL A   1      30.482  24.056  26.790  1.00  0.00    -0.241 NA
BRANCH   9  13
ATOM     13  C   UNL A   1      30.952  26.364  23.984  1.00  0.00     0.121 C 
BRANCH  13  14
ATOM     14  C   UNL A   1      31.814  27.453  24.738  1.00  0.00    -0.013 A 
ATOM     15  C   UNL A   1      34.070  30.553  26.795  1.00  0.00     0.044 C 
ATOM     16  C   UNL A   1      33.275  29.488  26.101  1.00  0.00    -0.051 A 
ATOM     17  C   UNL A   1      33.875  28.268  25.778  1.00  0.00     0.004 A 
ATOM     18  C   UNL A   1      31.936  29.688  25.767  1.00  0.00     0.004 A 
ATOM     19  C   UNL A   1      33.158  27.266  25.109  1.00  0.00     0.007 A 
ATOM     20  C   UNL A   1      31.218  28.685  25.109  1.00  0.00     0.007 A 
ENDBRANCH  13  14
BRANCH  13  21
ATOM     21  C   UNL A   1      31.702  25.826  22.685  1.00  0.00    -0.013 A 
ATOM     22  C   UNL A   1      32.577  24.714  22.756  1.00  0.00     0.007 A 
ATOM     23  C   UNL A   1      31.634  26.464  21.428  1.00  0.00     0.007 A 
ATOM     24  C   UNL A   1      33.270  24.230  21.640  1.00  0.00     0.000 A 
ATOM     25  C   UNL A   1      32.331  25.987  20.310  1.00  0.00     0.000 A 
ATOM     26  C   UNL A   1      33.137  24.862  20.412  1.00  0.00     0.000 A 
ENDBRANCH  13  21
BRANCH  13  27
ATOM     27  C   UNL A   1      29.506  26.966  23.655  1.00  0.00    -0.013 A 
ATOM     28  C   UNL A   1      29.370  28.238  23.045  1.00  0.00     0.007 A 
ATOM     29  C   UNL A   1      28.314  26.382  24.132  1.00  0.00     0.007 A 
ATOM     30  C   UNL A   1      28.129  28.872  22.910  1.00  0.00     0.000 A 
ATOM     31  C   UNL A   1      27.075  27.030  24.024  1.00  0.00     0.000 A 
ATOM     32  C   UNL A   1      26.983  28.273  23.412  1.00  0.00     0.000 A 
ENDBRANCH  13  27
ENDBRANCH   9  13
ENDBRANCH   7   8
ENDBRANCH   6   7
BRANCH   6  33
ATOM     33  N   UNL A   1      33.450  22.721  26.691  1.00  0.00    -0.347 N 
ATOM     34  H   UNL A   1      33.310  23.400  25.944  1.00  0.00     0.345 HD
ATOM     35  H   UNL A   1      34.444  22.511  26.778  1.00  0.00     0.345 HD
ATOM     36  H   UNL A   1      33.105  23.108  27.570  1.00  0.00     0.345 HD
ENDBRANCH   6  33
ENDBRANCH   3   6
ENDBRANCH   1   2
BRANCH   1  37
ATOM     37  C   UNL A   1      37.251  21.224  25.291  1.00  0.00     0.042 C 
BRANCH  37  38
ATOM     38  C   UNL A   1      38.275  22.312  25.570  1.00  0.00     0.118 C 
BRANCH  38  39
ATOM     39  N   UNL A   1      39.574  21.803  25.986  1.00  0.00    -0.352 N 
ATOM     40  C   UNL A   1      40.707  22.535  26.296  1.00  0.00     0.251 C 
ATOM     41  H   UNL A   1      39.656  20.825  26.054  1.00  0.00     0.163 HD
ATOM     42  O   UNL A   1      41.805  22.010  26.388  1.00  0.00    -0.269 OA
BRANCH  40  43
ATOM     43  C   UNL A   1      40.517  23.963  26.629  1.00  0.00     0.039 A 
ATOM     44  C   UNL A   1      41.368  24.885  26.008  1.00  0.00     0.014 A 
ATOM     45  C   UNL A   1      39.732  24.334  27.716  1.00  0.00     0.014 A 
ATOM     46  C   UNL A   1      41.559  26.139  26.585  1.00  0.00     0.010 A 
ATOM     47  C   UNL A   1      40.010  25.532  28.348  1.00  0.00     0.010 A 
ATOM     48  C   UNL A   1      40.948  26.424  27.806  1.00  0.00    -0.014 A 
BRANCH  48  49
ATOM     49  C   UNL A   1      41.279  27.580  28.636  1.00  0.00     0.031 A 
ATOM     50  C   UNL A   1      40.279  28.653  28.865  1.00  0.00     0.074 A 
ATOM     51  C   UNL A   1      42.457  27.643  29.299  1.00  0.00     0.049 A 
ATOM     52  N   UNL A   1      40.568  29.862  29.227  1.00  0.00    -0.248 NA
ATOM     53  C   UNL A   1      38.850  28.452  28.647  1.00  0.00     0.031 C 
ATOM     54  C   UNL A   1      42.765  28.517  30.430  1.00  0.00     0.029 A 
ATOM     55  N   UNL A   1      43.691  27.086  28.962  1.00  0.00    -0.354 N 
ATOM     56  C   UNL A   1      39.392  30.468  29.609  1.00  0.00     0.074 A 
ATOM     57  C   UNL A   1      38.348  29.589  29.133  1.00  0.00     0.031 C 
ATOM     58  C   UNL A   1      44.093  28.682  30.495  1.00  0.00     0.029 A 
ATOM     59  C   UNL A   1      44.665  28.029  29.332  1.00  0.00     0.049 A 
ATOM     60  H   UNL A   1      43.849  26.207  28.548  1.00  0.00     0.167 HD
ATOM     61  C   UNL A   1      39.417  31.561  30.426  1.00  0.00     0.031 A 
ATOM     62  C   UNL A   1      45.575  28.587  28.484  1.00  0.00     0.031 A 
ATOM     63  C   UNL A   1      40.780  32.014  30.703  1.00  0.00     0.049 A 
ATOM     64  C   UNL A   1      45.548  30.099  28.482  1.00  0.00     0.074 A 
ATOM     65  C   UNL A   1      41.606  31.903  31.811  1.00  0.00     0.029 A 
ATOM     66  N   UNL A   1      41.579  32.478  29.664  1.00  0.00    -0.354 N 
ATOM     67  N   UNL A   1      44.587  30.809  29.002  1.00  0.00    -0.248 NA
ATOM     68  C   UNL A   1      46.564  30.930  27.842  1.00  0.00     0.031 C 
ATOM     69  C   UNL A   1      42.917  32.276  31.424  1.00  0.00     0.029 A 
ATOM     70  C   UNL A   1      42.888  32.620  30.084  1.00  0.00     0.049 A 
ATOM     71  H   UNL A   1      41.257  32.676  28.756  1.00  0.00     0.167 HD
ATOM     72  C   UNL A   1      44.811  32.141  28.765  1.00  0.00     0.074 A 
ATOM     73  C   UNL A   1      46.075  32.165  28.053  1.00  0.00     0.031 C 
ATOM     74  C   UNL A   1      43.916  33.094  29.164  1.00  0.00     0.031 A 
BRANCH  61  75
ATOM     75  C   UNL A   1      38.212  32.030  31.223  1.00  0.00    -0.014 A 
ATOM     76  C   UNL A   1      37.435  33.109  30.748  1.00  0.00     0.010 A 
ATOM     77  C   UNL A   1      37.827  31.503  32.469  1.00  0.00     0.010 A 
ATOM     78  C   UNL A   1      36.423  33.702  31.520  1.00  0.00     0.020 A 
ATOM     79  C   UNL A   1      36.845  32.109  33.272  1.00  0.00     0.020 A 
ATOM     80  C   UNL A   1      36.159  33.218  32.797  1.00  0.00     0.054 A 
BRANCH  80  81
ATOM     81  S   UNL A   1      34.923  34.054  33.825  1.00  0.00     0.124 S 
ATOM     82  O   UNL A   1      33.666  33.511  33.316  1.00  0.00    -0.237 OA
ATOM     83  O   UNL A   1      35.295  33.627  35.171  1.00  0.00    -0.237 OA
ATOM     84  O   UNL A   1      35.140  35.472  33.542  1.00  0.00    -0.744 OA
ENDBRANCH  80  81
ENDBRANCH  61  75
BRANCH  62  85
ATOM     85  C   UNL A   1      45.928  27.743  27.313  1.00  0.00    -0.014 A 
ATOM     86  C   UNL A   1      45.332  28.073  26.080  1.00  0.00     0.010 A 
ATOM     87  C   UNL A   1      47.116  26.989  27.322  1.00  0.00     0.010 A 
ATOM     88  C   UNL A   1      46.003  27.824  24.882  1.00  0.00     0.020 A 
ATOM     89  C   UNL A   1      47.789  26.735  26.120  1.00  0.00     0.020 A 
ATOM     90  C   UNL A   1      47.261  27.222  24.920  1.00  0.00     0.054 A 
BRANCH  90  91
ATOM     91  S   UNL A   1      48.279  27.283  23.415  1.00  0.00     0.124 S 
ATOM     92  O   UNL A   1      49.517  27.890  23.895  1.00  0.00    -0.237 OA
ATOM     93  O   UNL A   1      48.368  25.867  23.059  1.00  0.00    -0.237 OA
ATOM     94  O   UNL A   1      47.486  28.105  22.506  1.00  0.00    -0.744 OA
ENDBRANCH  90  91
ENDBRANCH  62  85
BRANCH  74  95
ATOM     95  C   UNL A   1      43.940  34.568  28.818  1.00  0.00    -0.014 A 
ATOM     96  C   UNL A   1      43.779  35.091  27.525  1.00  0.00     0.010 A 
ATOM     97  C   UNL A   1      44.030  35.513  29.872  1.00  0.00     0.010 A 
ATOM     98  C   UNL A   1      43.772  36.475  27.289  1.00  0.00     0.020 A 
ATOM     99  C   UNL A   1      43.980  36.893  29.654  1.00  0.00     0.020 A 
ATOM    100  C   UNL A   1      43.876  37.369  28.353  1.00  0.00     0.054 A 
BRANCH 100 101
ATOM    101  S   UNL A   1      43.800  39.152  28.044  1.00  0.00     0.124 S 
ATOM    102  O   UNL A   1      44.902  39.647  28.864  1.00  0.00    -0.237 OA
ATOM    103  O   UNL A   1      44.006  39.243  26.599  1.00  0.00    -0.237 OA
ATOM    104  O   UNL A   1      42.462  39.521  28.497  1.00  0.00    -0.744 OA
ENDBRANCH 100 101
ENDBRANCH  74  95
ENDBRANCH  48  49
ENDBRANCH  40  43
ENDBRANCH  38  39
ENDBRANCH  37  38
ENDBRANCH   1  37
TORSDOF 20
ENDMDL
MODEL 3
REMARK VINA RESULT:     -11.4      5.819     10.486
REMARK SMILES Cc1ccc(C(c2ccccc2)(c2ccccc2)n2cnc(C[C@H]([NH3+])C(=O)NCCCNC(=O)c3ccc(-c4c5nc(c(-c6ccc(S(=O)(=O)[O-])cc6)c6ccc([nH]6)c(-c6ccc(S(=O)(=O)[O-])cc6)c6nc(c(-c7ccc(S(=O)(=O)[O-])cc7)c7ccc4[nH]7)C=C6)C=C5)cc3)c2)cc1
REMARK SMILES IDX 29 1 28 2 26 3 27 4 24 6 23 7 22 8 19 9 20 10 95 11 21 12
REMARK SMILES IDX 6 13 5 14 1 15 2 16 3 17 97 18 4 19 96 20 7 21 8 22 12 23
REMARK SMILES IDX 9 24 11 25 10 26 13 27 14 28 18 29 15 30 17 31 16 32 25 33
REMARK SMILES IDX 30 37 31 38 32 39 33 40 34 42 35 43 36 44 94 45 37 46 93 47
REMARK SMILES IDX 38 48 39 49 40 50 87 51 41 52 92 53 86 54 88 55 42 56 91 57
REMARK SMILES IDX 85 58 84 59 43 61 73 62 54 63 72 64 55 65 58 66 71 67 89 68
REMARK SMILES IDX 56 69 57 70 70 72 90 73 59 74 44 75 45 76 53 77 46 78 52 79
REMARK SMILES IDX 47 80 48 81 49 82 50 83 51 84 74 85 75 86 83 87 76 88 82 89
REMARK SMILES IDX 77 90 78 91 79 92 80 93 81 94 60 95 61 96 69 97 62 98 68 99
REMARK SMILES IDX 63 100 64 101 65 102 66 103 67 104
REMARK H PARENT 28 5 25 34 25 35 25 36 32 41 88 60 58 71
REMARK Flexibility Score: inf
ROOT
ATOM      1  C   UNL A   1      44.533  26.677  27.973  1.00  0.00     0.118 C 
ENDROOT
BRANCH   1   2
ATOM      2  N   UNL A   1      45.022  26.639  26.606  1.00  0.00    -0.351 N 
ATOM      3  C   UNL A   1      45.842  27.457  25.887  1.00  0.00     0.278 C 
ATOM      4  O   UNL A   1      45.973  27.192  24.684  1.00  0.00    -0.268 OA
ATOM      5  H   UNL A   1      44.694  25.864  26.094  1.00  0.00     0.163 HD
BRANCH   3   6
ATOM      6  C   UNL A   1      46.514  28.721  26.472  1.00  0.00     0.276 C 
BRANCH   6   7
ATOM      7  C   UNL A   1      45.975  30.084  26.029  1.00  0.00     0.133 C 
BRANCH   7   8
ATOM      8  C   UNL A   1      46.510  31.264  26.758  1.00  0.00     0.065 A 
ATOM      9  N   UNL A   1      46.677  33.080  27.984  1.00  0.00    -0.319 N 
ATOM     10  C   UNL A   1      47.840  32.852  27.283  1.00  0.00     0.201 A 
ATOM     11  C   UNL A   1      45.869  31.995  27.731  1.00  0.00     0.112 A 
ATOM     12  N   UNL A   1      47.749  31.787  26.521  1.00  0.00    -0.241 NA
BRANCH   9  13
ATOM     13  C   UNL A   1      46.339  34.322  28.758  1.00  0.00     0.121 C 
BRANCH  13  14
ATOM     14  C   UNL A   1      44.772  34.428  28.935  1.00  0.00    -0.013 A 
ATOM     15  C   UNL A   1      40.465  34.864  29.364  1.00  0.00     0.044 C 
ATOM     16  C   UNL A   1      41.947  34.719  29.193  1.00  0.00    -0.051 A 
ATOM     17  C   UNL A   1      42.601  33.593  29.699  1.00  0.00     0.004 A 
ATOM     18  C   UNL A   1      42.697  35.693  28.534  1.00  0.00     0.004 A 
ATOM     19  C   UNL A   1      43.990  33.447  29.572  1.00  0.00     0.007 A 
ATOM     20  C   UNL A   1      44.080  35.543  28.398  1.00  0.00     0.007 A 
ENDBRANCH  13  14
BRANCH  13  21
ATOM     21  C   UNL A   1      47.076  34.203  30.168  1.00  0.00    -0.013 A 
ATOM     22  C   UNL A   1      47.834  33.054  30.499  1.00  0.00     0.007 A 
ATOM     23  C   UNL A   1      46.942  35.159  31.197  1.00  0.00     0.007 A 
ATOM     24  C   UNL A   1      48.475  32.907  31.735  1.00  0.00     0.000 A 
ATOM     25  C   UNL A   1      47.576  35.012  32.439  1.00  0.00     0.000 A 
ATOM     26  C   UNL A   1      48.354  33.894  32.702  1.00  0.00     0.000 A 
ENDBRANCH  13  21
BRANCH  13  27
ATOM     27  C   UNL A   1      46.861  35.563  27.894  1.00  0.00    -0.013 A 
ATOM     28  C   UNL A   1      46.473  35.720  26.539  1.00  0.00     0.007 A 
ATOM     29  C   UNL A   1      47.876  36.431  28.347  1.00  0.00     0.007 A 
ATOM     30  C   UNL A   1      47.051  36.684  25.705  1.00  0.00     0.000 A 
ATOM     31  C   UNL A   1      48.476  37.376  27.503  1.00  0.00     0.000 A 
ATOM     32  C   UNL A   1      48.063  37.503  26.183  1.00  0.00     0.000 A 
ENDBRANCH  13  27
ENDBRANCH   9  13
ENDBRANCH   7   8
ENDBRANCH   6   7
BRANCH   6  33
ATOM     33  N   UNL A   1      47.991  28.646  26.283  1.00  0.00    -0.347 N 
ATOM     34  H   UNL A   1      48.310  29.469  25.774  1.00  0.00     0.345 HD
ATOM     35  H   UNL A   1      48.223  27.806  25.753  1.00  0.00     0.345 HD
ATOM     36  H   UNL A   1      48.449  28.611  27.193  1.00  0.00     0.345 HD
ENDBRANCH   6  33
ENDBRANCH   3   6
ENDBRANCH   1   2
BRANCH   1  37
ATOM     37  C   UNL A   1      44.248  25.287  28.526  1.00  0.00     0.042 C 
BRANCH  37  38
ATOM     38  C   UNL A   1      42.759  25.037  28.704  1.00  0.00     0.118 C 
BRANCH  38  39
ATOM     39  N   UNL A   1      42.078  24.648  27.477  1.00  0.00    -0.352 N 
ATOM     40  C   UNL A   1      40.822  25.038  27.048  1.00  0.00     0.251 C 
ATOM     41  H   UNL A   1      42.570  24.037  26.882  1.00  0.00     0.163 HD
ATOM     42  O   UNL A   1      40.246  24.465  26.138  1.00  0.00    -0.269 OA
BRANCH  40  43
ATOM     43  C   UNL A   1      40.249  26.257  27.660  1.00  0.00     0.039 A 
ATOM     44  C   UNL A   1      40.875  27.475  27.370  1.00  0.00     0.014 A 
ATOM     45  C   UNL A   1      39.322  26.158  28.692  1.00  0.00     0.014 A 
ATOM     46  C   UNL A   1      40.698  28.559  28.228  1.00  0.00     0.010 A 
ATOM     47  C   UNL A   1      39.238  27.195  29.601  1.00  0.00     0.010 A 
ATOM     48  C   UNL A   1      39.952  28.386  29.393  1.00  0.00    -0.014 A 
BRANCH  48  49
ATOM     49  C   UNL A   1      39.916  29.349  30.492  1.00  0.00     0.031 A 
ATOM     50  C   UNL A   1      39.048  30.551  30.413  1.00  0.00     0.074 A 
ATOM     51  C   UNL A   1      40.584  29.109  31.644  1.00  0.00     0.049 A 
ATOM     52  N   UNL A   1      39.224  31.630  31.104  1.00  0.00    -0.248 NA
ATOM     53  C   UNL A   1      37.925  30.646  29.487  1.00  0.00     0.031 C 
ATOM     54  C   UNL A   1      40.347  29.763  32.930  1.00  0.00     0.029 A 
ATOM     55  N   UNL A   1      41.755  28.381  31.852  1.00  0.00    -0.354 N 
ATOM     56  C   UNL A   1      38.083  32.391  30.974  1.00  0.00     0.074 A 
ATOM     57  C   UNL A   1      37.355  31.787  29.882  1.00  0.00     0.031 C 
ATOM     58  C   UNL A   1      41.460  29.671  33.670  1.00  0.00     0.029 A 
ATOM     59  C   UNL A   1      42.484  29.074  32.832  1.00  0.00     0.049 A 
ATOM     60  H   UNL A   1      42.019  27.546  31.401  1.00  0.00     0.167 HD
ATOM     61  C   UNL A   1      37.788  33.350  31.899  1.00  0.00     0.031 A 
ATOM     62  C   UNL A   1      43.750  29.556  32.672  1.00  0.00     0.031 A 
ATOM     63  C   UNL A   1      38.850  33.505  32.894  1.00  0.00     0.049 A 
ATOM     64  C   UNL A   1      43.872  31.034  32.962  1.00  0.00     0.074 A 
ATOM     65  C   UNL A   1      38.971  33.107  34.216  1.00  0.00     0.029 A 
ATOM     66  N   UNL A   1      40.110  33.939  32.498  1.00  0.00    -0.354 N 
ATOM     67  N   UNL A   1      42.853  31.839  33.075  1.00  0.00    -0.248 NA
ATOM     68  C   UNL A   1      45.146  31.737  33.084  1.00  0.00     0.031 C 
ATOM     69  C   UNL A   1      40.324  33.276  34.606  1.00  0.00     0.029 A 
ATOM     70  C   UNL A   1      41.022  33.784  33.524  1.00  0.00     0.049 A 
ATOM     71  H   UNL A   1      40.322  34.306  31.609  1.00  0.00     0.167 HD
ATOM     72  C   UNL A   1      43.293  33.126  33.252  1.00  0.00     0.074 A 
ATOM     73  C   UNL A   1      44.739  33.005  33.273  1.00  0.00     0.031 C 
ATOM     74  C   UNL A   1      42.417  34.170  33.344  1.00  0.00     0.031 A 
BRANCH  61  75
ATOM     75  C   UNL A   1      36.395  33.930  32.079  1.00  0.00    -0.014 A 
ATOM     76  C   UNL A   1      35.448  33.808  31.039  1.00  0.00     0.010 A 
ATOM     77  C   UNL A   1      35.975  34.659  33.206  1.00  0.00     0.010 A 
ATOM     78  C   UNL A   1      34.212  34.474  31.070  1.00  0.00     0.020 A 
ATOM     79  C   UNL A   1      34.760  35.363  33.237  1.00  0.00     0.020 A 
ATOM     80  C   UNL A   1      33.890  35.279  32.158  1.00  0.00     0.054 A 
BRANCH  80  81
ATOM     81  S   UNL A   1      32.338  36.213  32.142  1.00  0.00     0.124 S 
ATOM     82  O   UNL A   1      32.263  36.681  30.760  1.00  0.00    -0.237 OA
ATOM     83  O   UNL A   1      31.358  35.198  32.519  1.00  0.00    -0.237 OA
ATOM     84  O   UNL A   1      32.556  37.264  33.136  1.00  0.00    -0.744 OA
ENDBRANCH  80  81
ENDBRANCH  61  75
BRANCH  62  85
ATOM     85  C   UNL A   1      44.573  28.814  31.683  1.00  0.00    -0.014 A 
ATOM     86  C   UNL A   1      44.930  29.497  30.502  1.00  0.00     0.010 A 
ATOM     87  C   UNL A   1      45.336  27.705  32.092  1.00  0.00     0.010 A 
ATOM     88  C   UNL A   1      46.128  29.202  29.852  1.00  0.00     0.020 A 
ATOM     89  C   UNL A   1      46.538  27.406  31.437  1.00  0.00     0.020 A 
ATOM     90  C   UNL A   1      46.957  28.207  30.370  1.00  0.00     0.054 A 
BRANCH  90  91
ATOM     91  S   UNL A   1      48.669  28.125  29.764  1.00  0.00     0.124 S 
ATOM     92  O   UNL A   1      48.847  29.434  29.143  1.00  0.00    -0.237 OA
ATOM     93  O   UNL A   1      49.413  27.910  31.005  1.00  0.00    -0.237 OA
ATOM     94  O   UNL A   1      48.647  26.990  28.846  1.00  0.00    -0.744 OA
ENDBRANCH  90  91
ENDBRANCH  62  85
BRANCH  74  95
ATOM     95  C   UNL A   1      42.757  35.646  33.359  1.00  0.00    -0.014 A 
ATOM     96  C   UNL A   1      42.540  36.509  34.444  1.00  0.00     0.010 A 
ATOM     97  C   UNL A   1      43.436  36.199  32.243  1.00  0.00     0.010 A 
ATOM     98  C   UNL A   1      42.922  37.860  34.397  1.00  0.00     0.020 A 
ATOM     99  C   UNL A   1      43.859  37.531  32.200  1.00  0.00     0.020 A 
ATOM    100  C   UNL A   1      43.574  38.364  33.274  1.00  0.00     0.054 A 
BRANCH 100 101
ATOM    101  S   UNL A   1      44.120  40.091  33.249  1.00  0.00     0.124 S 
ATOM    102  O   UNL A   1      44.970  40.122  32.062  1.00  0.00    -0.237 OA
ATOM    103  O   UNL A   1      42.863  40.831  33.137  1.00  0.00    -0.237 OA
ATOM    104  O   UNL A   1      44.813  40.250  34.524  1.00  0.00    -0.744 OA
ENDBRANCH 100 101
ENDBRANCH  74  95
ENDBRANCH  48  49
ENDBRANCH  40  43
ENDBRANCH  38  39
ENDBRANCH  37  38
ENDBRANCH   1  37
TORSDOF 20
ENDMDL
