MODEL 1
REMARK VINA RESULT:     -11.5      0.000      0.000
REMARK SMILES O=C(NCCCNC(=O)c1ccc(-c2c3nc(c(-c4ccc(S(=O)(=O)[O-])cc4)c4ccc([nH]4)c(-c4ccc(S(=O)(=O)[O-])cc4)c4nc(c(-c5ccc(S(=O)(=O)[O-])cc5)c5ccc2[nH]5)C=C4)C=C3)cc1)c1ccc(CN2CCCCC2=O)cc1
REMARK SMILES IDX 5 1 4 2 3 3 1 4 2 5 70 7 71 8 83 9 72 10 82 11 73 12 74 13
REMARK SMILES IDX 75 14 76 15 80 16 77 17 79 18 81 19 78 20 6 21 7 22 8 23
REMARK SMILES IDX 9 25 10 26 11 27 69 28 12 29 68 30 13 31 14 32 15 33 62 34
REMARK SMILES IDX 16 35 67 36 61 37 63 38 17 39 66 40 60 41 59 42 18 44 48 45
REMARK SMILES IDX 29 46 47 47 30 48 33 49 46 50 64 51 31 52 32 53 45 55 65 56
REMARK SMILES IDX 34 57 19 58 20 59 28 60 21 61 27 62 22 63 23 64 24 65 25 66
REMARK SMILES IDX 26 67 49 68 50 69 58 70 51 71 57 72 52 73 53 74 54 75 55 76
REMARK SMILES IDX 56 77 35 78 36 79 44 80 37 81 43 82 38 83 39 84 40 85 41 86
REMARK SMILES IDX 42 87
REMARK H PARENT 3 6 7 24 63 43 33 54
REMARK Flexibility Score: inf
ROOT
ATOM      1  C   UNL A   1      34.857  29.587  27.338  1.00  0.00     0.042 C 
ENDROOT
BRANCH   1   2
ATOM      2  C   UNL A   1      33.470  30.019  26.880  1.00  0.00     0.118 C 
BRANCH   2   3
ATOM      3  N   UNL A   1      33.317  29.966  25.432  1.00  0.00    -0.352 N 
ATOM      4  O   UNL A   1      33.104  28.983  23.408  1.00  0.00    -0.269 OA
ATOM      5  C   UNL A   1      33.029  28.888  24.630  1.00  0.00     0.251 C 
ATOM      6  H   UNL A   1      33.438  30.822  24.963  1.00  0.00     0.163 HD
BRANCH   5   7
ATOM      7  C   UNL A   1      32.631  27.607  25.244  1.00  0.00     0.039 A 
ATOM      8  C   UNL A   1      33.596  26.646  25.543  1.00  0.00     0.014 A 
ATOM      9  C   UNL A   1      31.286  27.367  25.534  1.00  0.00     0.014 A 
ATOM     10  C   UNL A   1      33.203  25.409  26.046  1.00  0.00     0.006 A 
ATOM     11  C   UNL A   1      30.894  26.122  26.041  1.00  0.00     0.006 A 
ATOM     12  C   UNL A   1      31.849  25.120  26.281  1.00  0.00    -0.029 A 
BRANCH  12  13
ATOM     13  C   UNL A   1      31.452  23.748  26.789  1.00  0.00     0.155 C 
BRANCH  13  14
ATOM     14  N   UNL A   1      32.198  22.657  26.160  1.00  0.00    -0.338 N 
ATOM     15  C   UNL A   1      31.864  22.304  24.786  1.00  0.00     0.120 C 
ATOM     16  C   UNL A   1      33.208  22.027  26.870  1.00  0.00     0.222 C 
ATOM     17  C   UNL A   1      32.306  20.894  24.429  1.00  0.00     0.022 C 
ATOM     18  C   UNL A   1      34.115  21.052  26.135  1.00  0.00     0.100 C 
ATOM     19  O   UNL A   1      33.393  22.219  28.074  1.00  0.00    -0.275 OA
ATOM     20  C   UNL A   1      33.796  20.788  24.674  1.00  0.00     0.012 C 
ENDBRANCH  13  14
ENDBRANCH  12  13
ENDBRANCH   5   7
ENDBRANCH   2   3
ENDBRANCH   1   2
BRANCH   1  21
ATOM     21  C   UNL A   1      35.631  30.655  28.099  1.00  0.00     0.118 C 
BRANCH  21  22
ATOM     22  N   UNL A   1      35.567  30.483  29.544  1.00  0.00    -0.352 N 
ATOM     23  C   UNL A   1      36.509  30.028  30.434  1.00  0.00     0.251 C 
ATOM     24  H   UNL A   1      34.705  30.734  29.951  1.00  0.00     0.163 HD
ATOM     25  O   UNL A   1      36.178  29.813  31.597  1.00  0.00    -0.269 OA
BRANCH  23  26
ATOM     26  C   UNL A   1      37.903  29.773  30.003  1.00  0.00     0.039 A 
ATOM     27  C   UNL A   1      38.851  29.419  30.968  1.00  0.00     0.014 A 
ATOM     28  C   UNL A   1      38.291  29.905  28.668  1.00  0.00     0.014 A 
ATOM     29  C   UNL A   1      40.163  29.129  30.584  1.00  0.00     0.010 A 
ATOM     30  C   UNL A   1      39.574  29.530  28.274  1.00  0.00     0.010 A 
ATOM     31  C   UNL A   1      40.526  29.143  29.228  1.00  0.00    -0.014 A 
BRANCH  31  32
ATOM     32  C   UNL A   1      41.894  28.755  28.791  1.00  0.00     0.031 A 
ATOM     33  C   UNL A   1      42.993  29.782  28.724  1.00  0.00     0.074 A 
ATOM     34  C   UNL A   1      42.132  27.487  28.397  1.00  0.00     0.049 A 
ATOM     35  N   UNL A   1      44.231  29.640  28.326  1.00  0.00    -0.248 NA
ATOM     36  C   UNL A   1      42.651  31.154  29.135  1.00  0.00     0.031 C 
ATOM     37  C   UNL A   1      41.143  26.408  28.369  1.00  0.00     0.029 A 
ATOM     38  N   UNL A   1      43.283  26.894  27.941  1.00  0.00    -0.354 N 
ATOM     39  C   UNL A   1      44.809  30.901  28.420  1.00  0.00     0.074 A 
ATOM     40  C   UNL A   1      43.771  31.807  28.864  1.00  0.00     0.031 C 
ATOM     41  C   UNL A   1      41.736  25.278  27.949  1.00  0.00     0.029 A 
ATOM     42  C   UNL A   1      43.135  25.560  27.641  1.00  0.00     0.049 A 
ATOM     43  H   UNL A   1      44.134  27.376  27.838  1.00  0.00     0.167 HD
ATOM     44  C   UNL A   1      46.089  31.271  28.180  1.00  0.00     0.031 A 
ATOM     45  C   UNL A   1      44.020  24.661  27.169  1.00  0.00     0.031 A 
ATOM     46  C   UNL A   1      47.124  30.367  27.751  1.00  0.00     0.049 A 
ATOM     47  C   UNL A   1      45.437  25.095  26.912  1.00  0.00     0.074 A 
ATOM     48  C   UNL A   1      48.465  30.634  27.534  1.00  0.00     0.029 A 
ATOM     49  N   UNL A   1      46.935  29.022  27.473  1.00  0.00    -0.354 N 
ATOM     50  N   UNL A   1      45.978  26.279  27.068  1.00  0.00    -0.248 NA
ATOM     51  C   UNL A   1      46.368  24.065  26.429  1.00  0.00     0.031 C 
ATOM     52  C   UNL A   1      49.077  29.461  27.078  1.00  0.00     0.029 A 
ATOM     53  C   UNL A   1      48.129  28.450  27.067  1.00  0.00     0.049 A 
ATOM     54  H   UNL A   1      46.078  28.543  27.551  1.00  0.00     0.167 HD
ATOM     55  C   UNL A   1      47.318  26.131  26.730  1.00  0.00     0.074 A 
ATOM     56  C   UNL A   1      47.508  24.739  26.375  1.00  0.00     0.031 C 
ATOM     57  C   UNL A   1      48.303  27.063  26.713  1.00  0.00     0.031 A 
BRANCH  44  58
ATOM     58  C   UNL A   1      46.443  32.723  28.373  1.00  0.00    -0.014 A 
ATOM     59  C   UNL A   1      46.943  33.191  29.604  1.00  0.00     0.010 A 
ATOM     60  C   UNL A   1      46.309  33.626  27.304  1.00  0.00     0.010 A 
ATOM     61  C   UNL A   1      47.259  34.541  29.773  1.00  0.00     0.020 A 
ATOM     62  C   UNL A   1      46.653  34.972  27.459  1.00  0.00     0.020 A 
ATOM     63  C   UNL A   1      47.108  35.425  28.700  1.00  0.00     0.054 A 
BRANCH  63  64
ATOM     64  S   UNL A   1      47.545  37.168  28.943  1.00  0.00     0.124 S 
ATOM     65  O   UNL A   1      47.297  37.728  27.617  1.00  0.00    -0.237 OA
ATOM     66  O   UNL A   1      46.616  37.590  29.987  1.00  0.00    -0.237 OA
ATOM     67  O   UNL A   1      48.949  37.121  29.345  1.00  0.00    -0.744 OA
ENDBRANCH  63  64
ENDBRANCH  44  58
BRANCH  45  68
ATOM     68  C   UNL A   1      43.596  23.255  26.929  1.00  0.00    -0.014 A 
ATOM     69  C   UNL A   1      43.209  22.432  28.001  1.00  0.00     0.010 A 
ATOM     70  C   UNL A   1      43.565  22.734  25.622  1.00  0.00     0.010 A 
ATOM     71  C   UNL A   1      42.816  21.111  27.775  1.00  0.00     0.020 A 
ATOM     72  C   UNL A   1      43.145  21.421  25.389  1.00  0.00     0.020 A 
ATOM     73  C   UNL A   1      42.784  20.613  26.469  1.00  0.00     0.054 A 
BRANCH  73  74
ATOM     74  S   UNL A   1      42.219  18.912  26.192  1.00  0.00     0.124 S 
ATOM     75  O   UNL A   1      42.301  18.342  27.533  1.00  0.00    -0.237 OA
ATOM     76  O   UNL A   1      40.871  19.108  25.667  1.00  0.00    -0.237 OA
ATOM     77  O   UNL A   1      43.182  18.385  25.227  1.00  0.00    -0.744 OA
ENDBRANCH  73  74
ENDBRANCH  45  68
BRANCH  57  78
ATOM     78  C   UNL A   1      49.685  26.601  26.334  1.00  0.00    -0.014 A 
ATOM     79  C   UNL A   1      50.527  25.970  27.268  1.00  0.00     0.010 A 
ATOM     80  C   UNL A   1      50.133  26.770  25.011  1.00  0.00     0.010 A 
ATOM     81  C   UNL A   1      51.808  25.554  26.894  1.00  0.00     0.020 A 
ATOM     82  C   UNL A   1      51.401  26.328  24.626  1.00  0.00     0.020 A 
ATOM     83  C   UNL A   1      52.238  25.739  25.576  1.00  0.00     0.054 A 
BRANCH  83  84
ATOM     84  S   UNL A   1      53.894  25.166  25.109  1.00  0.00     0.124 S 
ATOM     85  O   UNL A   1      53.661  23.748  24.847  1.00  0.00    -0.237 OA
ATOM     86  O   UNL A   1      54.197  25.980  23.934  1.00  0.00    -0.237 OA
ATOM     87  O   UNL A   1      54.707  25.457  26.287  1.00  0.00    -0.744 OA
ENDBRANCH  83  84
ENDBRANCH  57  78
ENDBRANCH  31  32
ENDBRANCH  23  26
ENDBRANCH  21  22
ENDBRANCH   1  21
TORSDOF 15
ENDMDL
MODEL 2
REMARK VINA RESULT:     -11.5      4.208      7.117
REMARK SMILES O=C(NCCCNC(=O)c1ccc(-c2c3nc(c(-c4ccc(S(=O)(=O)[O-])cc4)c4ccc([nH]4)c(-c4ccc(S(=O)(=O)[O-])cc4)c4nc(c(-c5ccc(S(=O)(=O)[O-])cc5)c5ccc2[nH]5)C=C4)C=C3)cc1)c1ccc(CN2CCCCC2=O)cc1
REMARK SMILES IDX 5 1 4 2 3 3 1 4 2 5 70 7 71 8 83 9 72 10 82 11 73 12 74 13
REMARK SMILES IDX 75 14 76 15 80 16 77 17 79 18 81 19 78 20 6 21 7 22 8 23
REMARK SMILES IDX 9 25 10 26 11 27 69 28 12 29 68 30 13 31 14 32 15 33 62 34
REMARK SMILES IDX 16 35 67 36 61 37 63 38 17 39 66 40 60 41 59 42 18 44 48 45
REMARK SMILES IDX 29 46 47 47 30 48 33 49 46 50 64 51 31 52 32 53 45 55 65 56
REMARK SMILES IDX 34 57 19 58 20 59 28 60 21 61 27 62 22 63 23 64 24 65 25 66
REMARK SMILES IDX 26 67 49 68 50 69 58 70 51 71 57 72 52 73 53 74 54 75 55 76
REMARK SMILES IDX 56 77 35 78 36 79 44 80 37 81 43 82 38 83 39 84 40 85 41 86
REMARK SMILES IDX 42 87
REMARK H PARENT 3 6 7 24 63 43 33 54
REMARK Flexibility Score: inf
ROOT
ATOM      1  C   UNL A   1      33.409  33.742  28.303  1.00  0.00     0.042 C 
ENDROOT
BRANCH   1   2
ATOM      2  C   UNL A   1      33.842  34.967  29.097  1.00  0.00     0.118 C 
BRANCH   2   3
ATOM      3  N   UNL A   1      32.941  35.262  30.204  1.00  0.00    -0.352 N 
ATOM      4  O   UNL A   1      32.135  35.120  32.311  1.00  0.00    -0.269 OA
ATOM      5  C   UNL A   1      33.071  34.945  31.535  1.00  0.00     0.251 C 
ATOM      6  H   UNL A   1      32.126  35.758  29.964  1.00  0.00     0.163 HD
BRANCH   5   7
ATOM      7  C   UNL A   1      34.342  34.385  32.032  1.00  0.00     0.039 A 
ATOM      8  C   UNL A   1      35.355  35.236  32.472  1.00  0.00     0.014 A 
ATOM      9  C   UNL A   1      34.520  33.001  32.070  1.00  0.00     0.014 A 
ATOM     10  C   UNL A   1      36.580  34.704  32.862  1.00  0.00     0.006 A 
ATOM     11  C   UNL A   1      35.753  32.468  32.465  1.00  0.00     0.006 A 
ATOM     12  C   UNL A   1      36.806  33.317  32.844  1.00  0.00    -0.029 A 
BRANCH  12  13
ATOM     13  C   UNL A   1      38.166  32.773  33.235  1.00  0.00     0.155 C 
BRANCH  13  14
ATOM     14  N   UNL A   1      38.693  33.359  34.469  1.00  0.00    -0.338 N 
ATOM     15  C   UNL A   1      39.697  34.409  34.351  1.00  0.00     0.120 C 
ATOM     16  C   UNL A   1      38.204  32.925  35.690  1.00  0.00     0.222 C 
ATOM     17  C   UNL A   1      40.516  34.569  35.621  1.00  0.00     0.022 C 
ATOM     18  C   UNL A   1      38.597  33.689  36.944  1.00  0.00     0.100 C 
ATOM     19  O   UNL A   1      37.471  31.939  35.800  1.00  0.00    -0.275 OA
ATOM     20  C   UNL A   1      39.567  34.845  36.766  1.00  0.00     0.012 C 
ENDBRANCH  13  14
ENDBRANCH  12  13
ENDBRANCH   5   7
ENDBRANCH   2   3
ENDBRANCH   1   2
BRANCH   1  21
ATOM     21  C   UNL A   1      34.415  32.598  28.310  1.00  0.00     0.118 C 
BRANCH  21  22
ATOM     22  N   UNL A   1      33.820  31.314  27.966  1.00  0.00    -0.352 N 
ATOM     23  C   UNL A   1      34.392  30.076  27.810  1.00  0.00     0.251 C 
ATOM     24  H   UNL A   1      32.845  31.338  27.821  1.00  0.00     0.163 HD
ATOM     25  O   UNL A   1      33.715  29.157  27.356  1.00  0.00    -0.269 OA
BRANCH  23  26
ATOM     26  C   UNL A   1      35.813  29.844  28.158  1.00  0.00     0.039 A 
ATOM     27  C   UNL A   1      36.130  29.437  29.458  1.00  0.00     0.014 A 
ATOM     28  C   UNL A   1      36.835  30.048  27.229  1.00  0.00     0.014 A 
ATOM     29  C   UNL A   1      37.457  29.168  29.800  1.00  0.00     0.010 A 
ATOM     30  C   UNL A   1      38.145  29.694  27.544  1.00  0.00     0.010 A 
ATOM     31  C   UNL A   1      38.473  29.256  28.834  1.00  0.00    -0.014 A 
BRANCH  31  32
ATOM     32  C   UNL A   1      39.878  28.892  29.157  1.00  0.00     0.031 A 
ATOM     33  C   UNL A   1      40.794  29.891  29.814  1.00  0.00     0.074 A 
ATOM     34  C   UNL A   1      40.349  27.678  28.804  1.00  0.00     0.049 A 
ATOM     35  N   UNL A   1      42.058  29.769  30.129  1.00  0.00    -0.248 NA
ATOM     36  C   UNL A   1      40.221  31.208  30.138  1.00  0.00     0.031 C 
ATOM     37  C   UNL A   1      39.580  26.636  28.120  1.00  0.00     0.029 A 
ATOM     38  N   UNL A   1      41.591  27.118  28.969  1.00  0.00    -0.354 N 
ATOM     39  C   UNL A   1      42.436  30.993  30.668  1.00  0.00     0.074 A 
ATOM     40  C   UNL A   1      41.281  31.861  30.591  1.00  0.00     0.031 C 
ATOM     41  C   UNL A   1      40.357  25.553  27.952  1.00  0.00     0.029 A 
ATOM     42  C   UNL A   1      41.689  25.836  28.479  1.00  0.00     0.049 A 
ATOM     43  H   UNL A   1      42.342  27.588  29.397  1.00  0.00     0.167 HD
ATOM     44  C   UNL A   1      43.627  31.358  31.199  1.00  0.00     0.031 A 
ATOM     45  C   UNL A   1      42.730  24.982  28.452  1.00  0.00     0.031 A 
ATOM     46  C   UNL A   1      44.771  30.489  31.287  1.00  0.00     0.049 A 
ATOM     47  C   UNL A   1      44.043  25.409  29.049  1.00  0.00     0.074 A 
ATOM     48  C   UNL A   1      46.006  30.747  31.858  1.00  0.00     0.029 A 
ATOM     49  N   UNL A   1      44.823  29.195  30.792  1.00  0.00    -0.354 N 
ATOM     50  N   UNL A   1      44.360  26.550  29.612  1.00  0.00    -0.248 NA
ATOM     51  C   UNL A   1      45.134  24.425  29.021  1.00  0.00     0.031 C 
ATOM     52  C   UNL A   1      46.821  29.626  31.664  1.00  0.00     0.029 A 
ATOM     53  C   UNL A   1      46.075  28.649  31.025  1.00  0.00     0.049 A 
ATOM     54  H   UNL A   1      44.081  28.732  30.340  1.00  0.00     0.167 HD
ATOM     55  C   UNL A   1      45.679  26.412  30.030  1.00  0.00     0.074 A 
ATOM     56  C   UNL A   1      46.094  25.071  29.669  1.00  0.00     0.031 C 
ATOM     57  C   UNL A   1      46.475  27.314  30.657  1.00  0.00     0.031 A 
BRANCH  44  58
ATOM     58  C   UNL A   1      43.754  32.764  31.724  1.00  0.00    -0.014 A 
ATOM     59  C   UNL A   1      43.513  33.057  33.080  1.00  0.00     0.010 A 
ATOM     60  C   UNL A   1      44.153  33.801  30.863  1.00  0.00     0.010 A 
ATOM     61  C   UNL A   1      43.626  34.367  33.553  1.00  0.00     0.020 A 
ATOM     62  C   UNL A   1      44.298  35.108  31.338  1.00  0.00     0.020 A 
ATOM     63  C   UNL A   1      44.014  35.386  32.677  1.00  0.00     0.054 A 
BRANCH  63  64
ATOM     64  S   UNL A   1      44.172  37.073  33.324  1.00  0.00     0.124 S 
ATOM     65  O   UNL A   1      44.260  37.859  32.096  1.00  0.00    -0.237 OA
ATOM     66  O   UNL A   1      42.941  37.240  34.091  1.00  0.00    -0.237 OA
ATOM     67  O   UNL A   1      45.396  37.026  34.121  1.00  0.00    -0.744 OA
ENDBRANCH  63  64
ENDBRANCH  44  58
BRANCH  45  68
ATOM     68  C   UNL A   1      42.567  23.629  27.855  1.00  0.00    -0.014 A 
ATOM     69  C   UNL A   1      42.869  23.405  26.500  1.00  0.00     0.010 A 
ATOM     70  C   UNL A   1      42.121  22.552  28.643  1.00  0.00     0.010 A 
ATOM     71  C   UNL A   1      42.710  22.135  25.939  1.00  0.00     0.020 A 
ATOM     72  C   UNL A   1      41.988  21.274  28.092  1.00  0.00     0.020 A 
ATOM     73  C   UNL A   1      42.272  21.076  26.739  1.00  0.00     0.054 A 
BRANCH  73  74
ATOM     74  S   UNL A   1      42.126  19.424  26.004  1.00  0.00     0.124 S 
ATOM     75  O   UNL A   1      40.688  19.321  25.773  1.00  0.00    -0.237 OA
ATOM     76  O   UNL A   1      42.955  19.535  24.808  1.00  0.00    -0.237 OA
ATOM     77  O   UNL A   1      42.659  18.541  27.040  1.00  0.00    -0.744 OA
ENDBRANCH  73  74
ENDBRANCH  45  68
BRANCH  57  78
ATOM     78  C   UNL A   1      47.866  26.868  31.026  1.00  0.00    -0.014 A 
ATOM     79  C   UNL A   1      48.129  26.237  32.255  1.00  0.00     0.010 A 
ATOM     80  C   UNL A   1      48.918  27.054  30.111  1.00  0.00     0.010 A 
ATOM     81  C   UNL A   1      49.428  25.836  32.578  1.00  0.00     0.020 A 
ATOM     82  C   UNL A   1      50.213  26.628  30.418  1.00  0.00     0.020 A 
ATOM     83  C   UNL A   1      50.463  26.038  31.659  1.00  0.00     0.054 A 
BRANCH  83  84
ATOM     84  S   UNL A   1      52.136  25.485  32.090  1.00  0.00     0.124 S 
ATOM     85  O   UNL A   1      52.423  26.287  33.275  1.00  0.00    -0.237 OA
ATOM     86  O   UNL A   1      51.950  24.055  32.328  1.00  0.00    -0.237 OA
ATOM     87  O   UNL A   1      52.925  25.816  30.906  1.00  0.00    -0.744 OA
ENDBRANCH  83  84
ENDBRANCH  57  78
ENDBRANCH  31  32
ENDBRANCH  23  26
ENDBRANCH  21  22
ENDBRANCH   1  21
TORSDOF 15
ENDMDL
MODEL 3
REMARK VINA RESULT:     -11.5      3.198      3.948
REMARK SMILES O=C(NCCCNC(=O)c1ccc(-c2c3nc(c(-c4ccc(S(=O)(=O)[O-])cc4)c4ccc([nH]4)c(-c4ccc(S(=O)(=O)[O-])cc4)c4nc(c(-c5ccc(S(=O)(=O)[O-])cc5)c5ccc2[nH]5)C=C4)C=C3)cc1)c1ccc(CN2CCCCC2=O)cc1
REMARK SMILES IDX 5 1 4 2 3 3 1 4 2 5 70 7 71 8 83 9 72 10 82 11 73 12 74 13
REMARK SMILES IDX 75 14 76 15 80 16 77 17 79 18 81 19 78 20 6 21 7 22 8 23
REMARK SMILES IDX 9 25 10 26 11 27 69 28 12 29 68 30 13 31 14 32 15 33 62 34
REMARK SMILES IDX 16 35 67 36 61 37 63 38 17 39 66 40 60 41 59 42 18 44 48 45
REMARK SMILES IDX 29 46 47 47 30 48 33 49 46 50 64 51 31 52 32 53 45 55 65 56
REMARK SMILES IDX 34 57 19 58 20 59 28 60 21 61 27 62 22 63 23 64 24 65 25 66
REMARK SMILES IDX 26 67 49 68 50 69 58 70 51 71 57 72 52 73 53 74 54 75 55 76
REMARK SMILES IDX 56 77 35 78 36 79 44 80 37 81 43 82 38 83 39 84 40 85 41 86
REMARK SMILES IDX 42 87
REMARK H PARENT 3 6 7 24 63 43 33 54
REMARK Flexibility Score: inf
ROOT
ATOM      1  C   UNL A   1      33.955  28.489  25.769  1.00  0.00     0.042 C 
ENDROOT
BRANCH   1   2
ATOM      2  C   UNL A   1      33.129  29.371  24.842  1.00  0.00     0.118 C 
BRANCH   2   3
ATOM      3  N   UNL A   1      33.571  29.292  23.456  1.00  0.00    -0.352 N 
ATOM      4  O   UNL A   1      34.200  28.273  21.538  1.00  0.00    -0.269 OA
ATOM      5  C   UNL A   1      33.641  28.196  22.630  1.00  0.00     0.251 C 
ATOM      6  H   UNL A   1      33.858  30.143  23.055  1.00  0.00     0.163 HD
BRANCH   5   7
ATOM      7  C   UNL A   1      33.046  26.917  23.062  1.00  0.00     0.039 A 
ATOM      8  C   UNL A   1      31.666  26.728  22.991  1.00  0.00     0.014 A 
ATOM      9  C   UNL A   1      33.872  25.893  23.530  1.00  0.00     0.014 A 
ATOM     10  C   UNL A   1      31.106  25.551  23.476  1.00  0.00     0.006 A 
ATOM     11  C   UNL A   1      33.306  24.709  24.017  1.00  0.00     0.006 A 
ATOM     12  C   UNL A   1      31.912  24.534  24.015  1.00  0.00    -0.029 A 
BRANCH  12  13
ATOM     13  C   UNL A   1      31.266  23.282  24.574  1.00  0.00     0.155 C 
BRANCH  13  14
ATOM     14  N   UNL A   1      32.091  22.597  25.571  1.00  0.00    -0.338 N 
ATOM     15  C   UNL A   1      32.975  21.533  25.112  1.00  0.00     0.120 C 
ATOM     16  C   UNL A   1      32.031  23.001  26.896  1.00  0.00     0.222 C 
ATOM     17  C   UNL A   1      33.370  20.588  26.235  1.00  0.00     0.022 C 
ATOM     18  C   UNL A   1      33.047  22.435  27.875  1.00  0.00     0.100 C 
ATOM     19  O   UNL A   1      31.182  23.793  27.311  1.00  0.00    -0.275 OA
ATOM     20  C   UNL A   1      34.019  21.402  27.333  1.00  0.00     0.012 C 
ENDBRANCH  13  14
ENDBRANCH  12  13
ENDBRANCH   5   7
ENDBRANCH   2   3
ENDBRANCH   1   2
BRANCH   1  21
ATOM     21  C   UNL A   1      33.645  28.668  27.250  1.00  0.00     0.118 C 
BRANCH  21  22
ATOM     22  N   UNL A   1      33.601  30.065  27.658  1.00  0.00    -0.352 N 
ATOM     23  C   UNL A   1      34.528  30.834  28.319  1.00  0.00     0.251 C 
ATOM     24  H   UNL A   1      32.770  30.537  27.420  1.00  0.00     0.163 HD
ATOM     25  O   UNL A   1      34.208  31.956  28.704  1.00  0.00    -0.269 OA
BRANCH  23  26
ATOM     26  C   UNL A   1      35.889  30.319  28.593  1.00  0.00     0.039 A 
ATOM     27  C   UNL A   1      36.849  30.383  27.578  1.00  0.00     0.014 A 
ATOM     28  C   UNL A   1      36.222  29.752  29.825  1.00  0.00     0.014 A 
ATOM     29  C   UNL A   1      38.154  29.946  27.823  1.00  0.00     0.010 A 
ATOM     30  C   UNL A   1      37.542  29.400  30.097  1.00  0.00     0.010 A 
ATOM     31  C   UNL A   1      38.522  29.487  29.098  1.00  0.00    -0.014 A 
BRANCH  31  32
ATOM     32  C   UNL A   1      39.924  29.098  29.403  1.00  0.00     0.031 A 
ATOM     33  C   UNL A   1      40.861  30.074  30.065  1.00  0.00     0.074 A 
ATOM     34  C   UNL A   1      40.374  27.882  29.028  1.00  0.00     0.049 A 
ATOM     35  N   UNL A   1      42.126  29.929  30.366  1.00  0.00    -0.248 NA
ATOM     36  C   UNL A   1      40.311  31.395  30.413  1.00  0.00     0.031 C 
ATOM     37  C   UNL A   1      39.583  26.861  28.337  1.00  0.00     0.029 A 
ATOM     38  N   UNL A   1      41.609  27.301  29.173  1.00  0.00    -0.354 N 
ATOM     39  C   UNL A   1      42.527  31.139  30.918  1.00  0.00     0.074 A 
ATOM     40  C   UNL A   1      41.384  32.026  30.864  1.00  0.00     0.031 C 
ATOM     41  C   UNL A   1      40.343  25.770  28.147  1.00  0.00     0.029 A 
ATOM     42  C   UNL A   1      41.683  26.026  28.665  1.00  0.00     0.049 A 
ATOM     43  H   UNL A   1      42.371  27.754  29.601  1.00  0.00     0.167 HD
ATOM     44  C   UNL A   1      43.728  31.479  31.443  1.00  0.00     0.031 A 
ATOM     45  C   UNL A   1      42.712  25.157  28.616  1.00  0.00     0.031 A 
ATOM     46  C   UNL A   1      44.860  30.593  31.508  1.00  0.00     0.049 A 
ATOM     47  C   UNL A   1      44.036  25.556  29.207  1.00  0.00     0.074 A 
ATOM     48  C   UNL A   1      46.104  30.825  32.071  1.00  0.00     0.029 A 
ATOM     49  N   UNL A   1      44.888  29.305  30.995  1.00  0.00    -0.354 N 
ATOM     50  N   UNL A   1      44.376  26.685  29.782  1.00  0.00    -0.248 NA
ATOM     51  C   UNL A   1      45.112  24.557  29.155  1.00  0.00     0.031 C 
ATOM     52  C   UNL A   1      46.900  29.694  31.854  1.00  0.00     0.029 A 
ATOM     53  C   UNL A   1      46.134  28.737  31.208  1.00  0.00     0.049 A 
ATOM     54  H   UNL A   1      44.135  28.860  30.544  1.00  0.00     0.167 HD
ATOM     55  C   UNL A   1      45.696  26.521  30.186  1.00  0.00     0.074 A 
ATOM     56  C   UNL A   1      46.087  25.179  29.803  1.00  0.00     0.031 C 
ATOM     57  C   UNL A   1      46.511  27.402  30.818  1.00  0.00     0.031 A 
BRANCH  44  58
ATOM     58  C   UNL A   1      43.881  32.876  31.987  1.00  0.00    -0.014 A 
ATOM     59  C   UNL A   1      44.140  33.964  31.131  1.00  0.00     0.010 A 
ATOM     60  C   UNL A   1      43.728  33.113  33.364  1.00  0.00     0.010 A 
ATOM     61  C   UNL A   1      44.287  35.253  31.649  1.00  0.00     0.020 A 
ATOM     62  C   UNL A   1      43.845  34.406  33.883  1.00  0.00     0.020 A 
ATOM     63  C   UNL A   1      44.143  35.466  33.023  1.00  0.00     0.054 A 
BRANCH  63  64
ATOM     64  S   UNL A   1      44.319  37.153  33.664  1.00  0.00     0.124 S 
ATOM     65  O   UNL A   1      43.687  37.943  32.611  1.00  0.00    -0.237 OA
ATOM     66  O   UNL A   1      43.591  37.095  34.928  1.00  0.00    -0.237 OA
ATOM     67  O   UNL A   1      45.764  37.327  33.790  1.00  0.00    -0.744 OA
ENDBRANCH  63  64
ENDBRANCH  44  58
BRANCH  45  68
ATOM     68  C   UNL A   1      42.523  23.815  28.002  1.00  0.00    -0.014 A 
ATOM     69  C   UNL A   1      42.721  23.626  26.623  1.00  0.00     0.010 A 
ATOM     70  C   UNL A   1      42.155  22.713  28.796  1.00  0.00     0.010 A 
ATOM     71  C   UNL A   1      42.539  22.366  26.046  1.00  0.00     0.020 A 
ATOM     72  C   UNL A   1      42.000  21.445  28.227  1.00  0.00     0.020 A 
ATOM     73  C   UNL A   1      42.180  21.282  26.853  1.00  0.00     0.054 A 
BRANCH  73  74
ATOM     74  S   UNL A   1      42.002  19.645  26.092  1.00  0.00     0.124 S 
ATOM     75  O   UNL A   1      42.911  19.738  24.954  1.00  0.00    -0.237 OA
ATOM     76  O   UNL A   1      42.420  18.750  27.167  1.00  0.00    -0.237 OA
ATOM     77  O   UNL A   1      40.580  19.578  25.756  1.00  0.00    -0.744 OA
ENDBRANCH  73  74
ENDBRANCH  45  68
BRANCH  57  78
ATOM     78  C   UNL A   1      47.898  26.931  31.167  1.00  0.00    -0.014 A 
ATOM     79  C   UNL A   1      48.956  27.028  30.246  1.00  0.00     0.010 A 
ATOM     80  C   UNL A   1      48.152  26.417  32.452  1.00  0.00     0.010 A 
ATOM     81  C   UNL A   1      50.235  26.580  30.591  1.00  0.00     0.020 A 
ATOM     82  C   UNL A   1      49.435  25.996  32.811  1.00  0.00     0.020 A 
ATOM     83  C   UNL A   1      50.465  26.063  31.870  1.00  0.00     0.054 A 
BRANCH  83  84
ATOM     84  S   UNL A   1      52.138  25.514  32.303  1.00  0.00     0.124 S 
ATOM     85  O   UNL A   1      52.044  24.071  32.103  1.00  0.00    -0.237 OA
ATOM     86  O   UNL A   1      52.971  26.230  31.340  1.00  0.00    -0.237 OA
ATOM     87  O   UNL A   1      52.294  25.942  33.691  1.00  0.00    -0.744 OA
ENDBRANCH  83  84
ENDBRANCH  57  78
ENDBRANCH  31  32
ENDBRANCH  23  26
ENDBRANCH  21  22
ENDBRANCH   1  21
TORSDOF 15
ENDMDL
