MODEL 1
REMARK VINA RESULT:     -12.4      0.000      0.000
REMARK SMILES O=C(NCCCNC(=O)c1ccc(-c2c3nc(c(-c4ccc(S(=O)(=O)[O-])cc4)c4ccc([nH]4)c(-c4ccc(S(=O)(=O)[O-])cc4)c4nc(c(-c5ccc(S(=O)(=O)[O-])cc5)c5ccc2[nH]5)C=C4)C=C3)cc1)C1=Cc2cc(S(F)(F)(F)(F)F)ccc2O[C@H]1C(F)(F)F
REMARK SMILES IDX 6 1 5 2 4 3 3 4 1 5 2 6 70 8 71 9 85 10 72 11 84 12 73 13
REMARK SMILES IDX 83 14 74 15 82 16 81 17 86 18 87 19 88 20 89 21 75 22 76 23
REMARK SMILES IDX 77 24 78 25 79 26 80 27 7 28 8 29 9 31 10 32 11 33 69 34
REMARK SMILES IDX 12 35 68 36 13 37 14 38 15 39 62 40 16 41 67 42 61 43 63 44
REMARK SMILES IDX 17 45 66 46 60 47 59 48 18 50 48 51 29 52 47 53 30 54 33 55
REMARK SMILES IDX 46 56 64 57 31 58 32 59 45 61 65 62 34 63 19 64 20 65 28 66
REMARK SMILES IDX 21 67 27 68 22 69 23 70 24 71 25 72 26 73 49 74 50 75 58 76
REMARK SMILES IDX 51 77 57 78 52 79 53 80 54 81 55 82 56 83 35 84 36 85 44 86
REMARK SMILES IDX 37 87 43 88 38 89 39 90 40 91 41 92 42 93
REMARK H PARENT 3 7 7 30 63 49 33 60
REMARK Flexibility Score: inf
ROOT
ATOM      1  C   UNL A   1      33.719  28.282  27.252  1.00  0.00     0.118 C 
ENDROOT
BRANCH   1   2
ATOM      2  C   UNL A   1      33.775  28.027  25.755  1.00  0.00     0.042 C 
BRANCH   2   3
ATOM      3  C   UNL A   1      33.232  26.639  25.456  1.00  0.00     0.118 C 
BRANCH   3   4
ATOM      4  N   UNL A   1      32.171  26.310  26.419  1.00  0.00    -0.352 N 
ATOM      5  O   UNL A   1      30.186  25.087  26.876  1.00  0.00    -0.270 OA
ATOM      6  C   UNL A   1      31.103  25.372  26.044  1.00  0.00     0.251 C 
ATOM      7  H   UNL A   1      32.176  26.718  27.315  1.00  0.00     0.163 HD
BRANCH   6   8
ATOM      8  C   UNL A   1      31.096  24.743  24.660  1.00  0.00     0.067 C 
ATOM      9  C   UNL A   1      31.938  23.713  24.377  1.00  0.00     0.025 C 
ATOM     10  C   UNL A   1      30.148  25.265  23.593  1.00  0.00     0.314 C 
ATOM     11  C   UNL A   1      32.886  23.191  25.444  1.00  0.00     0.019 A 
ATOM     12  O   UNL A   1      31.205  23.495  27.096  1.00  0.00    -0.475 OA
ATOM     13  C   UNL A   1      34.167  22.837  25.052  1.00  0.00     0.036 A 
ATOM     14  C   UNL A   1      32.461  22.977  26.683  1.00  0.00     0.128 A 
ATOM     15  C   UNL A   1      34.834  21.992  25.971  1.00  0.00     0.107 A 
ATOM     16  C   UNL A   1      33.225  22.259  27.571  1.00  0.00     0.048 A 
ATOM     17  C   UNL A   1      34.477  21.827  27.232  1.00  0.00     0.028 A 
BRANCH  10  18
ATOM     18  C   UNL A   1      29.324  26.409  24.163  1.00  0.00     0.429 C 
ATOM     19  F   UNL A   1      30.126  27.349  24.652  1.00  0.00    -0.167 F 
ATOM     20  F   UNL A   1      28.584  26.922  23.183  1.00  0.00    -0.167 F 
ATOM     21  F   UNL A   1      28.529  25.957  25.128  1.00  0.00    -0.167 F 
ENDBRANCH  10  18
BRANCH  15  22
ATOM     22  S   UNL A   1      36.277  21.076  25.377  1.00  0.00     0.310 S 
ATOM     23  F   UNL A   1      36.251  21.823  23.977  1.00  0.00    -0.094 F 
ATOM     24  F   UNL A   1      35.301  20.010  24.748  1.00  0.00    -0.094 F 
ATOM     25  F   UNL A   1      37.515  20.287  24.863  1.00  0.00    -0.094 F 
ATOM     26  F   UNL A   1      37.232  22.225  25.890  1.00  0.00    -0.094 F 
ATOM     27  F   UNL A   1      35.028  21.944  25.804  1.00  0.00    -0.094 F 
ENDBRANCH  15  22
ENDBRANCH   6   8
ENDBRANCH   3   4
ENDBRANCH   2   3
ENDBRANCH   1   2
BRANCH   1  28
ATOM     28  N   UNL A   1      33.440  29.704  27.497  1.00  0.00    -0.352 N 
ATOM     29  C   UNL A   1      34.502  30.585  28.001  1.00  0.00     0.251 C 
ATOM     30  H   UNL A   1      32.542  30.067  27.323  1.00  0.00     0.163 HD
ATOM     31  O   UNL A   1      34.262  31.815  28.213  1.00  0.00    -0.269 OA
BRANCH  29  32
ATOM     32  C   UNL A   1      35.890  30.026  28.269  1.00  0.00     0.039 A 
ATOM     33  C   UNL A   1      36.239  29.656  29.558  1.00  0.00     0.014 A 
ATOM     34  C   UNL A   1      36.791  30.058  27.295  1.00  0.00     0.014 A 
ATOM     35  C   UNL A   1      37.635  29.613  29.785  1.00  0.00     0.010 A 
ATOM     36  C   UNL A   1      38.125  29.873  27.569  1.00  0.00     0.010 A 
ATOM     37  C   UNL A   1      38.547  29.563  28.832  1.00  0.00    -0.014 A 
BRANCH  37  38
ATOM     38  C   UNL A   1      39.989  29.179  29.123  1.00  0.00     0.031 A 
ATOM     39  C   UNL A   1      40.368  27.877  28.795  1.00  0.00     0.074 A 
ATOM     40  C   UNL A   1      40.870  30.158  29.550  1.00  0.00     0.049 A 
ATOM     41  N   UNL A   1      41.599  27.363  28.797  1.00  0.00    -0.248 NA
ATOM     42  C   UNL A   1      39.429  26.826  28.374  1.00  0.00     0.031 C 
ATOM     43  C   UNL A   1      40.496  31.477  29.876  1.00  0.00     0.029 A 
ATOM     44  N   UNL A   1      42.230  30.047  29.738  1.00  0.00    -0.354 N 
ATOM     45  C   UNL A   1      41.567  26.088  28.404  1.00  0.00     0.074 A 
ATOM     46  C   UNL A   1      40.170  25.723  28.133  1.00  0.00     0.031 C 
ATOM     47  C   UNL A   1      41.613  32.147  30.265  1.00  0.00     0.029 A 
ATOM     48  C   UNL A   1      42.703  31.260  30.187  1.00  0.00     0.049 A 
ATOM     49  H   UNL A   1      42.772  29.241  29.576  1.00  0.00     0.167 HD
ATOM     50  C   UNL A   1      42.648  25.216  28.260  1.00  0.00     0.031 A 
ATOM     51  C   UNL A   1      44.007  31.593  30.518  1.00  0.00     0.031 A 
ATOM     52  C   UNL A   1      43.958  25.562  28.550  1.00  0.00     0.049 A 
ATOM     53  C   UNL A   1      45.080  30.703  30.431  1.00  0.00     0.074 A 
ATOM     54  C   UNL A   1      45.059  24.698  28.404  1.00  0.00     0.029 A 
ATOM     55  N   UNL A   1      44.427  26.767  29.024  1.00  0.00    -0.354 N 
ATOM     56  N   UNL A   1      45.053  29.440  30.000  1.00  0.00    -0.248 NA
ATOM     57  C   UNL A   1      46.460  31.034  30.810  1.00  0.00     0.031 C 
ATOM     58  C   UNL A   1      46.176  25.370  28.792  1.00  0.00     0.029 A 
ATOM     59  C   UNL A   1      45.790  26.664  29.188  1.00  0.00     0.049 A 
ATOM     60  H   UNL A   1      43.882  27.566  29.212  1.00  0.00     0.167 HD
ATOM     61  C   UNL A   1      46.279  28.915  30.042  1.00  0.00     0.074 A 
ATOM     62  C   UNL A   1      47.201  29.930  30.570  1.00  0.00     0.031 C 
ATOM     63  C   UNL A   1      46.667  27.630  29.658  1.00  0.00     0.031 A 
BRANCH  50  64
ATOM     64  C   UNL A   1      42.371  23.809  27.757  1.00  0.00    -0.014 A 
ATOM     65  C   UNL A   1      42.099  22.784  28.648  1.00  0.00     0.010 A 
ATOM     66  C   UNL A   1      42.432  23.588  26.449  1.00  0.00     0.010 A 
ATOM     67  C   UNL A   1      42.192  21.491  28.079  1.00  0.00     0.020 A 
ATOM     68  C   UNL A   1      42.379  22.307  25.953  1.00  0.00     0.020 A 
ATOM     69  C   UNL A   1      42.173  21.240  26.783  1.00  0.00     0.054 A 
BRANCH  69  70
ATOM     70  S   UNL A   1      41.887  19.572  26.138  1.00  0.00     0.124 S 
ATOM     71  O   UNL A   1      40.413  19.421  25.751  1.00  0.00    -0.237 OA
ATOM     72  O   UNL A   1      42.764  19.343  24.906  1.00  0.00    -0.237 OA
ATOM     73  O   UNL A   1      42.280  18.422  27.341  1.00  0.00    -0.744 OA
ENDBRANCH  69  70
ENDBRANCH  50  64
BRANCH  51  74
ATOM     74  C   UNL A   1      44.285  33.006  31.006  1.00  0.00    -0.014 A 
ATOM     75  C   UNL A   1      44.633  34.004  30.111  1.00  0.00     0.010 A 
ATOM     76  C   UNL A   1      44.153  33.259  32.303  1.00  0.00     0.010 A 
ATOM     77  C   UNL A   1      45.107  35.186  30.727  1.00  0.00     0.020 A 
ATOM     78  C   UNL A   1      44.509  34.482  32.816  1.00  0.00     0.020 A 
ATOM     79  C   UNL A   1      44.918  35.496  31.997  1.00  0.00     0.054 A 
BRANCH  79  80
ATOM     80  S   UNL A   1      45.187  37.175  32.617  1.00  0.00     0.124 S 
ATOM     81  O   UNL A   1      46.293  37.157  33.675  1.00  0.00    -0.237 OA
ATOM     82  O   UNL A   1      45.603  38.087  31.461  1.00  0.00    -0.237 OA
ATOM     83  O   UNL A   1      43.741  37.763  33.315  1.00  0.00    -0.744 OA
ENDBRANCH  79  80
ENDBRANCH  51  74
BRANCH  63  84
ATOM     84  C   UNL A   1      48.140  27.269  29.759  1.00  0.00    -0.014 A 
ATOM     85  C   UNL A   1      48.645  26.774  30.951  1.00  0.00     0.010 A 
ATOM     86  C   UNL A   1      48.941  27.566  28.743  1.00  0.00     0.010 A 
ATOM     87  C   UNL A   1      50.048  26.901  31.076  1.00  0.00     0.020 A 
ATOM     88  C   UNL A   1      50.306  27.539  28.897  1.00  0.00     0.020 A 
ATOM     89  C   UNL A   1      50.873  27.117  30.067  1.00  0.00     0.054 A 
BRANCH  89  90
ATOM     90  S   UNL A   1      52.660  26.868  30.227  1.00  0.00     0.124 S 
ATOM     91  O   UNL A   1      53.241  26.463  28.871  1.00  0.00    -0.237 OA
ATOM     92  O   UNL A   1      53.315  28.168  30.696  1.00  0.00    -0.237 OA
ATOM     93  O   UNL A   1      52.961  25.632  31.370  1.00  0.00    -0.744 OA
ENDBRANCH  89  90
ENDBRANCH  63  84
ENDBRANCH  37  38
ENDBRANCH  29  32
ENDBRANCH   1  28
TORSDOF 15
ENDMDL
MODEL 2
REMARK VINA RESULT:     -12.1      1.311      1.773
REMARK SMILES O=C(NCCCNC(=O)c1ccc(-c2c3nc(c(-c4ccc(S(=O)(=O)[O-])cc4)c4ccc([nH]4)c(-c4ccc(S(=O)(=O)[O-])cc4)c4nc(c(-c5ccc(S(=O)(=O)[O-])cc5)c5ccc2[nH]5)C=C4)C=C3)cc1)C1=Cc2cc(S(F)(F)(F)(F)F)ccc2O[C@H]1C(F)(F)F
REMARK SMILES IDX 6 1 5 2 4 3 3 4 1 5 2 6 70 8 71 9 85 10 72 11 84 12 73 13
REMARK SMILES IDX 83 14 74 15 82 16 81 17 86 18 87 19 88 20 89 21 75 22 76 23
REMARK SMILES IDX 77 24 78 25 79 26 80 27 7 28 8 29 9 31 10 32 11 33 69 34
REMARK SMILES IDX 12 35 68 36 13 37 14 38 15 39 62 40 16 41 67 42 61 43 63 44
REMARK SMILES IDX 17 45 66 46 60 47 59 48 18 50 48 51 29 52 47 53 30 54 33 55
REMARK SMILES IDX 46 56 64 57 31 58 32 59 45 61 65 62 34 63 19 64 20 65 28 66
REMARK SMILES IDX 21 67 27 68 22 69 23 70 24 71 25 72 26 73 49 74 50 75 58 76
REMARK SMILES IDX 51 77 57 78 52 79 53 80 54 81 55 82 56 83 35 84 36 85 44 86
REMARK SMILES IDX 37 87 43 88 38 89 39 90 40 91 41 92 42 93
REMARK H PARENT 3 7 7 30 63 49 33 60
REMARK Flexibility Score: inf
ROOT
ATOM      1  C   UNL A   1      33.349  28.117  27.072  1.00  0.00     0.118 C 
ENDROOT
BRANCH   1   2
ATOM      2  C   UNL A   1      32.081  27.285  26.973  1.00  0.00     0.042 C 
BRANCH   2   3
ATOM      3  C   UNL A   1      32.384  25.981  26.255  1.00  0.00     0.118 C 
BRANCH   3   4
ATOM      4  N   UNL A   1      31.189  25.534  25.525  1.00  0.00    -0.352 N 
ATOM      5  O   UNL A   1      30.058  25.363  23.443  1.00  0.00    -0.270 OA
ATOM      6  C   UNL A   1      31.091  25.750  24.074  1.00  0.00     0.251 C 
ATOM      7  H   UNL A   1      30.455  25.090  26.007  1.00  0.00     0.163 HD
BRANCH   6   8
ATOM      8  C   UNL A   1      32.224  26.434  23.329  1.00  0.00     0.067 C 
ATOM      9  C   UNL A   1      33.401  25.781  23.132  1.00  0.00     0.025 C 
ATOM     10  C   UNL A   1      32.044  27.850  22.805  1.00  0.00     0.314 C 
ATOM     11  C   UNL A   1      33.582  24.367  23.656  1.00  0.00     0.019 A 
ATOM     12  O   UNL A   1      31.335  23.857  23.075  1.00  0.00    -0.475 OA
ATOM     13  C   UNL A   1      34.811  24.033  24.204  1.00  0.00     0.036 A 
ATOM     14  C   UNL A   1      32.633  23.454  23.488  1.00  0.00     0.128 A 
ATOM     15  C   UNL A   1      35.045  22.640  24.279  1.00  0.00     0.107 A 
ATOM     16  C   UNL A   1      32.893  22.124  23.711  1.00  0.00     0.048 A 
ATOM     17  C   UNL A   1      34.105  21.716  24.196  1.00  0.00     0.028 A 
BRANCH  10  18
ATOM     18  C   UNL A   1      30.650  28.346  23.157  1.00  0.00     0.429 C 
ATOM     19  F   UNL A   1      29.736  27.645  22.493  1.00  0.00    -0.167 F 
ATOM     20  F   UNL A   1      30.466  28.188  24.465  1.00  0.00    -0.167 F 
ATOM     21  F   UNL A   1      30.535  29.633  22.846  1.00  0.00    -0.167 F 
ENDBRANCH  10  18
BRANCH  15  22
ATOM     22  S   UNL A   1      36.753  22.085  24.504  1.00  0.00     0.310 S 
ATOM     23  F   UNL A   1      37.270  23.570  24.722  1.00  0.00    -0.094 F 
ATOM     24  F   UNL A   1      36.993  22.301  22.962  1.00  0.00    -0.094 F 
ATOM     25  F   UNL A   1      38.221  21.611  24.695  1.00  0.00    -0.094 F 
ATOM     26  F   UNL A   1      36.534  22.010  26.067  1.00  0.00    -0.094 F 
ATOM     27  F   UNL A   1      35.295  22.673  24.344  1.00  0.00    -0.094 F 
ENDBRANCH  15  22
ENDBRANCH   6   8
ENDBRANCH   3   4
ENDBRANCH   2   3
ENDBRANCH   1   2
BRANCH   1  28
ATOM     28  N   UNL A   1      32.994  29.532  27.247  1.00  0.00    -0.352 N 
ATOM     29  C   UNL A   1      33.992  30.482  27.760  1.00  0.00     0.251 C 
ATOM     30  H   UNL A   1      32.089  29.844  27.021  1.00  0.00     0.163 HD
ATOM     31  O   UNL A   1      33.686  31.707  27.911  1.00  0.00    -0.269 OA
BRANCH  29  32
ATOM     32  C   UNL A   1      35.391  30.001  28.108  1.00  0.00     0.039 A 
ATOM     33  C   UNL A   1      35.678  29.627  29.411  1.00  0.00     0.014 A 
ATOM     34  C   UNL A   1      36.349  30.105  27.195  1.00  0.00     0.014 A 
ATOM     35  C   UNL A   1      37.056  29.662  29.728  1.00  0.00     0.010 A 
ATOM     36  C   UNL A   1      37.671  29.995  27.552  1.00  0.00     0.010 A 
ATOM     37  C   UNL A   1      38.029  29.685  28.835  1.00  0.00    -0.014 A 
BRANCH  37  38
ATOM     38  C   UNL A   1      39.470  29.382  29.214  1.00  0.00     0.031 A 
ATOM     39  C   UNL A   1      39.945  28.109  28.896  1.00  0.00     0.074 A 
ATOM     40  C   UNL A   1      40.264  30.404  29.706  1.00  0.00     0.049 A 
ATOM     41  N   UNL A   1      41.202  27.667  28.971  1.00  0.00    -0.248 NA
ATOM     42  C   UNL A   1      39.098  27.011  28.405  1.00  0.00     0.031 C 
ATOM     43  C   UNL A   1      39.793  31.694  30.022  1.00  0.00     0.029 A 
ATOM     44  N   UNL A   1      41.613  30.369  29.978  1.00  0.00    -0.354 N 
ATOM     45  C   UNL A   1      41.270  26.398  28.563  1.00  0.00     0.074 A 
ATOM     46  C   UNL A   1      39.917  25.956  28.199  1.00  0.00     0.031 C 
ATOM     47  C   UNL A   1      40.841  32.423  30.487  1.00  0.00     0.029 A 
ATOM     48  C   UNL A   1      41.985  31.602  30.470  1.00  0.00     0.049 A 
ATOM     49  H   UNL A   1      42.210  29.598  29.843  1.00  0.00     0.167 HD
ATOM     50  C   UNL A   1      42.407  25.592  28.479  1.00  0.00     0.031 A 
ATOM     51  C   UNL A   1      43.243  32.005  30.887  1.00  0.00     0.031 A 
ATOM     52  C   UNL A   1      43.673  26.010  28.855  1.00  0.00     0.049 A 
ATOM     53  C   UNL A   1      44.370  31.181  30.858  1.00  0.00     0.074 A 
ATOM     54  C   UNL A   1      44.831  25.214  28.770  1.00  0.00     0.029 A 
ATOM     55  N   UNL A   1      44.040  27.234  29.371  1.00  0.00    -0.354 N 
ATOM     56  N   UNL A   1      44.445  29.924  30.414  1.00  0.00    -0.248 NA
ATOM     57  C   UNL A   1      45.701  31.586  31.328  1.00  0.00     0.031 C 
ATOM     58  C   UNL A   1      45.880  25.944  29.236  1.00  0.00     0.029 A 
ATOM     59  C   UNL A   1      45.394  27.208  29.620  1.00  0.00     0.049 A 
ATOM     60  H   UNL A   1      43.438  27.996  29.533  1.00  0.00     0.167 HD
ATOM     61  C   UNL A   1      45.695  29.471  30.528  1.00  0.00     0.074 A 
ATOM     62  C   UNL A   1      46.520  30.530  31.124  1.00  0.00     0.031 C 
ATOM     63  C   UNL A   1      46.181  28.217  30.155  1.00  0.00     0.031 A 
BRANCH  50  64
ATOM     64  C   UNL A   1      42.246  24.180  27.944  1.00  0.00    -0.014 A 
ATOM     65  C   UNL A   1      42.082  23.113  28.812  1.00  0.00     0.010 A 
ATOM     66  C   UNL A   1      42.301  23.996  26.630  1.00  0.00     0.010 A 
ATOM     67  C   UNL A   1      42.278  21.848  28.209  1.00  0.00     0.020 A 
ATOM     68  C   UNL A   1      42.352  22.729  26.102  1.00  0.00     0.020 A 
ATOM     69  C   UNL A   1      42.257  21.627  26.907  1.00  0.00     0.054 A 
BRANCH  69  70
ATOM     70  S   UNL A   1      42.106  19.957  26.225  1.00  0.00     0.124 S 
ATOM     71  O   UNL A   1      43.044  19.811  25.024  1.00  0.00    -0.237 OA
ATOM     72  O   UNL A   1      42.485  18.932  27.295  1.00  0.00    -0.237 OA
ATOM     73  O   UNL A   1      40.494  19.689  25.724  1.00  0.00    -0.744 OA
ENDBRANCH  69  70
ENDBRANCH  50  64
BRANCH  51  74
ATOM     74  C   UNL A   1      43.406  33.424  31.406  1.00  0.00    -0.014 A 
ATOM     75  C   UNL A   1      43.761  34.452  30.548  1.00  0.00     0.010 A 
ATOM     76  C   UNL A   1      43.167  33.652  32.692  1.00  0.00     0.010 A 
ATOM     77  C   UNL A   1      44.123  35.650  31.208  1.00  0.00     0.020 A 
ATOM     78  C   UNL A   1      43.416  34.887  33.242  1.00  0.00     0.020 A 
ATOM     79  C   UNL A   1      43.826  35.933  32.463  1.00  0.00     0.054 A 
BRANCH  79  80
ATOM     80  S   UNL A   1      43.955  37.616  33.117  1.00  0.00     0.124 S 
ATOM     81  O   UNL A   1      45.254  37.754  33.916  1.00  0.00    -0.237 OA
ATOM     82  O   UNL A   1      43.961  38.615  31.958  1.00  0.00    -0.237 OA
ATOM     83  O   UNL A   1      42.622  37.934  34.139  1.00  0.00    -0.744 OA
ENDBRANCH  79  80
ENDBRANCH  51  74
BRANCH  63  84
ATOM     84  C   UNL A   1      47.663  27.940  30.346  1.00  0.00    -0.014 A 
ATOM     85  C   UNL A   1      48.566  28.331  29.371  1.00  0.00     0.010 A 
ATOM     86  C   UNL A   1      48.046  27.202  31.382  1.00  0.00     0.010 A 
ATOM     87  C   UNL A   1      49.803  27.647  29.426  1.00  0.00     0.020 A 
ATOM     88  C   UNL A   1      49.314  26.677  31.437  1.00  0.00     0.020 A 
ATOM     89  C   UNL A   1      50.240  26.974  30.476  1.00  0.00     0.054 A 
BRANCH  89  90
ATOM     90  S   UNL A   1      51.973  26.473  30.632  1.00  0.00     0.124 S 
ATOM     91  O   UNL A   1      52.066  25.231  31.520  1.00  0.00    -0.237 OA
ATOM     92  O   UNL A   1      52.538  26.154  29.247  1.00  0.00    -0.237 OA
ATOM     93  O   UNL A   1      52.872  27.747  31.335  1.00  0.00    -0.744 OA
ENDBRANCH  89  90
ENDBRANCH  63  84
ENDBRANCH  37  38
ENDBRANCH  29  32
ENDBRANCH   1  28
TORSDOF 15
ENDMDL
MODEL 3
REMARK VINA RESULT:     -12.0      0.911      8.126
REMARK SMILES O=C(NCCCNC(=O)c1ccc(-c2c3nc(c(-c4ccc(S(=O)(=O)[O-])cc4)c4ccc([nH]4)c(-c4ccc(S(=O)(=O)[O-])cc4)c4nc(c(-c5ccc(S(=O)(=O)[O-])cc5)c5ccc2[nH]5)C=C4)C=C3)cc1)C1=Cc2cc(S(F)(F)(F)(F)F)ccc2O[C@H]1C(F)(F)F
REMARK SMILES IDX 6 1 5 2 4 3 3 4 1 5 2 6 70 8 71 9 85 10 72 11 84 12 73 13
REMARK SMILES IDX 83 14 74 15 82 16 81 17 86 18 87 19 88 20 89 21 75 22 76 23
REMARK SMILES IDX 77 24 78 25 79 26 80 27 7 28 8 29 9 31 10 32 11 33 69 34
REMARK SMILES IDX 12 35 68 36 13 37 14 38 15 39 62 40 16 41 67 42 61 43 63 44
REMARK SMILES IDX 17 45 66 46 60 47 59 48 18 50 48 51 29 52 47 53 30 54 33 55
REMARK SMILES IDX 46 56 64 57 31 58 32 59 45 61 65 62 34 63 19 64 20 65 28 66
REMARK SMILES IDX 21 67 27 68 22 69 23 70 24 71 25 72 26 73 49 74 50 75 58 76
REMARK SMILES IDX 51 77 57 78 52 79 53 80 54 81 55 82 56 83 35 84 36 85 44 86
REMARK SMILES IDX 37 87 43 88 38 89 39 90 40 91 41 92 42 93
REMARK H PARENT 3 7 7 30 63 49 33 60
REMARK Flexibility Score: inf
ROOT
ATOM      1  C   UNL A   1      33.772  28.225  27.250  1.00  0.00     0.118 C 
ENDROOT
BRANCH   1   2
ATOM      2  C   UNL A   1      33.768  28.026  25.744  1.00  0.00     0.042 C 
BRANCH   2   3
ATOM      3  C   UNL A   1      33.153  26.676  25.413  1.00  0.00     0.118 C 
BRANCH   3   4
ATOM      4  N   UNL A   1      32.070  26.385  26.363  1.00  0.00    -0.352 N 
ATOM      5  O   UNL A   1      30.045  25.222  26.802  1.00  0.00    -0.270 OA
ATOM      6  C   UNL A   1      30.981  25.474  25.980  1.00  0.00     0.251 C 
ATOM      7  H   UNL A   1      32.073  26.800  27.255  1.00  0.00     0.163 HD
BRANCH   6   8
ATOM      8  C   UNL A   1      30.976  24.834  24.603  1.00  0.00     0.067 C 
ATOM      9  C   UNL A   1      31.794  23.779  24.339  1.00  0.00     0.025 C 
ATOM     10  C   UNL A   1      30.056  25.372  23.518  1.00  0.00     0.314 C 
ATOM     11  C   UNL A   1      32.713  23.242  25.423  1.00  0.00     0.019 A 
ATOM     12  O   UNL A   1      31.019  23.604  27.049  1.00  0.00    -0.475 OA
ATOM     13  C   UNL A   1      33.989  22.850  25.051  1.00  0.00     0.036 A 
ATOM     14  C   UNL A   1      32.266  23.050  26.658  1.00  0.00     0.128 A 
ATOM     15  C   UNL A   1      34.621  21.996  25.986  1.00  0.00     0.107 A 
ATOM     16  C   UNL A   1      32.999  22.319  27.562  1.00  0.00     0.048 A 
ATOM     17  C   UNL A   1      34.243  21.851  27.243  1.00  0.00     0.028 A 
BRANCH  10  18
ATOM     18  C   UNL A   1      29.255  26.541  24.067  1.00  0.00     0.429 C 
ATOM     19  F   UNL A   1      28.542  27.102  23.095  1.00  0.00    -0.167 F 
ATOM     20  F   UNL A   1      28.436  26.082  25.010  1.00  0.00    -0.167 F 
ATOM     21  F   UNL A   1      30.076  27.444  24.595  1.00  0.00    -0.167 F 
ENDBRANCH  10  18
BRANCH  15  22
ATOM     22  S   UNL A   1      36.047  21.036  25.419  1.00  0.00     0.310 S 
ATOM     23  F   UNL A   1      36.062  21.775  24.015  1.00  0.00    -0.094 F 
ATOM     24  F   UNL A   1      35.052  19.994  24.782  1.00  0.00    -0.094 F 
ATOM     25  F   UNL A   1      37.270  20.211  24.929  1.00  0.00    -0.094 F 
ATOM     26  F   UNL A   1      37.026  22.162  25.940  1.00  0.00    -0.094 F 
ATOM     27  F   UNL A   1      34.816  21.942  25.823  1.00  0.00    -0.094 F 
ENDBRANCH  15  22
ENDBRANCH   6   8
ENDBRANCH   3   4
ENDBRANCH   2   3
ENDBRANCH   1   2
BRANCH   1  28
ATOM     28  N   UNL A   1      33.449  29.626  27.559  1.00  0.00    -0.352 N 
ATOM     29  C   UNL A   1      34.487  30.519  28.094  1.00  0.00     0.251 C 
ATOM     30  H   UNL A   1      32.538  29.965  27.409  1.00  0.00     0.163 HD
ATOM     31  O   UNL A   1      34.208  31.730  28.362  1.00  0.00    -0.269 OA
BRANCH  29  32
ATOM     32  C   UNL A   1      35.895  29.995  28.326  1.00  0.00     0.039 A 
ATOM     33  C   UNL A   1      36.268  29.582  29.595  1.00  0.00     0.014 A 
ATOM     34  C   UNL A   1      36.785  30.098  27.346  1.00  0.00     0.014 A 
ATOM     35  C   UNL A   1      37.666  29.576  29.808  1.00  0.00     0.010 A 
ATOM     36  C   UNL A   1      38.127  29.946  27.601  1.00  0.00     0.010 A 
ATOM     37  C   UNL A   1      38.571  29.596  28.847  1.00  0.00    -0.014 A 
BRANCH  37  38
ATOM     38  C   UNL A   1      40.027  29.249  29.109  1.00  0.00     0.031 A 
ATOM     39  C   UNL A   1      40.786  30.206  29.784  1.00  0.00     0.074 A 
ATOM     40  C   UNL A   1      40.478  27.975  28.807  1.00  0.00     0.049 A 
ATOM     41  N   UNL A   1      42.020  30.069  30.273  1.00  0.00    -0.248 NA
ATOM     42  C   UNL A   1      40.322  31.570  30.076  1.00  0.00     0.031 C 
ATOM     43  C   UNL A   1      39.715  27.001  28.133  1.00  0.00     0.029 A 
ATOM     44  N   UNL A   1      41.710  27.426  29.088  1.00  0.00    -0.354 N 
ATOM     45  C   UNL A   1      42.406  31.198  30.871  1.00  0.00     0.074 A 
ATOM     46  C   UNL A   1      41.322  32.181  30.747  1.00  0.00     0.031 C 
ATOM     47  C   UNL A   1      40.479  25.885  28.000  1.00  0.00     0.029 A 
ATOM     48  C   UNL A   1      41.732  26.142  28.589  1.00  0.00     0.049 A 
ATOM     49  H   UNL A   1      42.446  27.873  29.564  1.00  0.00     0.167 HD
ATOM     50  C   UNL A   1      43.620  31.445  31.516  1.00  0.00     0.031 A 
ATOM     51  C   UNL A   1      42.776  25.232  28.633  1.00  0.00     0.031 A 
ATOM     52  C   UNL A   1      44.648  30.520  31.598  1.00  0.00     0.049 A 
ATOM     53  C   UNL A   1      44.012  25.499  29.227  1.00  0.00     0.074 A 
ATOM     54  C   UNL A   1      45.874  30.750  32.250  1.00  0.00     0.029 A 
ATOM     55  N   UNL A   1      44.680  29.245  31.077  1.00  0.00    -0.354 N 
ATOM     56  N   UNL A   1      44.384  26.614  29.860  1.00  0.00    -0.248 NA
ATOM     57  C   UNL A   1      45.137  24.556  29.252  1.00  0.00     0.031 C 
ATOM     58  C   UNL A   1      46.638  29.632  32.118  1.00  0.00     0.029 A 
ATOM     59  C   UNL A   1      45.902  28.687  31.379  1.00  0.00     0.049 A 
ATOM     60  H   UNL A   1      43.954  28.807  30.576  1.00  0.00     0.167 HD
ATOM     61  C   UNL A   1      45.633  26.491  30.312  1.00  0.00     0.074 A 
ATOM     62  C   UNL A   1      46.138  25.168  29.922  1.00  0.00     0.031 C 
ATOM     63  C   UNL A   1      46.371  27.427  31.038  1.00  0.00     0.031 A 
BRANCH  50  64
ATOM     64  C   UNL A   1      43.824  32.804  32.163  1.00  0.00    -0.014 A 
ATOM     65  C   UNL A   1      44.407  33.841  31.455  1.00  0.00     0.010 A 
ATOM     66  C   UNL A   1      43.458  32.955  33.431  1.00  0.00     0.010 A 
ATOM     67  C   UNL A   1      44.832  34.921  32.265  1.00  0.00     0.020 A 
ATOM     68  C   UNL A   1      43.789  34.096  34.123  1.00  0.00     0.020 A 
ATOM     69  C   UNL A   1      44.420  35.137  33.502  1.00  0.00     0.054 A 
BRANCH  69  70
ATOM     70  S   UNL A   1      44.676  36.728  34.328  1.00  0.00     0.124 S 
ATOM     71  O   UNL A   1      43.383  37.545  34.272  1.00  0.00    -0.237 OA
ATOM     72  O   UNL A   1      45.065  36.489  35.788  1.00  0.00    -0.237 OA
ATOM     73  O   UNL A   1      45.926  37.586  33.537  1.00  0.00    -0.744 OA
ENDBRANCH  69  70
ENDBRANCH  50  64
BRANCH  51  74
ATOM     74  C   UNL A   1      42.566  23.867  27.999  1.00  0.00    -0.014 A 
ATOM     75  C   UNL A   1      42.848  23.662  26.659  1.00  0.00     0.010 A 
ATOM     76  C   UNL A   1      42.138  22.876  28.773  1.00  0.00     0.010 A 
ATOM     77  C   UNL A   1      42.367  22.431  26.154  1.00  0.00     0.020 A 
ATOM     78  C   UNL A   1      41.814  21.656  28.231  1.00  0.00     0.020 A 
ATOM     79  C   UNL A   1      42.011  21.402  26.902  1.00  0.00     0.054 A 
BRANCH  79  80
ATOM     80  S   UNL A   1      41.797  19.745  26.205  1.00  0.00     0.124 S 
ATOM     81  O   UNL A   1      42.189  18.698  27.250  1.00  0.00    -0.237 OA
ATOM     82  O   UNL A   1      40.333  19.544  25.807  1.00  0.00    -0.237 OA
ATOM     83  O   UNL A   1      42.792  19.575  24.826  1.00  0.00    -0.744 OA
ENDBRANCH  79  80
ENDBRANCH  51  74
BRANCH  63  84
ATOM     84  C   UNL A   1      47.773  27.043  31.482  1.00  0.00    -0.014 A 
ATOM     85  C   UNL A   1      48.856  27.345  30.673  1.00  0.00     0.010 A 
ATOM     86  C   UNL A   1      47.914  26.300  32.574  1.00  0.00     0.010 A 
ATOM     87  C   UNL A   1      50.008  26.571  30.945  1.00  0.00     0.020 A 
ATOM     88  C   UNL A   1      49.110  25.682  32.849  1.00  0.00     0.020 A 
ATOM     89  C   UNL A   1      50.207  25.888  32.059  1.00  0.00     0.054 A 
BRANCH  89  90
ATOM     90  S   UNL A   1      51.843  25.260  32.514  1.00  0.00     0.124 S 
ATOM     91  O   UNL A   1      52.289  25.905  33.827  1.00  0.00    -0.237 OA
ATOM     92  O   UNL A   1      51.776  23.742  32.687  1.00  0.00    -0.237 OA
ATOM     93  O   UNL A   1      52.962  25.645  31.279  1.00  0.00    -0.744 OA
ENDBRANCH  89  90
ENDBRANCH  63  84
ENDBRANCH  37  38
ENDBRANCH  29  32
ENDBRANCH   1  28
TORSDOF 15
ENDMDL
