MODEL 1
REMARK VINA RESULT:     -11.9      0.000      0.000
REMARK SMILES Cc1cc(CC(=O)C(=O)NCCCNC(=O)c2ccc(-c3c4nc(c(-c5ccc(S(=O)(=O)[O-])cc5)c5ccc([nH]5)c(-c5ccc(S(=O)(=O)[O-])cc5)c5nc(c(-c6ccc(S(=O)(=O)[O-])cc6)c6ccc3[nH]6)C=C5)C=C4)cc2)cc2cn[nH]c12
REMARK SMILES IDX 12 1 11 2 10 3 8 4 9 5 6 7 7 8 5 9 4 10 1 11 2 12 3 13 82 14
REMARK SMILES IDX 78 15 81 16 77 17 79 18 80 19 13 21 14 22 15 23 16 25 17 26
REMARK SMILES IDX 18 27 76 28 19 29 75 30 20 31 21 32 22 33 69 34 23 35 74 36
REMARK SMILES IDX 68 37 70 38 24 39 73 40 67 41 66 42 25 44 55 45 36 46 54 47
REMARK SMILES IDX 37 48 40 49 53 50 71 51 38 52 39 53 52 55 72 56 41 57 26 58
REMARK SMILES IDX 27 59 35 60 28 61 34 62 29 63 30 64 31 65 32 66 33 67 56 68
REMARK SMILES IDX 57 69 65 70 58 71 64 72 59 73 60 74 61 75 62 76 63 77 42 78
REMARK SMILES IDX 43 79 51 80 44 81 50 82 45 83 46 84 47 85 48 86 49 87
REMARK H PARENT 10 6 81 20 14 24 70 43 40 54
REMARK Flexibility Score: inf
ROOT
ATOM      1  C   UNL A   1      38.907  22.557  26.126  1.00  0.00     0.042 C 
ENDROOT
BRANCH   1   2
ATOM      2  C   UNL A   1      37.881  21.645  25.444  1.00  0.00     0.118 C 
BRANCH   2   3
ATOM      3  N   UNL A   1      37.516  22.120  24.117  1.00  0.00    -0.349 N 
ATOM      4  C   UNL A   1      36.344  22.706  23.698  1.00  0.00     0.287 C 
ATOM      5  O   UNL A   1      36.167  22.972  22.515  1.00  0.00    -0.266 OA
ATOM      6  H   UNL A   1      38.204  22.006  23.423  1.00  0.00     0.163 HD
BRANCH   4   7
ATOM      7  C   UNL A   1      35.245  23.038  24.712  1.00  0.00     0.224 C 
ATOM      8  O   UNL A   1      34.358  22.229  24.971  1.00  0.00    -0.288 OA
BRANCH   7   9
ATOM      9  C   UNL A   1      35.243  24.440  25.271  1.00  0.00     0.122 C 
BRANCH   9  10
ATOM     10  C   UNL A   1      34.081  25.308  24.846  1.00  0.00    -0.039 A 
ATOM     11  C   UNL A   1      31.748  27.823  26.537  1.00  0.00     0.047 C 
ATOM     12  C   UNL A   1      32.380  26.985  25.465  1.00  0.00    -0.025 A 
ATOM     13  C   UNL A   1      33.453  26.134  25.792  1.00  0.00     0.009 A 
ATOM     14  C   UNL A   1      31.964  26.953  24.126  1.00  0.00     0.068 A 
ATOM     15  C   UNL A   1      32.559  26.151  23.159  1.00  0.00     0.020 A 
ATOM     16  N   UNL A   1      30.961  27.619  23.466  1.00  0.00    -0.278 N 
ATOM     17  C   UNL A   1      33.637  25.318  23.513  1.00  0.00     0.016 A 
ATOM     18  C   UNL A   1      31.838  26.427  21.975  1.00  0.00     0.143 A 
ATOM     19  N   UNL A   1      30.874  27.333  22.155  1.00  0.00    -0.183 NA
ATOM     20  H   UNL A   1      30.358  28.254  23.915  1.00  0.00     0.190 HD
ENDBRANCH   9  10
ENDBRANCH   7   9
ENDBRANCH   4   7
ENDBRANCH   2   3
ENDBRANCH   1   2
BRANCH   1  21
ATOM     21  C   UNL A   1      40.007  21.755  26.803  1.00  0.00     0.118 C 
BRANCH  21  22
ATOM     22  N   UNL A   1      41.258  21.737  26.038  1.00  0.00    -0.352 N 
ATOM     23  C   UNL A   1      42.124  22.783  25.763  1.00  0.00     0.251 C 
ATOM     24  H   UNL A   1      41.519  20.862  25.671  1.00  0.00     0.163 HD
ATOM     25  O   UNL A   1      42.955  22.682  24.876  1.00  0.00    -0.269 OA
BRANCH  23  26
ATOM     26  C   UNL A   1      42.031  24.012  26.574  1.00  0.00     0.039 A 
ATOM     27  C   UNL A   1      42.565  24.098  27.865  1.00  0.00     0.014 A 
ATOM     28  C   UNL A   1      41.363  25.098  26.017  1.00  0.00     0.014 A 
ATOM     29  C   UNL A   1      42.437  25.298  28.562  1.00  0.00     0.010 A 
ATOM     30  C   UNL A   1      41.435  26.326  26.600  1.00  0.00     0.010 A 
ATOM     31  C   UNL A   1      41.859  26.400  27.915  1.00  0.00    -0.014 A 
BRANCH  31  32
ATOM     32  C   UNL A   1      41.675  27.684  28.561  1.00  0.00     0.031 A 
ATOM     33  C   UNL A   1      42.710  28.688  28.233  1.00  0.00     0.074 A 
ATOM     34  C   UNL A   1      40.523  28.006  29.191  1.00  0.00     0.049 A 
ATOM     35  N   UNL A   1      43.668  29.093  28.994  1.00  0.00    -0.248 NA
ATOM     36  C   UNL A   1      42.784  29.186  26.849  1.00  0.00     0.031 C 
ATOM     37  C   UNL A   1      39.277  27.229  29.296  1.00  0.00     0.029 A 
ATOM     38  N   UNL A   1      40.190  29.174  29.792  1.00  0.00    -0.354 N 
ATOM     39  C   UNL A   1      44.341  30.062  28.264  1.00  0.00     0.074 A 
ATOM     40  C   UNL A   1      43.886  29.939  26.901  1.00  0.00     0.031 C 
ATOM     41  C   UNL A   1      38.273  28.030  29.724  1.00  0.00     0.029 A 
ATOM     42  C   UNL A   1      38.841  29.311  30.100  1.00  0.00     0.049 A 
ATOM     43  H   UNL A   1      40.853  29.873  29.994  1.00  0.00     0.167 HD
ATOM     44  C   UNL A   1      45.029  31.066  28.873  1.00  0.00     0.031 A 
ATOM     45  C   UNL A   1      38.253  30.415  30.627  1.00  0.00     0.031 A 
ATOM     46  C   UNL A   1      45.136  30.859  30.292  1.00  0.00     0.049 A 
ATOM     47  C   UNL A   1      39.340  31.185  31.279  1.00  0.00     0.074 A 
ATOM     48  C   UNL A   1      45.757  29.931  31.101  1.00  0.00     0.029 A 
ATOM     49  N   UNL A   1      44.153  31.446  31.055  1.00  0.00    -0.354 N 
ATOM     50  N   UNL A   1      40.027  30.741  32.296  1.00  0.00    -0.248 NA
ATOM     51  C   UNL A   1      39.960  32.271  30.537  1.00  0.00     0.031 C 
ATOM     52  C   UNL A   1      44.845  29.702  32.176  1.00  0.00     0.029 A 
ATOM     53  C   UNL A   1      43.744  30.546  32.009  1.00  0.00     0.049 A 
ATOM     54  H   UNL A   1      43.802  32.358  30.939  1.00  0.00     0.167 HD
ATOM     55  C   UNL A   1      41.323  31.181  32.069  1.00  0.00     0.074 A 
ATOM     56  C   UNL A   1      41.195  32.212  31.042  1.00  0.00     0.031 C 
ATOM     57  C   UNL A   1      42.395  30.481  32.542  1.00  0.00     0.031 A 
BRANCH  44  58
ATOM     58  C   UNL A   1      45.231  32.415  28.244  1.00  0.00    -0.014 A 
ATOM     59  C   UNL A   1      46.532  32.913  28.060  1.00  0.00     0.010 A 
ATOM     60  C   UNL A   1      44.157  33.311  28.049  1.00  0.00     0.010 A 
ATOM     61  C   UNL A   1      46.746  34.250  27.697  1.00  0.00     0.020 A 
ATOM     62  C   UNL A   1      44.357  34.631  27.647  1.00  0.00     0.020 A 
ATOM     63  C   UNL A   1      45.654  35.098  27.490  1.00  0.00     0.054 A 
BRANCH  63  64
ATOM     64  S   UNL A   1      45.947  36.841  27.095  1.00  0.00     0.124 S 
ATOM     65  O   UNL A   1      44.590  37.353  26.936  1.00  0.00    -0.237 OA
ATOM     66  O   UNL A   1      46.666  37.304  28.278  1.00  0.00    -0.237 OA
ATOM     67  O   UNL A   1      46.742  36.787  25.870  1.00  0.00    -0.744 OA
ENDBRANCH  63  64
ENDBRANCH  44  58
BRANCH  45  68
ATOM     68  C   UNL A   1      36.945  31.033  30.294  1.00  0.00    -0.014 A 
ATOM     69  C   UNL A   1      36.256  31.789  31.266  1.00  0.00     0.010 A 
ATOM     70  C   UNL A   1      36.546  31.178  28.950  1.00  0.00     0.010 A 
ATOM     71  C   UNL A   1      35.280  32.729  30.898  1.00  0.00     0.020 A 
ATOM     72  C   UNL A   1      35.567  32.110  28.576  1.00  0.00     0.020 A 
ATOM     73  C   UNL A   1      34.968  32.910  29.549  1.00  0.00     0.054 A 
BRANCH  73  74
ATOM     74  S   UNL A   1      33.856  34.269  29.072  1.00  0.00     0.124 S 
ATOM     75  O   UNL A   1      32.959  33.624  28.119  1.00  0.00    -0.237 OA
ATOM     76  O   UNL A   1      33.256  34.639  30.352  1.00  0.00    -0.237 OA
ATOM     77  O   UNL A   1      34.757  35.267  28.499  1.00  0.00    -0.744 OA
ENDBRANCH  73  74
ENDBRANCH  45  68
BRANCH  57  78
ATOM     78  C   UNL A   1      42.133  29.428  33.597  1.00  0.00    -0.014 A 
ATOM     79  C   UNL A   1      41.680  28.120  33.327  1.00  0.00     0.010 A 
ATOM     80  C   UNL A   1      42.472  29.761  34.918  1.00  0.00     0.010 A 
ATOM     81  C   UNL A   1      41.551  27.180  34.366  1.00  0.00     0.020 A 
ATOM     82  C   UNL A   1      42.360  28.828  35.951  1.00  0.00     0.020 A 
ATOM     83  C   UNL A   1      41.896  27.542  35.673  1.00  0.00     0.054 A 
BRANCH  83  84
ATOM     84  S   UNL A   1      41.735  26.331  37.018  1.00  0.00     0.124 S 
ATOM     85  O   UNL A   1      40.439  26.666  37.602  1.00  0.00    -0.237 OA
ATOM     86  O   UNL A   1      41.794  25.056  36.307  1.00  0.00    -0.237 OA
ATOM     87  O   UNL A   1      42.886  26.609  37.877  1.00  0.00    -0.744 OA
ENDBRANCH  83  84
ENDBRANCH  57  78
ENDBRANCH  31  32
ENDBRANCH  23  26
ENDBRANCH  21  22
ENDBRANCH   1  21
TORSDOF 15
ENDMDL
MODEL 2
REMARK VINA RESULT:     -11.8      1.943      2.879
REMARK SMILES Cc1cc(CC(=O)C(=O)NCCCNC(=O)c2ccc(-c3c4nc(c(-c5ccc(S(=O)(=O)[O-])cc5)c5ccc([nH]5)c(-c5ccc(S(=O)(=O)[O-])cc5)c5nc(c(-c6ccc(S(=O)(=O)[O-])cc6)c6ccc3[nH]6)C=C5)C=C4)cc2)cc2cn[nH]c12
REMARK SMILES IDX 12 1 11 2 10 3 8 4 9 5 6 7 7 8 5 9 4 10 1 11 2 12 3 13 82 14
REMARK SMILES IDX 78 15 81 16 77 17 79 18 80 19 13 21 14 22 15 23 16 25 17 26
REMARK SMILES IDX 18 27 76 28 19 29 75 30 20 31 21 32 22 33 69 34 23 35 74 36
REMARK SMILES IDX 68 37 70 38 24 39 73 40 67 41 66 42 25 44 55 45 36 46 54 47
REMARK SMILES IDX 37 48 40 49 53 50 71 51 38 52 39 53 52 55 72 56 41 57 26 58
REMARK SMILES IDX 27 59 35 60 28 61 34 62 29 63 30 64 31 65 32 66 33 67 56 68
REMARK SMILES IDX 57 69 65 70 58 71 64 72 59 73 60 74 61 75 62 76 63 77 42 78
REMARK SMILES IDX 43 79 51 80 44 81 50 82 45 83 46 84 47 85 48 86 49 87
REMARK H PARENT 10 6 81 20 14 24 70 43 40 54
REMARK Flexibility Score: inf
ROOT
ATOM      1  C   UNL A   1      39.123  21.463  25.960  1.00  0.00     0.042 C 
ENDROOT
BRANCH   1   2
ATOM      2  C   UNL A   1      38.037  22.534  25.804  1.00  0.00     0.118 C 
BRANCH   2   3
ATOM      3  N   UNL A   1      37.606  22.686  24.423  1.00  0.00    -0.349 N 
ATOM      4  C   UNL A   1      36.375  23.056  23.934  1.00  0.00     0.287 C 
ATOM      5  O   UNL A   1      36.153  23.054  22.730  1.00  0.00    -0.266 OA
ATOM      6  H   UNL A   1      38.292  22.498  23.742  1.00  0.00     0.163 HD
BRANCH   4   7
ATOM      7  C   UNL A   1      35.262  23.483  24.898  1.00  0.00     0.224 C 
ATOM      8  O   UNL A   1      35.002  24.670  25.078  1.00  0.00    -0.288 OA
BRANCH   7   9
ATOM      9  C   UNL A   1      34.599  22.385  25.693  1.00  0.00     0.122 C 
BRANCH   9  10
ATOM     10  C   UNL A   1      33.976  21.276  24.877  1.00  0.00    -0.039 A 
ATOM     11  C   UNL A   1      31.577  21.045  21.907  1.00  0.00     0.047 C 
ATOM     12  C   UNL A   1      32.509  20.622  23.004  1.00  0.00    -0.025 A 
ATOM     13  C   UNL A   1      33.109  21.599  23.821  1.00  0.00     0.009 A 
ATOM     14  C   UNL A   1      32.825  19.291  23.314  1.00  0.00     0.068 A 
ATOM     15  C   UNL A   1      33.679  18.929  24.350  1.00  0.00     0.020 A 
ATOM     16  N   UNL A   1      32.421  18.103  22.757  1.00  0.00    -0.278 N 
ATOM     17  C   UNL A   1      34.273  19.928  25.143  1.00  0.00     0.016 A 
ATOM     18  C   UNL A   1      33.710  17.516  24.308  1.00  0.00     0.143 A 
ATOM     19  N   UNL A   1      32.957  17.010  23.329  1.00  0.00    -0.183 NA
ATOM     20  H   UNL A   1      31.791  18.056  22.002  1.00  0.00     0.190 HD
ENDBRANCH   9  10
ENDBRANCH   7   9
ENDBRANCH   4   7
ENDBRANCH   2   3
ENDBRANCH   1   2
BRANCH   1  21
ATOM     21  C   UNL A   1      40.220  21.911  26.913  1.00  0.00     0.118 C 
BRANCH  21  22
ATOM     22  N   UNL A   1      41.549  21.921  26.294  1.00  0.00    -0.352 N 
ATOM     23  C   UNL A   1      42.334  23.005  25.934  1.00  0.00     0.251 C 
ATOM     24  H   UNL A   1      41.939  21.036  26.109  1.00  0.00     0.163 HD
ATOM     25  O   UNL A   1      43.271  22.864  25.167  1.00  0.00    -0.269 OA
BRANCH  23  26
ATOM     26  C   UNL A   1      42.022  24.327  26.511  1.00  0.00     0.039 A 
ATOM     27  C   UNL A   1      40.974  25.122  26.034  1.00  0.00     0.014 A 
ATOM     28  C   UNL A   1      42.830  24.778  27.550  1.00  0.00     0.014 A 
ATOM     29  C   UNL A   1      40.745  26.357  26.639  1.00  0.00     0.010 A 
ATOM     30  C   UNL A   1      42.469  25.869  28.281  1.00  0.00     0.010 A 
ATOM     31  C   UNL A   1      41.510  26.717  27.757  1.00  0.00    -0.014 A 
BRANCH  31  32
ATOM     32  C   UNL A   1      41.351  27.982  28.446  1.00  0.00     0.031 A 
ATOM     33  C   UNL A   1      42.378  28.993  28.113  1.00  0.00     0.074 A 
ATOM     34  C   UNL A   1      40.222  28.288  29.123  1.00  0.00     0.049 A 
ATOM     35  N   UNL A   1      43.362  29.374  28.853  1.00  0.00    -0.248 NA
ATOM     36  C   UNL A   1      42.408  29.531  26.742  1.00  0.00     0.031 C 
ATOM     37  C   UNL A   1      38.978  27.511  29.246  1.00  0.00     0.029 A 
ATOM     38  N   UNL A   1      39.912  29.439  29.767  1.00  0.00    -0.354 N 
ATOM     39  C   UNL A   1      44.013  30.363  28.130  1.00  0.00     0.074 A 
ATOM     40  C   UNL A   1      43.513  30.280  26.779  1.00  0.00     0.031 C 
ATOM     41  C   UNL A   1      37.991  28.301  29.730  1.00  0.00     0.029 A 
ATOM     42  C   UNL A   1      38.574  29.570  30.124  1.00  0.00     0.049 A 
ATOM     43  H   UNL A   1      40.583  30.130  29.968  1.00  0.00     0.167 HD
ATOM     44  C   UNL A   1      44.724  31.348  28.744  1.00  0.00     0.031 A 
ATOM     45  C   UNL A   1      38.007  30.659  30.701  1.00  0.00     0.031 A 
ATOM     46  C   UNL A   1      44.877  31.099  30.153  1.00  0.00     0.049 A 
ATOM     47  C   UNL A   1      39.118  31.408  31.339  1.00  0.00     0.074 A 
ATOM     48  C   UNL A   1      45.521  30.147  30.914  1.00  0.00     0.029 A 
ATOM     49  N   UNL A   1      43.921  31.666  30.964  1.00  0.00    -0.354 N 
ATOM     50  N   UNL A   1      39.836  30.933  32.319  1.00  0.00    -0.248 NA
ATOM     51  C   UNL A   1      39.715  32.513  30.609  1.00  0.00     0.031 C 
ATOM     52  C   UNL A   1      44.644  29.889  32.011  1.00  0.00     0.029 A 
ATOM     53  C   UNL A   1      43.541  30.740  31.905  1.00  0.00     0.049 A 
ATOM     54  H   UNL A   1      43.569  32.581  30.886  1.00  0.00     0.167 HD
ATOM     55  C   UNL A   1      41.125  31.377  32.063  1.00  0.00     0.074 A 
ATOM     56  C   UNL A   1      40.967  32.437  31.071  1.00  0.00     0.031 C 
ATOM     57  C   UNL A   1      42.210  30.661  32.480  1.00  0.00     0.031 A 
BRANCH  44  58
ATOM     58  C   UNL A   1      44.908  32.714  28.149  1.00  0.00    -0.014 A 
ATOM     59  C   UNL A   1      46.197  33.159  27.809  1.00  0.00     0.010 A 
ATOM     60  C   UNL A   1      43.866  33.666  28.137  1.00  0.00     0.010 A 
ATOM     61  C   UNL A   1      46.429  34.501  27.474  1.00  0.00     0.020 A 
ATOM     62  C   UNL A   1      44.078  34.992  27.766  1.00  0.00     0.020 A 
ATOM     63  C   UNL A   1      45.365  35.407  27.451  1.00  0.00     0.054 A 
BRANCH  63  64
ATOM     64  S   UNL A   1      45.692  37.151  27.090  1.00  0.00     0.124 S 
ATOM     65  O   UNL A   1      46.620  37.065  25.967  1.00  0.00    -0.237 OA
ATOM     66  O   UNL A   1      44.357  37.651  26.774  1.00  0.00    -0.237 OA
ATOM     67  O   UNL A   1      46.264  37.658  28.336  1.00  0.00    -0.744 OA
ENDBRANCH  63  64
ENDBRANCH  44  58
BRANCH  45  68
ATOM     68  C   UNL A   1      36.690  31.289  30.430  1.00  0.00    -0.014 A 
ATOM     69  C   UNL A   1      36.118  32.161  31.380  1.00  0.00     0.010 A 
ATOM     70  C   UNL A   1      36.170  31.316  29.121  1.00  0.00     0.010 A 
ATOM     71  C   UNL A   1      35.137  33.095  31.010  1.00  0.00     0.020 A 
ATOM     72  C   UNL A   1      35.185  32.243  28.746  1.00  0.00     0.020 A 
ATOM     73  C   UNL A   1      34.703  33.155  29.685  1.00  0.00     0.054 A 
BRANCH  73  74
ATOM     74  S   UNL A   1      33.588  34.500  29.178  1.00  0.00     0.124 S 
ATOM     75  O   UNL A   1      34.514  35.496  28.647  1.00  0.00    -0.237 OA
ATOM     76  O   UNL A   1      32.737  33.840  28.192  1.00  0.00    -0.237 OA
ATOM     77  O   UNL A   1      32.917  34.878  30.420  1.00  0.00    -0.744 OA
ENDBRANCH  73  74
ENDBRANCH  45  68
BRANCH  57  78
ATOM     78  C   UNL A   1      41.980  29.579  33.512  1.00  0.00    -0.014 A 
ATOM     79  C   UNL A   1      41.616  28.250  33.211  1.00  0.00     0.010 A 
ATOM     80  C   UNL A   1      42.257  29.911  34.848  1.00  0.00     0.010 A 
ATOM     81  C   UNL A   1      41.511  27.288  34.232  1.00  0.00     0.020 A 
ATOM     82  C   UNL A   1      42.170  28.958  35.864  1.00  0.00     0.020 A 
ATOM     83  C   UNL A   1      41.794  27.651  35.554  1.00  0.00     0.054 A 
BRANCH  83  84
ATOM     84  S   UNL A   1      41.665  26.412  36.877  1.00  0.00     0.124 S 
ATOM     85  O   UNL A   1      40.398  26.754  37.519  1.00  0.00    -0.237 OA
ATOM     86  O   UNL A   1      41.675  25.154  36.137  1.00  0.00    -0.237 OA
ATOM     87  O   UNL A   1      42.853  26.652  37.697  1.00  0.00    -0.744 OA
ENDBRANCH  83  84
ENDBRANCH  57  78
ENDBRANCH  31  32
ENDBRANCH  23  26
ENDBRANCH  21  22
ENDBRANCH   1  21
TORSDOF 15
ENDMDL
MODEL 3
REMARK VINA RESULT:     -11.5      2.863      9.568
REMARK SMILES Cc1cc(CC(=O)C(=O)NCCCNC(=O)c2ccc(-c3c4nc(c(-c5ccc(S(=O)(=O)[O-])cc5)c5ccc([nH]5)c(-c5ccc(S(=O)(=O)[O-])cc5)c5nc(c(-c6ccc(S(=O)(=O)[O-])cc6)c6ccc3[nH]6)C=C5)C=C4)cc2)cc2cn[nH]c12
REMARK SMILES IDX 12 1 11 2 10 3 8 4 9 5 6 7 7 8 5 9 4 10 1 11 2 12 3 13 82 14
REMARK SMILES IDX 78 15 81 16 77 17 79 18 80 19 13 21 14 22 15 23 16 25 17 26
REMARK SMILES IDX 18 27 76 28 19 29 75 30 20 31 21 32 22 33 69 34 23 35 74 36
REMARK SMILES IDX 68 37 70 38 24 39 73 40 67 41 66 42 25 44 55 45 36 46 54 47
REMARK SMILES IDX 37 48 40 49 53 50 71 51 38 52 39 53 52 55 72 56 41 57 26 58
REMARK SMILES IDX 27 59 35 60 28 61 34 62 29 63 30 64 31 65 32 66 33 67 56 68
REMARK SMILES IDX 57 69 65 70 58 71 64 72 59 73 60 74 61 75 62 76 63 77 42 78
REMARK SMILES IDX 43 79 51 80 44 81 50 82 45 83 46 84 47 85 48 86 49 87
REMARK H PARENT 10 6 81 20 14 24 70 43 40 54
REMARK Flexibility Score: inf
ROOT
ATOM      1  C   UNL A   1      33.769  29.776  27.531  1.00  0.00     0.042 C 
ENDROOT
BRANCH   1   2
ATOM      2  C   UNL A   1      32.388  29.814  26.867  1.00  0.00     0.118 C 
BRANCH   2   3
ATOM      3  N   UNL A   1      31.581  28.651  27.203  1.00  0.00    -0.349 N 
ATOM      4  C   UNL A   1      31.518  27.428  26.576  1.00  0.00     0.287 C 
ATOM      5  O   UNL A   1      30.715  26.578  26.941  1.00  0.00    -0.266 OA
ATOM      6  H   UNL A   1      30.998  28.753  27.990  1.00  0.00     0.163 HD
BRANCH   4   7
ATOM      7  C   UNL A   1      32.462  27.113  25.410  1.00  0.00     0.224 C 
ATOM      8  O   UNL A   1      32.142  27.364  24.252  1.00  0.00    -0.288 OA
BRANCH   7   9
ATOM      9  C   UNL A   1      33.733  26.374  25.751  1.00  0.00     0.122 C 
BRANCH   9  10
ATOM     10  C   UNL A   1      33.781  24.928  25.315  1.00  0.00    -0.039 A 
ATOM     11  C   UNL A   1      36.246  22.691  23.431  1.00  0.00     0.047 C 
ATOM     12  C   UNL A   1      35.027  23.116  24.195  1.00  0.00    -0.025 A 
ATOM     13  C   UNL A   1      34.902  24.455  24.614  1.00  0.00     0.009 A 
ATOM     14  C   UNL A   1      33.951  22.275  24.516  1.00  0.00     0.068 A 
ATOM     15  C   UNL A   1      32.825  22.703  25.209  1.00  0.00     0.020 A 
ATOM     16  N   UNL A   1      33.724  20.946  24.258  1.00  0.00    -0.278 N 
ATOM     17  C   UNL A   1      32.733  24.045  25.624  1.00  0.00     0.016 A 
ATOM     18  C   UNL A   1      32.009  21.553  25.309  1.00  0.00     0.143 A 
ATOM     19  N   UNL A   1      32.561  20.476  24.744  1.00  0.00    -0.183 NA
ATOM     20  H   UNL A   1      34.360  20.384  23.759  1.00  0.00     0.190 HD
ENDBRANCH   9  10
ENDBRANCH   7   9
ENDBRANCH   4   7
ENDBRANCH   2   3
ENDBRANCH   1   2
BRANCH   1  21
ATOM     21  C   UNL A   1      34.515  31.088  27.351  1.00  0.00     0.118 C 
BRANCH  21  22
ATOM     22  N   UNL A   1      34.396  31.979  28.508  1.00  0.00    -0.352 N 
ATOM     23  C   UNL A   1      35.081  31.938  29.712  1.00  0.00     0.251 C 
ATOM     24  H   UNL A   1      33.741  32.709  28.418  1.00  0.00     0.163 HD
ATOM     25  O   UNL A   1      34.669  32.554  30.680  1.00  0.00    -0.269 OA
BRANCH  23  26
ATOM     26  C   UNL A   1      36.325  31.149  29.792  1.00  0.00     0.039 A 
ATOM     27  C   UNL A   1      36.323  29.774  30.051  1.00  0.00     0.014 A 
ATOM     28  C   UNL A   1      37.526  31.830  29.620  1.00  0.00     0.014 A 
ATOM     29  C   UNL A   1      37.544  29.103  30.106  1.00  0.00     0.010 A 
ATOM     30  C   UNL A   1      38.691  31.144  29.450  1.00  0.00     0.010 A 
ATOM     31  C   UNL A   1      38.719  29.809  29.811  1.00  0.00    -0.014 A 
BRANCH  31  32
ATOM     32  C   UNL A   1      40.034  29.200  29.851  1.00  0.00     0.031 A 
ATOM     33  C   UNL A   1      40.540  28.928  31.214  1.00  0.00     0.074 A 
ATOM     34  C   UNL A   1      40.619  28.693  28.743  1.00  0.00     0.049 A 
ATOM     35  N   UNL A   1      41.457  29.577  31.846  1.00  0.00    -0.248 NA
ATOM     36  C   UNL A   1      39.844  27.917  32.028  1.00  0.00     0.031 C 
ATOM     37  C   UNL A   1      40.078  28.585  27.379  1.00  0.00     0.029 A 
ATOM     38  N   UNL A   1      41.810  28.056  28.636  1.00  0.00    -0.354 N 
ATOM     39  C   UNL A   1      41.610  28.921  33.059  1.00  0.00     0.074 A 
ATOM     40  C   UNL A   1      40.473  28.044  33.199  1.00  0.00     0.031 C 
ATOM     41  C   UNL A   1      40.842  27.738  26.650  1.00  0.00     0.029 A 
ATOM     42  C   UNL A   1      42.017  27.397  27.430  1.00  0.00     0.049 A 
ATOM     43  H   UNL A   1      42.479  28.061  29.358  1.00  0.00     0.167 HD
ATOM     44  C   UNL A   1      42.786  28.950  33.744  1.00  0.00     0.031 A 
ATOM     45  C   UNL A   1      43.089  26.626  27.117  1.00  0.00     0.031 A 
ATOM     46  C   UNL A   1      43.717  29.885  33.172  1.00  0.00     0.049 A 
ATOM     47  C   UNL A   1      44.176  27.047  28.034  1.00  0.00     0.074 A 
ATOM     48  C   UNL A   1      43.760  31.255  33.023  1.00  0.00     0.029 A 
ATOM     49  N   UNL A   1      44.590  29.364  32.245  1.00  0.00    -0.354 N 
ATOM     50  N   UNL A   1      44.699  28.243  28.028  1.00  0.00    -0.248 NA
ATOM     51  C   UNL A   1      44.392  26.280  29.249  1.00  0.00     0.031 C 
ATOM     52  C   UNL A   1      44.333  31.473  31.733  1.00  0.00     0.029 A 
ATOM     53  C   UNL A   1      44.672  30.234  31.185  1.00  0.00     0.049 A 
ATOM     54  H   UNL A   1      45.076  28.513  32.328  1.00  0.00     0.167 HD
ATOM     55  C   UNL A   1      44.931  28.536  29.363  1.00  0.00     0.074 A 
ATOM     56  C   UNL A   1      44.835  27.251  30.052  1.00  0.00     0.031 C 
ATOM     57  C   UNL A   1      44.912  29.825  29.813  1.00  0.00     0.031 A 
BRANCH  44  58
ATOM     58  C   UNL A   1      43.225  27.842  34.658  1.00  0.00    -0.014 A 
ATOM     59  C   UNL A   1      43.520  28.121  36.004  1.00  0.00     0.010 A 
ATOM     60  C   UNL A   1      43.587  26.571  34.162  1.00  0.00     0.010 A 
ATOM     61  C   UNL A   1      44.150  27.167  36.815  1.00  0.00     0.020 A 
ATOM     62  C   UNL A   1      44.176  25.600  34.971  1.00  0.00     0.020 A 
ATOM     63  C   UNL A   1      44.471  25.911  36.292  1.00  0.00     0.054 A 
BRANCH  63  64
ATOM     64  S   UNL A   1      45.352  24.717  37.328  1.00  0.00     0.124 S 
ATOM     65  O   UNL A   1      46.727  25.202  37.257  1.00  0.00    -0.237 OA
ATOM     66  O   UNL A   1      44.686  24.883  38.617  1.00  0.00    -0.237 OA
ATOM     67  O   UNL A   1      45.105  23.438  36.665  1.00  0.00    -0.744 OA
ENDBRANCH  63  64
ENDBRANCH  44  58
BRANCH  45  68
ATOM     68  C   UNL A   1      43.138  25.336  26.382  1.00  0.00    -0.014 A 
ATOM     69  C   UNL A   1      43.974  25.201  25.254  1.00  0.00     0.010 A 
ATOM     70  C   UNL A   1      42.648  24.157  26.979  1.00  0.00     0.010 A 
ATOM     71  C   UNL A   1      44.388  23.936  24.805  1.00  0.00     0.020 A 
ATOM     72  C   UNL A   1      43.053  22.891  26.532  1.00  0.00     0.020 A 
ATOM     73  C   UNL A   1      43.954  22.789  25.472  1.00  0.00     0.054 A 
BRANCH  73  74
ATOM     74  S   UNL A   1      44.658  21.176  25.009  1.00  0.00     0.124 S 
ATOM     75  O   UNL A   1      43.734  20.236  25.634  1.00  0.00    -0.237 OA
ATOM     76  O   UNL A   1      44.616  21.229  23.550  1.00  0.00    -0.237 OA
ATOM     77  O   UNL A   1      45.999  21.206  25.591  1.00  0.00    -0.744 OA
ENDBRANCH  73  74
ENDBRANCH  45  68
BRANCH  57  78
ATOM     78  C   UNL A   1      44.981  30.928  28.779  1.00  0.00    -0.014 A 
ATOM     79  C   UNL A   1      46.137  31.682  28.490  1.00  0.00     0.010 A 
ATOM     80  C   UNL A   1      43.837  31.126  27.990  1.00  0.00     0.010 A 
ATOM     81  C   UNL A   1      46.132  32.628  27.448  1.00  0.00     0.020 A 
ATOM     82  C   UNL A   1      43.829  32.052  26.945  1.00  0.00     0.020 A 
ATOM     83  C   UNL A   1      44.975  32.803  26.680  1.00  0.00     0.054 A 
BRANCH  83  84
ATOM     84  S   UNL A   1      44.963  34.019  25.331  1.00  0.00     0.124 S 
ATOM     85  O   UNL A   1      44.381  33.267  24.221  1.00  0.00    -0.237 OA
ATOM     86  O   UNL A   1      44.128  35.088  25.873  1.00  0.00    -0.237 OA
ATOM     87  O   UNL A   1      46.373  34.368  25.163  1.00  0.00    -0.744 OA
ENDBRANCH  83  84
ENDBRANCH  57  78
ENDBRANCH  31  32
ENDBRANCH  23  26
ENDBRANCH  21  22
ENDBRANCH   1  21
TORSDOF 15
ENDMDL
