MODEL 1
REMARK VINA RESULT:     -11.0      0.000      0.000
REMARK SMILES COc1ccc(O[C@H](F)C(=O)NCCCNC(=O)c2ccc(-c3c4nc(c(-c5ccc(S(=O)(=O)[O-])cc5)c5ccc([nH]5)c(-c5ccc(S(=O)(=O)[O-])cc5)c5nc(c(-c6ccc(S(=O)(=O)[O-])cc6)c6ccc3[nH]6)C=C5)C=C4)cc2)c(C(C)(C)C)c1
REMARK SMILES IDX 14 1 13 2 12 3 10 4 11 5 8 7 9 8 7 9 6 10 3 11 4 12 84 13
REMARK SMILES IDX 5 14 79 15 2 16 1 17 80 18 81 19 82 20 83 21 15 22 16 23
REMARK SMILES IDX 17 24 18 26 19 27 20 28 78 29 21 30 77 31 22 32 23 33 24 34
REMARK SMILES IDX 71 35 25 36 76 37 70 38 72 39 26 40 75 41 69 42 68 43 27 45
REMARK SMILES IDX 57 46 38 47 56 48 39 49 42 50 55 51 73 52 40 53 41 54 54 56
REMARK SMILES IDX 74 57 43 58 28 59 29 60 37 61 30 62 36 63 31 64 32 65 33 66
REMARK SMILES IDX 34 67 35 68 58 69 59 70 67 71 60 72 66 73 61 74 62 75 63 76
REMARK SMILES IDX 64 77 65 78 44 79 45 80 53 81 46 82 52 83 47 84 48 85 49 86
REMARK SMILES IDX 50 87 51 88
REMARK H PARENT 12 6 16 25 72 44 42 55
REMARK Flexibility Score: inf
ROOT
ATOM      1  C   UNL A   1      33.094  28.480  25.619  1.00  0.00     0.042 C 
ENDROOT
BRANCH   1   2
ATOM      2  C   UNL A   1      33.446  27.124  25.027  1.00  0.00     0.118 C 
BRANCH   2   3
ATOM      3  N   UNL A   1      33.710  27.167  23.598  1.00  0.00    -0.350 N 
ATOM      4  C   UNL A   1      33.664  26.122  22.709  1.00  0.00     0.294 C 
ATOM      5  O   UNL A   1      33.780  26.387  21.507  1.00  0.00    -0.267 OA
ATOM      6  H   UNL A   1      33.950  28.046  23.225  1.00  0.00     0.163 HD
BRANCH   4   7
ATOM      7  C   UNL A   1      33.429  24.668  23.201  1.00  0.00     0.440 C 
ATOM      8  F   UNL A   1      33.647  23.735  22.230  1.00  0.00    -0.191 F 
BRANCH   7   9
ATOM      9  O   UNL A   1      34.060  24.226  24.404  1.00  0.00    -0.451 OA
BRANCH   9  10
ATOM     10  C   UNL A   1      33.880  22.889  24.640  1.00  0.00     0.127 A 
ATOM     11  C   UNL A   1      33.335  20.229  25.272  1.00  0.00     0.119 A 
ATOM     12  C   UNL A   1      32.293  21.083  24.943  1.00  0.00     0.050 A 
ATOM     13  C   UNL A   1      34.656  20.685  25.185  1.00  0.00     0.054 A 
ATOM     14  C   UNL A   1      32.562  22.410  24.630  1.00  0.00     0.051 A 
ATOM     15  C   UNL A   1      34.973  22.012  24.800  1.00  0.00     0.003 A 
BRANCH  11  16
ATOM     16  O   UNL A   1      32.952  18.959  25.597  1.00  0.00    -0.497 OA
ATOM     17  C   UNL A   1      32.433  18.163  24.539  1.00  0.00     0.278 C 
ENDBRANCH  11  16
BRANCH  15  18
ATOM     18  C   UNL A   1      36.443  22.409  24.513  1.00  0.00    -0.009 C 
ATOM     19  C   UNL A   1      36.642  22.827  23.035  1.00  0.00     0.016 C 
ATOM     20  C   UNL A   1      36.900  23.560  25.427  1.00  0.00     0.016 C 
ATOM     21  C   UNL A   1      37.436  21.236  24.743  1.00  0.00     0.016 C 
ENDBRANCH  15  18
ENDBRANCH   9  10
ENDBRANCH   7   9
ENDBRANCH   4   7
ENDBRANCH   2   3
ENDBRANCH   1   2
BRANCH   1  22
ATOM     22  C   UNL A   1      33.350  28.626  27.114  1.00  0.00     0.118 C 
BRANCH  22  23
ATOM     23  N   UNL A   1      33.415  30.001  27.586  1.00  0.00    -0.352 N 
ATOM     24  C   UNL A   1      34.470  30.689  28.145  1.00  0.00     0.251 C 
ATOM     25  H   UNL A   1      32.581  30.516  27.492  1.00  0.00     0.163 HD
ATOM     26  O   UNL A   1      34.310  31.840  28.543  1.00  0.00    -0.269 OA
BRANCH  24  27
ATOM     27  C   UNL A   1      35.782  30.025  28.330  1.00  0.00     0.039 A 
ATOM     28  C   UNL A   1      36.706  30.065  27.282  1.00  0.00     0.014 A 
ATOM     29  C   UNL A   1      36.130  29.417  29.539  1.00  0.00     0.014 A 
ATOM     30  C   UNL A   1      38.009  29.604  27.486  1.00  0.00     0.010 A 
ATOM     31  C   UNL A   1      37.454  29.050  29.770  1.00  0.00     0.010 A 
ATOM     32  C   UNL A   1      38.413  29.154  28.752  1.00  0.00    -0.014 A 
BRANCH  32  33
ATOM     33  C   UNL A   1      39.835  28.819  29.041  1.00  0.00     0.031 A 
ATOM     34  C   UNL A   1      40.753  29.850  29.644  1.00  0.00     0.074 A 
ATOM     35  C   UNL A   1      40.325  27.613  28.685  1.00  0.00     0.049 A 
ATOM     36  N   UNL A   1      42.038  29.772  29.881  1.00  0.00    -0.248 NA
ATOM     37  C   UNL A   1      40.156  31.148  29.996  1.00  0.00     0.031 C 
ATOM     38  C   UNL A   1      39.561  26.540  28.040  1.00  0.00     0.029 A 
ATOM     39  N   UNL A   1      41.588  27.087  28.805  1.00  0.00    -0.354 N 
ATOM     40  C   UNL A   1      42.406  31.016  30.380  1.00  0.00     0.074 A 
ATOM     41  C   UNL A   1      41.220  31.844  30.369  1.00  0.00     0.031 C 
ATOM     42  C   UNL A   1      40.360  25.478  27.856  1.00  0.00     0.029 A 
ATOM     43  C   UNL A   1      41.702  25.803  28.326  1.00  0.00     0.049 A 
ATOM     44  H   UNL A   1      42.343  27.583  29.198  1.00  0.00     0.167 HD
ATOM     45  C   UNL A   1      43.617  31.430  30.827  1.00  0.00     0.031 A 
ATOM     46  C   UNL A   1      42.765  24.976  28.266  1.00  0.00     0.031 A 
ATOM     47  C   UNL A   1      44.790  30.600  30.869  1.00  0.00     0.049 A 
ATOM     48  C   UNL A   1      44.092  25.447  28.794  1.00  0.00     0.074 A 
ATOM     49  C   UNL A   1      46.045  30.907  31.364  1.00  0.00     0.029 A 
ATOM     50  N   UNL A   1      44.852  29.295  30.404  1.00  0.00    -0.354 N 
ATOM     51  N   UNL A   1      44.404  26.610  29.315  1.00  0.00    -0.248 NA
ATOM     52  C   UNL A   1      45.207  24.492  28.733  1.00  0.00     0.031 C 
ATOM     53  C   UNL A   1      46.877  29.799  31.166  1.00  0.00     0.029 A 
ATOM     54  C   UNL A   1      46.127  28.787  30.588  1.00  0.00     0.049 A 
ATOM     55  H   UNL A   1      44.101  28.801  30.002  1.00  0.00     0.167 HD
ATOM     56  C   UNL A   1      45.746  26.518  29.665  1.00  0.00     0.074 A 
ATOM     57  C   UNL A   1      46.182  25.183  29.310  1.00  0.00     0.031 C 
ATOM     58  C   UNL A   1      46.545  27.455  30.231  1.00  0.00     0.031 A 
BRANCH  45  59
ATOM     59  C   UNL A   1      43.725  32.851  31.313  1.00  0.00    -0.014 A 
ATOM     60  C   UNL A   1      44.151  33.879  30.453  1.00  0.00     0.010 A 
ATOM     61  C   UNL A   1      43.375  33.167  32.638  1.00  0.00     0.010 A 
ATOM     62  C   UNL A   1      44.275  35.190  30.923  1.00  0.00     0.020 A 
ATOM     63  C   UNL A   1      43.471  34.481  33.104  1.00  0.00     0.020 A 
ATOM     64  C   UNL A   1      43.941  35.480  32.249  1.00  0.00     0.054 A 
BRANCH  64  65
ATOM     65  S   UNL A   1      44.103  37.190  32.832  1.00  0.00     0.124 S 
ATOM     66  O   UNL A   1      45.483  37.214  33.312  1.00  0.00    -0.237 OA
ATOM     67  O   UNL A   1      43.846  37.969  31.623  1.00  0.00    -0.237 OA
ATOM     68  O   UNL A   1      43.081  37.300  33.869  1.00  0.00    -0.744 OA
ENDBRANCH  64  65
ENDBRANCH  45  59
BRANCH  46  69
ATOM     69  C   UNL A   1      42.612  23.606  27.707  1.00  0.00    -0.014 A 
ATOM     70  C   UNL A   1      42.978  23.337  26.376  1.00  0.00     0.010 A 
ATOM     71  C   UNL A   1      42.115  22.559  28.503  1.00  0.00     0.010 A 
ATOM     72  C   UNL A   1      42.835  22.052  25.847  1.00  0.00     0.020 A 
ATOM     73  C   UNL A   1      41.992  21.266  27.985  1.00  0.00     0.020 A 
ATOM     74  C   UNL A   1      42.344  21.024  26.654  1.00  0.00     0.054 A 
BRANCH  74  75
ATOM     75  S   UNL A   1      42.219  19.349  25.966  1.00  0.00     0.124 S 
ATOM     76  O   UNL A   1      40.781  19.214  25.756  1.00  0.00    -0.237 OA
ATOM     77  O   UNL A   1      43.030  19.443  24.754  1.00  0.00    -0.237 OA
ATOM     78  O   UNL A   1      42.783  18.506  27.018  1.00  0.00    -0.744 OA
ENDBRANCH  74  75
ENDBRANCH  46  69
BRANCH  58  79
ATOM     79  C   UNL A   1      47.965  27.064  30.532  1.00  0.00    -0.014 A 
ATOM     80  C   UNL A   1      49.005  27.362  29.635  1.00  0.00     0.010 A 
ATOM     81  C   UNL A   1      48.269  26.437  31.754  1.00  0.00     0.010 A 
ATOM     82  C   UNL A   1      50.324  27.016  29.945  1.00  0.00     0.020 A 
ATOM     83  C   UNL A   1      49.588  26.110  32.077  1.00  0.00     0.020 A 
ATOM     84  C   UNL A   1      50.606  26.391  31.164  1.00  0.00     0.054 A 
BRANCH  84  85
ATOM     85  S   UNL A   1      52.330  25.995  31.566  1.00  0.00     0.124 S 
ATOM     86  O   UNL A   1      52.669  27.049  32.517  1.00  0.00    -0.237 OA
ATOM     87  O   UNL A   1      52.231  24.651  32.128  1.00  0.00    -0.237 OA
ATOM     88  O   UNL A   1      53.012  26.075  30.276  1.00  0.00    -0.744 OA
ENDBRANCH  84  85
ENDBRANCH  58  79
ENDBRANCH  32  33
ENDBRANCH  24  27
ENDBRANCH  22  23
ENDBRANCH   1  22
TORSDOF 17
ENDMDL
MODEL 2
REMARK VINA RESULT:     -10.9      2.905      9.646
REMARK SMILES COc1ccc(O[C@H](F)C(=O)NCCCNC(=O)c2ccc(-c3c4nc(c(-c5ccc(S(=O)(=O)[O-])cc5)c5ccc([nH]5)c(-c5ccc(S(=O)(=O)[O-])cc5)c5nc(c(-c6ccc(S(=O)(=O)[O-])cc6)c6ccc3[nH]6)C=C5)C=C4)cc2)c(C(C)(C)C)c1
REMARK SMILES IDX 14 1 13 2 12 3 10 4 11 5 8 7 9 8 7 9 6 10 3 11 4 12 84 13
REMARK SMILES IDX 5 14 79 15 2 16 1 17 80 18 81 19 82 20 83 21 15 22 16 23
REMARK SMILES IDX 17 24 18 26 19 27 20 28 78 29 21 30 77 31 22 32 23 33 24 34
REMARK SMILES IDX 71 35 25 36 76 37 70 38 72 39 26 40 75 41 69 42 68 43 27 45
REMARK SMILES IDX 57 46 38 47 56 48 39 49 42 50 55 51 73 52 40 53 41 54 54 56
REMARK SMILES IDX 74 57 43 58 28 59 29 60 37 61 30 62 36 63 31 64 32 65 33 66
REMARK SMILES IDX 34 67 35 68 58 69 59 70 67 71 60 72 66 73 61 74 62 75 63 76
REMARK SMILES IDX 64 77 65 78 44 79 45 80 53 81 46 82 52 83 47 84 48 85 49 86
REMARK SMILES IDX 50 87 51 88
REMARK H PARENT 12 6 16 25 72 44 42 55
REMARK Flexibility Score: inf
ROOT
ATOM      1  C   UNL A   1      35.898  23.252  26.175  1.00  0.00     0.042 C 
ENDROOT
BRANCH   1   2
ATOM      2  C   UNL A   1      34.565  23.799  25.688  1.00  0.00     0.118 C 
BRANCH   2   3
ATOM      3  N   UNL A   1      33.478  23.605  26.634  1.00  0.00    -0.350 N 
ATOM      4  C   UNL A   1      32.197  24.088  26.546  1.00  0.00     0.294 C 
ATOM      5  O   UNL A   1      31.377  23.694  27.381  1.00  0.00    -0.267 OA
ATOM      6  H   UNL A   1      33.685  23.064  27.431  1.00  0.00     0.163 HD
BRANCH   4   7
ATOM      7  C   UNL A   1      31.791  25.060  25.405  1.00  0.00     0.440 C 
ATOM      8  F   UNL A   1      31.511  24.419  24.233  1.00  0.00    -0.191 F 
BRANCH   7   9
ATOM      9  O   UNL A   1      30.771  26.033  25.643  1.00  0.00    -0.451 OA
BRANCH   9  10
ATOM     10  C   UNL A   1      31.271  27.294  25.828  1.00  0.00     0.127 A 
ATOM     11  C   UNL A   1      32.218  29.846  26.434  1.00  0.00     0.119 A 
ATOM     12  C   UNL A   1      32.537  28.780  27.263  1.00  0.00     0.050 A 
ATOM     13  C   UNL A   1      31.510  29.611  25.248  1.00  0.00     0.054 A 
ATOM     14  C   UNL A   1      32.063  27.508  26.964  1.00  0.00     0.051 A 
ATOM     15  C   UNL A   1      31.073  28.315  24.875  1.00  0.00     0.003 A 
BRANCH  11  16
ATOM     16  O   UNL A   1      32.705  31.054  26.843  1.00  0.00    -0.497 OA
ATOM     17  C   UNL A   1      33.922  31.031  27.580  1.00  0.00     0.278 C 
ENDBRANCH  11  16
BRANCH  15  18
ATOM     18  C   UNL A   1      30.483  28.071  23.462  1.00  0.00    -0.009 C 
ATOM     19  C   UNL A   1      29.192  27.216  23.525  1.00  0.00     0.016 C 
ATOM     20  C   UNL A   1      30.173  29.398  22.748  1.00  0.00     0.016 C 
ATOM     21  C   UNL A   1      31.451  27.281  22.538  1.00  0.00     0.016 C 
ENDBRANCH  15  18
ENDBRANCH   9  10
ENDBRANCH   7   9
ENDBRANCH   4   7
ENDBRANCH   2   3
ENDBRANCH   1   2
BRANCH   1  22
ATOM     22  C   UNL A   1      37.059  23.400  25.200  1.00  0.00     0.118 C 
BRANCH  22  23
ATOM     23  N   UNL A   1      38.225  22.589  25.520  1.00  0.00    -0.352 N 
ATOM     24  C   UNL A   1      39.361  22.923  26.225  1.00  0.00     0.251 C 
ATOM     25  H   UNL A   1      38.198  21.664  25.181  1.00  0.00     0.163 HD
ATOM     26  O   UNL A   1      40.275  22.110  26.337  1.00  0.00    -0.269 OA
BRANCH  24  27
ATOM     27  C   UNL A   1      39.515  24.283  26.793  1.00  0.00     0.039 A 
ATOM     28  C   UNL A   1      39.057  24.522  28.092  1.00  0.00     0.014 A 
ATOM     29  C   UNL A   1      40.155  25.304  26.085  1.00  0.00     0.014 A 
ATOM     30  C   UNL A   1      39.344  25.737  28.718  1.00  0.00     0.010 A 
ATOM     31  C   UNL A   1      40.524  26.474  26.744  1.00  0.00     0.010 A 
ATOM     32  C   UNL A   1      40.137  26.699  28.073  1.00  0.00    -0.014 A 
BRANCH  32  33
ATOM     33  C   UNL A   1      40.600  27.925  28.779  1.00  0.00     0.031 A 
ATOM     34  C   UNL A   1      41.978  27.983  29.383  1.00  0.00     0.074 A 
ATOM     35  C   UNL A   1      39.750  28.960  28.951  1.00  0.00     0.049 A 
ATOM     36  N   UNL A   1      42.522  28.926  30.110  1.00  0.00    -0.248 NA
ATOM     37  C   UNL A   1      42.848  26.815  29.168  1.00  0.00     0.031 C 
ATOM     38  C   UNL A   1      38.366  29.014  28.468  1.00  0.00     0.029 A 
ATOM     39  N   UNL A   1      39.920  30.164  29.589  1.00  0.00    -0.354 N 
ATOM     40  C   UNL A   1      43.780  28.453  30.464  1.00  0.00     0.074 A 
ATOM     41  C   UNL A   1      43.902  27.123  29.910  1.00  0.00     0.031 C 
ATOM     42  C   UNL A   1      37.830  30.200  28.795  1.00  0.00     0.029 A 
ATOM     43  C   UNL A   1      38.810  30.975  29.548  1.00  0.00     0.049 A 
ATOM     44  H   UNL A   1      40.759  30.423  30.034  1.00  0.00     0.167 HD
ATOM     45  C   UNL A   1      44.757  29.076  31.168  1.00  0.00     0.031 A 
ATOM     46  C   UNL A   1      38.598  32.204  30.060  1.00  0.00     0.031 A 
ATOM     47  C   UNL A   1      44.650  30.411  31.692  1.00  0.00     0.049 A 
ATOM     48  C   UNL A   1      39.706  32.886  30.814  1.00  0.00     0.074 A 
ATOM     49  C   UNL A   1      45.607  31.151  32.362  1.00  0.00     0.029 A 
ATOM     50  N   UNL A   1      43.519  31.209  31.599  1.00  0.00    -0.354 N 
ATOM     51  N   UNL A   1      40.910  32.442  31.087  1.00  0.00    -0.248 NA
ATOM     52  C   UNL A   1      39.429  34.238  31.322  1.00  0.00     0.031 C 
ATOM     53  C   UNL A   1      45.043  32.386  32.706  1.00  0.00     0.029 A 
ATOM     54  C   UNL A   1      43.750  32.429  32.211  1.00  0.00     0.049 A 
ATOM     55  H   UNL A   1      42.676  30.946  31.163  1.00  0.00     0.167 HD
ATOM     56  C   UNL A   1      41.542  33.470  31.779  1.00  0.00     0.074 A 
ATOM     57  C   UNL A   1      40.593  34.561  31.869  1.00  0.00     0.031 C 
ATOM     58  C   UNL A   1      42.797  33.506  32.291  1.00  0.00     0.031 A 
BRANCH  45  59
ATOM     59  C   UNL A   1      46.032  28.311  31.405  1.00  0.00    -0.014 A 
ATOM     60  C   UNL A   1      46.199  27.524  32.558  1.00  0.00     0.010 A 
ATOM     61  C   UNL A   1      47.066  28.362  30.454  1.00  0.00     0.010 A 
ATOM     62  C   UNL A   1      47.398  26.840  32.781  1.00  0.00     0.020 A 
ATOM     63  C   UNL A   1      48.256  27.658  30.660  1.00  0.00     0.020 A 
ATOM     64  C   UNL A   1      48.422  26.919  31.833  1.00  0.00     0.054 A 
BRANCH  64  65
ATOM     65  S   UNL A   1      49.965  26.017  32.143  1.00  0.00     0.124 S 
ATOM     66  O   UNL A   1      49.470  24.745  32.663  1.00  0.00    -0.237 OA
ATOM     67  O   UNL A   1      50.576  25.958  30.817  1.00  0.00    -0.237 OA
ATOM     68  O   UNL A   1      50.667  26.855  33.112  1.00  0.00    -0.744 OA
ENDBRANCH  64  65
ENDBRANCH  45  59
BRANCH  46  69
ATOM     69  C   UNL A   1      37.290  32.880  29.855  1.00  0.00    -0.014 A 
ATOM     70  C   UNL A   1      36.303  32.838  30.856  1.00  0.00     0.010 A 
ATOM     71  C   UNL A   1      37.026  33.583  28.665  1.00  0.00     0.010 A 
ATOM     72  C   UNL A   1      35.071  33.471  30.666  1.00  0.00     0.020 A 
ATOM     73  C   UNL A   1      35.804  34.238  28.481  1.00  0.00     0.020 A 
ATOM     74  C   UNL A   1      34.829  34.168  29.480  1.00  0.00     0.054 A 
BRANCH  74  75
ATOM     75  S   UNL A   1      33.246  35.031  29.276  1.00  0.00     0.124 S 
ATOM     76  O   UNL A   1      33.676  36.350  28.821  1.00  0.00    -0.237 OA
ATOM     77  O   UNL A   1      32.562  34.209  28.282  1.00  0.00    -0.237 OA
ATOM     78  O   UNL A   1      32.662  34.990  30.615  1.00  0.00    -0.744 OA
ENDBRANCH  74  75
ENDBRANCH  46  69
BRANCH  58  79
ATOM     79  C   UNL A   1      43.230  34.775  32.970  1.00  0.00    -0.014 A 
ATOM     80  C   UNL A   1      43.785  35.838  32.236  1.00  0.00     0.010 A 
ATOM     81  C   UNL A   1      43.028  34.926  34.354  1.00  0.00     0.010 A 
ATOM     82  C   UNL A   1      44.155  37.022  32.881  1.00  0.00     0.020 A 
ATOM     83  C   UNL A   1      43.376  36.116  34.998  1.00  0.00     0.020 A 
ATOM     84  C   UNL A   1      43.949  37.152  34.259  1.00  0.00     0.054 A 
BRANCH  84  85
ATOM     85  S   UNL A   1      44.392  38.715  35.065  1.00  0.00     0.124 S 
ATOM     86  O   UNL A   1      44.013  38.459  36.451  1.00  0.00    -0.237 OA
ATOM     87  O   UNL A   1      45.827  38.813  34.815  1.00  0.00    -0.237 OA
ATOM     88  O   UNL A   1      43.576  39.707  34.368  1.00  0.00    -0.744 OA
ENDBRANCH  84  85
ENDBRANCH  58  79
ENDBRANCH  32  33
ENDBRANCH  24  27
ENDBRANCH  22  23
ENDBRANCH   1  22
TORSDOF 17
ENDMDL
MODEL 3
REMARK VINA RESULT:     -10.5      3.922     10.833
REMARK SMILES COc1ccc(O[C@H](F)C(=O)NCCCNC(=O)c2ccc(-c3c4nc(c(-c5ccc(S(=O)(=O)[O-])cc5)c5ccc([nH]5)c(-c5ccc(S(=O)(=O)[O-])cc5)c5nc(c(-c6ccc(S(=O)(=O)[O-])cc6)c6ccc3[nH]6)C=C5)C=C4)cc2)c(C(C)(C)C)c1
REMARK SMILES IDX 14 1 13 2 12 3 10 4 11 5 8 7 9 8 7 9 6 10 3 11 4 12 84 13
REMARK SMILES IDX 5 14 79 15 2 16 1 17 80 18 81 19 82 20 83 21 15 22 16 23
REMARK SMILES IDX 17 24 18 26 19 27 20 28 78 29 21 30 77 31 22 32 23 33 24 34
REMARK SMILES IDX 71 35 25 36 76 37 70 38 72 39 26 40 75 41 69 42 68 43 27 45
REMARK SMILES IDX 57 46 38 47 56 48 39 49 42 50 55 51 73 52 40 53 41 54 54 56
REMARK SMILES IDX 74 57 43 58 28 59 29 60 37 61 30 62 36 63 31 64 32 65 33 66
REMARK SMILES IDX 34 67 35 68 58 69 59 70 67 71 60 72 66 73 61 74 62 75 63 76
REMARK SMILES IDX 64 77 65 78 44 79 45 80 53 81 46 82 52 83 47 84 48 85 49 86
REMARK SMILES IDX 50 87 51 88
REMARK H PARENT 12 6 16 25 72 44 42 55
REMARK Flexibility Score: inf
ROOT
ATOM      1  C   UNL A   1      42.315  22.477  26.729  1.00  0.00     0.042 C 
ENDROOT
BRANCH   1   2
ATOM      2  C   UNL A   1      43.398  21.559  26.181  1.00  0.00     0.118 C 
BRANCH   2   3
ATOM      3  N   UNL A   1      43.707  21.798  24.781  1.00  0.00    -0.350 N 
ATOM      4  C   UNL A   1      44.545  22.753  24.262  1.00  0.00     0.294 C 
ATOM      5  O   UNL A   1      44.790  22.704  23.052  1.00  0.00    -0.267 OA
ATOM      6  H   UNL A   1      43.264  21.207  24.129  1.00  0.00     0.163 HD
BRANCH   4   7
ATOM      7  C   UNL A   1      45.195  23.825  25.179  1.00  0.00     0.440 C 
ATOM      8  F   UNL A   1      46.018  23.287  26.126  1.00  0.00    -0.191 F 
BRANCH   7   9
ATOM      9  O   UNL A   1      45.856  24.945  24.587  1.00  0.00    -0.451 OA
BRANCH   9  10
ATOM     10  C   UNL A   1      45.550  26.129  25.201  1.00  0.00     0.127 A 
ATOM     11  C   UNL A   1      44.774  28.585  26.270  1.00  0.00     0.119 A 
ATOM     12  C   UNL A   1      43.808  27.685  25.844  1.00  0.00     0.050 A 
ATOM     13  C   UNL A   1      46.124  28.210  26.253  1.00  0.00     0.054 A 
ATOM     14  C   UNL A   1      44.193  26.462  25.309  1.00  0.00     0.051 A 
ATOM     15  C   UNL A   1      46.548  26.942  25.780  1.00  0.00     0.003 A 
BRANCH  11  16
ATOM     16  O   UNL A   1      44.285  29.768  26.744  1.00  0.00    -0.497 OA
ATOM     17  C   UNL A   1      45.199  30.592  27.459  1.00  0.00     0.278 C 
ENDBRANCH  11  16
BRANCH  15  18
ATOM     18  C   UNL A   1      48.018  26.491  25.975  1.00  0.00    -0.009 C 
ATOM     19  C   UNL A   1      48.596  25.861  24.684  1.00  0.00     0.016 C 
ATOM     20  C   UNL A   1      48.912  27.669  26.404  1.00  0.00     0.016 C 
ATOM     21  C   UNL A   1      48.169  25.396  27.068  1.00  0.00     0.016 C 
ENDBRANCH  15  18
ENDBRANCH   9  10
ENDBRANCH   7   9
ENDBRANCH   4   7
ENDBRANCH   2   3
ENDBRANCH   1   2
BRANCH   1  22
ATOM     22  C   UNL A   1      41.127  21.773  27.372  1.00  0.00     0.118 C 
BRANCH  22  23
ATOM     23  N   UNL A   1      39.926  21.740  26.550  1.00  0.00    -0.352 N 
ATOM     24  C   UNL A   1      39.047  22.755  26.239  1.00  0.00     0.251 C 
ATOM     25  H   UNL A   1      39.709  20.863  26.158  1.00  0.00     0.163 HD
ATOM     26  O   UNL A   1      38.043  22.515  25.573  1.00  0.00    -0.269 OA
BRANCH  24  27
ATOM     27  C   UNL A   1      39.271  24.124  26.761  1.00  0.00     0.039 A 
ATOM     28  C   UNL A   1      38.843  24.425  28.057  1.00  0.00     0.014 A 
ATOM     29  C   UNL A   1      39.946  25.091  26.011  1.00  0.00     0.014 A 
ATOM     30  C   UNL A   1      39.194  25.645  28.640  1.00  0.00     0.010 A 
ATOM     31  C   UNL A   1      40.377  26.264  26.627  1.00  0.00     0.010 A 
ATOM     32  C   UNL A   1      40.021  26.549  27.953  1.00  0.00    -0.014 A 
BRANCH  32  33
ATOM     33  C   UNL A   1      40.549  27.774  28.613  1.00  0.00     0.031 A 
ATOM     34  C   UNL A   1      41.962  27.813  29.130  1.00  0.00     0.074 A 
ATOM     35  C   UNL A   1      39.731  28.827  28.822  1.00  0.00     0.049 A 
ATOM     36  N   UNL A   1      42.567  28.754  29.810  1.00  0.00    -0.248 NA
ATOM     37  C   UNL A   1      42.795  26.626  28.879  1.00  0.00     0.031 C 
ATOM     38  C   UNL A   1      38.321  28.903  28.424  1.00  0.00     0.029 A 
ATOM     39  N   UNL A   1      39.962  30.036  29.432  1.00  0.00    -0.354 N 
ATOM     40  C   UNL A   1      43.836  28.261  30.092  1.00  0.00     0.074 A 
ATOM     41  C   UNL A   1      43.899  26.921  29.550  1.00  0.00     0.031 C 
ATOM     42  C   UNL A   1      37.828  30.103  28.767  1.00  0.00     0.029 A 
ATOM     43  C   UNL A   1      38.867  30.869  29.448  1.00  0.00     0.049 A 
ATOM     44  H   UNL A   1      40.832  30.284  29.821  1.00  0.00     0.167 HD
ATOM     45  C   UNL A   1      44.865  28.873  30.727  1.00  0.00     0.031 A 
ATOM     46  C   UNL A   1      38.711  32.107  29.955  1.00  0.00     0.031 A 
ATOM     47  C   UNL A   1      44.816  30.216  31.238  1.00  0.00     0.049 A 
ATOM     48  C   UNL A   1      39.875  32.777  30.631  1.00  0.00     0.074 A 
ATOM     49  C   UNL A   1      45.826  30.946  31.838  1.00  0.00     0.029 A 
ATOM     50  N   UNL A   1      43.697  31.035  31.204  1.00  0.00    -0.354 N 
ATOM     51  N   UNL A   1      41.084  32.313  30.836  1.00  0.00    -0.248 NA
ATOM     52  C   UNL A   1      39.655  34.140  31.136  1.00  0.00     0.031 C 
ATOM     53  C   UNL A   1      45.308  32.196  32.199  1.00  0.00     0.029 A 
ATOM     54  C   UNL A   1      43.988  32.258  31.783  1.00  0.00     0.049 A 
ATOM     55  H   UNL A   1      42.824  30.784  30.823  1.00  0.00     0.167 HD
ATOM     56  C   UNL A   1      41.778  33.336  31.473  1.00  0.00     0.074 A 
ATOM     57  C   UNL A   1      40.857  34.447  31.607  1.00  0.00     0.031 C 
ATOM     58  C   UNL A   1      43.061  33.354  31.907  1.00  0.00     0.031 A 
BRANCH  45  59
ATOM     59  C   UNL A   1      46.138  28.086  30.896  1.00  0.00    -0.014 A 
ATOM     60  C   UNL A   1      46.324  27.241  32.005  1.00  0.00     0.010 A 
ATOM     61  C   UNL A   1      47.151  28.175  29.924  1.00  0.00     0.010 A 
ATOM     62  C   UNL A   1      47.521  26.538  32.165  1.00  0.00     0.020 A 
ATOM     63  C   UNL A   1      48.338  27.452  30.068  1.00  0.00     0.020 A 
ATOM     64  C   UNL A   1      48.523  26.655  31.199  1.00  0.00     0.054 A 
BRANCH  64  65
ATOM     65  S   UNL A   1      50.065  25.725  31.428  1.00  0.00     0.124 S 
ATOM     66  O   UNL A   1      51.030  26.797  31.656  1.00  0.00    -0.237 OA
ATOM     67  O   UNL A   1      49.768  24.890  32.589  1.00  0.00    -0.237 OA
ATOM     68  O   UNL A   1      50.223  25.002  30.169  1.00  0.00    -0.744 OA
ENDBRANCH  64  65
ENDBRANCH  45  59
BRANCH  46  69
ATOM     69  C   UNL A   1      37.405  32.807  29.821  1.00  0.00    -0.014 A 
ATOM     70  C   UNL A   1      37.126  33.579  28.679  1.00  0.00     0.010 A 
ATOM     71  C   UNL A   1      36.426  32.695  30.825  1.00  0.00     0.010 A 
ATOM     72  C   UNL A   1      35.901  34.239  28.550  1.00  0.00     0.020 A 
ATOM     73  C   UNL A   1      35.189  33.334  30.688  1.00  0.00     0.020 A 
ATOM     74  C   UNL A   1      34.940  34.112  29.555  1.00  0.00     0.054 A 
BRANCH  74  75
ATOM     75  S   UNL A   1      33.334  34.930  29.342  1.00  0.00     0.124 S 
ATOM     76  O   UNL A   1      32.763  34.832  30.682  1.00  0.00    -0.237 OA
ATOM     77  O   UNL A   1      33.716  36.273  28.912  1.00  0.00    -0.237 OA
ATOM     78  O   UNL A   1      32.674  34.123  28.319  1.00  0.00    -0.744 OA
ENDBRANCH  74  75
ENDBRANCH  46  69
BRANCH  58  79
ATOM     79  C   UNL A   1      43.560  34.623  32.541  1.00  0.00    -0.014 A 
ATOM     80  C   UNL A   1      43.535  34.797  33.935  1.00  0.00     0.010 A 
ATOM     81  C   UNL A   1      44.111  35.633  31.731  1.00  0.00     0.010 A 
ATOM     82  C   UNL A   1      44.030  35.972  34.508  1.00  0.00     0.020 A 
ATOM     83  C   UNL A   1      44.627  36.799  32.302  1.00  0.00     0.020 A 
ATOM     84  C   UNL A   1      44.571  36.967  33.687  1.00  0.00     0.054 A 
BRANCH  84  85
ATOM     85  S   UNL A   1      45.252  38.461  34.456  1.00  0.00     0.124 S 
ATOM     86  O   UNL A   1      44.087  39.004  35.148  1.00  0.00    -0.237 OA
ATOM     87  O   UNL A   1      46.304  37.931  35.318  1.00  0.00    -0.237 OA
ATOM     88  O   UNL A   1      45.725  39.250  33.320  1.00  0.00    -0.744 OA
ENDBRANCH  84  85
ENDBRANCH  58  79
ENDBRANCH  32  33
ENDBRANCH  24  27
ENDBRANCH  22  23
ENDBRANCH   1  22
TORSDOF 17
ENDMDL
