MODEL 1
REMARK VINA RESULT:     -12.2      0.000      0.000
REMARK SMILES Cc1nn(C)c(=O)c(C(=O)N[C@H]2C=C[C@H](C(=O)NCCCNC(=O)c3ccc(-c4c5nc(c(-c6ccc(S(=O)(=O)[O-])cc6)c6ccc([nH]6)c(-c6ccc(S(=O)(=O)[O-])cc6)c6nc(c(-c7ccc(S(=O)(=O)[O-])cc7)c7ccc4[nH]7)C=C6)C=C5)cc3)C2)c1C
REMARK SMILES IDX 20 1 19 2 18 3 16 4 17 5 15 7 12 8 13 9 85 10 14 11 11 12
REMARK SMILES IDX 9 13 10 14 8 16 1 17 2 18 3 19 86 20 4 21 87 22 5 23 6 24
REMARK SMILES IDX 7 25 21 26 22 27 23 28 24 30 25 31 26 32 84 33 27 34 83 35
REMARK SMILES IDX 28 36 29 37 30 38 77 39 31 40 82 41 76 42 78 43 32 44 81 45
REMARK SMILES IDX 75 46 74 47 33 49 63 50 44 51 62 52 45 53 48 54 61 55 79 56
REMARK SMILES IDX 46 57 47 58 60 60 80 61 49 62 34 63 35 64 43 65 36 66 42 67
REMARK SMILES IDX 37 68 38 69 39 70 40 71 41 72 64 73 65 74 73 75 66 76 72 77
REMARK SMILES IDX 67 78 68 79 69 80 70 81 71 82 50 83 51 84 59 85 52 86 58 87
REMARK SMILES IDX 53 88 54 89 55 90 56 91 57 92
REMARK H PARENT 18 6 11 15 22 29 78 48 48 59
REMARK Flexibility Score: inf
ROOT
ATOM      1  C   UNL A   1      40.914  21.640  26.744  1.00  0.00     0.042 C 
ENDROOT
BRANCH   1   2
ATOM      2  C   UNL A   1      39.592  21.438  25.997  1.00  0.00     0.117 C 
BRANCH   2   3
ATOM      3  N   UNL A   1      38.629  22.479  26.326  1.00  0.00    -0.356 N 
ATOM      4  C   UNL A   1      37.450  22.819  25.724  1.00  0.00     0.227 C 
ATOM      5  O   UNL A   1      36.837  23.779  26.197  1.00  0.00    -0.274 OA
ATOM      6  H   UNL A   1      38.865  23.026  27.109  1.00  0.00     0.163 HD
BRANCH   4   7
ATOM      7  C   UNL A   1      36.912  21.990  24.539  1.00  0.00     0.103 C 
ATOM      8  C   UNL A   1      34.566  22.411  24.479  1.00  0.00     0.106 C 
ATOM      9  C   UNL A   1      34.790  20.994  24.878  1.00  0.00    -0.006 C 
ATOM     10  C   UNL A   1      35.839  22.720  23.719  1.00  0.00     0.047 C 
ATOM     11  C   UNL A   1      36.111  20.782  24.990  1.00  0.00    -0.016 C 
BRANCH   8  12
ATOM     12  N   UNL A   1      33.348  22.635  23.774  1.00  0.00    -0.346 N 
ATOM     13  C   UNL A   1      32.569  23.749  23.650  1.00  0.00     0.257 C 
ATOM     14  O   UNL A   1      31.486  23.575  23.084  1.00  0.00    -0.269 OA
ATOM     15  H   UNL A   1      33.009  21.847  23.292  1.00  0.00     0.164 HD
BRANCH  13  16
ATOM     16  C   UNL A   1      32.956  25.135  24.110  1.00  0.00     0.111 A 
ATOM     17  C   UNL A   1      32.982  27.812  26.804  1.00  0.00     0.069 C 
ATOM     18  C   UNL A   1      33.028  27.172  25.432  1.00  0.00     0.062 A 
ATOM     19  N   UNL A   1      33.410  27.935  24.465  1.00  0.00    -0.175 NA
ATOM     20  C   UNL A   1      32.615  25.740  25.271  1.00  0.00    -0.010 A 
ATOM     21  N   UNL A   1      33.555  27.363  23.239  1.00  0.00    -0.232 N 
ATOM     22  C   UNL A   1      31.765  25.226  26.390  1.00  0.00     0.047 C 
ATOM     23  C   UNL A   1      33.844  28.281  22.151  1.00  0.00     0.178 C 
ATOM     24  C   UNL A   1      33.609  25.989  23.046  1.00  0.00     0.279 A 
ATOM     25  O   UNL A   1      34.144  25.474  22.065  1.00  0.00    -0.267 OA
ENDBRANCH  13  16
ENDBRANCH   8  12
ENDBRANCH   4   7
ENDBRANCH   2   3
ENDBRANCH   1   2
BRANCH   1  26
ATOM     26  C   UNL A   1      41.167  23.076  27.191  1.00  0.00     0.118 C 
BRANCH  26  27
ATOM     27  N   UNL A   1      41.620  23.927  26.106  1.00  0.00    -0.352 N 
ATOM     28  C   UNL A   1      41.673  25.298  26.046  1.00  0.00     0.251 C 
ATOM     29  H   UNL A   1      41.934  23.454  25.301  1.00  0.00     0.163 HD
ATOM     30  O   UNL A   1      41.905  25.840  24.962  1.00  0.00    -0.269 OA
BRANCH  28  31
ATOM     31  C   UNL A   1      41.439  26.128  27.251  1.00  0.00     0.039 A 
ATOM     32  C   UNL A   1      42.358  27.132  27.563  1.00  0.00     0.014 A 
ATOM     33  C   UNL A   1      40.347  25.900  28.096  1.00  0.00     0.014 A 
ATOM     34  C   UNL A   1      42.156  27.940  28.688  1.00  0.00     0.010 A 
ATOM     35  C   UNL A   1      40.116  26.748  29.185  1.00  0.00     0.010 A 
ATOM     36  C   UNL A   1      41.017  27.779  29.494  1.00  0.00    -0.014 A 
BRANCH  36  37
ATOM     37  C   UNL A   1      40.767  28.682  30.654  1.00  0.00     0.031 A 
ATOM     38  C   UNL A   1      41.603  28.577  31.903  1.00  0.00     0.074 A 
ATOM     39  C   UNL A   1      39.789  29.609  30.587  1.00  0.00     0.049 A 
ATOM     40  N   UNL A   1      41.528  29.283  33.004  1.00  0.00    -0.248 NA
ATOM     41  C   UNL A   1      42.658  27.551  31.924  1.00  0.00     0.031 C 
ATOM     42  C   UNL A   1      38.908  29.827  29.436  1.00  0.00     0.029 A 
ATOM     43  N   UNL A   1      39.377  30.553  31.497  1.00  0.00    -0.354 N 
ATOM     44  C   UNL A   1      42.532  28.801  33.836  1.00  0.00     0.074 A 
ATOM     45  C   UNL A   1      43.161  27.699  33.142  1.00  0.00     0.031 C 
ATOM     46  C   UNL A   1      38.097  30.866  29.692  1.00  0.00     0.029 A 
ATOM     47  C   UNL A   1      38.350  31.350  31.045  1.00  0.00     0.049 A 
ATOM     48  H   UNL A   1      39.780  30.651  32.390  1.00  0.00     0.167 HD
ATOM     49  C   UNL A   1      42.921  29.258  35.050  1.00  0.00     0.031 A 
ATOM     50  C   UNL A   1      37.677  32.353  31.642  1.00  0.00     0.031 A 
ATOM     51  C   UNL A   1      42.303  30.357  35.743  1.00  0.00     0.049 A 
ATOM     52  C   UNL A   1      38.065  32.773  33.034  1.00  0.00     0.074 A 
ATOM     53  C   UNL A   1      42.645  30.894  36.973  1.00  0.00     0.029 A 
ATOM     54  N   UNL A   1      41.227  31.092  35.272  1.00  0.00    -0.354 N 
ATOM     55  N   UNL A   1      39.040  32.321  33.787  1.00  0.00    -0.248 NA
ATOM     56  C   UNL A   1      37.276  33.848  33.652  1.00  0.00     0.031 C 
ATOM     57  C   UNL A   1      41.744  31.920  37.268  1.00  0.00     0.029 A 
ATOM     58  C   UNL A   1      40.881  32.063  36.196  1.00  0.00     0.049 A 
ATOM     59  H   UNL A   1      40.776  30.945  34.409  1.00  0.00     0.167 HD
ATOM     60  C   UNL A   1      39.007  33.089  34.946  1.00  0.00     0.074 A 
ATOM     61  C   UNL A   1      37.923  34.035  34.795  1.00  0.00     0.031 C 
ATOM     62  C   UNL A   1      39.812  33.016  36.033  1.00  0.00     0.031 A 
BRANCH  49  63
ATOM     63  C   UNL A   1      44.099  28.591  35.711  1.00  0.00    -0.014 A 
ATOM     64  C   UNL A   1      45.396  29.111  35.547  1.00  0.00     0.010 A 
ATOM     65  C   UNL A   1      43.899  27.511  36.591  1.00  0.00     0.010 A 
ATOM     66  C   UNL A   1      46.472  28.557  36.244  1.00  0.00     0.020 A 
ATOM     67  C   UNL A   1      44.970  26.971  37.309  1.00  0.00     0.020 A 
ATOM     68  C   UNL A   1      46.251  27.497  37.126  1.00  0.00     0.054 A 
BRANCH  68  69
ATOM     69  S   UNL A   1      47.660  26.849  38.067  1.00  0.00     0.124 S 
ATOM     70  O   UNL A   1      48.607  26.518  37.004  1.00  0.00    -0.237 OA
ATOM     71  O   UNL A   1      48.031  27.985  38.906  1.00  0.00    -0.237 OA
ATOM     72  O   UNL A   1      47.105  25.702  38.782  1.00  0.00    -0.744 OA
ENDBRANCH  68  69
ENDBRANCH  49  63
BRANCH  50  73
ATOM     73  C   UNL A   1      36.569  33.051  30.929  1.00  0.00    -0.014 A 
ATOM     74  C   UNL A   1      36.839  33.845  29.799  1.00  0.00     0.010 A 
ATOM     75  C   UNL A   1      35.243  32.951  31.391  1.00  0.00     0.010 A 
ATOM     76  C   UNL A   1      35.813  34.555  29.170  1.00  0.00     0.020 A 
ATOM     77  C   UNL A   1      34.209  33.634  30.744  1.00  0.00     0.020 A 
ATOM     78  C   UNL A   1      34.504  34.448  29.649  1.00  0.00     0.054 A 
BRANCH  78  79
ATOM     79  S   UNL A   1      33.194  35.384  28.813  1.00  0.00     0.124 S 
ATOM     80  O   UNL A   1      32.458  35.948  29.940  1.00  0.00    -0.237 OA
ATOM     81  O   UNL A   1      33.955  36.340  28.012  1.00  0.00    -0.237 OA
ATOM     82  O   UNL A   1      32.481  34.365  28.047  1.00  0.00    -0.744 OA
ENDBRANCH  78  79
ENDBRANCH  50  73
BRANCH  62  83
ATOM     83  C   UNL A   1      39.596  34.014  37.139  1.00  0.00    -0.014 A 
ATOM     84  C   UNL A   1      38.781  33.713  38.242  1.00  0.00     0.010 A 
ATOM     85  C   UNL A   1      40.297  35.235  37.115  1.00  0.00     0.010 A 
ATOM     86  C   UNL A   1      38.660  34.622  39.298  1.00  0.00     0.020 A 
ATOM     87  C   UNL A   1      40.202  36.132  38.181  1.00  0.00     0.020 A 
ATOM     88  C   UNL A   1      39.379  35.821  39.265  1.00  0.00     0.054 A 
BRANCH  88  89
ATOM     89  S   UNL A   1      39.262  36.944  40.685  1.00  0.00     0.124 S 
ATOM     90  O   UNL A   1      40.653  37.346  40.871  1.00  0.00    -0.237 OA
ATOM     91  O   UNL A   1      38.366  37.987  40.191  1.00  0.00    -0.237 OA
ATOM     92  O   UNL A   1      38.708  36.107  41.747  1.00  0.00    -0.744 OA
ENDBRANCH  88  89
ENDBRANCH  62  83
ENDBRANCH  36  37
ENDBRANCH  28  31
ENDBRANCH  26  27
ENDBRANCH   1  26
TORSDOF 15
ENDMDL
MODEL 2
REMARK VINA RESULT:     -12.0      0.608      8.174
REMARK SMILES Cc1nn(C)c(=O)c(C(=O)N[C@H]2C=C[C@H](C(=O)NCCCNC(=O)c3ccc(-c4c5nc(c(-c6ccc(S(=O)(=O)[O-])cc6)c6ccc([nH]6)c(-c6ccc(S(=O)(=O)[O-])cc6)c6nc(c(-c7ccc(S(=O)(=O)[O-])cc7)c7ccc4[nH]7)C=C6)C=C5)cc3)C2)c1C
REMARK SMILES IDX 20 1 19 2 18 3 16 4 17 5 15 7 12 8 13 9 85 10 14 11 11 12
REMARK SMILES IDX 9 13 10 14 8 16 1 17 2 18 3 19 86 20 4 21 87 22 5 23 6 24
REMARK SMILES IDX 7 25 21 26 22 27 23 28 24 30 25 31 26 32 84 33 27 34 83 35
REMARK SMILES IDX 28 36 29 37 30 38 77 39 31 40 82 41 76 42 78 43 32 44 81 45
REMARK SMILES IDX 75 46 74 47 33 49 63 50 44 51 62 52 45 53 48 54 61 55 79 56
REMARK SMILES IDX 46 57 47 58 60 60 80 61 49 62 34 63 35 64 43 65 36 66 42 67
REMARK SMILES IDX 37 68 38 69 39 70 40 71 41 72 64 73 65 74 73 75 66 76 72 77
REMARK SMILES IDX 67 78 68 79 69 80 70 81 71 82 50 83 51 84 59 85 52 86 58 87
REMARK SMILES IDX 53 88 54 89 55 90 56 91 57 92
REMARK H PARENT 18 6 11 15 22 29 78 48 48 59
REMARK Flexibility Score: inf
ROOT
ATOM      1  C   UNL A   1      40.455  21.899  27.466  1.00  0.00     0.042 C 
ENDROOT
BRANCH   1   2
ATOM      2  C   UNL A   1      39.664  22.073  26.167  1.00  0.00     0.117 C 
BRANCH   2   3
ATOM      3  N   UNL A   1      38.571  23.020  26.329  1.00  0.00    -0.356 N 
ATOM      4  C   UNL A   1      37.382  23.126  25.663  1.00  0.00     0.227 C 
ATOM      5  O   UNL A   1      36.641  24.057  25.987  1.00  0.00    -0.274 OA
ATOM      6  H   UNL A   1      38.710  23.693  27.034  1.00  0.00     0.163 HD
BRANCH   4   7
ATOM      7  C   UNL A   1      36.992  22.086  24.593  1.00  0.00     0.103 C 
ATOM      8  C   UNL A   1      34.625  22.257  24.370  1.00  0.00     0.106 C 
ATOM      9  C   UNL A   1      34.955  20.942  24.986  1.00  0.00    -0.006 C 
ATOM     10  C   UNL A   1      35.905  22.578  23.628  1.00  0.00     0.047 C 
ATOM     11  C   UNL A   1      36.282  20.881  25.185  1.00  0.00    -0.016 C 
BRANCH   8  12
ATOM     12  N   UNL A   1      33.434  22.253  23.588  1.00  0.00    -0.346 N 
ATOM     13  C   UNL A   1      32.433  23.173  23.463  1.00  0.00     0.257 C 
ATOM     14  O   UNL A   1      31.454  22.803  22.809  1.00  0.00    -0.269 OA
ATOM     15  H   UNL A   1      33.311  21.444  23.041  1.00  0.00     0.164 HD
BRANCH  13  16
ATOM     16  C   UNL A   1      32.468  24.576  24.024  1.00  0.00     0.111 A 
ATOM     17  C   UNL A   1      31.425  27.075  26.686  1.00  0.00     0.069 C 
ATOM     18  C   UNL A   1      31.894  26.525  25.355  1.00  0.00     0.062 A 
ATOM     19  N   UNL A   1      32.361  27.389  24.519  1.00  0.00    -0.175 NA
ATOM     20  C   UNL A   1      31.771  25.057  25.079  1.00  0.00    -0.010 A 
ATOM     21  N   UNL A   1      32.880  26.913  23.355  1.00  0.00    -0.232 N 
ATOM     22  C   UNL A   1      30.780  24.357  25.954  1.00  0.00     0.047 C 
ATOM     23  C   UNL A   1      33.261  27.922  22.382  1.00  0.00     0.178 C 
ATOM     24  C   UNL A   1      33.203  25.577  23.159  1.00  0.00     0.279 A 
ATOM     25  O   UNL A   1      34.030  25.206  22.328  1.00  0.00    -0.267 OA
ENDBRANCH  13  16
ENDBRANCH   8  12
ENDBRANCH   4   7
ENDBRANCH   2   3
ENDBRANCH   1   2
BRANCH   1  26
ATOM     26  C   UNL A   1      41.610  22.883  27.632  1.00  0.00     0.118 C 
BRANCH  26  27
ATOM     27  N   UNL A   1      41.905  23.607  26.409  1.00  0.00    -0.352 N 
ATOM     28  C   UNL A   1      41.854  24.958  26.171  1.00  0.00     0.251 C 
ATOM     29  H   UNL A   1      42.180  23.052  25.644  1.00  0.00     0.163 HD
ATOM     30  O   UNL A   1      41.951  25.366  25.011  1.00  0.00    -0.269 OA
BRANCH  28  31
ATOM     31  C   UNL A   1      41.667  25.925  27.279  1.00  0.00     0.039 A 
ATOM     32  C   UNL A   1      40.522  25.824  28.073  1.00  0.00     0.014 A 
ATOM     33  C   UNL A   1      42.587  26.952  27.517  1.00  0.00     0.014 A 
ATOM     34  C   UNL A   1      40.326  26.715  29.134  1.00  0.00     0.010 A 
ATOM     35  C   UNL A   1      42.418  27.803  28.615  1.00  0.00     0.010 A 
ATOM     36  C   UNL A   1      41.286  27.694  29.438  1.00  0.00    -0.014 A 
BRANCH  36  37
ATOM     37  C   UNL A   1      41.109  28.601  30.608  1.00  0.00     0.031 A 
ATOM     38  C   UNL A   1      40.054  29.678  30.594  1.00  0.00     0.074 A 
ATOM     39  C   UNL A   1      41.893  28.455  31.697  1.00  0.00     0.049 A 
ATOM     40  N   UNL A   1      39.760  30.552  31.524  1.00  0.00    -0.248 NA
ATOM     41  C   UNL A   1      39.226  29.793  29.383  1.00  0.00     0.031 C 
ATOM     42  C   UNL A   1      42.947  27.450  31.851  1.00  0.00     0.029 A 
ATOM     43  N   UNL A   1      41.918  29.141  32.888  1.00  0.00    -0.354 N 
ATOM     44  C   UNL A   1      38.704  31.303  31.021  1.00  0.00     0.074 A 
ATOM     45  C   UNL A   1      38.452  30.829  29.678  1.00  0.00     0.031 C 
ATOM     46  C   UNL A   1      43.480  27.555  33.079  1.00  0.00     0.029 A 
ATOM     47  C   UNL A   1      42.856  28.671  33.780  1.00  0.00     0.049 A 
ATOM     48  H   UNL A   1      41.320  29.897  33.086  1.00  0.00     0.167 HD
ATOM     49  C   UNL A   1      37.984  32.273  31.633  1.00  0.00     0.031 A 
ATOM     50  C   UNL A   1      43.188  29.087  35.018  1.00  0.00     0.031 A 
ATOM     51  C   UNL A   1      38.226  32.745  32.971  1.00  0.00     0.049 A 
ATOM     52  C   UNL A   1      42.438  30.236  35.634  1.00  0.00     0.074 A 
ATOM     53  C   UNL A   1      37.533  33.716  33.674  1.00  0.00     0.029 A 
ATOM     54  N   UNL A   1      39.226  32.281  33.810  1.00  0.00    -0.354 N 
ATOM     55  N   UNL A   1      41.422  30.909  35.149  1.00  0.00    -0.248 NA
ATOM     56  C   UNL A   1      42.865  30.671  36.972  1.00  0.00     0.031 C 
ATOM     57  C   UNL A   1      38.146  33.877  34.919  1.00  0.00     0.029 A 
ATOM     58  C   UNL A   1      39.181  32.962  35.015  1.00  0.00     0.049 A 
ATOM     59  H   UNL A   1      39.872  31.574  33.583  1.00  0.00     0.167 HD
ATOM     60  C   UNL A   1      41.062  31.814  36.141  1.00  0.00     0.074 A 
ATOM     61  C   UNL A   1      41.962  31.602  37.253  1.00  0.00     0.031 C 
ATOM     62  C   UNL A   1      40.067  32.734  36.128  1.00  0.00     0.031 A 
BRANCH  49  63
ATOM     63  C   UNL A   1      36.832  32.881  30.877  1.00  0.00    -0.014 A 
ATOM     64  C   UNL A   1      35.508  32.517  31.181  1.00  0.00     0.010 A 
ATOM     65  C   UNL A   1      37.064  33.905  29.939  1.00  0.00     0.010 A 
ATOM     66  C   UNL A   1      34.437  33.158  30.555  1.00  0.00     0.020 A 
ATOM     67  C   UNL A   1      35.994  34.565  29.329  1.00  0.00     0.020 A 
ATOM     68  C   UNL A   1      34.686  34.184  29.639  1.00  0.00     0.054 A 
BRANCH  68  69
ATOM     69  S   UNL A   1      33.270  35.041  28.898  1.00  0.00     0.124 S 
ATOM     70  O   UNL A   1      32.452  35.344  30.071  1.00  0.00    -0.237 OA
ATOM     71  O   UNL A   1      33.896  36.192  28.255  1.00  0.00    -0.237 OA
ATOM     72  O   UNL A   1      32.702  34.051  27.985  1.00  0.00    -0.744 OA
ENDBRANCH  68  69
ENDBRANCH  49  63
BRANCH  50  73
ATOM     73  C   UNL A   1      44.279  28.408  35.776  1.00  0.00    -0.014 A 
ATOM     74  C   UNL A   1      45.610  28.843  35.648  1.00  0.00     0.010 A 
ATOM     75  C   UNL A   1      43.997  27.307  36.605  1.00  0.00     0.010 A 
ATOM     76  C   UNL A   1      46.643  28.165  36.303  1.00  0.00     0.020 A 
ATOM     77  C   UNL A   1      45.023  26.647  37.288  1.00  0.00     0.020 A 
ATOM     78  C   UNL A   1      46.343  27.069  37.117  1.00  0.00     0.054 A 
BRANCH  78  79
ATOM     79  S   UNL A   1      47.705  26.209  37.951  1.00  0.00     0.124 S 
ATOM     80  O   UNL A   1      47.070  25.764  39.188  1.00  0.00    -0.237 OA
ATOM     81  O   UNL A   1      48.041  25.155  36.997  1.00  0.00    -0.237 OA
ATOM     82  O   UNL A   1      48.720  27.247  38.109  1.00  0.00    -0.744 OA
ENDBRANCH  78  79
ENDBRANCH  50  73
BRANCH  62  83
ATOM     83  C   UNL A   1      39.852  33.558  37.368  1.00  0.00    -0.014 A 
ATOM     84  C   UNL A   1      40.518  34.781  37.555  1.00  0.00     0.010 A 
ATOM     85  C   UNL A   1      38.897  33.146  38.317  1.00  0.00     0.010 A 
ATOM     86  C   UNL A   1      40.242  35.571  38.674  1.00  0.00     0.020 A 
ATOM     87  C   UNL A   1      38.597  33.946  39.421  1.00  0.00     0.020 A 
ATOM     88  C   UNL A   1      39.276  35.153  39.596  1.00  0.00     0.054 A 
BRANCH  88  89
ATOM     89  S   UNL A   1      38.885  36.236  40.997  1.00  0.00     0.124 S 
ATOM     90  O   UNL A   1      38.515  37.479  40.327  1.00  0.00    -0.237 OA
ATOM     91  O   UNL A   1      37.790  35.525  41.652  1.00  0.00    -0.237 OA
ATOM     92  O   UNL A   1      40.131  36.286  41.758  1.00  0.00    -0.744 OA
ENDBRANCH  88  89
ENDBRANCH  62  83
ENDBRANCH  36  37
ENDBRANCH  28  31
ENDBRANCH  26  27
ENDBRANCH   1  26
TORSDOF 15
ENDMDL
MODEL 3
REMARK VINA RESULT:     -12.0      4.145     10.145
REMARK SMILES Cc1nn(C)c(=O)c(C(=O)N[C@H]2C=C[C@H](C(=O)NCCCNC(=O)c3ccc(-c4c5nc(c(-c6ccc(S(=O)(=O)[O-])cc6)c6ccc([nH]6)c(-c6ccc(S(=O)(=O)[O-])cc6)c6nc(c(-c7ccc(S(=O)(=O)[O-])cc7)c7ccc4[nH]7)C=C6)C=C5)cc3)C2)c1C
REMARK SMILES IDX 20 1 19 2 18 3 16 4 17 5 15 7 12 8 13 9 85 10 14 11 11 12
REMARK SMILES IDX 9 13 10 14 8 16 1 17 2 18 3 19 86 20 4 21 87 22 5 23 6 24
REMARK SMILES IDX 7 25 21 26 22 27 23 28 24 30 25 31 26 32 84 33 27 34 83 35
REMARK SMILES IDX 28 36 29 37 30 38 77 39 31 40 82 41 76 42 78 43 32 44 81 45
REMARK SMILES IDX 75 46 74 47 33 49 63 50 44 51 62 52 45 53 48 54 61 55 79 56
REMARK SMILES IDX 46 57 47 58 60 60 80 61 49 62 34 63 35 64 43 65 36 66 42 67
REMARK SMILES IDX 37 68 38 69 39 70 40 71 41 72 64 73 65 74 73 75 66 76 72 77
REMARK SMILES IDX 67 78 68 79 69 80 70 81 71 82 50 83 51 84 59 85 52 86 58 87
REMARK SMILES IDX 53 88 54 89 55 90 56 91 57 92
REMARK H PARENT 18 6 11 15 22 29 78 48 48 59
REMARK Flexibility Score: inf
ROOT
ATOM      1  C   UNL A   1      33.769  27.862  25.812  1.00  0.00     0.042 C 
ENDROOT
BRANCH   1   2
ATOM      2  C   UNL A   1      32.497  27.953  24.963  1.00  0.00     0.117 C 
BRANCH   2   3
ATOM      3  N   UNL A   1      31.346  27.408  25.667  1.00  0.00    -0.356 N 
ATOM      4  C   UNL A   1      31.073  26.128  26.064  1.00  0.00     0.227 C 
ATOM      5  O   UNL A   1      29.990  25.936  26.623  1.00  0.00    -0.274 OA
ATOM      6  H   UNL A   1      30.652  28.067  25.895  1.00  0.00     0.163 HD
BRANCH   4   7
ATOM      7  C   UNL A   1      32.111  25.007  25.851  1.00  0.00     0.103 C 
ATOM      8  C   UNL A   1      31.124  23.516  24.276  1.00  0.00     0.106 C 
ATOM      9  C   UNL A   1      31.214  22.830  25.595  1.00  0.00    -0.006 C 
ATOM     10  C   UNL A   1      32.226  24.548  24.391  1.00  0.00     0.047 C 
ATOM     11  C   UNL A   1      31.694  23.699  26.499  1.00  0.00    -0.016 C 
BRANCH   8  12
ATOM     12  N   UNL A   1      31.206  22.639  23.155  1.00  0.00    -0.346 N 
ATOM     13  C   UNL A   1      32.138  21.704  22.807  1.00  0.00     0.257 C 
ATOM     14  O   UNL A   1      31.995  21.208  21.686  1.00  0.00    -0.269 OA
ATOM     15  H   UNL A   1      30.459  22.723  22.520  1.00  0.00     0.164 HD
BRANCH  13  16
ATOM     16  C   UNL A   1      33.266  21.230  23.694  1.00  0.00     0.111 A 
ATOM     17  C   UNL A   1      36.663  21.822  25.284  1.00  0.00     0.069 C 
ATOM     18  C   UNL A   1      35.455  21.090  24.736  1.00  0.00     0.062 A 
ATOM     19  N   UNL A   1      35.380  19.834  25.017  1.00  0.00    -0.175 NA
ATOM     20  C   UNL A   1      34.458  21.835  23.901  1.00  0.00    -0.010 A 
ATOM     21  N   UNL A   1      34.259  19.172  24.621  1.00  0.00    -0.232 N 
ATOM     22  C   UNL A   1      34.988  23.103  23.311  1.00  0.00     0.047 C 
ATOM     23  C   UNL A   1      34.277  17.735  24.826  1.00  0.00     0.178 C 
ATOM     24  C   UNL A   1      33.099  19.820  24.219  1.00  0.00     0.279 A 
ATOM     25  O   UNL A   1      31.989  19.293  24.268  1.00  0.00    -0.267 OA
ENDBRANCH  13  16
ENDBRANCH   8  12
ENDBRANCH   4   7
ENDBRANCH   2   3
ENDBRANCH   1   2
BRANCH   1  26
ATOM     26  C   UNL A   1      33.580  28.276  27.269  1.00  0.00     0.118 C 
BRANCH  26  27
ATOM     27  N   UNL A   1      33.395  29.707  27.422  1.00  0.00    -0.352 N 
ATOM     28  C   UNL A   1      34.258  30.639  27.944  1.00  0.00     0.251 C 
ATOM     29  H   UNL A   1      32.531  30.058  27.108  1.00  0.00     0.163 HD
ATOM     30  O   UNL A   1      33.842  31.779  28.169  1.00  0.00    -0.269 OA
BRANCH  28  31
ATOM     31  C   UNL A   1      35.665  30.293  28.254  1.00  0.00     0.039 A 
ATOM     32  C   UNL A   1      35.992  29.914  29.558  1.00  0.00     0.014 A 
ATOM     33  C   UNL A   1      36.671  30.376  27.284  1.00  0.00     0.014 A 
ATOM     34  C   UNL A   1      37.309  29.568  29.877  1.00  0.00     0.010 A 
ATOM     35  C   UNL A   1      37.975  29.972  27.592  1.00  0.00     0.010 A 
ATOM     36  C   UNL A   1      38.311  29.562  28.891  1.00  0.00    -0.014 A 
BRANCH  36  37
ATOM     37  C   UNL A   1      39.700  29.132  29.215  1.00  0.00     0.031 A 
ATOM     38  C   UNL A   1      40.639  30.054  29.951  1.00  0.00     0.074 A 
ATOM     39  C   UNL A   1      40.125  27.902  28.856  1.00  0.00     0.049 A 
ATOM     40  N   UNL A   1      41.879  29.842  30.318  1.00  0.00    -0.248 NA
ATOM     41  C   UNL A   1      40.126  31.382  30.321  1.00  0.00     0.031 C 
ATOM     42  C   UNL A   1      39.320  26.904  28.148  1.00  0.00     0.029 A 
ATOM     43  N   UNL A   1      41.332  27.273  29.048  1.00  0.00    -0.354 N 
ATOM     44  C   UNL A   1      42.284  30.997  30.976  1.00  0.00     0.074 A 
ATOM     45  C   UNL A   1      41.184  31.932  30.901  1.00  0.00     0.031 C 
ATOM     46  C   UNL A   1      40.038  25.777  28.008  1.00  0.00     0.029 A 
ATOM     47  C   UNL A   1      41.373  25.987  28.556  1.00  0.00     0.049 A 
ATOM     48  H   UNL A   1      42.097  27.701  29.496  1.00  0.00     0.167 HD
ATOM     49  C   UNL A   1      43.451  31.244  31.618  1.00  0.00     0.031 A 
ATOM     50  C   UNL A   1      42.366  25.077  28.537  1.00  0.00     0.031 A 
ATOM     51  C   UNL A   1      44.547  30.315  31.701  1.00  0.00     0.049 A 
ATOM     52  C   UNL A   1      43.688  25.417  29.170  1.00  0.00     0.074 A 
ATOM     53  C   UNL A   1      45.762  30.480  32.345  1.00  0.00     0.029 A 
ATOM     54  N   UNL A   1      44.564  29.051  31.135  1.00  0.00    -0.354 N 
ATOM     55  N   UNL A   1      44.035  26.506  29.813  1.00  0.00    -0.248 NA
ATOM     56  C   UNL A   1      44.748  24.401  29.090  1.00  0.00     0.031 C 
ATOM     57  C   UNL A   1      46.533  29.337  32.124  1.00  0.00     0.029 A 
ATOM     58  C   UNL A   1      45.776  28.435  31.397  1.00  0.00     0.049 A 
ATOM     59  H   UNL A   1      43.825  28.651  30.621  1.00  0.00     0.167 HD
ATOM     60  C   UNL A   1      45.336  26.285  30.253  1.00  0.00     0.074 A 
ATOM     61  C   UNL A   1      45.713  24.961  29.807  1.00  0.00     0.031 C 
ATOM     62  C   UNL A   1      46.140  27.108  30.968  1.00  0.00     0.031 A 
BRANCH  49  63
ATOM     63  C   UNL A   1      43.605  32.568  32.318  1.00  0.00    -0.014 A 
ATOM     64  C   UNL A   1      44.060  33.698  31.614  1.00  0.00     0.010 A 
ATOM     65  C   UNL A   1      43.185  32.715  33.654  1.00  0.00     0.010 A 
ATOM     66  C   UNL A   1      44.101  34.948  32.235  1.00  0.00     0.020 A 
ATOM     67  C   UNL A   1      43.202  33.969  34.270  1.00  0.00     0.020 A 
ATOM     68  C   UNL A   1      43.664  35.078  33.556  1.00  0.00     0.054 A 
BRANCH  68  69
ATOM     69  S   UNL A   1      43.666  36.729  34.307  1.00  0.00     0.124 S 
ATOM     70  O   UNL A   1      42.323  36.804  34.876  1.00  0.00    -0.237 OA
ATOM     71  O   UNL A   1      44.754  36.635  35.277  1.00  0.00    -0.237 OA
ATOM     72  O   UNL A   1      43.913  37.625  33.179  1.00  0.00    -0.744 OA
ENDBRANCH  68  69
ENDBRANCH  49  63
BRANCH  50  73
ATOM     73  C   UNL A   1      42.155  23.741  27.909  1.00  0.00    -0.014 A 
ATOM     74  C   UNL A   1      41.693  22.659  28.679  1.00  0.00     0.010 A 
ATOM     75  C   UNL A   1      42.443  23.536  26.547  1.00  0.00     0.010 A 
ATOM     76  C   UNL A   1      41.560  21.389  28.109  1.00  0.00     0.020 A 
ATOM     77  C   UNL A   1      42.280  22.275  25.965  1.00  0.00     0.020 A 
ATOM     78  C   UNL A   1      41.858  21.204  26.757  1.00  0.00     0.054 A 
BRANCH  78  79
ATOM     79  S   UNL A   1      41.678  19.544  26.046  1.00  0.00     0.124 S 
ATOM     80  O   UNL A   1      40.258  19.510  25.711  1.00  0.00    -0.237 OA
ATOM     81  O   UNL A   1      42.596  19.589  24.911  1.00  0.00    -0.237 OA
ATOM     82  O   UNL A   1      42.086  18.660  27.136  1.00  0.00    -0.744 OA
ENDBRANCH  78  79
ENDBRANCH  50  73
BRANCH  62  83
ATOM     83  C   UNL A   1      47.498  26.596  31.367  1.00  0.00    -0.014 A 
ATOM     84  C   UNL A   1      47.713  26.002  32.621  1.00  0.00     0.010 A 
ATOM     85  C   UNL A   1      48.550  26.627  30.432  1.00  0.00     0.010 A 
ATOM     86  C   UNL A   1      48.961  25.459  32.939  1.00  0.00     0.020 A 
ATOM     87  C   UNL A   1      49.790  26.060  30.735  1.00  0.00     0.020 A 
ATOM     88  C   UNL A   1      49.989  25.483  31.991  1.00  0.00     0.054 A 
BRANCH  88  89
ATOM     89  S   UNL A   1      51.572  24.701  32.405  1.00  0.00     0.124 S 
ATOM     90  O   UNL A   1      51.693  24.993  33.831  1.00  0.00    -0.237 OA
ATOM     91  O   UNL A   1      51.332  23.300  32.068  1.00  0.00    -0.237 OA
ATOM     92  O   UNL A   1      52.535  25.386  31.546  1.00  0.00    -0.744 OA
ENDBRANCH  88  89
ENDBRANCH  62  83
ENDBRANCH  36  37
ENDBRANCH  28  31
ENDBRANCH  26  27
ENDBRANCH   1  26
TORSDOF 15
ENDMDL
