MODEL 1
REMARK VINA RESULT:     -10.8      0.000      0.000
REMARK SMILES CC(=O)c1ccc(NC(=O)C[C@H](C(=O)NCCCNC(=O)c2ccc(-c3c4nc(c(-c5ccc(S(=O)(=O)[O-])cc5)c5ccc([nH]5)c(-c5ccc(S(=O)(=O)[O-])cc5)c5nc(c(-c6ccc(S(=O)(=O)[O-])cc6)c6ccc3[nH]6)C=C5)C=C4)cc2)[NH+](C)C)cc1
REMARK SMILES IDX 16 1 15 2 13 3 14 4 12 6 11 7 9 8 8 9 10 11 7 12 4 13 5 14
REMARK SMILES IDX 86 15 6 16 85 17 2 18 1 19 3 20 82 21 83 22 84 23 17 25
REMARK SMILES IDX 18 26 19 27 20 28 21 30 22 31 23 32 81 33 24 34 80 35 25 36
REMARK SMILES IDX 26 37 27 38 74 39 28 40 79 41 73 42 75 43 29 44 78 45 72 46
REMARK SMILES IDX 71 47 30 49 60 50 41 51 59 52 42 53 45 54 58 55 76 56 43 57
REMARK SMILES IDX 44 58 57 60 77 61 46 62 31 63 32 64 40 65 33 66 39 67 34 68
REMARK SMILES IDX 35 69 36 70 37 71 38 72 61 73 62 74 70 75 63 76 69 77 64 78
REMARK SMILES IDX 65 79 66 80 67 81 68 82 47 83 48 84 56 85 49 86 55 87 50 88
REMARK SMILES IDX 51 89 52 90 53 91 54 92
REMARK H PARENT 15 5 8 10 82 24 19 29 75 48 45 59
REMARK Flexibility Score: inf
ROOT
ATOM      1  C   UNL A   1      33.710  26.649  25.388  1.00  0.00     0.118 C 
ENDROOT
BRANCH   1   2
ATOM      2  N   UNL A   1      32.881  25.907  26.320  1.00  0.00    -0.351 N 
ATOM      3  C   UNL A   1      32.431  24.634  26.400  1.00  0.00     0.278 C 
ATOM      4  O   UNL A   1      31.498  24.477  27.204  1.00  0.00    -0.268 OA
ATOM      5  H   UNL A   1      32.573  26.462  27.073  1.00  0.00     0.163 HD
BRANCH   3   6
ATOM      6  C   UNL A   1      33.050  23.383  25.705  1.00  0.00     0.283 C 
BRANCH   6   7
ATOM      7  C   UNL A   1      33.428  23.438  24.225  1.00  0.00     0.175 C 
BRANCH   7   8
ATOM      8  C   UNL A   1      32.357  22.770  23.371  1.00  0.00     0.230 C 
ATOM      9  N   UNL A   1      31.413  23.529  22.724  1.00  0.00    -0.326 N 
ATOM     10  H   UNL A   1      30.911  23.076  22.009  1.00  0.00     0.169 HD
ATOM     11  O   UNL A   1      32.394  21.562  23.142  1.00  0.00    -0.274 OA
BRANCH   9  12
ATOM     12  C   UNL A   1      31.075  24.867  22.958  1.00  0.00     0.041 A 
ATOM     13  C   UNL A   1      30.054  27.437  23.108  1.00  0.00     0.017 A 
ATOM     14  C   UNL A   1      31.150  27.184  22.287  1.00  0.00     0.014 A 
ATOM     15  C   UNL A   1      29.544  26.446  23.951  1.00  0.00     0.014 A 
ATOM     16  C   UNL A   1      31.685  25.903  22.250  1.00  0.00     0.027 A 
ATOM     17  C   UNL A   1      30.072  25.152  23.885  1.00  0.00     0.027 A 
BRANCH  13  18
ATOM     18  C   UNL A   1      29.402  28.751  22.982  1.00  0.00     0.159 C 
ATOM     19  C   UNL A   1      27.906  28.780  22.936  1.00  0.00     0.093 C 
ATOM     20  O   UNL A   1      30.096  29.762  22.986  1.00  0.00    -0.295 OA
ENDBRANCH  13  18
ENDBRANCH   9  12
ENDBRANCH   7   8
ENDBRANCH   6   7
BRANCH   6  21
ATOM     21  N   UNL A   1      34.148  22.880  26.593  1.00  0.00    -0.329 N 
ATOM     22  C   UNL A   1      34.052  21.453  26.893  1.00  0.00     0.333 C 
ATOM     23  C   UNL A   1      35.488  23.247  26.157  1.00  0.00     0.333 C 
ATOM     24  H   UNL A   1      33.992  23.374  27.472  1.00  0.00     0.348 HD
ENDBRANCH   6  21
ENDBRANCH   3   6
ENDBRANCH   1   2
BRANCH   1  25
ATOM     25  C   UNL A   1      33.710  28.137  25.714  1.00  0.00     0.042 C 
BRANCH  25  26
ATOM     26  C   UNL A   1      33.673  28.416  27.204  1.00  0.00     0.118 C 
BRANCH  26  27
ATOM     27  N   UNL A   1      33.613  29.843  27.492  1.00  0.00    -0.352 N 
ATOM     28  C   UNL A   1      34.502  30.652  28.153  1.00  0.00     0.251 C 
ATOM     29  H   UNL A   1      32.806  30.299  27.160  1.00  0.00     0.163 HD
ATOM     30  O   UNL A   1      34.140  31.763  28.529  1.00  0.00    -0.269 OA
BRANCH  28  31
ATOM     31  C   UNL A   1      35.882  30.189  28.413  1.00  0.00     0.039 A 
ATOM     32  C   UNL A   1      36.820  30.231  27.379  1.00  0.00     0.014 A 
ATOM     33  C   UNL A   1      36.247  29.682  29.662  1.00  0.00     0.014 A 
ATOM     34  C   UNL A   1      38.129  29.807  27.618  1.00  0.00     0.010 A 
ATOM     35  C   UNL A   1      37.576  29.384  29.933  1.00  0.00     0.010 A 
ATOM     36  C   UNL A   1      38.526  29.410  28.907  1.00  0.00    -0.014 A 
BRANCH  36  37
ATOM     37  C   UNL A   1      39.917  28.970  29.183  1.00  0.00     0.031 A 
ATOM     38  C   UNL A   1      40.881  29.905  29.869  1.00  0.00     0.074 A 
ATOM     39  C   UNL A   1      40.316  27.743  28.791  1.00  0.00     0.049 A 
ATOM     40  N   UNL A   1      42.136  29.707  30.184  1.00  0.00    -0.248 NA
ATOM     41  C   UNL A   1      40.384  31.246  30.223  1.00  0.00     0.031 C 
ATOM     42  C   UNL A   1      39.492  26.773  28.062  1.00  0.00     0.029 A 
ATOM     43  N   UNL A   1      41.515  27.098  28.959  1.00  0.00    -0.354 N 
ATOM     44  C   UNL A   1      42.571  30.894  30.764  1.00  0.00     0.074 A 
ATOM     45  C   UNL A   1      41.477  31.834  30.685  1.00  0.00     0.031 C 
ATOM     46  C   UNL A   1      40.194  25.641  27.891  1.00  0.00     0.029 A 
ATOM     47  C   UNL A   1      41.526  25.817  28.458  1.00  0.00     0.049 A 
ATOM     48  H   UNL A   1      42.293  27.512  29.397  1.00  0.00     0.167 HD
ATOM     49  C   UNL A   1      43.760  31.167  31.352  1.00  0.00     0.031 A 
ATOM     50  C   UNL A   1      42.500  24.888  28.460  1.00  0.00     0.031 A 
ATOM     51  C   UNL A   1      44.842  30.225  31.446  1.00  0.00     0.049 A 
ATOM     52  C   UNL A   1      43.812  25.218  29.122  1.00  0.00     0.074 A 
ATOM     53  C   UNL A   1      46.079  30.389  32.042  1.00  0.00     0.029 A 
ATOM     54  N   UNL A   1      44.807  28.933  30.942  1.00  0.00    -0.354 N 
ATOM     55  N   UNL A   1      44.183  26.330  29.711  1.00  0.00    -0.248 NA
ATOM     56  C   UNL A   1      44.827  24.158  29.139  1.00  0.00     0.031 C 
ATOM     57  C   UNL A   1      46.809  29.209  31.864  1.00  0.00     0.029 A 
ATOM     58  C   UNL A   1      46.003  28.291  31.210  1.00  0.00     0.049 A 
ATOM     59  H   UNL A   1      44.045  28.534  30.464  1.00  0.00     0.167 HD
ATOM     60  C   UNL A   1      45.464  26.090  30.198  1.00  0.00     0.074 A 
ATOM     61  C   UNL A   1      45.788  24.720  29.857  1.00  0.00     0.031 C 
ATOM     62  C   UNL A   1      46.301  26.925  30.862  1.00  0.00     0.031 A 
BRANCH  49  63
ATOM     63  C   UNL A   1      43.936  32.533  31.967  1.00  0.00    -0.014 A 
ATOM     64  C   UNL A   1      44.415  33.609  31.199  1.00  0.00     0.010 A 
ATOM     65  C   UNL A   1      43.573  32.759  33.308  1.00  0.00     0.010 A 
ATOM     66  C   UNL A   1      44.557  34.878  31.764  1.00  0.00     0.020 A 
ATOM     67  C   UNL A   1      43.685  34.035  33.869  1.00  0.00     0.020 A 
ATOM     68  C   UNL A   1      44.187  35.085  33.096  1.00  0.00     0.054 A 
BRANCH  68  69
ATOM     69  S   UNL A   1      44.333  36.756  33.786  1.00  0.00     0.124 S 
ATOM     70  O   UNL A   1      43.353  37.495  32.994  1.00  0.00    -0.237 OA
ATOM     71  O   UNL A   1      43.982  36.553  35.188  1.00  0.00    -0.237 OA
ATOM     72  O   UNL A   1      45.727  37.113  33.540  1.00  0.00    -0.744 OA
ENDBRANCH  68  69
ENDBRANCH  49  63
BRANCH  50  73
ATOM     73  C   UNL A   1      42.277  23.554  27.833  1.00  0.00    -0.014 A 
ATOM     74  C   UNL A   1      41.649  22.519  28.548  1.00  0.00     0.010 A 
ATOM     75  C   UNL A   1      42.722  23.305  26.523  1.00  0.00     0.010 A 
ATOM     76  C   UNL A   1      41.519  21.245  27.986  1.00  0.00     0.020 A 
ATOM     77  C   UNL A   1      42.563  22.043  25.943  1.00  0.00     0.020 A 
ATOM     78  C   UNL A   1      41.984  21.014  26.688  1.00  0.00     0.054 A 
BRANCH  78  79
ATOM     79  S   UNL A   1      41.809  19.355  25.975  1.00  0.00     0.124 S 
ATOM     80  O   UNL A   1      42.278  18.506  27.067  1.00  0.00    -0.237 OA
ATOM     81  O   UNL A   1      40.380  19.283  25.685  1.00  0.00    -0.237 OA
ATOM     82  O   UNL A   1      42.675  19.396  24.799  1.00  0.00    -0.744 OA
ENDBRANCH  78  79
ENDBRANCH  50  73
BRANCH  62  83
ATOM     83  C   UNL A   1      47.624  26.357  31.305  1.00  0.00    -0.014 A 
ATOM     84  C   UNL A   1      48.755  26.401  30.471  1.00  0.00     0.010 A 
ATOM     85  C   UNL A   1      47.733  25.776  32.581  1.00  0.00     0.010 A 
ATOM     86  C   UNL A   1      49.955  25.815  30.880  1.00  0.00     0.020 A 
ATOM     87  C   UNL A   1      48.940  25.220  33.008  1.00  0.00     0.020 A 
ATOM     88  C   UNL A   1      50.037  25.220  32.143  1.00  0.00     0.054 A 
BRANCH  88  89
ATOM     89  S   UNL A   1      51.602  24.459  32.650  1.00  0.00     0.124 S 
ATOM     90  O   UNL A   1      52.571  25.189  31.838  1.00  0.00    -0.237 OA
ATOM     91  O   UNL A   1      51.645  24.738  34.083  1.00  0.00    -0.237 OA
ATOM     92  O   UNL A   1      51.432  23.050  32.301  1.00  0.00    -0.744 OA
ENDBRANCH  88  89
ENDBRANCH  62  83
ENDBRANCH  36  37
ENDBRANCH  28  31
ENDBRANCH  26  27
ENDBRANCH  25  26
ENDBRANCH   1  25
TORSDOF 18
ENDMDL
MODEL 2
REMARK VINA RESULT:     -10.2      1.081      3.366
REMARK SMILES CC(=O)c1ccc(NC(=O)C[C@H](C(=O)NCCCNC(=O)c2ccc(-c3c4nc(c(-c5ccc(S(=O)(=O)[O-])cc5)c5ccc([nH]5)c(-c5ccc(S(=O)(=O)[O-])cc5)c5nc(c(-c6ccc(S(=O)(=O)[O-])cc6)c6ccc3[nH]6)C=C5)C=C4)cc2)[NH+](C)C)cc1
REMARK SMILES IDX 16 1 15 2 13 3 14 4 12 6 11 7 9 8 8 9 10 11 7 12 4 13 5 14
REMARK SMILES IDX 86 15 6 16 85 17 2 18 1 19 3 20 82 21 83 22 84 23 17 25
REMARK SMILES IDX 18 26 19 27 20 28 21 30 22 31 23 32 81 33 24 34 80 35 25 36
REMARK SMILES IDX 26 37 27 38 74 39 28 40 79 41 73 42 75 43 29 44 78 45 72 46
REMARK SMILES IDX 71 47 30 49 60 50 41 51 59 52 42 53 45 54 58 55 76 56 43 57
REMARK SMILES IDX 44 58 57 60 77 61 46 62 31 63 32 64 40 65 33 66 39 67 34 68
REMARK SMILES IDX 35 69 36 70 37 71 38 72 61 73 62 74 70 75 63 76 69 77 64 78
REMARK SMILES IDX 65 79 66 80 67 81 68 82 47 83 48 84 56 85 49 86 55 87 50 88
REMARK SMILES IDX 51 89 52 90 53 91 54 92
REMARK H PARENT 15 5 8 10 82 24 19 29 75 48 45 59
REMARK Flexibility Score: inf
ROOT
ATOM      1  C   UNL A   1      31.957  29.084  25.352  1.00  0.00     0.118 C 
ENDROOT
BRANCH   1   2
ATOM      2  N   UNL A   1      30.919  28.593  24.465  1.00  0.00    -0.351 N 
ATOM      3  C   UNL A   1      30.861  27.678  23.471  1.00  0.00     0.278 C 
ATOM      4  O   UNL A   1      29.848  27.769  22.759  1.00  0.00    -0.268 OA
ATOM      5  H   UNL A   1      30.051  29.030  24.625  1.00  0.00     0.163 HD
BRANCH   3   6
ATOM      6  C   UNL A   1      31.843  26.489  23.242  1.00  0.00     0.283 C 
BRANCH   6   7
ATOM      7  C   UNL A   1      31.370  25.052  23.462  1.00  0.00     0.175 C 
BRANCH   7   8
ATOM      8  C   UNL A   1      31.080  24.801  24.937  1.00  0.00     0.230 C 
ATOM      9  N   UNL A   1      32.072  24.353  25.772  1.00  0.00    -0.326 N 
ATOM     10  H   UNL A   1      31.898  24.443  26.737  1.00  0.00     0.169 HD
ATOM     11  O   UNL A   1      29.997  25.116  25.430  1.00  0.00    -0.274 OA
BRANCH   9  12
ATOM     12  C   UNL A   1      33.302  23.783  25.422  1.00  0.00     0.041 A 
ATOM     13  C   UNL A   1      35.720  22.458  25.162  1.00  0.00     0.017 A 
ATOM     14  C   UNL A   1      35.713  23.804  25.520  1.00  0.00     0.014 A 
ATOM     15  C   UNL A   1      34.537  21.803  24.807  1.00  0.00     0.014 A 
ATOM     16  C   UNL A   1      34.501  24.474  25.606  1.00  0.00     0.027 A 
ATOM     17  C   UNL A   1      33.318  22.479  24.925  1.00  0.00     0.027 A 
BRANCH  13  18
ATOM     18  C   UNL A   1      36.999  21.737  25.261  1.00  0.00     0.159 C 
ATOM     19  C   UNL A   1      38.202  22.516  25.696  1.00  0.00     0.093 C 
ATOM     20  O   UNL A   1      37.019  20.528  25.052  1.00  0.00    -0.295 OA
ENDBRANCH  13  18
ENDBRANCH   9  12
ENDBRANCH   7   8
ENDBRANCH   6   7
BRANCH   6  21
ATOM     21  N   UNL A   1      32.508  26.712  21.916  1.00  0.00    -0.329 N 
ATOM     22  C   UNL A   1      33.711  27.536  21.996  1.00  0.00     0.333 C 
ATOM     23  C   UNL A   1      32.740  25.495  21.150  1.00  0.00     0.333 C 
ATOM     24  H   UNL A   1      31.819  27.250  21.390  1.00  0.00     0.348 HD
ENDBRANCH   6  21
ENDBRANCH   3   6
ENDBRANCH   1   2
BRANCH   1  25
ATOM     25  C   UNL A   1      32.740  27.936  25.975  1.00  0.00     0.042 C 
BRANCH  25  26
ATOM     26  C   UNL A   1      33.720  28.397  27.037  1.00  0.00     0.118 C 
BRANCH  26  27
ATOM     27  N   UNL A   1      33.585  29.818  27.329  1.00  0.00    -0.352 N 
ATOM     28  C   UNL A   1      34.411  30.662  28.027  1.00  0.00     0.251 C 
ATOM     29  H   UNL A   1      32.772  30.238  26.967  1.00  0.00     0.163 HD
ATOM     30  O   UNL A   1      33.984  31.753  28.393  1.00  0.00    -0.269 OA
BRANCH  28  31
ATOM     31  C   UNL A   1      35.799  30.259  28.339  1.00  0.00     0.039 A 
ATOM     32  C   UNL A   1      36.089  29.735  29.601  1.00  0.00     0.014 A 
ATOM     33  C   UNL A   1      36.823  30.428  27.405  1.00  0.00     0.014 A 
ATOM     34  C   UNL A   1      37.394  29.341  29.900  1.00  0.00     0.010 A 
ATOM     35  C   UNL A   1      38.089  29.917  27.658  1.00  0.00     0.010 A 
ATOM     36  C   UNL A   1      38.400  29.399  28.920  1.00  0.00    -0.014 A 
BRANCH  36  37
ATOM     37  C   UNL A   1      39.790  28.972  29.216  1.00  0.00     0.031 A 
ATOM     38  C   UNL A   1      40.734  29.912  29.924  1.00  0.00     0.074 A 
ATOM     39  C   UNL A   1      40.208  27.751  28.826  1.00  0.00     0.049 A 
ATOM     40  N   UNL A   1      41.985  29.725  30.259  1.00  0.00    -0.248 NA
ATOM     41  C   UNL A   1      40.217  31.247  30.275  1.00  0.00     0.031 C 
ATOM     42  C   UNL A   1      39.406  26.776  28.078  1.00  0.00     0.029 A 
ATOM     43  N   UNL A   1      41.410  27.116  29.010  1.00  0.00    -0.354 N 
ATOM     44  C   UNL A   1      42.399  30.913  30.852  1.00  0.00     0.074 A 
ATOM     45  C   UNL A   1      41.297  31.843  30.758  1.00  0.00     0.031 C 
ATOM     46  C   UNL A   1      40.122  25.652  27.913  1.00  0.00     0.029 A 
ATOM     47  C   UNL A   1      41.442  25.838  28.503  1.00  0.00     0.049 A 
ATOM     48  H   UNL A   1      42.176  27.536  29.464  1.00  0.00     0.167 HD
ATOM     49  C   UNL A   1      43.575  31.195  31.461  1.00  0.00     0.031 A 
ATOM     50  C   UNL A   1      42.425  24.919  28.518  1.00  0.00     0.031 A 
ATOM     51  C   UNL A   1      44.664  30.264  31.568  1.00  0.00     0.049 A 
ATOM     52  C   UNL A   1      43.722  25.258  29.203  1.00  0.00     0.074 A 
ATOM     53  C   UNL A   1      45.889  30.436  32.187  1.00  0.00     0.029 A 
ATOM     54  N   UNL A   1      44.650  28.974  31.058  1.00  0.00    -0.354 N 
ATOM     55  N   UNL A   1      44.073  26.371  29.804  1.00  0.00    -0.248 NA
ATOM     56  C   UNL A   1      44.747  24.208  29.232  1.00  0.00     0.031 C 
ATOM     57  C   UNL A   1      46.633  29.264  32.015  1.00  0.00     0.029 A 
ATOM     58  C   UNL A   1      45.848  28.342  31.343  1.00  0.00     0.049 A 
ATOM     59  H   UNL A   1      43.900  28.570  30.565  1.00  0.00     0.167 HD
ATOM     60  C   UNL A   1      45.347  26.140  30.311  1.00  0.00     0.074 A 
ATOM     61  C   UNL A   1      45.691  24.775  29.969  1.00  0.00     0.031 C 
ATOM     62  C   UNL A   1      46.165  26.981  30.993  1.00  0.00     0.031 A 
BRANCH  49  63
ATOM     63  C   UNL A   1      43.727  32.559  32.086  1.00  0.00    -0.014 A 
ATOM     64  C   UNL A   1      44.055  33.677  31.297  1.00  0.00     0.010 A 
ATOM     65  C   UNL A   1      43.492  32.740  33.461  1.00  0.00     0.010 A 
ATOM     66  C   UNL A   1      44.173  34.943  31.873  1.00  0.00     0.020 A 
ATOM     67  C   UNL A   1      43.580  34.011  34.037  1.00  0.00     0.020 A 
ATOM     68  C   UNL A   1      43.932  35.104  33.240  1.00  0.00     0.054 A 
BRANCH  68  69
ATOM     69  S   UNL A   1      44.043  36.769  33.949  1.00  0.00     0.124 S 
ATOM     70  O   UNL A   1      43.606  36.541  35.325  1.00  0.00    -0.237 OA
ATOM     71  O   UNL A   1      45.458  37.092  33.786  1.00  0.00    -0.237 OA
ATOM     72  O   UNL A   1      43.128  37.558  33.130  1.00  0.00    -0.744 OA
ENDBRANCH  68  69
ENDBRANCH  49  63
BRANCH  50  73
ATOM     73  C   UNL A   1      42.226  23.586  27.880  1.00  0.00    -0.014 A 
ATOM     74  C   UNL A   1      41.581  22.546  28.574  1.00  0.00     0.010 A 
ATOM     75  C   UNL A   1      42.710  23.343  26.582  1.00  0.00     0.010 A 
ATOM     76  C   UNL A   1      41.473  21.273  28.004  1.00  0.00     0.020 A 
ATOM     77  C   UNL A   1      42.572  22.082  25.995  1.00  0.00     0.020 A 
ATOM     78  C   UNL A   1      41.976  21.049  26.719  1.00  0.00     0.054 A 
BRANCH  78  79
ATOM     79  S   UNL A   1      41.829  19.390  25.997  1.00  0.00     0.124 S 
ATOM     80  O   UNL A   1      40.395  19.298  25.741  1.00  0.00    -0.237 OA
ATOM     81  O   UNL A   1      42.680  19.483  24.814  1.00  0.00    -0.237 OA
ATOM     82  O   UNL A   1      42.334  18.514  27.052  1.00  0.00    -0.744 OA
ENDBRANCH  78  79
ENDBRANCH  50  73
BRANCH  62  83
ATOM     83  C   UNL A   1      47.485  26.423  31.455  1.00  0.00    -0.014 A 
ATOM     84  C   UNL A   1      47.691  26.042  32.793  1.00  0.00     0.010 A 
ATOM     85  C   UNL A   1      48.534  26.274  30.529  1.00  0.00     0.010 A 
ATOM     86  C   UNL A   1      48.943  25.583  33.210  1.00  0.00     0.020 A 
ATOM     87  C   UNL A   1      49.776  25.781  30.934  1.00  0.00     0.020 A 
ATOM     88  C   UNL A   1      49.979  25.464  32.279  1.00  0.00     0.054 A 
BRANCH  88  89
ATOM     89  S   UNL A   1      51.597  24.872  32.844  1.00  0.00     0.124 S 
ATOM     90  O   UNL A   1      52.503  25.514  31.896  1.00  0.00    -0.237 OA
ATOM     91  O   UNL A   1      51.661  25.374  34.214  1.00  0.00    -0.237 OA
ATOM     92  O   UNL A   1      51.496  23.419  32.724  1.00  0.00    -0.744 OA
ENDBRANCH  88  89
ENDBRANCH  62  83
ENDBRANCH  36  37
ENDBRANCH  28  31
ENDBRANCH  26  27
ENDBRANCH  25  26
ENDBRANCH   1  25
TORSDOF 18
ENDMDL
MODEL 3
REMARK VINA RESULT:     -10.1      2.529      8.408
REMARK SMILES CC(=O)c1ccc(NC(=O)C[C@H](C(=O)NCCCNC(=O)c2ccc(-c3c4nc(c(-c5ccc(S(=O)(=O)[O-])cc5)c5ccc([nH]5)c(-c5ccc(S(=O)(=O)[O-])cc5)c5nc(c(-c6ccc(S(=O)(=O)[O-])cc6)c6ccc3[nH]6)C=C5)C=C4)cc2)[NH+](C)C)cc1
REMARK SMILES IDX 16 1 15 2 13 3 14 4 12 6 11 7 9 8 8 9 10 11 7 12 4 13 5 14
REMARK SMILES IDX 86 15 6 16 85 17 2 18 1 19 3 20 82 21 83 22 84 23 17 25
REMARK SMILES IDX 18 26 19 27 20 28 21 30 22 31 23 32 81 33 24 34 80 35 25 36
REMARK SMILES IDX 26 37 27 38 74 39 28 40 79 41 73 42 75 43 29 44 78 45 72 46
REMARK SMILES IDX 71 47 30 49 60 50 41 51 59 52 42 53 45 54 58 55 76 56 43 57
REMARK SMILES IDX 44 58 57 60 77 61 46 62 31 63 32 64 40 65 33 66 39 67 34 68
REMARK SMILES IDX 35 69 36 70 37 71 38 72 61 73 62 74 70 75 63 76 69 77 64 78
REMARK SMILES IDX 65 79 66 80 67 81 68 82 47 83 48 84 56 85 49 86 55 87 50 88
REMARK SMILES IDX 51 89 52 90 53 91 54 92
REMARK H PARENT 15 5 8 10 82 24 19 29 75 48 45 59
REMARK Flexibility Score: inf
ROOT
ATOM      1  C   UNL A   1      32.636  26.763  25.966  1.00  0.00     0.118 C 
ENDROOT
BRANCH   1   2
ATOM      2  N   UNL A   1      31.953  25.710  26.695  1.00  0.00    -0.351 N 
ATOM      3  C   UNL A   1      31.861  24.366  26.578  1.00  0.00     0.278 C 
ATOM      4  O   UNL A   1      30.931  23.864  27.229  1.00  0.00    -0.268 OA
ATOM      5  H   UNL A   1      31.432  26.058  27.454  1.00  0.00     0.163 HD
BRANCH   3   6
ATOM      6  C   UNL A   1      32.863  23.425  25.841  1.00  0.00     0.283 C 
BRANCH   6   7
ATOM      7  C   UNL A   1      33.250  23.705  24.389  1.00  0.00     0.175 C 
BRANCH   7   8
ATOM      8  C   UNL A   1      32.279  23.021  23.433  1.00  0.00     0.230 C 
ATOM      9  N   UNL A   1      31.373  23.763  22.717  1.00  0.00    -0.326 N 
ATOM     10  H   UNL A   1      30.951  23.309  21.953  1.00  0.00     0.169 HD
ATOM     11  O   UNL A   1      32.374  21.819  23.189  1.00  0.00    -0.274 OA
BRANCH   9  12
ATOM     12  C   UNL A   1      30.974  25.086  22.940  1.00  0.00     0.041 A 
ATOM     13  C   UNL A   1      29.864  27.622  23.040  1.00  0.00     0.017 A 
ATOM     14  C   UNL A   1      31.036  27.417  22.316  1.00  0.00     0.014 A 
ATOM     15  C   UNL A   1      29.312  26.600  23.818  1.00  0.00     0.014 A 
ATOM     16  C   UNL A   1      31.612  26.153  22.306  1.00  0.00     0.027 A 
ATOM     17  C   UNL A   1      29.884  25.324  23.779  1.00  0.00     0.027 A 
BRANCH  13  18
ATOM     18  C   UNL A   1      29.185  28.917  22.877  1.00  0.00     0.159 C 
ATOM     19  C   UNL A   1      27.694  28.940  23.010  1.00  0.00     0.093 C 
ATOM     20  O   UNL A   1      29.862  29.926  22.706  1.00  0.00    -0.295 OA
ENDBRANCH  13  18
ENDBRANCH   9  12
ENDBRANCH   7   8
ENDBRANCH   6   7
BRANCH   6  21
ATOM     21  N   UNL A   1      34.036  23.226  26.754  1.00  0.00    -0.329 N 
ATOM     22  C   UNL A   1      33.926  22.040  27.599  1.00  0.00     0.333 C 
ATOM     23  C   UNL A   1      35.331  23.292  26.089  1.00  0.00     0.333 C 
ATOM     24  H   UNL A   1      33.997  24.034  27.376  1.00  0.00     0.348 HD
ENDBRANCH   6  21
ENDBRANCH   3   6
ENDBRANCH   1   2
BRANCH   1  25
ATOM     25  C   UNL A   1      33.012  27.917  26.886  1.00  0.00     0.042 C 
BRANCH  25  26
ATOM     26  C   UNL A   1      34.037  28.852  26.272  1.00  0.00     0.118 C 
BRANCH  26  27
ATOM     27  N   UNL A   1      33.727  30.251  26.535  1.00  0.00    -0.352 N 
ATOM     28  C   UNL A   1      34.240  31.111  27.473  1.00  0.00     0.251 C 
ATOM     29  H   UNL A   1      33.042  30.641  25.946  1.00  0.00     0.163 HD
ATOM     30  O   UNL A   1      33.652  32.162  27.709  1.00  0.00    -0.269 OA
BRANCH  28  31
ATOM     31  C   UNL A   1      35.486  30.773  28.194  1.00  0.00     0.039 A 
ATOM     32  C   UNL A   1      36.625  31.554  27.987  1.00  0.00     0.014 A 
ATOM     33  C   UNL A   1      35.545  29.671  29.049  1.00  0.00     0.014 A 
ATOM     34  C   UNL A   1      37.803  31.250  28.672  1.00  0.00     0.010 A 
ATOM     35  C   UNL A   1      36.675  29.450  29.826  1.00  0.00     0.010 A 
ATOM     36  C   UNL A   1      37.828  30.214  29.622  1.00  0.00    -0.014 A 
BRANCH  36  37
ATOM     37  C   UNL A   1      39.068  29.887  30.371  1.00  0.00     0.031 A 
ATOM     38  C   UNL A   1      39.962  28.769  29.896  1.00  0.00     0.074 A 
ATOM     39  C   UNL A   1      39.371  30.576  31.489  1.00  0.00     0.049 A 
ATOM     40  N   UNL A   1      41.077  28.326  30.421  1.00  0.00    -0.248 NA
ATOM     41  C   UNL A   1      39.538  28.030  28.693  1.00  0.00     0.031 C 
ATOM     42  C   UNL A   1      38.551  31.637  32.083  1.00  0.00     0.029 A 
ATOM     43  N   UNL A   1      40.457  30.493  32.323  1.00  0.00    -0.354 N 
ATOM     44  C   UNL A   1      41.477  27.264  29.617  1.00  0.00     0.074 A 
ATOM     45  C   UNL A   1      40.449  27.072  28.621  1.00  0.00     0.031 C 
ATOM     46  C   UNL A   1      39.188  32.138  33.154  1.00  0.00     0.029 A 
ATOM     47  C   UNL A   1      40.436  31.410  33.348  1.00  0.00     0.049 A 
ATOM     48  H   UNL A   1      41.183  29.840  32.198  1.00  0.00     0.167 HD
ATOM     49  C   UNL A   1      42.620  26.539  29.673  1.00  0.00     0.031 A 
ATOM     50  C   UNL A   1      41.327  31.640  34.331  1.00  0.00     0.031 A 
ATOM     51  C   UNL A   1      43.649  26.743  30.655  1.00  0.00     0.049 A 
ATOM     52  C   UNL A   1      42.589  30.819  34.368  1.00  0.00     0.074 A 
ATOM     53  C   UNL A   1      44.858  26.082  30.788  1.00  0.00     0.029 A 
ATOM     54  N   UNL A   1      43.598  27.693  31.665  1.00  0.00    -0.354 N 
ATOM     55  N   UNL A   1      42.972  29.854  33.566  1.00  0.00    -0.248 NA
ATOM     56  C   UNL A   1      43.550  31.137  35.432  1.00  0.00     0.031 C 
ATOM     57  C   UNL A   1      45.521  26.606  31.903  1.00  0.00     0.029 A 
ATOM     58  C   UNL A   1      44.751  27.632  32.427  1.00  0.00     0.049 A 
ATOM     59  H   UNL A   1      42.852  28.315  31.816  1.00  0.00     0.167 HD
ATOM     60  C   UNL A   1      44.234  29.473  34.009  1.00  0.00     0.074 A 
ATOM     61  C   UNL A   1      44.557  30.330  35.131  1.00  0.00     0.031 C 
ATOM     62  C   UNL A   1      45.052  28.499  33.538  1.00  0.00     0.031 A 
BRANCH  49  63
ATOM     63  C   UNL A   1      42.825  25.480  28.620  1.00  0.00    -0.014 A 
ATOM     64  C   UNL A   1      42.377  24.162  28.831  1.00  0.00     0.010 A 
ATOM     65  C   UNL A   1      43.422  25.809  27.390  1.00  0.00     0.010 A 
ATOM     66  C   UNL A   1      42.549  23.188  27.846  1.00  0.00     0.020 A 
ATOM     67  C   UNL A   1      43.568  24.843  26.389  1.00  0.00     0.020 A 
ATOM     68  C   UNL A   1      43.141  23.535  26.628  1.00  0.00     0.054 A 
BRANCH  68  69
ATOM     69  S   UNL A   1      43.301  22.259  25.349  1.00  0.00     0.124 S 
ATOM     70  O   UNL A   1      42.064  21.501  25.523  1.00  0.00    -0.237 OA
ATOM     71  O   UNL A   1      43.388  23.047  24.123  1.00  0.00    -0.237 OA
ATOM     72  O   UNL A   1      44.522  21.548  25.718  1.00  0.00    -0.744 OA
ENDBRANCH  68  69
ENDBRANCH  49  63
BRANCH  50  73
ATOM     73  C   UNL A   1      41.073  32.696  35.351  1.00  0.00    -0.014 A 
ATOM     74  C   UNL A   1      41.526  34.013  35.152  1.00  0.00     0.010 A 
ATOM     75  C   UNL A   1      40.402  32.379  36.546  1.00  0.00     0.010 A 
ATOM     76  C   UNL A   1      41.361  34.979  36.149  1.00  0.00     0.020 A 
ATOM     77  C   UNL A   1      40.204  33.351  37.531  1.00  0.00     0.020 A 
ATOM     78  C   UNL A   1      40.705  34.638  37.337  1.00  0.00     0.054 A 
BRANCH  78  79
ATOM     79  S   UNL A   1      40.503  35.904  38.621  1.00  0.00     0.124 S 
ATOM     80  O   UNL A   1      39.755  35.180  39.644  1.00  0.00    -0.237 OA
ATOM     81  O   UNL A   1      41.884  36.237  38.960  1.00  0.00    -0.237 OA
ATOM     82  O   UNL A   1      39.764  36.965  37.939  1.00  0.00    -0.744 OA
ENDBRANCH  78  79
ENDBRANCH  50  73
BRANCH  62  83
ATOM     83  C   UNL A   1      46.393  28.350  34.206  1.00  0.00    -0.014 A 
ATOM     84  C   UNL A   1      46.568  27.506  35.316  1.00  0.00     0.010 A 
ATOM     85  C   UNL A   1      47.496  29.066  33.707  1.00  0.00     0.010 A 
ATOM     86  C   UNL A   1      47.808  27.430  35.955  1.00  0.00     0.020 A 
ATOM     87  C   UNL A   1      48.746  28.966  34.320  1.00  0.00     0.020 A 
ATOM     88  C   UNL A   1      48.886  28.168  35.458  1.00  0.00     0.054 A 
BRANCH  88  89
ATOM     89  S   UNL A   1      50.485  28.060  36.308  1.00  0.00     0.124 S 
ATOM     90  O   UNL A   1      50.082  27.716  37.668  1.00  0.00    -0.237 OA
ATOM     91  O   UNL A   1      51.170  27.003  35.568  1.00  0.00    -0.237 OA
ATOM     92  O   UNL A   1      51.055  29.395  36.145  1.00  0.00    -0.744 OA
ENDBRANCH  88  89
ENDBRANCH  62  83
ENDBRANCH  36  37
ENDBRANCH  28  31
ENDBRANCH  26  27
ENDBRANCH  25  26
ENDBRANCH   1  25
TORSDOF 18
ENDMDL
