MODEL 1
REMARK VINA RESULT:     -11.5      0.000      0.000
REMARK SMILES O=C(NCCCNC(=O)c1cc(SCc2csc(-c3ccsc3)n2)ccn1)c1ccc(-c2c3nc(c(-c4ccc(S(=O)(=O)[O-])cc4)c4ccc([nH]4)c(-c4ccc(S(=O)(=O)[O-])cc4)c4nc(c(-c5ccc(S(=O)(=O)[O-])cc5)c5ccc2[nH]5)C=C4)C=C3)cc1
REMARK SMILES IDX 5 1 4 2 3 3 1 4 2 5 28 7 29 8 87 9 30 10 86 11 31 12 32 13
REMARK SMILES IDX 33 14 80 15 34 16 85 17 79 18 81 19 35 20 84 21 78 22 77 23
REMARK SMILES IDX 36 25 66 26 47 27 65 28 48 29 51 30 64 31 82 32 49 33 50 34
REMARK SMILES IDX 63 36 83 37 52 38 37 39 38 40 46 41 39 42 45 43 40 44 41 45
REMARK SMILES IDX 42 46 43 47 44 48 67 49 68 50 76 51 69 52 75 53 70 54 71 55
REMARK SMILES IDX 72 56 73 57 74 58 53 59 54 60 62 61 55 62 61 63 56 64 57 65
REMARK SMILES IDX 58 66 59 67 60 68 6 69 7 70 8 71 9 73 10 74 11 75 27 76
REMARK SMILES IDX 12 77 26 78 25 79 13 80 14 81 15 82 16 83 24 84 17 85 18 86
REMARK SMILES IDX 19 87 20 88 23 89 21 90 22 91
REMARK H PARENT 3 6 81 24 51 35 7 72
REMARK Flexibility Score: inf
ROOT
ATOM      1  C   UNL A   1      34.287  29.930  26.835  1.00  0.00     0.042 C 
ENDROOT
BRANCH   1   2
ATOM      2  C   UNL A   1      35.337  29.328  27.752  1.00  0.00     0.118 C 
BRANCH   2   3
ATOM      3  N   UNL A   1      35.346  29.938  29.077  1.00  0.00    -0.352 N 
ATOM      4  O   UNL A   1      36.083  30.428  31.141  1.00  0.00    -0.269 OA
ATOM      5  C   UNL A   1      36.356  30.058  30.000  1.00  0.00     0.251 C 
ATOM      6  H   UNL A   1      34.487  30.328  29.355  1.00  0.00     0.163 HD
BRANCH   5   7
ATOM      7  C   UNL A   1      37.756  29.731  29.643  1.00  0.00     0.039 A 
ATOM      8  C   UNL A   1      38.224  29.902  28.340  1.00  0.00     0.014 A 
ATOM      9  C   UNL A   1      38.631  29.287  30.640  1.00  0.00     0.014 A 
ATOM     10  C   UNL A   1      39.499  29.471  27.997  1.00  0.00     0.010 A 
ATOM     11  C   UNL A   1      39.951  28.959  30.315  1.00  0.00     0.010 A 
ATOM     12  C   UNL A   1      40.387  29.020  28.983  1.00  0.00    -0.014 A 
BRANCH  12  13
ATOM     13  C   UNL A   1      41.787  28.700  28.603  1.00  0.00     0.031 A 
ATOM     14  C   UNL A   1      42.860  29.753  28.616  1.00  0.00     0.074 A 
ATOM     15  C   UNL A   1      42.085  27.429  28.266  1.00  0.00     0.049 A 
ATOM     16  N   UNL A   1      44.130  29.629  28.324  1.00  0.00    -0.248 NA
ATOM     17  C   UNL A   1      42.463  31.117  28.997  1.00  0.00     0.031 C 
ATOM     18  C   UNL A   1      41.123  26.323  28.207  1.00  0.00     0.029 A 
ATOM     19  N   UNL A   1      43.277  26.844  27.925  1.00  0.00    -0.354 N 
ATOM     20  C   UNL A   1      44.679  30.899  28.457  1.00  0.00     0.074 A 
ATOM     21  C   UNL A   1      43.601  31.784  28.844  1.00  0.00     0.031 C 
ATOM     22  C   UNL A   1      41.769  25.190  27.900  1.00  0.00     0.029 A 
ATOM     23  C   UNL A   1      43.175  25.497  27.669  1.00  0.00     0.049 A 
ATOM     24  H   UNL A   1      44.125  27.340  27.870  1.00  0.00     0.167 HD
ATOM     25  C   UNL A   1      45.964  31.288  28.274  1.00  0.00     0.031 A 
ATOM     26  C   UNL A   1      44.098  24.606  27.264  1.00  0.00     0.031 A 
ATOM     27  C   UNL A   1      47.031  30.398  27.897  1.00  0.00     0.049 A 
ATOM     28  C   UNL A   1      45.507  25.071  27.044  1.00  0.00     0.074 A 
ATOM     29  C   UNL A   1      48.376  30.689  27.737  1.00  0.00     0.029 A 
ATOM     30  N   UNL A   1      46.879  29.050  27.613  1.00  0.00    -0.354 N 
ATOM     31  N   UNL A   1      46.012  26.268  27.223  1.00  0.00    -0.248 NA
ATOM     32  C   UNL A   1      46.468  24.071  26.560  1.00  0.00     0.031 C 
ATOM     33  C   UNL A   1      49.025  29.529  27.304  1.00  0.00     0.029 A 
ATOM     34  C   UNL A   1      48.096  28.503  27.245  1.00  0.00     0.049 A 
ATOM     35  H   UNL A   1      46.030  28.554  27.667  1.00  0.00     0.167 HD
ATOM     36  C   UNL A   1      47.354  26.164  26.879  1.00  0.00     0.074 A 
ATOM     37  C   UNL A   1      47.586  24.783  26.506  1.00  0.00     0.031 C 
ATOM     38  C   UNL A   1      48.307  27.128  26.868  1.00  0.00     0.031 A 
BRANCH  25  39
ATOM     39  C   UNL A   1      46.288  32.749  28.445  1.00  0.00    -0.014 A 
ATOM     40  C   UNL A   1      46.869  33.236  29.629  1.00  0.00     0.010 A 
ATOM     41  C   UNL A   1      46.068  33.637  27.376  1.00  0.00     0.010 A 
ATOM     42  C   UNL A   1      47.193  34.591  29.752  1.00  0.00     0.020 A 
ATOM     43  C   UNL A   1      46.410  34.988  27.487  1.00  0.00     0.020 A 
ATOM     44  C   UNL A   1      46.959  35.459  28.681  1.00  0.00     0.054 A 
BRANCH  44  45
ATOM     45  S   UNL A   1      47.416  37.206  28.858  1.00  0.00     0.124 S 
ATOM     46  O   UNL A   1      47.526  37.342  30.309  1.00  0.00    -0.237 OA
ATOM     47  O   UNL A   1      48.676  37.287  28.124  1.00  0.00    -0.237 OA
ATOM     48  O   UNL A   1      46.297  37.921  28.250  1.00  0.00    -0.744 OA
ENDBRANCH  44  45
ENDBRANCH  25  39
BRANCH  26  49
ATOM     49  C   UNL A   1      43.699  23.197  27.008  1.00  0.00    -0.014 A 
ATOM     50  C   UNL A   1      43.018  22.451  27.984  1.00  0.00     0.010 A 
ATOM     51  C   UNL A   1      43.974  22.604  25.760  1.00  0.00     0.010 A 
ATOM     52  C   UNL A   1      42.628  21.134  27.723  1.00  0.00     0.020 A 
ATOM     53  C   UNL A   1      43.561  21.298  25.485  1.00  0.00     0.020 A 
ATOM     54  C   UNL A   1      42.901  20.567  26.473  1.00  0.00     0.054 A 
BRANCH  54  55
ATOM     55  S   UNL A   1      42.338  18.877  26.132  1.00  0.00     0.124 S 
ATOM     56  O   UNL A   1      42.529  18.228  27.425  1.00  0.00    -0.237 OA
ATOM     57  O   UNL A   1      40.951  19.080  25.723  1.00  0.00    -0.237 OA
ATOM     58  O   UNL A   1      43.233  18.430  25.066  1.00  0.00    -0.744 OA
ENDBRANCH  54  55
ENDBRANCH  26  49
BRANCH  38  59
ATOM     59  C   UNL A   1      49.690  26.718  26.446  1.00  0.00    -0.014 A 
ATOM     60  C   UNL A   1      50.544  26.042  27.334  1.00  0.00     0.010 A 
ATOM     61  C   UNL A   1      50.120  26.967  25.130  1.00  0.00     0.010 A 
ATOM     62  C   UNL A   1      51.815  25.639  26.918  1.00  0.00     0.020 A 
ATOM     63  C   UNL A   1      51.381  26.544  24.705  1.00  0.00     0.020 A 
ATOM     64  C   UNL A   1      52.225  25.893  25.605  1.00  0.00     0.054 A 
BRANCH  64  65
ATOM     65  S   UNL A   1      53.859  25.312  25.074  1.00  0.00     0.124 S 
ATOM     66  O   UNL A   1      53.883  25.714  23.670  1.00  0.00    -0.237 OA
ATOM     67  O   UNL A   1      54.765  26.046  25.954  1.00  0.00    -0.237 OA
ATOM     68  O   UNL A   1      53.806  23.870  25.308  1.00  0.00    -0.744 OA
ENDBRANCH  64  65
ENDBRANCH  38  59
ENDBRANCH  12  13
ENDBRANCH   5   7
ENDBRANCH   2   3
ENDBRANCH   1   2
BRANCH   1  69
ATOM     69  C   UNL A   1      32.862  29.666  27.280  1.00  0.00     0.118 C 
BRANCH  69  70
ATOM     70  N   UNL A   1      31.854  30.078  26.314  1.00  0.00    -0.351 N 
ATOM     71  C   UNL A   1      31.372  29.403  25.209  1.00  0.00     0.269 C 
ATOM     72  H   UNL A   1      31.459  30.965  26.470  1.00  0.00     0.163 HD
ATOM     73  O   UNL A   1      30.511  29.928  24.509  1.00  0.00    -0.268 OA
BRANCH  71  74
ATOM     74  C   UNL A   1      31.900  28.045  24.888  1.00  0.00     0.129 A 
ATOM     75  C   UNL A   1      31.387  26.933  25.547  1.00  0.00     0.049 A 
ATOM     76  N   UNL A   1      32.938  28.002  24.021  1.00  0.00    -0.251 NA
ATOM     77  C   UNL A   1      32.066  25.728  25.432  1.00  0.00     0.011 A 
ATOM     78  C   UNL A   1      33.528  26.805  23.857  1.00  0.00     0.113 A 
ATOM     79  C   UNL A   1      33.147  25.664  24.548  1.00  0.00     0.035 A 
BRANCH  77  80
ATOM     80  S   UNL A   1      31.730  24.265  26.401  1.00  0.00    -0.120 SA
BRANCH  80  81
ATOM     81  C   UNL A   1      31.457  22.928  25.196  1.00  0.00     0.132 C 
BRANCH  81  82
ATOM     82  C   UNL A   1      32.578  21.947  24.996  1.00  0.00     0.062 A 
ATOM     83  C   UNL A   1      33.922  22.280  25.029  1.00  0.00     0.091 A 
ATOM     84  N   UNL A   1      32.341  20.581  24.867  1.00  0.00    -0.240 NA
ATOM     85  S   UNL A   1      34.891  20.875  24.979  1.00  0.00    -0.122 S 
ATOM     86  C   UNL A   1      33.476  19.903  24.879  1.00  0.00     0.124 A 
BRANCH  86  87
ATOM     87  C   UNL A   1      33.513  18.397  24.824  1.00  0.00     0.021 A 
ATOM     88  C   UNL A   1      34.466  17.638  24.078  1.00  0.00     0.023 A 
ATOM     89  C   UNL A   1      32.617  17.576  25.481  1.00  0.00     0.076 A 
ATOM     90  C   UNL A   1      34.263  16.279  24.197  1.00  0.00     0.065 A 
ATOM     91  S   UNL A   1      32.924  15.915  25.196  1.00  0.00    -0.152 S 
ENDBRANCH  86  87
ENDBRANCH  81  82
ENDBRANCH  80  81
ENDBRANCH  77  80
ENDBRANCH  71  74
ENDBRANCH  69  70
ENDBRANCH   1  69
TORSDOF 17
ENDMDL
MODEL 2
REMARK VINA RESULT:     -11.3      5.024      6.172
REMARK SMILES O=C(NCCCNC(=O)c1cc(SCc2csc(-c3ccsc3)n2)ccn1)c1ccc(-c2c3nc(c(-c4ccc(S(=O)(=O)[O-])cc4)c4ccc([nH]4)c(-c4ccc(S(=O)(=O)[O-])cc4)c4nc(c(-c5ccc(S(=O)(=O)[O-])cc5)c5ccc2[nH]5)C=C4)C=C3)cc1
REMARK SMILES IDX 5 1 4 2 3 3 1 4 2 5 28 7 29 8 87 9 30 10 86 11 31 12 32 13
REMARK SMILES IDX 33 14 80 15 34 16 85 17 79 18 81 19 35 20 84 21 78 22 77 23
REMARK SMILES IDX 36 25 66 26 47 27 65 28 48 29 51 30 64 31 82 32 49 33 50 34
REMARK SMILES IDX 63 36 83 37 52 38 37 39 38 40 46 41 39 42 45 43 40 44 41 45
REMARK SMILES IDX 42 46 43 47 44 48 67 49 68 50 76 51 69 52 75 53 70 54 71 55
REMARK SMILES IDX 72 56 73 57 74 58 53 59 54 60 62 61 55 62 61 63 56 64 57 65
REMARK SMILES IDX 58 66 59 67 60 68 6 69 7 70 8 71 9 73 10 74 11 75 27 76
REMARK SMILES IDX 12 77 26 78 25 79 13 80 14 81 15 82 16 83 24 84 17 85 18 86
REMARK SMILES IDX 19 87 20 88 23 89 21 90 22 91
REMARK H PARENT 3 6 81 24 51 35 7 72
REMARK Flexibility Score: inf
ROOT
ATOM      1  C   UNL A   1      33.523  28.864  24.916  1.00  0.00     0.042 C 
ENDROOT
BRANCH   1   2
ATOM      2  C   UNL A   1      34.272  29.230  26.185  1.00  0.00     0.118 C 
BRANCH   2   3
ATOM      3  N   UNL A   1      33.874  30.525  26.722  1.00  0.00    -0.352 N 
ATOM      4  O   UNL A   1      33.750  32.229  28.181  1.00  0.00    -0.269 OA
ATOM      5  C   UNL A   1      34.378  31.252  27.773  1.00  0.00     0.251 C 
ATOM      6  H   UNL A   1      33.120  30.950  26.254  1.00  0.00     0.163 HD
BRANCH   5   7
ATOM      7  C   UNL A   1      35.649  30.864  28.427  1.00  0.00     0.039 A 
ATOM      8  C   UNL A   1      35.722  29.732  29.239  1.00  0.00     0.014 A 
ATOM      9  C   UNL A   1      36.801  31.620  28.188  1.00  0.00     0.014 A 
ATOM     10  C   UNL A   1      36.887  29.456  29.944  1.00  0.00     0.010 A 
ATOM     11  C   UNL A   1      38.005  31.275  28.811  1.00  0.00     0.010 A 
ATOM     12  C   UNL A   1      38.050  30.207  29.719  1.00  0.00    -0.014 A 
BRANCH  12  13
ATOM     13  C   UNL A   1      39.314  29.797  30.383  1.00  0.00     0.031 A 
ATOM     14  C   UNL A   1      39.790  30.472  31.640  1.00  0.00     0.074 A 
ATOM     15  C   UNL A   1      40.020  28.782  29.846  1.00  0.00     0.049 A 
ATOM     16  N   UNL A   1      40.864  30.221  32.345  1.00  0.00    -0.248 NA
ATOM     17  C   UNL A   1      38.967  31.569  32.170  1.00  0.00     0.031 C 
ATOM     18  C   UNL A   1      39.661  28.058  28.622  1.00  0.00     0.029 A 
ATOM     19  N   UNL A   1      41.174  28.169  30.262  1.00  0.00    -0.354 N 
ATOM     20  C   UNL A   1      40.862  31.143  33.385  1.00  0.00     0.074 A 
ATOM     21  C   UNL A   1      39.687  31.970  33.212  1.00  0.00     0.031 C 
ATOM     22  C   UNL A   1      40.546  27.073  28.414  1.00  0.00     0.029 A 
ATOM     23  C   UNL A   1      41.575  27.139  29.444  1.00  0.00     0.049 A 
ATOM     24  H   UNL A   1      41.669  28.441  31.068  1.00  0.00     0.167 HD
ATOM     25  C   UNL A   1      41.759  31.285  34.391  1.00  0.00     0.031 A 
ATOM     26  C   UNL A   1      42.662  26.348  29.494  1.00  0.00     0.031 A 
ATOM     27  C   UNL A   1      42.921  30.450  34.559  1.00  0.00     0.049 A 
ATOM     28  C   UNL A   1      43.652  26.545  30.604  1.00  0.00     0.074 A 
ATOM     29  C   UNL A   1      43.861  30.484  35.576  1.00  0.00     0.029 A 
ATOM     30  N   UNL A   1      43.309  29.442  33.691  1.00  0.00    -0.354 N 
ATOM     31  N   UNL A   1      43.604  27.393  31.604  1.00  0.00    -0.248 NA
ATOM     32  C   UNL A   1      44.844  25.688  30.590  1.00  0.00     0.031 C 
ATOM     33  C   UNL A   1      44.845  29.532  35.292  1.00  0.00     0.029 A 
ATOM     34  C   UNL A   1      44.491  28.870  34.127  1.00  0.00     0.049 A 
ATOM     35  H   UNL A   1      42.815  29.172  32.883  1.00  0.00     0.167 HD
ATOM     36  C   UNL A   1      44.758  27.167  32.342  1.00  0.00     0.074 A 
ATOM     37  C   UNL A   1      45.470  26.087  31.689  1.00  0.00     0.031 C 
ATOM     38  C   UNL A   1      45.191  27.801  33.459  1.00  0.00     0.031 A 
BRANCH  25  39
ATOM     39  C   UNL A   1      41.542  32.404  35.374  1.00  0.00    -0.014 A 
ATOM     40  C   UNL A   1      42.070  33.687  35.150  1.00  0.00     0.010 A 
ATOM     41  C   UNL A   1      40.739  32.183  36.509  1.00  0.00     0.010 A 
ATOM     42  C   UNL A   1      41.826  34.721  36.061  1.00  0.00     0.020 A 
ATOM     43  C   UNL A   1      40.475  33.219  37.410  1.00  0.00     0.020 A 
ATOM     44  C   UNL A   1      41.031  34.479  37.187  1.00  0.00     0.054 A 
BRANCH  44  45
ATOM     45  S   UNL A   1      40.708  35.845  38.336  1.00  0.00     0.124 S 
ATOM     46  O   UNL A   1      40.006  35.165  39.422  1.00  0.00    -0.237 OA
ATOM     47  O   UNL A   1      42.051  36.320  38.658  1.00  0.00    -0.237 OA
ATOM     48  O   UNL A   1      39.894  36.772  37.553  1.00  0.00    -0.744 OA
ENDBRANCH  44  45
ENDBRANCH  25  39
BRANCH  26  49
ATOM     49  C   UNL A   1      42.880  25.328  28.435  1.00  0.00    -0.014 A 
ATOM     50  C   UNL A   1      43.577  25.649  27.258  1.00  0.00     0.010 A 
ATOM     51  C   UNL A   1      42.414  24.012  28.618  1.00  0.00     0.010 A 
ATOM     52  C   UNL A   1      43.795  24.676  26.278  1.00  0.00     0.020 A 
ATOM     53  C   UNL A   1      42.654  23.030  27.654  1.00  0.00     0.020 A 
ATOM     54  C   UNL A   1      43.333  23.372  26.484  1.00  0.00     0.054 A 
BRANCH  54  55
ATOM     55  S   UNL A   1      43.674  22.108  25.228  1.00  0.00     0.124 S 
ATOM     56  O   UNL A   1      43.459  22.849  23.989  1.00  0.00    -0.237 OA
ATOM     57  O   UNL A   1      45.059  21.741  25.514  1.00  0.00    -0.237 OA
ATOM     58  O   UNL A   1      42.690  21.067  25.517  1.00  0.00    -0.744 OA
ENDBRANCH  54  55
ENDBRANCH  26  49
BRANCH  38  59
ATOM     59  C   UNL A   1      46.493  27.336  34.050  1.00  0.00    -0.014 A 
ATOM     60  C   UNL A   1      47.708  27.939  33.682  1.00  0.00     0.010 A 
ATOM     61  C   UNL A   1      46.493  26.321  35.023  1.00  0.00     0.010 A 
ATOM     62  C   UNL A   1      48.906  27.518  34.263  1.00  0.00     0.020 A 
ATOM     63  C   UNL A   1      47.686  25.916  35.624  1.00  0.00     0.020 A 
ATOM     64  C   UNL A   1      48.888  26.509  35.231  1.00  0.00     0.054 A 
BRANCH  64  65
ATOM     65  S   UNL A   1      50.450  26.018  36.010  1.00  0.00     0.124 S 
ATOM     66  O   UNL A   1      50.167  24.646  36.421  1.00  0.00    -0.237 OA
ATOM     67  O   UNL A   1      51.413  26.162  34.921  1.00  0.00    -0.237 OA
ATOM     68  O   UNL A   1      50.607  26.977  37.103  1.00  0.00    -0.744 OA
ENDBRANCH  64  65
ENDBRANCH  38  59
ENDBRANCH  12  13
ENDBRANCH   5   7
ENDBRANCH   2   3
ENDBRANCH   1   2
BRANCH   1  69
ATOM     69  C   UNL A   1      32.015  28.850  25.078  1.00  0.00     0.118 C 
BRANCH  69  70
ATOM     70  N   UNL A   1      31.289  29.322  23.908  1.00  0.00    -0.351 N 
ATOM     71  C   UNL A   1      31.075  28.691  22.698  1.00  0.00     0.269 C 
ATOM     72  H   UNL A   1      30.895  30.220  23.990  1.00  0.00     0.163 HD
ATOM     73  O   UNL A   1      30.429  29.265  21.824  1.00  0.00    -0.268 OA
BRANCH  71  74
ATOM     74  C   UNL A   1      31.623  27.322  22.473  1.00  0.00     0.129 A 
ATOM     75  C   UNL A   1      30.877  26.211  22.847  1.00  0.00     0.049 A 
ATOM     76  N   UNL A   1      32.888  27.263  21.994  1.00  0.00    -0.251 NA
ATOM     77  C   UNL A   1      31.507  24.974  22.877  1.00  0.00     0.011 A 
ATOM     78  C   UNL A   1      33.450  26.041  21.949  1.00  0.00     0.113 A 
ATOM     79  C   UNL A   1      32.816  24.892  22.394  1.00  0.00     0.035 A 
BRANCH  77  80
ATOM     80  S   UNL A   1      30.811  23.485  23.577  1.00  0.00    -0.120 SA
BRANCH  80  81
ATOM     81  C   UNL A   1      31.820  23.113  25.045  1.00  0.00     0.132 C 
BRANCH  81  82
ATOM     82  C   UNL A   1      32.893  22.070  24.892  1.00  0.00     0.062 A 
ATOM     83  C   UNL A   1      34.250  22.340  24.907  1.00  0.00     0.091 A 
ATOM     84  N   UNL A   1      32.590  20.712  24.831  1.00  0.00    -0.240 NA
ATOM     85  S   UNL A   1      35.152  20.890  24.925  1.00  0.00    -0.122 S 
ATOM     86  C   UNL A   1      33.692  19.982  24.874  1.00  0.00     0.124 A 
BRANCH  86  87
ATOM     87  C   UNL A   1      33.657  18.476  24.894  1.00  0.00     0.021 A 
ATOM     88  C   UNL A   1      34.659  17.636  24.319  1.00  0.00     0.023 A 
ATOM     89  C   UNL A   1      32.640  17.732  25.461  1.00  0.00     0.076 A 
ATOM     90  C   UNL A   1      34.372  16.295  24.472  1.00  0.00     0.065 A 
ATOM     91  S   UNL A   1      32.895  16.045  25.296  1.00  0.00    -0.152 S 
ENDBRANCH  86  87
ENDBRANCH  81  82
ENDBRANCH  80  81
ENDBRANCH  77  80
ENDBRANCH  71  74
ENDBRANCH  69  70
ENDBRANCH   1  69
TORSDOF 17
ENDMDL
MODEL 3
REMARK VINA RESULT:     -11.3      5.896      7.763
REMARK SMILES O=C(NCCCNC(=O)c1cc(SCc2csc(-c3ccsc3)n2)ccn1)c1ccc(-c2c3nc(c(-c4ccc(S(=O)(=O)[O-])cc4)c4ccc([nH]4)c(-c4ccc(S(=O)(=O)[O-])cc4)c4nc(c(-c5ccc(S(=O)(=O)[O-])cc5)c5ccc2[nH]5)C=C4)C=C3)cc1
REMARK SMILES IDX 5 1 4 2 3 3 1 4 2 5 28 7 29 8 87 9 30 10 86 11 31 12 32 13
REMARK SMILES IDX 33 14 80 15 34 16 85 17 79 18 81 19 35 20 84 21 78 22 77 23
REMARK SMILES IDX 36 25 66 26 47 27 65 28 48 29 51 30 64 31 82 32 49 33 50 34
REMARK SMILES IDX 63 36 83 37 52 38 37 39 38 40 46 41 39 42 45 43 40 44 41 45
REMARK SMILES IDX 42 46 43 47 44 48 67 49 68 50 76 51 69 52 75 53 70 54 71 55
REMARK SMILES IDX 72 56 73 57 74 58 53 59 54 60 62 61 55 62 61 63 56 64 57 65
REMARK SMILES IDX 58 66 59 67 60 68 6 69 7 70 8 71 9 73 10 74 11 75 27 76
REMARK SMILES IDX 12 77 26 78 25 79 13 80 14 81 15 82 16 83 24 84 17 85 18 86
REMARK SMILES IDX 19 87 20 88 23 89 21 90 22 91
REMARK H PARENT 3 6 81 24 51 35 7 72
REMARK Flexibility Score: inf
ROOT
ATOM      1  C   UNL A   1      32.133  30.626  26.976  1.00  0.00     0.042 C 
ENDROOT
BRANCH   1   2
ATOM      2  C   UNL A   1      33.355  31.440  27.364  1.00  0.00     0.118 C 
BRANCH   2   3
ATOM      3  N   UNL A   1      33.025  32.812  27.730  1.00  0.00    -0.352 N 
ATOM      4  O   UNL A   1      32.987  34.689  28.963  1.00  0.00    -0.269 OA
ATOM      5  C   UNL A   1      33.562  33.636  28.688  1.00  0.00     0.251 C 
ATOM      6  H   UNL A   1      32.299  33.215  27.202  1.00  0.00     0.163 HD
BRANCH   5   7
ATOM      7  C   UNL A   1      34.806  33.265  29.401  1.00  0.00     0.039 A 
ATOM      8  C   UNL A   1      36.023  33.869  29.087  1.00  0.00     0.014 A 
ATOM      9  C   UNL A   1      34.747  32.324  30.436  1.00  0.00     0.014 A 
ATOM     10  C   UNL A   1      37.197  33.417  29.675  1.00  0.00     0.010 A 
ATOM     11  C   UNL A   1      35.915  31.951  31.108  1.00  0.00     0.010 A 
ATOM     12  C   UNL A   1      37.156  32.473  30.711  1.00  0.00    -0.014 A 
BRANCH  12  13
ATOM     13  C   UNL A   1      38.415  32.117  31.414  1.00  0.00     0.031 A 
ATOM     14  C   UNL A   1      38.750  32.696  32.761  1.00  0.00     0.074 A 
ATOM     15  C   UNL A   1      39.250  31.235  30.826  1.00  0.00     0.049 A 
ATOM     16  N   UNL A   1      39.801  32.474  33.507  1.00  0.00    -0.248 NA
ATOM     17  C   UNL A   1      37.791  33.647  33.343  1.00  0.00     0.031 C 
ATOM     18  C   UNL A   1      39.035  30.615  29.514  1.00  0.00     0.029 A 
ATOM     19  N   UNL A   1      40.434  30.694  31.254  1.00  0.00    -0.354 N 
ATOM     20  C   UNL A   1      39.648  33.275  34.632  1.00  0.00     0.074 A 
ATOM     21  C   UNL A   1      38.407  34.001  34.465  1.00  0.00     0.031 C 
ATOM     22  C   UNL A   1      40.026  29.747  29.268  1.00  0.00     0.029 A 
ATOM     23  C   UNL A   1      40.983  29.799  30.366  1.00  0.00     0.049 A 
ATOM     24  H   UNL A   1      40.853  30.924  32.115  1.00  0.00     0.167 HD
ATOM     25  C   UNL A   1      40.468  33.393  35.705  1.00  0.00     0.031 A 
ATOM     26  C   UNL A   1      42.140  29.114  30.408  1.00  0.00     0.031 A 
ATOM     27  C   UNL A   1      41.696  32.660  35.866  1.00  0.00     0.049 A 
ATOM     28  C   UNL A   1      43.040  29.285  31.596  1.00  0.00     0.074 A 
ATOM     29  C   UNL A   1      42.570  32.674  36.941  1.00  0.00     0.029 A 
ATOM     30  N   UNL A   1      42.233  31.791  34.928  1.00  0.00    -0.354 N 
ATOM     31  N   UNL A   1      42.850  30.013  32.670  1.00  0.00    -0.248 NA
ATOM     32  C   UNL A   1      44.311  28.550  31.575  1.00  0.00     0.031 C 
ATOM     33  C   UNL A   1      43.659  31.854  36.629  1.00  0.00     0.029 A 
ATOM     34  C   UNL A   1      43.440  31.290  35.383  1.00  0.00     0.049 A 
ATOM     35  H   UNL A   1      41.815  31.563  34.066  1.00  0.00     0.167 HD
ATOM     36  C   UNL A   1      43.978  29.820  33.458  1.00  0.00     0.074 A 
ATOM     37  C   UNL A   1      44.831  28.887  32.748  1.00  0.00     0.031 C 
ATOM     38  C   UNL A   1      44.281  30.370  34.659  1.00  0.00     0.031 A 
BRANCH  25  39
ATOM     39  C   UNL A   1      40.084  34.376  36.779  1.00  0.00    -0.014 A 
ATOM     40  C   UNL A   1      39.221  34.013  37.828  1.00  0.00     0.010 A 
ATOM     41  C   UNL A   1      40.650  35.664  36.774  1.00  0.00     0.010 A 
ATOM     42  C   UNL A   1      38.906  34.932  38.835  1.00  0.00     0.020 A 
ATOM     43  C   UNL A   1      40.355  36.579  37.789  1.00  0.00     0.020 A 
ATOM     44  C   UNL A   1      39.473  36.211  38.807  1.00  0.00     0.054 A 
BRANCH  44  45
ATOM     45  S   UNL A   1      39.069  37.372  40.141  1.00  0.00     0.124 S 
ATOM     46  O   UNL A   1      38.163  38.300  39.467  1.00  0.00    -0.237 OA
ATOM     47  O   UNL A   1      38.450  36.510  41.143  1.00  0.00    -0.237 OA
ATOM     48  O   UNL A   1      40.364  37.932  40.518  1.00  0.00    -0.744 OA
ENDBRANCH  44  45
ENDBRANCH  25  39
BRANCH  26  49
ATOM     49  C   UNL A   1      42.519  28.238  29.269  1.00  0.00    -0.014 A 
ATOM     50  C   UNL A   1      43.271  28.740  28.193  1.00  0.00     0.010 A 
ATOM     51  C   UNL A   1      42.152  26.879  29.273  1.00  0.00     0.010 A 
ATOM     52  C   UNL A   1      43.640  27.901  27.138  1.00  0.00     0.020 A 
ATOM     53  C   UNL A   1      42.543  26.031  28.234  1.00  0.00     0.020 A 
ATOM     54  C   UNL A   1      43.275  26.551  27.166  1.00  0.00     0.054 A 
BRANCH  54  55
ATOM     55  S   UNL A   1      43.812  25.465  25.816  1.00  0.00     0.124 S 
ATOM     56  O   UNL A   1      44.343  24.318  26.544  1.00  0.00    -0.237 OA
ATOM     57  O   UNL A   1      42.569  25.231  25.084  1.00  0.00    -0.237 OA
ATOM     58  O   UNL A   1      44.801  26.271  25.104  1.00  0.00    -0.744 OA
ENDBRANCH  54  55
ENDBRANCH  26  49
BRANCH  38  59
ATOM     59  C   UNL A   1      45.588  29.970  35.285  1.00  0.00    -0.014 A 
ATOM     60  C   UNL A   1      45.681  28.819  36.087  1.00  0.00     0.010 A 
ATOM     61  C   UNL A   1      46.745  30.724  35.024  1.00  0.00     0.010 A 
ATOM     62  C   UNL A   1      46.908  28.442  36.636  1.00  0.00     0.020 A 
ATOM     63  C   UNL A   1      47.978  30.336  35.552  1.00  0.00     0.020 A 
ATOM     64  C   UNL A   1      48.050  29.203  36.364  1.00  0.00     0.054 A 
BRANCH  64  65
ATOM     65  S   UNL A   1      49.641  28.662  37.045  1.00  0.00     0.124 S 
ATOM     66  O   UNL A   1      49.747  29.474  38.254  1.00  0.00    -0.237 OA
ATOM     67  O   UNL A   1      49.430  27.233  37.264  1.00  0.00    -0.237 OA
ATOM     68  O   UNL A   1      50.598  28.989  35.988  1.00  0.00    -0.744 OA
ENDBRANCH  64  65
ENDBRANCH  38  59
ENDBRANCH  12  13
ENDBRANCH   5   7
ENDBRANCH   2   3
ENDBRANCH   1   2
BRANCH   1  69
ATOM     69  C   UNL A   1      32.255  29.942  25.628  1.00  0.00     0.118 C 
BRANCH  69  70
ATOM     70  N   UNL A   1      31.121  30.167  24.745  1.00  0.00    -0.351 N 
ATOM     71  C   UNL A   1      30.510  29.296  23.863  1.00  0.00     0.269 C 
ATOM     72  H   UNL A   1      30.732  31.071  24.779  1.00  0.00     0.163 HD
ATOM     73  O   UNL A   1      29.554  29.683  23.197  1.00  0.00    -0.268 OA
BRANCH  71  74
ATOM     74  C   UNL A   1      31.017  27.898  23.740  1.00  0.00     0.129 A 
ATOM     75  C   UNL A   1      30.778  26.986  24.762  1.00  0.00     0.049 A 
ATOM     76  N   UNL A   1      31.779  27.638  22.651  1.00  0.00    -0.251 NA
ATOM     77  C   UNL A   1      31.477  25.787  24.750  1.00  0.00     0.011 A 
ATOM     78  C   UNL A   1      32.378  26.434  22.618  1.00  0.00     0.113 A 
ATOM     79  C   UNL A   1      32.276  25.502  23.639  1.00  0.00     0.035 A 
BRANCH  77  80
ATOM     80  S   UNL A   1      31.516  24.610  26.094  1.00  0.00    -0.120 SA
BRANCH  80  81
ATOM     81  C   UNL A   1      31.109  22.999  25.350  1.00  0.00     0.132 C 
BRANCH  81  82
ATOM     82  C   UNL A   1      32.248  22.047  25.113  1.00  0.00     0.062 A 
ATOM     83  C   UNL A   1      33.583  22.413  25.107  1.00  0.00     0.091 A 
ATOM     84  N   UNL A   1      32.040  20.675  24.988  1.00  0.00    -0.240 NA
ATOM     85  S   UNL A   1      34.585  21.033  25.025  1.00  0.00    -0.122 S 
ATOM     86  C   UNL A   1      33.192  20.026  24.964  1.00  0.00     0.124 A 
BRANCH  86  87
ATOM     87  C   UNL A   1      33.265  18.522  24.904  1.00  0.00     0.021 A 
ATOM     88  C   UNL A   1      34.068  17.787  23.980  1.00  0.00     0.023 A 
ATOM     89  C   UNL A   1      32.549  17.678  25.732  1.00  0.00     0.076 A 
ATOM     90  C   UNL A   1      33.937  16.423  24.139  1.00  0.00     0.065 A 
ATOM     91  S   UNL A   1      32.843  16.025  25.391  1.00  0.00    -0.152 S 
ENDBRANCH  86  87
ENDBRANCH  81  82
ENDBRANCH  80  81
ENDBRANCH  77  80
ENDBRANCH  71  74
ENDBRANCH  69  70
ENDBRANCH   1  69
TORSDOF 17
ENDMDL
