MODEL 1
REMARK VINA RESULT:     -11.3      0.000      0.000
REMARK SMILES [NH3+][C@@H](Cc1c[nH]c2ccccc12)C(=O)N[C@@H](CS)C(=O)N[C@@H](CO)C(=O)NCCCNC(=O)c1ccc(-c2c3nc(c(-c4ccc(S(=O)(=O)[O-])cc4)c4ccc([nH]4)c(-c4ccc(S(=O)(=O)[O-])cc4)c4nc(c(-c5ccc(S(=O)(=O)[O-])cc5)c5ccc2[nH]5)C=C4)C=C3)cc1
REMARK SMILES IDX 25 1 26 2 27 3 22 5 21 6 19 7 20 8 16 10 15 11 13 12 14 13
REMARK SMILES IDX 2 15 1 16 3 20 4 21 5 22 12 23 6 24 7 25 11 26 8 28 10 29
REMARK SMILES IDX 9 30 17 31 18 32 23 34 24 35 28 37 29 38 30 39 31 40 32 41
REMARK SMILES IDX 33 43 34 44 35 45 93 46 36 47 92 48 37 49 38 50 39 51 86 52
REMARK SMILES IDX 40 53 91 54 85 55 87 56 41 57 90 58 84 59 83 60 42 62 72 63
REMARK SMILES IDX 53 64 71 65 54 66 57 67 70 68 88 69 55 70 56 71 69 73 89 74
REMARK SMILES IDX 58 75 43 76 44 77 52 78 45 79 51 80 46 81 47 82 48 83 49 84
REMARK SMILES IDX 50 85 73 86 74 87 82 88 75 89 81 90 76 91 77 92 78 93 79 94
REMARK SMILES IDX 80 95 59 96 60 97 68 98 61 99 67 100 62 101 63 102 64 103
REMARK SMILES IDX 65 104 66 105
REMARK H PARENT 27 4 21 9 15 14 1 17 1 18 1 19 6 27 18 33 24 36 31 42 87 61
REMARK H PARENT 57 72
REMARK Flexibility Score: inf
ROOT
ATOM      1  C   UNL A   1      31.315  24.085  26.752  1.00  0.00     0.244 C 
ATOM      2  O   UNL A   1      30.252  23.678  27.232  1.00  0.00    -0.273 OA
ATOM      3  N   UNL A   1      31.511  25.428  26.744  1.00  0.00    -0.354 N 
ATOM      4  H   UNL A   1      30.709  25.958  26.955  1.00  0.00     0.163 HD
ENDROOT
BRANCH   1   5
ATOM      5  C   UNL A   1      32.366  23.094  26.245  1.00  0.00     0.197 C 
BRANCH   5   6
ATOM      6  N   UNL A   1      33.014  23.531  25.004  1.00  0.00    -0.340 N 
ATOM      7  C   UNL A   1      33.325  22.569  24.088  1.00  0.00     0.244 C 
ATOM      8  O   UNL A   1      34.348  21.905  24.271  1.00  0.00    -0.273 OA
ATOM      9  H   UNL A   1      33.217  24.480  24.838  1.00  0.00     0.164 HD
BRANCH   7  10
ATOM     10  C   UNL A   1      32.395  22.360  22.875  1.00  0.00     0.181 C 
BRANCH  10  11
ATOM     11  N   UNL A   1      32.842  23.305  21.857  1.00  0.00    -0.338 N 
ATOM     12  C   UNL A   1      32.675  24.661  21.843  1.00  0.00     0.279 C 
ATOM     13  O   UNL A   1      33.556  25.321  21.280  1.00  0.00    -0.268 OA
ATOM     14  H   UNL A   1      33.321  22.920  21.087  1.00  0.00     0.164 HD
BRANCH  12  15
ATOM     15  C   UNL A   1      31.412  25.358  22.409  1.00  0.00     0.275 C 
BRANCH  15  16
ATOM     16  N   UNL A   1      30.430  24.352  22.880  1.00  0.00    -0.347 N 
ATOM     17  H   UNL A   1      30.248  23.680  22.134  1.00  0.00     0.345 HD
ATOM     18  H   UNL A   1      29.560  24.819  23.136  1.00  0.00     0.345 HD
ATOM     19  H   UNL A   1      30.805  23.864  23.693  1.00  0.00     0.345 HD
ENDBRANCH  15  16
BRANCH  15  20
ATOM     20  C   UNL A   1      31.635  26.596  23.311  1.00  0.00     0.113 C 
BRANCH  20  21
ATOM     21  C   UNL A   1      31.221  27.947  22.785  1.00  0.00    -0.016 A 
ATOM     22  C   UNL A   1      32.034  28.927  22.240  1.00  0.00     0.087 A 
ATOM     23  C   UNL A   1      29.887  28.484  22.773  1.00  0.00     0.003 A 
ATOM     24  N   UNL A   1      31.242  29.954  21.793  1.00  0.00    -0.361 N 
ATOM     25  C   UNL A   1      29.925  29.694  22.078  1.00  0.00     0.046 A 
ATOM     26  C   UNL A   1      28.640  28.036  23.257  1.00  0.00     0.010 A 
ATOM     27  H   UNL A   1      31.571  30.760  21.335  1.00  0.00     0.166 HD
ATOM     28  C   UNL A   1      28.778  30.447  21.795  1.00  0.00     0.026 A 
ATOM     29  C   UNL A   1      27.486  28.789  23.007  1.00  0.00     0.001 A 
ATOM     30  C   UNL A   1      27.555  29.969  22.274  1.00  0.00     0.002 A 
ENDBRANCH  20  21
ENDBRANCH  15  20
ENDBRANCH  12  15
ENDBRANCH  10  11
BRANCH  10  31
ATOM     31  C   UNL A   1      32.147  20.937  22.370  1.00  0.00     0.101 C 
BRANCH  31  32
ATOM     32  S   UNL A   1      32.378  19.595  23.577  1.00  0.00    -0.177 SA
ATOM     33  H   UNL A   1      33.688  19.231  23.608  1.00  0.00     0.102 HD
ENDBRANCH  31  32
ENDBRANCH  10  31
ENDBRANCH   7  10
ENDBRANCH   5   6
BRANCH   5  34
ATOM     34  C   UNL A   1      33.331  22.635  27.357  1.00  0.00     0.191 C 
BRANCH  34  35
ATOM     35  O   UNL A   1      32.668  22.225  28.550  1.00  0.00    -0.394 OA
ATOM     36  H   UNL A   1      32.359  23.006  29.034  1.00  0.00     0.210 HD
ENDBRANCH  34  35
ENDBRANCH   5  34
ENDBRANCH   1   5
BRANCH   3  37
ATOM     37  C   UNL A   1      32.700  26.219  26.477  1.00  0.00     0.117 C 
BRANCH  37  38
ATOM     38  C   UNL A   1      32.519  27.683  26.846  1.00  0.00     0.042 C 
BRANCH  38  39
ATOM     39  C   UNL A   1      33.708  28.572  26.506  1.00  0.00     0.118 C 
BRANCH  39  40
ATOM     40  N   UNL A   1      33.611  29.905  27.085  1.00  0.00    -0.352 N 
ATOM     41  C   UNL A   1      34.488  30.586  27.895  1.00  0.00     0.251 C 
ATOM     42  H   UNL A   1      32.787  30.395  26.862  1.00  0.00     0.163 HD
ATOM     43  O   UNL A   1      34.143  31.648  28.407  1.00  0.00    -0.269 OA
BRANCH  41  44
ATOM     44  C   UNL A   1      35.824  30.026  28.175  1.00  0.00     0.039 A 
ATOM     45  C   UNL A   1      36.817  30.125  27.196  1.00  0.00     0.014 A 
ATOM     46  C   UNL A   1      36.105  29.422  29.401  1.00  0.00     0.014 A 
ATOM     47  C   UNL A   1      38.115  29.700  27.484  1.00  0.00     0.010 A 
ATOM     48  C   UNL A   1      37.416  29.084  29.719  1.00  0.00     0.010 A 
ATOM     49  C   UNL A   1      38.435  29.224  28.766  1.00  0.00    -0.014 A 
BRANCH  49  50
ATOM     50  C   UNL A   1      39.829  28.878  29.142  1.00  0.00     0.031 A 
ATOM     51  C   UNL A   1      40.708  29.903  29.804  1.00  0.00     0.074 A 
ATOM     52  C   UNL A   1      40.330  27.672  28.805  1.00  0.00     0.049 A 
ATOM     53  N   UNL A   1      41.978  29.830  30.104  1.00  0.00    -0.248 NA
ATOM     54  C   UNL A   1      40.083  31.194  30.145  1.00  0.00     0.031 C 
ATOM     55  C   UNL A   1      39.594  26.607  28.120  1.00  0.00     0.029 A 
ATOM     56  N   UNL A   1      41.584  27.144  28.983  1.00  0.00    -0.354 N 
ATOM     57  C   UNL A   1      42.311  31.068  30.643  1.00  0.00     0.074 A 
ATOM     58  C   UNL A   1      41.122  31.888  30.587  1.00  0.00     0.031 C 
ATOM     59  C   UNL A   1      40.401  25.545  27.961  1.00  0.00     0.029 A 
ATOM     60  C   UNL A   1      41.721  25.868  28.492  1.00  0.00     0.049 A 
ATOM     61  H   UNL A   1      42.317  27.633  29.423  1.00  0.00     0.167 HD
ATOM     62  C   UNL A   1      43.495  31.478  31.157  1.00  0.00     0.031 A 
ATOM     63  C   UNL A   1      42.791  25.050  28.459  1.00  0.00     0.031 A 
ATOM     64  C   UNL A   1      44.668  30.651  31.236  1.00  0.00     0.049 A 
ATOM     65  C   UNL A   1      44.094  25.527  29.039  1.00  0.00     0.074 A 
ATOM     66  C   UNL A   1      45.897  30.954  31.796  1.00  0.00     0.029 A 
ATOM     67  N   UNL A   1      44.759  29.358  30.743  1.00  0.00    -0.354 N 
ATOM     68  N   UNL A   1      44.373  26.682  29.594  1.00  0.00    -0.248 NA
ATOM     69  C   UNL A   1      45.224  24.588  28.993  1.00  0.00     0.031 C 
ATOM     70  C   UNL A   1      46.744  29.856  31.606  1.00  0.00     0.029 A 
ATOM     71  C   UNL A   1      46.029  28.855  30.969  1.00  0.00     0.049 A 
ATOM     72  H   UNL A   1      44.028  28.870  30.299  1.00  0.00     0.167 HD
ATOM     73  C   UNL A   1      45.706  26.602  29.981  1.00  0.00     0.074 A 
ATOM     74  C   UNL A   1      46.172  25.281  29.610  1.00  0.00     0.031 C 
ATOM     75  C   UNL A   1      46.474  27.539  30.589  1.00  0.00     0.031 A 
BRANCH  62  76
ATOM     76  C   UNL A   1      43.573  32.889  31.674  1.00  0.00    -0.014 A 
ATOM     77  C   UNL A   1      43.180  33.203  32.989  1.00  0.00     0.010 A 
ATOM     78  C   UNL A   1      44.073  33.911  30.848  1.00  0.00     0.010 A 
ATOM     79  C   UNL A   1      43.240  34.519  33.450  1.00  0.00     0.020 A 
ATOM     80  C   UNL A   1      44.161  35.226  31.315  1.00  0.00     0.020 A 
ATOM     81  C   UNL A   1      43.726  35.524  32.609  1.00  0.00     0.054 A 
BRANCH  81  82
ATOM     82  S   UNL A   1      43.807  37.223  33.238  1.00  0.00     0.124 S 
ATOM     83  O   UNL A   1      42.638  37.275  34.112  1.00  0.00    -0.237 OA
ATOM     84  O   UNL A   1      45.099  37.253  33.917  1.00  0.00    -0.237 OA
ATOM     85  O   UNL A   1      43.720  38.044  32.033  1.00  0.00    -0.744 OA
ENDBRANCH  81  82
ENDBRANCH  62  76
BRANCH  63  86
ATOM     86  C   UNL A   1      42.670  23.690  27.868  1.00  0.00    -0.014 A 
ATOM     87  C   UNL A   1      42.274  22.603  28.665  1.00  0.00     0.010 A 
ATOM     88  C   UNL A   1      42.930  23.481  26.502  1.00  0.00     0.010 A 
ATOM     89  C   UNL A   1      42.153  21.325  28.111  1.00  0.00     0.020 A 
ATOM     90  C   UNL A   1      42.787  22.210  25.938  1.00  0.00     0.020 A 
ATOM     91  C   UNL A   1      42.409  21.138  26.750  1.00  0.00     0.054 A 
BRANCH  91  92
ATOM     92  S   UNL A   1      42.190  19.483  26.038  1.00  0.00     0.124 S 
ATOM     93  O   UNL A   1      43.071  19.535  24.874  1.00  0.00    -0.237 OA
ATOM     94  O   UNL A   1      42.627  18.609  27.124  1.00  0.00    -0.237 OA
ATOM     95  O   UNL A   1      40.761  19.427  25.741  1.00  0.00    -0.744 OA
ENDBRANCH  91  92
ENDBRANCH  63  86
BRANCH  75  96
ATOM     96  C   UNL A   1      47.894  27.164  30.911  1.00  0.00    -0.014 A 
ATOM     97  C   UNL A   1      48.223  26.566  32.139  1.00  0.00     0.010 A 
ATOM     98  C   UNL A   1      48.899  27.354  29.945  1.00  0.00     0.010 A 
ATOM     99  C   UNL A   1      49.540  26.182  32.405  1.00  0.00     0.020 A 
ATOM    100  C   UNL A   1      50.212  26.950  30.199  1.00  0.00     0.020 A 
ATOM    101  C   UNL A   1      50.525  26.375  31.432  1.00  0.00     0.054 A 
BRANCH 101 102
ATOM    102  S   UNL A   1      52.216  25.815  31.778  1.00  0.00     0.124 S 
ATOM    103  O   UNL A   1      52.007  24.409  32.114  1.00  0.00    -0.237 OA
ATOM    104  O   UNL A   1      52.902  26.064  30.513  1.00  0.00    -0.237 OA
ATOM    105  O   UNL A   1      52.641  26.665  32.888  1.00  0.00    -0.744 OA
ENDBRANCH 101 102
ENDBRANCH  75  96
ENDBRANCH  49  50
ENDBRANCH  41  44
ENDBRANCH  39  40
ENDBRANCH  38  39
ENDBRANCH  37  38
ENDBRANCH   3  37
TORSDOF 24
ENDMDL
MODEL 2
REMARK VINA RESULT:     -10.8      0.573      7.875
REMARK SMILES [NH3+][C@@H](Cc1c[nH]c2ccccc12)C(=O)N[C@@H](CS)C(=O)N[C@@H](CO)C(=O)NCCCNC(=O)c1ccc(-c2c3nc(c(-c4ccc(S(=O)(=O)[O-])cc4)c4ccc([nH]4)c(-c4ccc(S(=O)(=O)[O-])cc4)c4nc(c(-c5ccc(S(=O)(=O)[O-])cc5)c5ccc2[nH]5)C=C4)C=C3)cc1
REMARK SMILES IDX 25 1 26 2 27 3 22 5 21 6 19 7 20 8 16 10 15 11 13 12 14 13
REMARK SMILES IDX 2 15 1 16 3 20 4 21 5 22 12 23 6 24 7 25 11 26 8 28 10 29
REMARK SMILES IDX 9 30 17 31 18 32 23 34 24 35 28 37 29 38 30 39 31 40 32 41
REMARK SMILES IDX 33 43 34 44 35 45 93 46 36 47 92 48 37 49 38 50 39 51 86 52
REMARK SMILES IDX 40 53 91 54 85 55 87 56 41 57 90 58 84 59 83 60 42 62 72 63
REMARK SMILES IDX 53 64 71 65 54 66 57 67 70 68 88 69 55 70 56 71 69 73 89 74
REMARK SMILES IDX 58 75 43 76 44 77 52 78 45 79 51 80 46 81 47 82 48 83 49 84
REMARK SMILES IDX 50 85 73 86 74 87 82 88 75 89 81 90 76 91 77 92 78 93 79 94
REMARK SMILES IDX 80 95 59 96 60 97 68 98 61 99 67 100 62 101 63 102 64 103
REMARK SMILES IDX 65 104 66 105
REMARK H PARENT 27 4 21 9 15 14 1 17 1 18 1 19 6 27 18 33 24 36 31 42 87 61
REMARK H PARENT 57 72
REMARK Flexibility Score: inf
ROOT
ATOM      1  C   UNL A   1      31.581  23.844  26.817  1.00  0.00     0.244 C 
ATOM      2  O   UNL A   1      30.504  23.416  27.244  1.00  0.00    -0.273 OA
ATOM      3  N   UNL A   1      31.729  25.191  26.760  1.00  0.00    -0.354 N 
ATOM      4  H   UNL A   1      30.895  25.698  26.894  1.00  0.00     0.163 HD
ENDROOT
BRANCH   1   5
ATOM      5  C   UNL A   1      32.699  22.873  26.425  1.00  0.00     0.197 C 
BRANCH   5   6
ATOM      6  N   UNL A   1      33.339  23.221  25.151  1.00  0.00    -0.340 N 
ATOM      7  C   UNL A   1      33.458  22.231  24.221  1.00  0.00     0.244 C 
ATOM      8  O   UNL A   1      34.381  21.423  24.350  1.00  0.00    -0.273 OA
ATOM      9  H   UNL A   1      33.670  24.131  24.975  1.00  0.00     0.164 HD
BRANCH   7  10
ATOM     10  C   UNL A   1      32.446  22.169  23.058  1.00  0.00     0.181 C 
BRANCH  10  11
ATOM     11  N   UNL A   1      32.848  23.212  22.119  1.00  0.00    -0.338 N 
ATOM     12  C   UNL A   1      32.555  24.545  22.172  1.00  0.00     0.279 C 
ATOM     13  O   UNL A   1      33.394  25.316  21.692  1.00  0.00    -0.268 OA
ATOM     14  H   UNL A   1      33.396  22.920  21.354  1.00  0.00     0.164 HD
BRANCH  12  15
ATOM     15  C   UNL A   1      31.206  25.087  22.711  1.00  0.00     0.275 C 
BRANCH  15  16
ATOM     16  N   UNL A   1      30.333  23.971  23.145  1.00  0.00    -0.347 N 
ATOM     17  H   UNL A   1      30.859  23.347  23.758  1.00  0.00     0.345 HD
ATOM     18  H   UNL A   1      30.011  23.452  22.328  1.00  0.00     0.345 HD
ATOM     19  H   UNL A   1      29.529  24.344  23.649  1.00  0.00     0.345 HD
ENDBRANCH  15  16
BRANCH  15  20
ATOM     20  C   UNL A   1      31.264  26.332  23.630  1.00  0.00     0.113 C 
BRANCH  20  21
ATOM     21  C   UNL A   1      31.115  27.693  22.999  1.00  0.00    -0.016 A 
ATOM     22  C   UNL A   1      32.115  28.500  22.483  1.00  0.00     0.087 A 
ATOM     23  C   UNL A   1      29.887  28.426  22.836  1.00  0.00     0.003 A 
ATOM     24  N   UNL A   1      31.535  29.605  21.914  1.00  0.00    -0.361 N 
ATOM     25  C   UNL A   1      30.174  29.568  22.088  1.00  0.00     0.046 A 
ATOM     26  C   UNL A   1      28.549  28.205  23.223  1.00  0.00     0.010 A 
ATOM     27  H   UNL A   1      32.025  30.320  21.447  1.00  0.00     0.166 HD
ATOM     28  C   UNL A   1      29.188  30.467  21.661  1.00  0.00     0.026 A 
ATOM     29  C   UNL A   1      27.553  29.107  22.830  1.00  0.00     0.001 A 
ATOM     30  C   UNL A   1      27.869  30.214  22.047  1.00  0.00     0.002 A 
ENDBRANCH  20  21
ENDBRANCH  15  20
ENDBRANCH  12  15
ENDBRANCH  10  11
BRANCH  10  31
ATOM     31  C   UNL A   1      32.132  20.813  22.422  1.00  0.00     0.101 C 
BRANCH  31  32
ATOM     32  S   UNL A   1      32.231  19.362  23.514  1.00  0.00    -0.177 SA
ATOM     33  H   UNL A   1      33.522  18.943  23.597  1.00  0.00     0.102 HD
ENDBRANCH  31  32
ENDBRANCH  10  31
ENDBRANCH   7  10
ENDBRANCH   5   6
BRANCH   5  34
ATOM     34  C   UNL A   1      33.673  22.593  27.588  1.00  0.00     0.191 C 
BRANCH  34  35
ATOM     35  O   UNL A   1      34.439  21.404  27.411  1.00  0.00    -0.394 OA
ATOM     36  H   UNL A   1      34.102  20.912  26.646  1.00  0.00     0.210 HD
ENDBRANCH  34  35
ENDBRANCH   5  34
ENDBRANCH   1   5
BRANCH   3  37
ATOM     37  C   UNL A   1      32.903  26.016  26.536  1.00  0.00     0.117 C 
BRANCH  37  38
ATOM     38  C   UNL A   1      32.656  27.480  26.865  1.00  0.00     0.042 C 
BRANCH  38  39
ATOM     39  C   UNL A   1      33.842  28.398  26.593  1.00  0.00     0.118 C 
BRANCH  39  40
ATOM     40  N   UNL A   1      33.680  29.727  27.165  1.00  0.00    -0.352 N 
ATOM     41  C   UNL A   1      34.535  30.467  27.946  1.00  0.00     0.251 C 
ATOM     42  H   UNL A   1      32.823  30.165  26.961  1.00  0.00     0.163 HD
ATOM     43  O   UNL A   1      34.142  31.511  28.459  1.00  0.00    -0.269 OA
BRANCH  41  44
ATOM     44  C   UNL A   1      35.910  29.991  28.193  1.00  0.00     0.039 A 
ATOM     45  C   UNL A   1      36.857  30.097  27.170  1.00  0.00     0.014 A 
ATOM     46  C   UNL A   1      36.271  29.458  29.431  1.00  0.00     0.014 A 
ATOM     47  C   UNL A   1      38.186  29.755  27.422  1.00  0.00     0.010 A 
ATOM     48  C   UNL A   1      37.610  29.204  29.708  1.00  0.00     0.010 A 
ATOM     49  C   UNL A   1      38.582  29.354  28.708  1.00  0.00    -0.014 A 
BRANCH  49  50
ATOM     50  C   UNL A   1      40.006  29.098  29.040  1.00  0.00     0.031 A 
ATOM     51  C   UNL A   1      40.629  27.769  28.712  1.00  0.00     0.074 A 
ATOM     52  C   UNL A   1      40.711  30.029  29.715  1.00  0.00     0.049 A 
ATOM     53  N   UNL A   1      41.817  27.316  29.021  1.00  0.00    -0.248 NA
ATOM     54  C   UNL A   1      39.796  26.809  27.966  1.00  0.00     0.031 C 
ATOM     55  C   UNL A   1      40.207  31.340  30.131  1.00  0.00     0.029 A 
ATOM     56  N   UNL A   1      42.001  30.008  30.184  1.00  0.00    -0.354 N 
ATOM     57  C   UNL A   1      41.864  26.015  28.533  1.00  0.00     0.074 A 
ATOM     58  C   UNL A   1      40.572  25.735  27.948  1.00  0.00     0.031 C 
ATOM     59  C   UNL A   1      41.184  32.006  30.767  1.00  0.00     0.029 A 
ATOM     60  C   UNL A   1      42.368  31.156  30.843  1.00  0.00     0.049 A 
ATOM     61  H   UNL A   1      42.607  29.242  30.057  1.00  0.00     0.167 HD
ATOM     62  C   UNL A   1      42.897  25.141  28.551  1.00  0.00     0.031 A 
ATOM     63  C   UNL A   1      43.522  31.487  31.453  1.00  0.00     0.031 A 
ATOM     64  C   UNL A   1      44.189  25.431  29.110  1.00  0.00     0.049 A 
ATOM     65  C   UNL A   1      44.656  30.499  31.458  1.00  0.00     0.074 A 
ATOM     66  C   UNL A   1      45.320  24.634  29.121  1.00  0.00     0.029 A 
ATOM     67  N   UNL A   1      44.525  26.613  29.753  1.00  0.00    -0.354 N 
ATOM     68  N   UNL A   1      44.699  29.294  30.943  1.00  0.00    -0.248 NA
ATOM     69  C   UNL A   1      45.898  30.919  32.121  1.00  0.00     0.031 C 
ATOM     70  C   UNL A   1      46.329  25.320  29.808  1.00  0.00     0.029 A 
ATOM     71  C   UNL A   1      45.840  26.560  30.182  1.00  0.00     0.049 A 
ATOM     72  H   UNL A   1      43.918  27.378  29.883  1.00  0.00     0.167 HD
ATOM     73  C   UNL A   1      45.979  28.818  31.202  1.00  0.00     0.074 A 
ATOM     74  C   UNL A   1      46.682  29.870  31.908  1.00  0.00     0.031 C 
ATOM     75  C   UNL A   1      46.521  27.617  30.886  1.00  0.00     0.031 A 
BRANCH  62  76
ATOM     76  C   UNL A   1      42.664  23.782  27.947  1.00  0.00    -0.014 A 
ATOM     77  C   UNL A   1      42.005  22.770  28.671  1.00  0.00     0.010 A 
ATOM     78  C   UNL A   1      43.082  23.519  26.631  1.00  0.00     0.010 A 
ATOM     79  C   UNL A   1      41.812  21.508  28.106  1.00  0.00     0.020 A 
ATOM     80  C   UNL A   1      42.867  22.265  26.052  1.00  0.00     0.020 A 
ATOM     81  C   UNL A   1      42.249  21.261  26.801  1.00  0.00     0.054 A 
BRANCH  81  82
ATOM     82  S   UNL A   1      41.972  19.618  26.085  1.00  0.00     0.124 S 
ATOM     83  O   UNL A   1      40.539  19.651  25.805  1.00  0.00    -0.237 OA
ATOM     84  O   UNL A   1      42.841  19.627  24.911  1.00  0.00    -0.237 OA
ATOM     85  O   UNL A   1      42.377  18.704  27.150  1.00  0.00    -0.744 OA
ENDBRANCH  81  82
ENDBRANCH  62  76
BRANCH  63  86
ATOM     86  C   UNL A   1      43.667  32.820  32.097  1.00  0.00    -0.014 A 
ATOM     87  C   UNL A   1      43.303  33.003  33.442  1.00  0.00     0.010 A 
ATOM     88  C   UNL A   1      44.190  33.908  31.374  1.00  0.00     0.010 A 
ATOM     89  C   UNL A   1      43.445  34.253  34.051  1.00  0.00     0.020 A 
ATOM     90  C   UNL A   1      44.357  35.153  31.986  1.00  0.00     0.020 A 
ATOM     91  C   UNL A   1      43.972  35.320  33.318  1.00  0.00     0.054 A 
BRANCH  91  92
ATOM     92  S   UNL A   1      44.202  36.920  34.144  1.00  0.00     0.124 S 
ATOM     93  O   UNL A   1      44.427  36.515  35.529  1.00  0.00    -0.237 OA
ATOM     94  O   UNL A   1      45.363  37.472  33.449  1.00  0.00    -0.237 OA
ATOM     95  O   UNL A   1      42.944  37.617  33.891  1.00  0.00    -0.744 OA
ENDBRANCH  91  92
ENDBRANCH  63  86
BRANCH  75  96
ATOM     96  C   UNL A   1      47.953  27.381  31.280  1.00  0.00    -0.014 A 
ATOM     97  C   UNL A   1      49.009  27.850  30.481  1.00  0.00     0.010 A 
ATOM     98  C   UNL A   1      48.241  26.739  32.498  1.00  0.00     0.010 A 
ATOM     99  C   UNL A   1      50.334  27.662  30.885  1.00  0.00     0.020 A 
ATOM    100  C   UNL A   1      49.563  26.570  32.916  1.00  0.00     0.020 A 
ATOM    101  C   UNL A   1      50.602  27.025  32.100  1.00  0.00     0.054 A 
BRANCH 101 102
ATOM    102  S   UNL A   1      52.328  26.845  32.630  1.00  0.00     0.124 S 
ATOM    103  O   UNL A   1      52.312  25.533  33.271  1.00  0.00    -0.237 OA
ATOM    104  O   UNL A   1      53.060  26.919  31.368  1.00  0.00    -0.237 OA
ATOM    105  O   UNL A   1      52.533  27.977  33.530  1.00  0.00    -0.744 OA
ENDBRANCH 101 102
ENDBRANCH  75  96
ENDBRANCH  49  50
ENDBRANCH  41  44
ENDBRANCH  39  40
ENDBRANCH  38  39
ENDBRANCH  37  38
ENDBRANCH   3  37
TORSDOF 24
ENDMDL
MODEL 3
REMARK VINA RESULT:     -10.8      2.396      3.039
REMARK SMILES [NH3+][C@@H](Cc1c[nH]c2ccccc12)C(=O)N[C@@H](CS)C(=O)N[C@@H](CO)C(=O)NCCCNC(=O)c1ccc(-c2c3nc(c(-c4ccc(S(=O)(=O)[O-])cc4)c4ccc([nH]4)c(-c4ccc(S(=O)(=O)[O-])cc4)c4nc(c(-c5ccc(S(=O)(=O)[O-])cc5)c5ccc2[nH]5)C=C4)C=C3)cc1
REMARK SMILES IDX 25 1 26 2 27 3 22 5 21 6 19 7 20 8 16 10 15 11 13 12 14 13
REMARK SMILES IDX 2 15 1 16 3 20 4 21 5 22 12 23 6 24 7 25 11 26 8 28 10 29
REMARK SMILES IDX 9 30 17 31 18 32 23 34 24 35 28 37 29 38 30 39 31 40 32 41
REMARK SMILES IDX 33 43 34 44 35 45 93 46 36 47 92 48 37 49 38 50 39 51 86 52
REMARK SMILES IDX 40 53 91 54 85 55 87 56 41 57 90 58 84 59 83 60 42 62 72 63
REMARK SMILES IDX 53 64 71 65 54 66 57 67 70 68 88 69 55 70 56 71 69 73 89 74
REMARK SMILES IDX 58 75 43 76 44 77 52 78 45 79 51 80 46 81 47 82 48 83 49 84
REMARK SMILES IDX 50 85 73 86 74 87 82 88 75 89 81 90 76 91 77 92 78 93 79 94
REMARK SMILES IDX 80 95 59 96 60 97 68 98 61 99 67 100 62 101 63 102 64 103
REMARK SMILES IDX 65 104 66 105
REMARK H PARENT 27 4 21 9 15 14 1 17 1 18 1 19 6 27 18 33 24 36 31 42 87 61
REMARK H PARENT 57 72
REMARK Flexibility Score: inf
ROOT
ATOM      1  C   UNL A   1      34.252  23.606  26.148  1.00  0.00     0.244 C 
ATOM      2  O   UNL A   1      33.850  22.826  27.017  1.00  0.00    -0.273 OA
ATOM      3  N   UNL A   1      33.800  24.885  26.214  1.00  0.00    -0.354 N 
ATOM      4  H   UNL A   1      33.053  25.021  26.840  1.00  0.00     0.163 HD
ENDROOT
BRANCH   1   5
ATOM      5  C   UNL A   1      35.254  23.137  25.090  1.00  0.00     0.197 C 
BRANCH   5   6
ATOM      6  N   UNL A   1      34.719  23.203  23.725  1.00  0.00    -0.340 N 
ATOM      7  C   UNL A   1      33.434  22.789  23.537  1.00  0.00     0.244 C 
ATOM      8  O   UNL A   1      33.222  21.576  23.454  1.00  0.00    -0.273 OA
ATOM      9  H   UNL A   1      35.265  23.533  22.975  1.00  0.00     0.164 HD
BRANCH   7  10
ATOM     10  C   UNL A   1      32.313  23.844  23.433  1.00  0.00     0.181 C 
BRANCH  10  11
ATOM     11  N   UNL A   1      32.284  24.264  22.035  1.00  0.00    -0.338 N 
ATOM     12  C   UNL A   1      32.646  25.475  21.518  1.00  0.00     0.279 C 
ATOM     13  O   UNL A   1      33.103  25.473  20.368  1.00  0.00    -0.268 OA
ATOM     14  H   UNL A   1      31.965  23.595  21.387  1.00  0.00     0.164 HD
BRANCH  12  15
ATOM     15  C   UNL A   1      32.418  26.812  22.269  1.00  0.00     0.275 C 
BRANCH  15  16
ATOM     16  N   UNL A   1      33.370  27.843  21.794  1.00  0.00    -0.347 N 
ATOM     17  H   UNL A   1      32.864  28.560  21.274  1.00  0.00     0.345 HD
ATOM     18  H   UNL A   1      34.067  27.411  21.187  1.00  0.00     0.345 HD
ATOM     19  H   UNL A   1      33.837  28.271  22.594  1.00  0.00     0.345 HD
ENDBRANCH  15  16
BRANCH  15  20
ATOM     20  C   UNL A   1      30.951  27.258  22.485  1.00  0.00     0.113 C 
BRANCH  20  21
ATOM     21  C   UNL A   1      30.697  28.533  23.248  1.00  0.00    -0.016 A 
ATOM     22  C   UNL A   1      31.468  29.083  24.258  1.00  0.00     0.087 A 
ATOM     23  C   UNL A   1      29.574  29.417  23.078  1.00  0.00     0.003 A 
ATOM     24  N   UNL A   1      30.935  30.298  24.603  1.00  0.00    -0.361 N 
ATOM     25  C   UNL A   1      29.797  30.539  23.876  1.00  0.00     0.046 A 
ATOM     26  C   UNL A   1      28.405  29.384  22.290  1.00  0.00     0.010 A 
ATOM     27  H   UNL A   1      31.315  30.908  25.276  1.00  0.00     0.166 HD
ATOM     28  C   UNL A   1      28.943  31.650  23.884  1.00  0.00     0.026 A 
ATOM     29  C   UNL A   1      27.525  30.473  22.306  1.00  0.00     0.001 A 
ATOM     30  C   UNL A   1      27.800  31.595  23.082  1.00  0.00     0.002 A 
ENDBRANCH  20  21
ENDBRANCH  15  20
ENDBRANCH  12  15
ENDBRANCH  10  11
BRANCH  10  31
ATOM     31  C   UNL A   1      30.943  23.532  24.041  1.00  0.00     0.101 C 
BRANCH  31  32
ATOM     32  S   UNL A   1      30.577  24.299  25.650  1.00  0.00    -0.177 SA
ATOM     33  H   UNL A   1      31.361  25.398  25.819  1.00  0.00     0.102 HD
ENDBRANCH  31  32
ENDBRANCH  10  31
ENDBRANCH   7  10
ENDBRANCH   5   6
BRANCH   5  34
ATOM     34  C   UNL A   1      36.648  23.771  25.274  1.00  0.00     0.191 C 
BRANCH  34  35
ATOM     35  O   UNL A   1      37.674  23.104  24.543  1.00  0.00    -0.394 OA
ATOM     36  H   UNL A   1      38.152  23.747  23.996  1.00  0.00     0.210 HD
ENDBRANCH  34  35
ENDBRANCH   5  34
ENDBRANCH   1   5
BRANCH   3  37
ATOM     37  C   UNL A   1      34.228  26.086  25.520  1.00  0.00     0.117 C 
BRANCH  37  38
ATOM     38  C   UNL A   1      33.715  27.355  26.183  1.00  0.00     0.042 C 
BRANCH  38  39
ATOM     39  C   UNL A   1      34.711  28.507  26.201  1.00  0.00     0.118 C 
BRANCH  39  40
ATOM     40  N   UNL A   1      34.111  29.779  26.578  1.00  0.00    -0.352 N 
ATOM     41  C   UNL A   1      34.461  30.667  27.566  1.00  0.00     0.251 C 
ATOM     42  H   UNL A   1      33.329  30.043  26.041  1.00  0.00     0.163 HD
ATOM     43  O   UNL A   1      33.722  31.614  27.823  1.00  0.00    -0.269 OA
BRANCH  41  44
ATOM     44  C   UNL A   1      35.703  30.464  28.337  1.00  0.00     0.039 A 
ATOM     45  C   UNL A   1      35.655  29.707  29.510  1.00  0.00     0.014 A 
ATOM     46  C   UNL A   1      36.914  31.000  27.896  1.00  0.00     0.014 A 
ATOM     47  C   UNL A   1      36.837  29.411  30.190  1.00  0.00     0.010 A 
ATOM     48  C   UNL A   1      38.100  30.630  28.523  1.00  0.00     0.010 A 
ATOM     49  C   UNL A   1      38.074  29.828  29.673  1.00  0.00    -0.014 A 
BRANCH  49  50
ATOM     50  C   UNL A   1      39.357  29.430  30.306  1.00  0.00     0.031 A 
ATOM     51  C   UNL A   1      39.883  30.196  31.488  1.00  0.00     0.074 A 
ATOM     52  C   UNL A   1      40.089  28.438  29.761  1.00  0.00     0.049 A 
ATOM     53  N   UNL A   1      41.030  30.075  32.104  1.00  0.00    -0.248 NA
ATOM     54  C   UNL A   1      39.020  31.261  32.029  1.00  0.00     0.031 C 
ATOM     55  C   UNL A   1      39.709  27.647  28.587  1.00  0.00     0.029 A 
ATOM     56  N   UNL A   1      41.314  27.931  30.116  1.00  0.00    -0.354 N 
ATOM     57  C   UNL A   1      41.038  31.061  33.085  1.00  0.00     0.074 A 
ATOM     58  C   UNL A   1      39.803  31.800  32.952  1.00  0.00     0.031 C 
ATOM     59  C   UNL A   1      40.668  26.741  28.337  1.00  0.00     0.029 A 
ATOM     60  C   UNL A   1      41.748  26.912  29.302  1.00  0.00     0.049 A 
ATOM     61  H   UNL A   1      41.833  28.267  30.883  1.00  0.00     0.167 HD
ATOM     62  C   UNL A   1      41.980  31.314  34.024  1.00  0.00     0.031 A 
ATOM     63  C   UNL A   1      42.892  26.201  29.322  1.00  0.00     0.031 A 
ATOM     64  C   UNL A   1      43.195  30.560  34.171  1.00  0.00     0.049 A 
ATOM     65  C   UNL A   1      43.921  26.499  30.376  1.00  0.00     0.074 A 
ATOM     66  C   UNL A   1      44.182  30.698  35.130  1.00  0.00     0.029 A 
ATOM     67  N   UNL A   1      43.587  29.523  33.337  1.00  0.00    -0.354 N 
ATOM     68  N   UNL A   1      43.885  27.400  31.329  1.00  0.00    -0.248 NA
ATOM     69  C   UNL A   1      45.142  25.681  30.362  1.00  0.00     0.031 C 
ATOM     70  C   UNL A   1      45.193  29.770  34.852  1.00  0.00     0.029 A 
ATOM     71  C   UNL A   1      44.812  29.025  33.748  1.00  0.00     0.049 A 
ATOM     72  H   UNL A   1      43.071  29.190  32.568  1.00  0.00     0.167 HD
ATOM     73  C   UNL A   1      45.069  27.244  32.040  1.00  0.00     0.074 A 
ATOM     74  C   UNL A   1      45.792  26.155  31.416  1.00  0.00     0.031 C 
ATOM     75  C   UNL A   1      45.517  27.942  33.113  1.00  0.00     0.031 A 
BRANCH  62  76
ATOM     76  C   UNL A   1      41.727  32.459  34.967  1.00  0.00    -0.014 A 
ATOM     77  C   UNL A   1      41.003  32.271  36.159  1.00  0.00     0.010 A 
ATOM     78  C   UNL A   1      42.242  33.735  34.674  1.00  0.00     0.010 A 
ATOM     79  C   UNL A   1      40.759  33.346  37.016  1.00  0.00     0.020 A 
ATOM     80  C   UNL A   1      42.023  34.808  35.543  1.00  0.00     0.020 A 
ATOM     81  C   UNL A   1      41.266  34.610  36.700  1.00  0.00     0.054 A 
BRANCH  81  82
ATOM     82  S   UNL A   1      40.948  35.986  37.837  1.00  0.00     0.124 S 
ATOM     83  O   UNL A   1      39.830  36.662  37.183  1.00  0.00    -0.237 OA
ATOM     84  O   UNL A   1      40.622  35.303  39.086  1.00  0.00    -0.237 OA
ATOM     85  O   UNL A   1      42.205  36.728  37.845  1.00  0.00    -0.744 OA
ENDBRANCH  81  82
ENDBRANCH  62  76
BRANCH  63  86
ATOM     86  C   UNL A   1      43.116  25.127  28.317  1.00  0.00    -0.014 A 
ATOM     87  C   UNL A   1      43.827  25.398  27.135  1.00  0.00     0.010 A 
ATOM     88  C   UNL A   1      42.637  23.825  28.546  1.00  0.00     0.010 A 
ATOM     89  C   UNL A   1      44.045  24.389  26.193  1.00  0.00     0.020 A 
ATOM     90  C   UNL A   1      42.874  22.807  27.618  1.00  0.00     0.020 A 
ATOM     91  C   UNL A   1      43.567  23.099  26.441  1.00  0.00     0.054 A 
BRANCH  91  92
ATOM     92  S   UNL A   1      43.911  21.790  25.232  1.00  0.00     0.124 S 
ATOM     93  O   UNL A   1      42.875  20.810  25.544  1.00  0.00    -0.237 OA
ATOM     94  O   UNL A   1      43.760  22.488  23.957  1.00  0.00    -0.237 OA
ATOM     95  O   UNL A   1      45.276  21.382  25.552  1.00  0.00    -0.744 OA
ENDBRANCH  91  92
ENDBRANCH  63  86
BRANCH  75  96
ATOM     96  C   UNL A   1      46.842  27.536  33.696  1.00  0.00    -0.014 A 
ATOM     97  C   UNL A   1      46.923  26.545  34.688  1.00  0.00     0.010 A 
ATOM     98  C   UNL A   1      48.026  28.108  33.195  1.00  0.00     0.010 A 
ATOM     99  C   UNL A   1      48.165  26.147  35.187  1.00  0.00     0.020 A 
ATOM    100  C   UNL A   1      49.271  27.697  33.675  1.00  0.00     0.020 A 
ATOM    101  C   UNL A   1      49.332  26.724  34.676  1.00  0.00     0.054 A 
BRANCH 101 102
ATOM    102  S   UNL A   1      50.936  26.150  35.298  1.00  0.00     0.124 S 
ATOM    103  O   UNL A   1      50.539  25.116  36.250  1.00  0.00    -0.237 OA
ATOM    104  O   UNL A   1      51.597  25.669  34.087  1.00  0.00    -0.237 OA
ATOM    105  O   UNL A   1      51.528  27.348  35.889  1.00  0.00    -0.744 OA
ENDBRANCH 101 102
ENDBRANCH  75  96
ENDBRANCH  49  50
ENDBRANCH  41  44
ENDBRANCH  39  40
ENDBRANCH  38  39
ENDBRANCH  37  38
ENDBRANCH   3  37
TORSDOF 24
ENDMDL
