MODEL 1
REMARK VINA RESULT:     -10.6      0.000      0.000
REMARK SMILES CC(C)(O)C[C@]1(C(=O)NCCCNC(=O)c2ccc(-c3c4nc(c(-c5ccc(S(=O)(=O)[O-])cc5)c5ccc([nH]5)c(-c5ccc(S(=O)(=O)[O-])cc5)c5nc(c(-c6ccc(S(=O)(=O)[O-])cc6)c6ccc3[nH]6)C=C5)C=C4)cc2)CCc2ccccc2C1
REMARK SMILES IDX 11 1 10 2 9 3 7 4 8 5 6 7 76 8 84 9 77 10 83 11 78 12 82 13
REMARK SMILES IDX 79 14 81 15 80 16 5 17 2 18 1 19 3 20 4 21 12 23 13 24 14 25
REMARK SMILES IDX 15 27 16 28 17 29 75 30 18 31 74 32 19 33 20 34 21 35 68 36
REMARK SMILES IDX 22 37 73 38 67 39 69 40 23 41 72 42 66 43 65 44 24 46 54 47
REMARK SMILES IDX 35 48 53 49 36 50 39 51 52 52 70 53 37 54 38 55 51 57 71 58
REMARK SMILES IDX 40 59 25 60 26 61 34 62 27 63 33 64 28 65 29 66 30 67 31 68
REMARK SMILES IDX 32 69 55 70 56 71 64 72 57 73 63 74 58 75 59 76 60 77 61 78
REMARK SMILES IDX 62 79 41 80 42 81 50 82 43 83 49 84 44 85 45 86 46 87 47 88
REMARK SMILES IDX 48 89
REMARK H PARENT 9 6 4 22 13 26 69 45 39 56
REMARK Flexibility Score: inf
ROOT
ATOM      1  C   UNL A   1      33.089  27.712  25.272  1.00  0.00     0.042 C 
ENDROOT
BRANCH   1   2
ATOM      2  C   UNL A   1      34.005  27.074  24.234  1.00  0.00     0.117 C 
BRANCH   2   3
ATOM      3  N   UNL A   1      33.347  25.973  23.566  1.00  0.00    -0.356 N 
ATOM      4  C   UNL A   1      33.098  24.680  23.873  1.00  0.00     0.226 C 
ATOM      5  O   UNL A   1      32.737  24.011  22.891  1.00  0.00    -0.274 OA
ATOM      6  H   UNL A   1      33.000  26.224  22.679  1.00  0.00     0.163 HD
BRANCH   4   7
ATOM      7  C   UNL A   1      33.326  23.982  25.250  1.00  0.00     0.056 C 
ATOM      8  C   UNL A   1      33.073  22.458  25.094  1.00  0.00     0.022 C 
ATOM      9  C   UNL A   1      34.655  24.231  25.976  1.00  0.00     0.052 C 
ATOM     10  C   UNL A   1      34.248  21.616  24.599  1.00  0.00     0.037 C 
ATOM     11  C   UNL A   1      35.789  23.272  25.738  1.00  0.00    -0.044 A 
ATOM     12  C   UNL A   1      35.601  22.051  25.083  1.00  0.00    -0.045 A 
ATOM     13  C   UNL A   1      37.080  23.662  26.141  1.00  0.00     0.004 A 
ATOM     14  C   UNL A   1      36.727  21.267  24.782  1.00  0.00     0.004 A 
ATOM     15  C   UNL A   1      38.186  22.880  25.830  1.00  0.00     0.000 A 
ATOM     16  C   UNL A   1      38.011  21.686  25.139  1.00  0.00     0.000 A 
BRANCH   7  17
ATOM     17  C   UNL A   1      32.167  24.521  26.199  1.00  0.00     0.052 C 
BRANCH  17  18
ATOM     18  C   UNL A   1      30.674  24.299  25.802  1.00  0.00     0.060 C 
ATOM     19  C   UNL A   1      29.844  25.589  25.761  1.00  0.00     0.042 C 
ATOM     20  C   UNL A   1      30.032  23.358  26.835  1.00  0.00     0.042 C 
BRANCH  18  21
ATOM     21  O   UNL A   1      30.585  23.706  24.513  1.00  0.00    -0.390 OA
ATOM     22  H   UNL A   1      29.981  24.225  23.959  1.00  0.00     0.211 HD
ENDBRANCH  18  21
ENDBRANCH  17  18
ENDBRANCH   7  17
ENDBRANCH   4   7
ENDBRANCH   2   3
ENDBRANCH   1   2
BRANCH   1  23
ATOM     23  C   UNL A   1      33.828  28.122  26.533  1.00  0.00     0.118 C 
BRANCH  23  24
ATOM     24  N   UNL A   1      33.539  29.501  26.906  1.00  0.00    -0.352 N 
ATOM     25  C   UNL A   1      34.257  30.381  27.679  1.00  0.00     0.251 C 
ATOM     26  H   UNL A   1      32.696  29.858  26.546  1.00  0.00     0.163 HD
ATOM     27  O   UNL A   1      33.723  31.420  28.054  1.00  0.00    -0.269 OA
BRANCH  25  28
ATOM     28  C   UNL A   1      35.651  30.078  28.071  1.00  0.00     0.039 A 
ATOM     29  C   UNL A   1      35.905  29.638  29.374  1.00  0.00     0.014 A 
ATOM     30  C   UNL A   1      36.711  30.252  27.179  1.00  0.00     0.014 A 
ATOM     31  C   UNL A   1      37.211  29.327  29.759  1.00  0.00     0.010 A 
ATOM     32  C   UNL A   1      37.992  29.838  27.529  1.00  0.00     0.010 A 
ATOM     33  C   UNL A   1      38.261  29.393  28.830  1.00  0.00    -0.014 A 
BRANCH  33  34
ATOM     34  C   UNL A   1      39.653  29.034  29.204  1.00  0.00     0.031 A 
ATOM     35  C   UNL A   1      40.527  30.041  29.906  1.00  0.00     0.074 A 
ATOM     36  C   UNL A   1      40.147  27.828  28.861  1.00  0.00     0.049 A 
ATOM     37  N   UNL A   1      41.782  29.941  30.260  1.00  0.00    -0.248 NA
ATOM     38  C   UNL A   1      39.920  31.347  30.224  1.00  0.00     0.031 C 
ATOM     39  C   UNL A   1      39.415  26.785  28.138  1.00  0.00     0.029 A 
ATOM     40  N   UNL A   1      41.385  27.275  29.072  1.00  0.00    -0.354 N 
ATOM     41  C   UNL A   1      42.119  31.170  30.816  1.00  0.00     0.074 A 
ATOM     42  C   UNL A   1      40.957  32.021  30.699  1.00  0.00     0.031 C 
ATOM     43  C   UNL A   1      40.204  25.708  27.999  1.00  0.00     0.029 A 
ATOM     44  C   UNL A   1      41.511  25.998  28.579  1.00  0.00     0.049 A 
ATOM     45  H   UNL A   1      42.115  27.749  29.532  1.00  0.00     0.167 HD
ATOM     46  C   UNL A   1      43.282  31.549  31.396  1.00  0.00     0.031 A 
ATOM     47  C   UNL A   1      42.562  25.156  28.587  1.00  0.00     0.031 A 
ATOM     48  C   UNL A   1      44.428  30.689  31.529  1.00  0.00     0.049 A 
ATOM     49  C   UNL A   1      43.844  25.599  29.238  1.00  0.00     0.074 A 
ATOM     50  C   UNL A   1      45.632  30.953  32.153  1.00  0.00     0.029 A 
ATOM     51  N   UNL A   1      44.509  29.399  31.028  1.00  0.00    -0.354 N 
ATOM     52  N   UNL A   1      44.120  26.742  29.819  1.00  0.00    -0.248 NA
ATOM     53  C   UNL A   1      44.952  24.634  29.243  1.00  0.00     0.031 C 
ATOM     54  C   UNL A   1      46.464  29.842  31.982  1.00  0.00     0.029 A 
ATOM     55  C   UNL A   1      45.753  28.861  31.308  1.00  0.00     0.049 A 
ATOM     56  H   UNL A   1      43.788  28.934  30.545  1.00  0.00     0.167 HD
ATOM     57  C   UNL A   1      45.425  26.624  30.285  1.00  0.00     0.074 A 
ATOM     58  C   UNL A   1      45.875  25.292  29.932  1.00  0.00     0.031 C 
ATOM     59  C   UNL A   1      46.183  27.534  30.947  1.00  0.00     0.031 A 
BRANCH  46  60
ATOM     60  C   UNL A   1      43.371  32.956  31.929  1.00  0.00    -0.014 A 
ATOM     61  C   UNL A   1      43.865  34.008  31.134  1.00  0.00     0.010 A 
ATOM     62  C   UNL A   1      42.923  33.240  33.232  1.00  0.00     0.010 A 
ATOM     63  C   UNL A   1      43.951  35.305  31.646  1.00  0.00     0.020 A 
ATOM     64  C   UNL A   1      42.977  34.543  33.737  1.00  0.00     0.020 A 
ATOM     65  C   UNL A   1      43.507  35.565  32.946  1.00  0.00     0.054 A 
BRANCH  65  66
ATOM     66  S   UNL A   1      43.607  37.263  33.574  1.00  0.00     0.124 S 
ATOM     67  O   UNL A   1      43.712  38.035  32.339  1.00  0.00    -0.237 OA
ATOM     68  O   UNL A   1      42.349  37.409  34.301  1.00  0.00    -0.237 OA
ATOM     69  O   UNL A   1      44.807  37.256  34.407  1.00  0.00    -0.744 OA
ENDBRANCH  65  66
ENDBRANCH  46  60
BRANCH  47  70
ATOM     70  C   UNL A   1      42.438  23.803  27.976  1.00  0.00    -0.014 A 
ATOM     71  C   UNL A   1      41.978  22.714  28.737  1.00  0.00     0.010 A 
ATOM     72  C   UNL A   1      42.762  23.600  26.622  1.00  0.00     0.010 A 
ATOM     73  C   UNL A   1      41.865  21.444  28.163  1.00  0.00     0.020 A 
ATOM     74  C   UNL A   1      42.621  22.339  26.036  1.00  0.00     0.020 A 
ATOM     75  C   UNL A   1      42.185  21.265  26.815  1.00  0.00     0.054 A 
BRANCH  75  76
ATOM     76  S   UNL A   1      41.983  19.620  26.078  1.00  0.00     0.124 S 
ATOM     77  O   UNL A   1      42.889  19.684  24.936  1.00  0.00    -0.237 OA
ATOM     78  O   UNL A   1      42.395  18.735  27.165  1.00  0.00    -0.237 OA
ATOM     79  O   UNL A   1      40.560  19.565  25.747  1.00  0.00    -0.744 OA
ENDBRANCH  75  76
ENDBRANCH  47  70
BRANCH  59  80
ATOM     80  C   UNL A   1      47.566  27.111  31.363  1.00  0.00    -0.014 A 
ATOM     81  C   UNL A   1      48.685  27.372  30.552  1.00  0.00     0.010 A 
ATOM     82  C   UNL A   1      47.753  26.494  32.614  1.00  0.00     0.010 A 
ATOM     83  C   UNL A   1      49.963  26.992  30.972  1.00  0.00     0.020 A 
ATOM     84  C   UNL A   1      49.032  26.142  33.050  1.00  0.00     0.020 A 
ATOM     85  C   UNL A   1      50.128  26.381  32.219  1.00  0.00     0.054 A 
BRANCH  85  86
ATOM     86  S   UNL A   1      51.802  25.938  32.758  1.00  0.00     0.124 S 
ATOM     87  O   UNL A   1      52.263  25.100  31.656  1.00  0.00    -0.237 OA
ATOM     88  O   UNL A   1      52.454  27.240  32.875  1.00  0.00    -0.237 OA
ATOM     89  O   UNL A   1      51.586  25.240  34.023  1.00  0.00    -0.744 OA
ENDBRANCH  85  86
ENDBRANCH  59  80
ENDBRANCH  33  34
ENDBRANCH  25  28
ENDBRANCH  23  24
ENDBRANCH   1  23
TORSDOF 16
ENDMDL
MODEL 2
REMARK VINA RESULT:     -10.5      2.485      9.138
REMARK SMILES CC(C)(O)C[C@]1(C(=O)NCCCNC(=O)c2ccc(-c3c4nc(c(-c5ccc(S(=O)(=O)[O-])cc5)c5ccc([nH]5)c(-c5ccc(S(=O)(=O)[O-])cc5)c5nc(c(-c6ccc(S(=O)(=O)[O-])cc6)c6ccc3[nH]6)C=C5)C=C4)cc2)CCc2ccccc2C1
REMARK SMILES IDX 11 1 10 2 9 3 7 4 8 5 6 7 76 8 84 9 77 10 83 11 78 12 82 13
REMARK SMILES IDX 79 14 81 15 80 16 5 17 2 18 1 19 3 20 4 21 12 23 13 24 14 25
REMARK SMILES IDX 15 27 16 28 17 29 75 30 18 31 74 32 19 33 20 34 21 35 68 36
REMARK SMILES IDX 22 37 73 38 67 39 69 40 23 41 72 42 66 43 65 44 24 46 54 47
REMARK SMILES IDX 35 48 53 49 36 50 39 51 52 52 70 53 37 54 38 55 51 57 71 58
REMARK SMILES IDX 40 59 25 60 26 61 34 62 27 63 33 64 28 65 29 66 30 67 31 68
REMARK SMILES IDX 32 69 55 70 56 71 64 72 57 73 63 74 58 75 59 76 60 77 61 78
REMARK SMILES IDX 62 79 41 80 42 81 50 82 43 83 49 84 44 85 45 86 46 87 47 88
REMARK SMILES IDX 48 89
REMARK H PARENT 9 6 4 22 13 26 69 45 39 56
REMARK Flexibility Score: inf
ROOT
ATOM      1  C   UNL A   1      35.180  23.415  26.439  1.00  0.00     0.042 C 
ENDROOT
BRANCH   1   2
ATOM      2  C   UNL A   1      33.948  23.275  25.552  1.00  0.00     0.117 C 
BRANCH   2   3
ATOM      3  N   UNL A   1      32.816  23.972  26.120  1.00  0.00    -0.356 N 
ATOM      4  C   UNL A   1      32.306  25.220  26.006  1.00  0.00     0.226 C 
ATOM      5  O   UNL A   1      31.469  25.481  26.886  1.00  0.00    -0.274 OA
ATOM      6  H   UNL A   1      32.295  23.407  26.735  1.00  0.00     0.163 HD
BRANCH   4   7
ATOM      7  C   UNL A   1      32.743  26.323  24.993  1.00  0.00     0.056 C 
ATOM      8  C   UNL A   1      31.513  27.203  24.642  1.00  0.00     0.022 C 
ATOM      9  C   UNL A   1      33.945  27.205  25.358  1.00  0.00     0.052 C 
ATOM     10  C   UNL A   1      31.203  28.358  25.594  1.00  0.00     0.037 C 
ATOM     11  C   UNL A   1      33.687  28.505  26.069  1.00  0.00    -0.044 A 
ATOM     12  C   UNL A   1      32.401  29.041  26.190  1.00  0.00    -0.045 A 
ATOM     13  C   UNL A   1      34.778  29.153  26.677  1.00  0.00     0.004 A 
ATOM     14  C   UNL A   1      32.220  30.189  26.978  1.00  0.00     0.004 A 
ATOM     15  C   UNL A   1      34.583  30.285  27.461  1.00  0.00     0.000 A 
ATOM     16  C   UNL A   1      33.300  30.797  27.621  1.00  0.00     0.000 A 
BRANCH   7  17
ATOM     17  C   UNL A   1      33.120  25.548  23.655  1.00  0.00     0.052 C 
BRANCH  17  18
ATOM     18  C   UNL A   1      33.027  26.282  22.281  1.00  0.00     0.060 C 
ATOM     19  C   UNL A   1      33.693  27.664  22.268  1.00  0.00     0.042 C 
ATOM     20  C   UNL A   1      31.541  26.471  21.932  1.00  0.00     0.042 C 
BRANCH  18  21
ATOM     21  O   UNL A   1      33.649  25.510  21.261  1.00  0.00    -0.390 OA
ATOM     22  H   UNL A   1      34.537  25.860  21.088  1.00  0.00     0.211 HD
ENDBRANCH  18  21
ENDBRANCH  17  18
ENDBRANCH   7  17
ENDBRANCH   4   7
ENDBRANCH   2   3
ENDBRANCH   1   2
BRANCH   1  23
ATOM     23  C   UNL A   1      36.428  23.781  25.655  1.00  0.00     0.118 C 
BRANCH  23  24
ATOM     24  N   UNL A   1      37.494  22.807  25.850  1.00  0.00    -0.352 N 
ATOM     25  C   UNL A   1      38.784  22.979  26.290  1.00  0.00     0.251 C 
ATOM     26  H   UNL A   1      37.251  21.879  25.631  1.00  0.00     0.163 HD
ATOM     27  O   UNL A   1      39.586  22.058  26.164  1.00  0.00    -0.269 OA
BRANCH  25  28
ATOM     28  C   UNL A   1      39.212  24.260  26.894  1.00  0.00     0.039 A 
ATOM     29  C   UNL A   1      38.898  24.512  28.234  1.00  0.00     0.014 A 
ATOM     30  C   UNL A   1      39.889  25.226  26.147  1.00  0.00     0.014 A 
ATOM     31  C   UNL A   1      39.309  25.706  28.829  1.00  0.00     0.010 A 
ATOM     32  C   UNL A   1      40.393  26.362  26.770  1.00  0.00     0.010 A 
ATOM     33  C   UNL A   1      40.089  26.627  28.112  1.00  0.00    -0.014 A 
BRANCH  33  34
ATOM     34  C   UNL A   1      40.569  27.888  28.732  1.00  0.00     0.031 A 
ATOM     35  C   UNL A   1      41.979  27.981  29.254  1.00  0.00     0.074 A 
ATOM     36  C   UNL A   1      39.721  28.926  28.878  1.00  0.00     0.049 A 
ATOM     37  N   UNL A   1      42.565  28.970  29.880  1.00  0.00    -0.248 NA
ATOM     38  C   UNL A   1      42.836  26.795  29.081  1.00  0.00     0.031 C 
ATOM     39  C   UNL A   1      38.318  28.941  28.456  1.00  0.00     0.029 A 
ATOM     40  N   UNL A   1      39.914  30.170  29.425  1.00  0.00    -0.354 N 
ATOM     41  C   UNL A   1      43.841  28.518  30.193  1.00  0.00     0.074 A 
ATOM     42  C   UNL A   1      43.928  27.147  29.743  1.00  0.00     0.031 C 
ATOM     43  C   UNL A   1      37.789  30.146  28.726  1.00  0.00     0.029 A 
ATOM     44  C   UNL A   1      38.797  30.972  29.381  1.00  0.00     0.049 A 
ATOM     45  H   UNL A   1      40.770  30.460  29.812  1.00  0.00     0.167 HD
ATOM     46  C   UNL A   1      44.861  29.190  30.777  1.00  0.00     0.031 A 
ATOM     47  C   UNL A   1      38.605  32.229  29.823  1.00  0.00     0.031 A 
ATOM     48  C   UNL A   1      44.775  30.562  31.203  1.00  0.00     0.049 A 
ATOM     49  C   UNL A   1      39.752  32.957  30.469  1.00  0.00     0.074 A 
ATOM     50  C   UNL A   1      45.766  31.355  31.749  1.00  0.00     0.029 A 
ATOM     51  N   UNL A   1      43.631  31.342  31.127  1.00  0.00    -0.354 N 
ATOM     52  N   UNL A   1      40.974  32.533  30.694  1.00  0.00    -0.248 NA
ATOM     53  C   UNL A   1      39.498  34.335  30.911  1.00  0.00     0.031 C 
ATOM     54  C   UNL A   1      45.207  32.600  32.057  1.00  0.00     0.029 A 
ATOM     55  C   UNL A   1      43.884  32.601  31.641  1.00  0.00     0.049 A 
ATOM     56  H   UNL A   1      42.766  31.043  30.763  1.00  0.00     0.167 HD
ATOM     57  C   UNL A   1      41.643  33.603  31.279  1.00  0.00     0.074 A 
ATOM     58  C   UNL A   1      40.694  34.696  31.356  1.00  0.00     0.031 C 
ATOM     59  C   UNL A   1      42.926  33.676  31.711  1.00  0.00     0.031 A 
BRANCH  46  60
ATOM     60  C   UNL A   1      46.155  28.449  30.992  1.00  0.00    -0.014 A 
ATOM     61  C   UNL A   1      47.178  28.472  30.025  1.00  0.00     0.010 A 
ATOM     62  C   UNL A   1      46.368  27.746  32.192  1.00  0.00     0.010 A 
ATOM     63  C   UNL A   1      48.369  27.771  30.235  1.00  0.00     0.020 A 
ATOM     64  C   UNL A   1      47.571  27.069  32.419  1.00  0.00     0.020 A 
ATOM     65  C   UNL A   1      48.557  27.072  31.431  1.00  0.00     0.054 A 
BRANCH  65  66
ATOM     66  S   UNL A   1      50.123  26.193  31.685  1.00  0.00     0.124 S 
ATOM     67  O   UNL A   1      49.686  25.005  32.415  1.00  0.00    -0.237 OA
ATOM     68  O   UNL A   1      50.583  25.957  30.319  1.00  0.00    -0.237 OA
ATOM     69  O   UNL A   1      50.930  27.135  32.457  1.00  0.00    -0.744 OA
ENDBRANCH  65  66
ENDBRANCH  46  60
BRANCH  47  70
ATOM     70  C   UNL A   1      37.278  32.884  29.651  1.00  0.00    -0.014 A 
ATOM     71  C   UNL A   1      36.434  33.090  30.756  1.00  0.00     0.010 A 
ATOM     72  C   UNL A   1      36.860  33.323  28.381  1.00  0.00     0.010 A 
ATOM     73  C   UNL A   1      35.187  33.703  30.592  1.00  0.00     0.020 A 
ATOM     74  C   UNL A   1      35.628  33.964  28.218  1.00  0.00     0.020 A 
ATOM     75  C   UNL A   1      34.794  34.139  29.324  1.00  0.00     0.054 A 
BRANCH  75  76
ATOM     76  S   UNL A   1      33.195  34.976  29.144  1.00  0.00     0.124 S 
ATOM     77  O   UNL A   1      32.529  34.148  28.143  1.00  0.00    -0.237 OA
ATOM     78  O   UNL A   1      32.645  34.901  30.496  1.00  0.00    -0.237 OA
ATOM     79  O   UNL A   1      33.560  36.321  28.703  1.00  0.00    -0.744 OA
ENDBRANCH  75  76
ENDBRANCH  47  70
BRANCH  59  80
ATOM     80  C   UNL A   1      43.393  34.991  32.275  1.00  0.00    -0.014 A 
ATOM     81  C   UNL A   1      43.306  35.267  33.652  1.00  0.00     0.010 A 
ATOM     82  C   UNL A   1      43.981  35.941  31.420  1.00  0.00     0.010 A 
ATOM     83  C   UNL A   1      43.769  36.485  34.157  1.00  0.00     0.020 A 
ATOM     84  C   UNL A   1      44.473  37.146  31.926  1.00  0.00     0.020 A 
ATOM     85  C   UNL A   1      44.351  37.416  33.290  1.00  0.00     0.054 A 
BRANCH  85  86
ATOM     86  S   UNL A   1      44.983  38.970  33.979  1.00  0.00     0.124 S 
ATOM     87  O   UNL A   1      46.132  38.513  34.753  1.00  0.00    -0.237 OA
ATOM     88  O   UNL A   1      45.298  39.746  32.782  1.00  0.00    -0.237 OA
ATOM     89  O   UNL A   1      43.863  39.481  34.768  1.00  0.00    -0.744 OA
ENDBRANCH  85  86
ENDBRANCH  59  80
ENDBRANCH  33  34
ENDBRANCH  25  28
ENDBRANCH  23  24
ENDBRANCH   1  23
TORSDOF 16
ENDMDL
MODEL 3
REMARK VINA RESULT:     -10.5      3.255      6.193
REMARK SMILES CC(C)(O)C[C@]1(C(=O)NCCCNC(=O)c2ccc(-c3c4nc(c(-c5ccc(S(=O)(=O)[O-])cc5)c5ccc([nH]5)c(-c5ccc(S(=O)(=O)[O-])cc5)c5nc(c(-c6ccc(S(=O)(=O)[O-])cc6)c6ccc3[nH]6)C=C5)C=C4)cc2)CCc2ccccc2C1
REMARK SMILES IDX 11 1 10 2 9 3 7 4 8 5 6 7 76 8 84 9 77 10 83 11 78 12 82 13
REMARK SMILES IDX 79 14 81 15 80 16 5 17 2 18 1 19 3 20 4 21 12 23 13 24 14 25
REMARK SMILES IDX 15 27 16 28 17 29 75 30 18 31 74 32 19 33 20 34 21 35 68 36
REMARK SMILES IDX 22 37 73 38 67 39 69 40 23 41 72 42 66 43 65 44 24 46 54 47
REMARK SMILES IDX 35 48 53 49 36 50 39 51 52 52 70 53 37 54 38 55 51 57 71 58
REMARK SMILES IDX 40 59 25 60 26 61 34 62 27 63 33 64 28 65 29 66 30 67 31 68
REMARK SMILES IDX 32 69 55 70 56 71 64 72 57 73 63 74 58 75 59 76 60 77 61 78
REMARK SMILES IDX 62 79 41 80 42 81 50 82 43 83 49 84 44 85 45 86 46 87 47 88
REMARK SMILES IDX 48 89
REMARK H PARENT 9 6 4 22 13 26 69 45 39 56
REMARK Flexibility Score: inf
ROOT
ATOM      1  C   UNL A   1      34.477  33.084  30.102  1.00  0.00     0.042 C 
ENDROOT
BRANCH   1   2
ATOM      2  C   UNL A   1      35.295  32.277  31.105  1.00  0.00     0.117 C 
BRANCH   2   3
ATOM      3  N   UNL A   1      36.684  32.679  31.085  1.00  0.00    -0.356 N 
ATOM      4  C   UNL A   1      37.713  32.604  31.959  1.00  0.00     0.226 C 
ATOM      5  O   UNL A   1      38.675  33.320  31.635  1.00  0.00    -0.274 OA
ATOM      6  H   UNL A   1      36.940  33.109  30.237  1.00  0.00     0.163 HD
BRANCH   4   7
ATOM      7  C   UNL A   1      37.739  31.829  33.313  1.00  0.00     0.056 C 
ATOM      8  C   UNL A   1      37.307  30.359  33.063  1.00  0.00     0.022 C 
ATOM      9  C   UNL A   1      39.028  31.872  34.146  1.00  0.00     0.052 C 
ATOM     10  C   UNL A   1      38.400  29.389  32.615  1.00  0.00     0.037 C 
ATOM     11  C   UNL A   1      40.045  30.782  33.945  1.00  0.00    -0.044 A 
ATOM     12  C   UNL A   1      39.755  29.623  33.219  1.00  0.00    -0.045 A 
ATOM     13  C   UNL A   1      41.339  30.983  34.460  1.00  0.00     0.004 A 
ATOM     14  C   UNL A   1      40.792  28.711  32.963  1.00  0.00     0.004 A 
ATOM     15  C   UNL A   1      42.358  30.075  34.193  1.00  0.00     0.000 A 
ATOM     16  C   UNL A   1      42.086  28.943  33.433  1.00  0.00     0.000 A 
BRANCH   7  17
ATOM     17  C   UNL A   1      36.588  32.478  34.199  1.00  0.00     0.052 C 
BRANCH  17  18
ATOM     18  C   UNL A   1      36.708  33.964  34.660  1.00  0.00     0.060 C 
ATOM     19  C   UNL A   1      37.489  34.148  35.968  1.00  0.00     0.042 C 
ATOM     20  C   UNL A   1      35.292  34.523  34.873  1.00  0.00     0.042 C 
BRANCH  18  21
ATOM     21  O   UNL A   1      37.370  34.740  33.668  1.00  0.00    -0.390 OA
ATOM     22  H   UNL A   1      36.711  35.191  33.117  1.00  0.00     0.211 HD
ENDBRANCH  18  21
ENDBRANCH  17  18
ENDBRANCH   7  17
ENDBRANCH   4   7
ENDBRANCH   2   3
ENDBRANCH   1   2
BRANCH   1  23
ATOM     23  C   UNL A   1      34.795  32.723  28.661  1.00  0.00     0.118 C 
BRANCH  23  24
ATOM     24  N   UNL A   1      34.061  31.542  28.225  1.00  0.00    -0.352 N 
ATOM     25  C   UNL A   1      34.514  30.291  27.884  1.00  0.00     0.251 C 
ATOM     26  H   UNL A   1      33.086  31.659  28.165  1.00  0.00     0.163 HD
ATOM     27  O   UNL A   1      33.750  29.509  27.327  1.00  0.00    -0.269 OA
BRANCH  25  28
ATOM     28  C   UNL A   1      35.910  29.889  28.169  1.00  0.00     0.039 A 
ATOM     29  C   UNL A   1      36.878  30.064  27.176  1.00  0.00     0.014 A 
ATOM     30  C   UNL A   1      36.266  29.315  29.392  1.00  0.00     0.014 A 
ATOM     31  C   UNL A   1      38.205  29.711  27.431  1.00  0.00     0.010 A 
ATOM     32  C   UNL A   1      37.603  29.068  29.682  1.00  0.00     0.010 A 
ATOM     33  C   UNL A   1      38.585  29.241  28.697  1.00  0.00    -0.014 A 
BRANCH  33  34
ATOM     34  C   UNL A   1      39.995  28.891  29.006  1.00  0.00     0.031 A 
ATOM     35  C   UNL A   1      40.904  29.915  29.636  1.00  0.00     0.074 A 
ATOM     36  C   UNL A   1      40.471  27.676  28.667  1.00  0.00     0.049 A 
ATOM     37  N   UNL A   1      42.176  29.822  29.925  1.00  0.00    -0.248 NA
ATOM     38  C   UNL A   1      40.314  31.228  29.952  1.00  0.00     0.031 C 
ATOM     39  C   UNL A   1      39.703  26.616  28.010  1.00  0.00     0.029 A 
ATOM     40  N   UNL A   1      41.719  27.128  28.826  1.00  0.00    -0.354 N 
ATOM     41  C   UNL A   1      42.541  31.064  30.432  1.00  0.00     0.074 A 
ATOM     42  C   UNL A   1      41.374  31.913  30.356  1.00  0.00     0.031 C 
ATOM     43  C   UNL A   1      40.484  25.535  27.856  1.00  0.00     0.029 A 
ATOM     44  C   UNL A   1      41.820  25.839  28.359  1.00  0.00     0.049 A 
ATOM     45  H   UNL A   1      42.472  27.612  29.235  1.00  0.00     0.167 HD
ATOM     46  C   UNL A   1      43.733  31.457  30.940  1.00  0.00     0.031 A 
ATOM     47  C   UNL A   1      42.870  24.996  28.333  1.00  0.00     0.031 A 
ATOM     48  C   UNL A   1      44.885  30.600  31.033  1.00  0.00     0.049 A 
ATOM     49  C   UNL A   1      44.184  25.455  28.904  1.00  0.00     0.074 A 
ATOM     50  C   UNL A   1      46.121  30.878  31.586  1.00  0.00     0.029 A 
ATOM     51  N   UNL A   1      44.940  29.297  30.561  1.00  0.00    -0.354 N 
ATOM     52  N   UNL A   1      44.490  26.612  29.441  1.00  0.00    -0.248 NA
ATOM     53  C   UNL A   1      45.292  24.490  28.875  1.00  0.00     0.031 C 
ATOM     54  C   UNL A   1      46.943  29.763  31.400  1.00  0.00     0.029 A 
ATOM     55  C   UNL A   1      46.197  28.766  30.788  1.00  0.00     0.049 A 
ATOM     56  H   UNL A   1      44.195  28.821  30.128  1.00  0.00     0.167 HD
ATOM     57  C   UNL A   1      45.818  26.505  29.840  1.00  0.00     0.074 A 
ATOM     58  C   UNL A   1      46.249  25.164  29.497  1.00  0.00     0.031 C 
ATOM     59  C   UNL A   1      46.609  27.430  30.438  1.00  0.00     0.031 A 
BRANCH  46  60
ATOM     60  C   UNL A   1      43.849  32.877  31.433  1.00  0.00    -0.014 A 
ATOM     61  C   UNL A   1      43.683  33.193  32.794  1.00  0.00     0.010 A 
ATOM     62  C   UNL A   1      44.163  33.907  30.528  1.00  0.00     0.010 A 
ATOM     63  C   UNL A   1      43.784  34.516  33.234  1.00  0.00     0.020 A 
ATOM     64  C   UNL A   1      44.297  35.228  30.969  1.00  0.00     0.020 A 
ATOM     65  C   UNL A   1      44.089  35.525  32.317  1.00  0.00     0.054 A 
BRANCH  65  66
ATOM     66  S   UNL A   1      44.239  37.229  32.921  1.00  0.00     0.124 S 
ATOM     67  O   UNL A   1      44.285  37.988  31.673  1.00  0.00    -0.237 OA
ATOM     68  O   UNL A   1      43.022  37.396  33.712  1.00  0.00    -0.237 OA
ATOM     69  O   UNL A   1      45.481  37.218  33.689  1.00  0.00    -0.744 OA
ENDBRANCH  65  66
ENDBRANCH  46  60
BRANCH  47  70
ATOM     70  C   UNL A   1      42.715  23.629  27.763  1.00  0.00    -0.014 A 
ATOM     71  C   UNL A   1      42.494  22.524  28.605  1.00  0.00     0.010 A 
ATOM     72  C   UNL A   1      42.769  23.426  26.371  1.00  0.00     0.010 A 
ATOM     73  C   UNL A   1      42.352  21.240  28.068  1.00  0.00     0.020 A 
ATOM     74  C   UNL A   1      42.596  22.149  25.829  1.00  0.00     0.020 A 
ATOM     75  C   UNL A   1      42.400  21.062  26.683  1.00  0.00     0.054 A 
BRANCH  75  76
ATOM     76  S   UNL A   1      42.163  19.396  26.007  1.00  0.00     0.124 S 
ATOM     77  O   UNL A   1      42.625  18.553  27.105  1.00  0.00    -0.237 OA
ATOM     78  O   UNL A   1      40.726  19.364  25.745  1.00  0.00    -0.237 OA
ATOM     79  O   UNL A   1      43.006  19.387  24.813  1.00  0.00    -0.744 OA
ENDBRANCH  75  76
ENDBRANCH  47  70
BRANCH  59  80
ATOM     80  C   UNL A   1      48.012  27.017  30.792  1.00  0.00    -0.014 A 
ATOM     81  C   UNL A   1      48.311  26.435  32.037  1.00  0.00     0.010 A 
ATOM     82  C   UNL A   1      49.036  27.160  29.837  1.00  0.00     0.010 A 
ATOM     83  C   UNL A   1      49.617  26.036  32.333  1.00  0.00     0.020 A 
ATOM     84  C   UNL A   1      50.336  26.733  30.118  1.00  0.00     0.020 A 
ATOM     85  C   UNL A   1      50.621  26.187  31.371  1.00  0.00     0.054 A 
BRANCH  85  86
ATOM     86  S   UNL A   1      52.298  25.620  31.765  1.00  0.00     0.124 S 
ATOM     87  O   UNL A   1      53.007  25.880  30.516  1.00  0.00    -0.237 OA
ATOM     88  O   UNL A   1      52.669  26.476  32.889  1.00  0.00    -0.237 OA
ATOM     89  O   UNL A   1      52.117  24.208  32.097  1.00  0.00    -0.744 OA
ENDBRANCH  85  86
ENDBRANCH  59  80
ENDBRANCH  33  34
ENDBRANCH  25  28
ENDBRANCH  23  24
ENDBRANCH   1  23
TORSDOF 16
ENDMDL
