MODEL 1
REMARK VINA RESULT:      -9.6      0.000      0.000
REMARK SMILES CC[C@H](C)[C@@H](C)NC(=O)c1ccncc1/C=C/C(=O)NCCCNC(=O)c1ccc(-c2c3nc(c(-c4ccc(S(=O)(=O)[O-])cc4)c4ccc([nH]4)c(-c4ccc(S(=O)(=O)[O-])cc4)c4nc(c(-c5ccc(S(=O)(=O)[O-])cc5)c5ccc2[nH]5)C=C4)C=C3)cc1
REMARK SMILES IDX 21 1 20 2 18 3 19 4 17 6 16 7 15 8 10 9 11 10 12 11 14 12
REMARK SMILES IDX 13 13 8 14 7 15 9 17 5 18 6 19 3 20 4 21 2 22 1 23 22 24
REMARK SMILES IDX 23 25 24 26 25 27 26 29 27 30 28 31 86 32 29 33 85 34 30 35
REMARK SMILES IDX 31 36 32 37 79 38 33 39 84 40 78 41 80 42 34 43 83 44 77 45
REMARK SMILES IDX 76 46 35 48 65 49 46 50 64 51 47 52 50 53 63 54 81 55 48 56
REMARK SMILES IDX 49 57 62 59 82 60 51 61 36 62 37 63 45 64 38 65 44 66 39 67
REMARK SMILES IDX 40 68 41 69 42 70 43 71 66 72 67 73 75 74 68 75 74 76 69 77
REMARK SMILES IDX 70 78 71 79 72 80 73 81 52 82 53 83 61 84 54 85 60 86 55 87
REMARK SMILES IDX 56 88 57 89 58 90 59 91
REMARK H PARENT 20 5 7 16 24 28 80 47 50 58
REMARK Flexibility Score: inf
ROOT
ATOM      1  C   UNL A   1      42.653  22.619  26.086  1.00  0.00     0.118 C 
ENDROOT
BRANCH   1   2
ATOM      2  N   UNL A   1      43.033  22.474  24.690  1.00  0.00    -0.352 N 
ATOM      3  C   UNL A   1      44.209  22.750  24.071  1.00  0.00     0.244 C 
ATOM      4  O   UNL A   1      44.369  22.444  22.891  1.00  0.00    -0.270 OA
ATOM      5  H   UNL A   1      42.326  22.121  24.103  1.00  0.00     0.163 HD
BRANCH   3   6
ATOM      6  C   UNL A   1      45.347  23.320  24.827  1.00  0.00     0.072 C 
ATOM      7  C   UNL A   1      45.601  24.631  24.960  1.00  0.00     0.016 C 
BRANCH   7   8
ATOM      8  C   UNL A   1      46.734  25.145  25.749  1.00  0.00     0.006 A 
ATOM      9  C   UNL A   1      47.251  26.442  25.607  1.00  0.00     0.050 A 
ATOM     10  C   UNL A   1      48.293  26.882  26.431  1.00  0.00     0.034 A 
ATOM     11  C   UNL A   1      48.847  25.983  27.321  1.00  0.00     0.112 A 
ATOM     12  C   UNL A   1      47.384  24.328  26.673  1.00  0.00     0.119 A 
ATOM     13  N   UNL A   1      48.423  24.713  27.454  1.00  0.00    -0.264 NA
BRANCH   9  14
ATOM     14  C   UNL A   1      46.659  27.406  24.653  1.00  0.00     0.252 C 
ATOM     15  N   UNL A   1      45.584  28.177  25.020  1.00  0.00    -0.349 N 
ATOM     16  H   UNL A   1      45.246  28.776  24.316  1.00  0.00     0.164 HD
ATOM     17  O   UNL A   1      47.138  27.519  23.527  1.00  0.00    -0.269 OA
BRANCH  15  18
ATOM     18  C   UNL A   1      44.859  28.252  26.293  1.00  0.00     0.082 C 
ATOM     19  C   UNL A   1      43.362  28.180  25.972  1.00  0.00     0.031 C 
BRANCH  18  20
ATOM     20  C   UNL A   1      45.235  29.528  27.098  1.00  0.00     0.008 C 
ATOM     21  C   UNL A   1      46.466  30.213  26.481  1.00  0.00     0.010 C 
BRANCH  20  22
ATOM     22  C   UNL A   1      44.047  30.519  27.169  1.00  0.00     0.002 C 
ATOM     23  C   UNL A   1      44.315  31.853  26.484  1.00  0.00     0.004 C 
ENDBRANCH  20  22
ENDBRANCH  18  20
ENDBRANCH  15  18
ENDBRANCH   9  14
ENDBRANCH   7   8
ENDBRANCH   3   6
ENDBRANCH   1   2
BRANCH   1  24
ATOM     24  C   UNL A   1      42.071  21.323  26.643  1.00  0.00     0.042 C 
BRANCH  24  25
ATOM     25  C   UNL A   1      40.751  21.527  27.383  1.00  0.00     0.118 C 
BRANCH  25  26
ATOM     26  N   UNL A   1      39.642  21.771  26.469  1.00  0.00    -0.352 N 
ATOM     27  C   UNL A   1      38.879  22.897  26.289  1.00  0.00     0.251 C 
ATOM     28  H   UNL A   1      39.404  21.010  25.892  1.00  0.00     0.163 HD
ATOM     29  O   UNL A   1      37.849  22.827  25.623  1.00  0.00    -0.269 OA
BRANCH  27  30
ATOM     30  C   UNL A   1      39.280  24.185  26.894  1.00  0.00     0.039 A 
ATOM     31  C   UNL A   1      38.902  24.456  28.213  1.00  0.00     0.014 A 
ATOM     32  C   UNL A   1      39.983  25.143  26.159  1.00  0.00     0.014 A 
ATOM     33  C   UNL A   1      39.271  25.664  28.808  1.00  0.00     0.010 A 
ATOM     34  C   UNL A   1      40.413  26.314  26.776  1.00  0.00     0.010 A 
ATOM     35  C   UNL A   1      40.054  26.593  28.102  1.00  0.00    -0.014 A 
BRANCH  35  36
ATOM     36  C   UNL A   1      40.497  27.864  28.731  1.00  0.00     0.031 A 
ATOM     37  C   UNL A   1      41.885  27.983  29.298  1.00  0.00     0.074 A 
ATOM     38  C   UNL A   1      39.628  28.888  28.845  1.00  0.00     0.049 A 
ATOM     39  N   UNL A   1      42.433  28.987  29.934  1.00  0.00    -0.248 NA
ATOM     40  C   UNL A   1      42.764  26.812  29.156  1.00  0.00     0.031 C 
ATOM     41  C   UNL A   1      38.244  28.882  28.366  1.00  0.00     0.029 A 
ATOM     42  N   UNL A   1      39.779  30.130  29.408  1.00  0.00    -0.354 N 
ATOM     43  C   UNL A   1      43.709  28.562  30.287  1.00  0.00     0.074 A 
ATOM     44  C   UNL A   1      43.835  27.193  29.837  1.00  0.00     0.031 C 
ATOM     45  C   UNL A   1      37.683  30.073  28.628  1.00  0.00     0.029 A 
ATOM     46  C   UNL A   1      38.650  30.911  29.332  1.00  0.00     0.049 A 
ATOM     47  H   UNL A   1      40.616  30.434  29.827  1.00  0.00     0.167 HD
ATOM     48  C   UNL A   1      44.692  29.252  30.913  1.00  0.00     0.031 A 
ATOM     49  C   UNL A   1      38.415  32.159  29.782  1.00  0.00     0.031 A 
ATOM     50  C   UNL A   1      44.563  30.616  31.352  1.00  0.00     0.049 A 
ATOM     51  C   UNL A   1      39.516  32.904  30.483  1.00  0.00     0.074 A 
ATOM     52  C   UNL A   1      45.516  31.426  31.945  1.00  0.00     0.029 A 
ATOM     53  N   UNL A   1      43.403  31.372  31.252  1.00  0.00    -0.354 N 
ATOM     54  N   UNL A   1      40.738  32.506  30.751  1.00  0.00    -0.248 NA
ATOM     55  C   UNL A   1      39.211  34.268  30.933  1.00  0.00     0.031 C 
ATOM     56  C   UNL A   1      44.918  32.652  32.253  1.00  0.00     0.029 A 
ATOM     57  C   UNL A   1      43.610  32.630  31.797  1.00  0.00     0.049 A 
ATOM     58  H   UNL A   1      42.558  31.062  30.854  1.00  0.00     0.167 HD
ATOM     59  C   UNL A   1      41.357  33.582  31.376  1.00  0.00     0.074 A 
ATOM     60  C   UNL A   1      40.378  34.651  31.436  1.00  0.00     0.031 C 
ATOM     61  C   UNL A   1      42.623  33.680  31.854  1.00  0.00     0.031 A 
BRANCH  48  62
ATOM     62  C   UNL A   1      45.990  28.529  31.174  1.00  0.00    -0.014 A 
ATOM     63  C   UNL A   1      46.180  27.769  32.344  1.00  0.00     0.010 A 
ATOM     64  C   UNL A   1      47.030  28.598  30.229  1.00  0.00     0.010 A 
ATOM     65  C   UNL A   1      47.405  27.143  32.591  1.00  0.00     0.020 A 
ATOM     66  C   UNL A   1      48.246  27.946  30.458  1.00  0.00     0.020 A 
ATOM     67  C   UNL A   1      48.433  27.243  31.648  1.00  0.00     0.054 A 
BRANCH  67  68
ATOM     68  S   UNL A   1      50.014  26.423  31.996  1.00  0.00     0.124 S 
ATOM     69  O   UNL A   1      49.601  25.030  32.152  1.00  0.00    -0.237 OA
ATOM     70  O   UNL A   1      50.797  26.714  30.799  1.00  0.00    -0.237 OA
ATOM     71  O   UNL A   1      50.482  27.075  33.218  1.00  0.00    -0.744 OA
ENDBRANCH  67  68
ENDBRANCH  48  62
BRANCH  49  72
ATOM     72  C   UNL A   1      37.085  32.786  29.552  1.00  0.00    -0.014 A 
ATOM     73  C   UNL A   1      36.100  32.752  30.554  1.00  0.00     0.010 A 
ATOM     74  C   UNL A   1      36.810  33.455  28.345  1.00  0.00     0.010 A 
ATOM     75  C   UNL A   1      34.863  33.370  30.353  1.00  0.00     0.020 A 
ATOM     76  C   UNL A   1      35.584  34.098  28.151  1.00  0.00     0.020 A 
ATOM     77  C   UNL A   1      34.615  34.046  29.155  1.00  0.00     0.054 A 
BRANCH  77  78
ATOM     78  S   UNL A   1      33.033  34.910  28.948  1.00  0.00     0.124 S 
ATOM     79  O   UNL A   1      33.459  36.206  28.428  1.00  0.00    -0.237 OA
ATOM     80  O   UNL A   1      32.326  34.049  28.003  1.00  0.00    -0.237 OA
ATOM     81  O   UNL A   1      32.474  34.928  30.298  1.00  0.00    -0.744 OA
ENDBRANCH  77  78
ENDBRANCH  49  72
BRANCH  61  82
ATOM     82  C   UNL A   1      43.036  34.997  32.455  1.00  0.00    -0.014 A 
ATOM     83  C   UNL A   1      43.723  35.963  31.698  1.00  0.00     0.010 A 
ATOM     84  C   UNL A   1      42.682  35.292  33.784  1.00  0.00     0.010 A 
ATOM     85  C   UNL A   1      44.074  37.189  32.271  1.00  0.00     0.020 A 
ATOM     86  C   UNL A   1      43.006  36.528  34.350  1.00  0.00     0.020 A 
ATOM     87  C   UNL A   1      43.713  37.464  33.594  1.00  0.00     0.054 A 
BRANCH  87  88
ATOM     88  S   UNL A   1      44.140  39.079  34.298  1.00  0.00     0.124 S 
ATOM     89  O   UNL A   1      45.421  39.361  33.654  1.00  0.00    -0.237 OA
ATOM     90  O   UNL A   1      43.025  39.921  33.872  1.00  0.00    -0.237 OA
ATOM     91  O   UNL A   1      44.208  38.824  35.736  1.00  0.00    -0.744 OA
ENDBRANCH  87  88
ENDBRANCH  61  82
ENDBRANCH  35  36
ENDBRANCH  27  30
ENDBRANCH  25  26
ENDBRANCH  24  25
ENDBRANCH   1  24
TORSDOF 18
ENDMDL
MODEL 2
REMARK VINA RESULT:      -9.3      4.462     11.604
REMARK SMILES CC[C@H](C)[C@@H](C)NC(=O)c1ccncc1/C=C/C(=O)NCCCNC(=O)c1ccc(-c2c3nc(c(-c4ccc(S(=O)(=O)[O-])cc4)c4ccc([nH]4)c(-c4ccc(S(=O)(=O)[O-])cc4)c4nc(c(-c5ccc(S(=O)(=O)[O-])cc5)c5ccc2[nH]5)C=C4)C=C3)cc1
REMARK SMILES IDX 21 1 20 2 18 3 19 4 17 6 16 7 15 8 10 9 11 10 12 11 14 12
REMARK SMILES IDX 13 13 8 14 7 15 9 17 5 18 6 19 3 20 4 21 2 22 1 23 22 24
REMARK SMILES IDX 23 25 24 26 25 27 26 29 27 30 28 31 86 32 29 33 85 34 30 35
REMARK SMILES IDX 31 36 32 37 79 38 33 39 84 40 78 41 80 42 34 43 83 44 77 45
REMARK SMILES IDX 76 46 35 48 65 49 46 50 64 51 47 52 50 53 63 54 81 55 48 56
REMARK SMILES IDX 49 57 62 59 82 60 51 61 36 62 37 63 45 64 38 65 44 66 39 67
REMARK SMILES IDX 40 68 41 69 42 70 43 71 66 72 67 73 75 74 68 75 74 76 69 77
REMARK SMILES IDX 70 78 71 79 72 80 73 81 52 82 53 83 61 84 54 85 60 86 55 87
REMARK SMILES IDX 56 88 57 89 58 90 59 91
REMARK H PARENT 20 5 7 16 24 28 80 47 50 58
REMARK Flexibility Score: inf
ROOT
ATOM      1  C   UNL A   1      32.153  29.313  24.797  1.00  0.00     0.118 C 
ENDROOT
BRANCH   1   2
ATOM      2  N   UNL A   1      31.518  29.090  23.509  1.00  0.00    -0.352 N 
ATOM      3  C   UNL A   1      30.685  28.097  23.104  1.00  0.00     0.244 C 
ATOM      4  O   UNL A   1      30.155  28.151  21.997  1.00  0.00    -0.270 OA
ATOM      5  H   UNL A   1      31.723  29.765  22.822  1.00  0.00     0.163 HD
BRANCH   3   6
ATOM      6  C   UNL A   1      30.319  26.996  24.024  1.00  0.00     0.072 C 
ATOM      7  C   UNL A   1      31.030  25.869  24.195  1.00  0.00     0.016 C 
BRANCH   7   8
ATOM      8  C   UNL A   1      30.633  24.817  25.146  1.00  0.00     0.006 A 
ATOM      9  C   UNL A   1      31.088  23.491  25.068  1.00  0.00     0.050 A 
ATOM     10  C   UNL A   1      30.715  22.557  26.040  1.00  0.00     0.034 A 
ATOM     11  C   UNL A   1      29.828  22.953  27.021  1.00  0.00     0.112 A 
ATOM     12  C   UNL A   1      29.733  25.092  26.175  1.00  0.00     0.119 A 
ATOM     13  N   UNL A   1      29.320  24.197  27.105  1.00  0.00    -0.264 NA
BRANCH   9  14
ATOM     14  C   UNL A   1      32.038  23.065  24.016  1.00  0.00     0.252 C 
ATOM     15  N   UNL A   1      33.392  23.127  24.236  1.00  0.00    -0.349 N 
ATOM     16  H   UNL A   1      33.948  22.841  23.475  1.00  0.00     0.164 HD
ATOM     17  O   UNL A   1      31.610  22.649  22.942  1.00  0.00    -0.269 OA
BRANCH  15  18
ATOM     18  C   UNL A   1      34.144  23.550  25.421  1.00  0.00     0.082 C 
ATOM     19  C   UNL A   1      34.976  24.774  25.023  1.00  0.00     0.031 C 
BRANCH  18  20
ATOM     20  C   UNL A   1      35.017  22.397  25.995  1.00  0.00     0.008 C 
ATOM     21  C   UNL A   1      34.362  21.799  27.251  1.00  0.00     0.010 C 
BRANCH  20  22
ATOM     22  C   UNL A   1      35.258  21.294  24.936  1.00  0.00     0.002 C 
ATOM     23  C   UNL A   1      36.649  20.677  24.993  1.00  0.00     0.004 C 
ENDBRANCH  20  22
ENDBRANCH  18  20
ENDBRANCH  15  18
ENDBRANCH   9  14
ENDBRANCH   7   8
ENDBRANCH   3   6
ENDBRANCH   1   2
BRANCH   1  24
ATOM     24  C   UNL A   1      33.432  28.492  24.937  1.00  0.00     0.042 C 
BRANCH  24  25
ATOM     25  C   UNL A   1      34.058  28.588  26.327  1.00  0.00     0.118 C 
BRANCH  25  26
ATOM     26  N   UNL A   1      33.809  29.880  26.952  1.00  0.00    -0.352 N 
ATOM     27  C   UNL A   1      34.539  30.561  27.894  1.00  0.00     0.251 C 
ATOM     28  H   UNL A   1      32.990  30.336  26.651  1.00  0.00     0.163 HD
ATOM     29  O   UNL A   1      34.042  31.535  28.453  1.00  0.00    -0.269 OA
BRANCH  27  30
ATOM     30  C   UNL A   1      35.907  30.125  28.246  1.00  0.00     0.039 A 
ATOM     31  C   UNL A   1      36.900  30.160  27.262  1.00  0.00     0.014 A 
ATOM     32  C   UNL A   1      36.207  29.641  29.523  1.00  0.00     0.014 A 
ATOM     33  C   UNL A   1      38.200  29.756  27.570  1.00  0.00     0.010 A 
ATOM     34  C   UNL A   1      37.518  29.309  29.849  1.00  0.00     0.010 A 
ATOM     35  C   UNL A   1      38.527  29.352  28.875  1.00  0.00    -0.014 A 
BRANCH  35  36
ATOM     36  C   UNL A   1      39.913  28.963  29.238  1.00  0.00     0.031 A 
ATOM     37  C   UNL A   1      40.811  29.937  29.951  1.00  0.00     0.074 A 
ATOM     38  C   UNL A   1      40.383  27.755  28.869  1.00  0.00     0.049 A 
ATOM     39  N   UNL A   1      42.065  29.802  30.298  1.00  0.00    -0.248 NA
ATOM     40  C   UNL A   1      40.231  31.245  30.296  1.00  0.00     0.031 C 
ATOM     41  C   UNL A   1      39.622  26.736  28.143  1.00  0.00     0.029 A 
ATOM     42  N   UNL A   1      41.617  27.183  29.048  1.00  0.00    -0.354 N 
ATOM     43  C   UNL A   1      42.430  31.011  30.880  1.00  0.00     0.074 A 
ATOM     44  C   UNL A   1      41.280  31.884  30.794  1.00  0.00     0.031 C 
ATOM     45  C   UNL A   1      40.395  25.653  27.966  1.00  0.00     0.029 A 
ATOM     46  C   UNL A   1      41.719  25.915  28.524  1.00  0.00     0.049 A 
ATOM     47  H   UNL A   1      42.361  27.636  29.508  1.00  0.00     0.167 HD
ATOM     48  C   UNL A   1      43.610  31.359  31.449  1.00  0.00     0.031 A 
ATOM     49  C   UNL A   1      42.760  25.061  28.490  1.00  0.00     0.031 A 
ATOM     50  C   UNL A   1      44.749  30.484  31.536  1.00  0.00     0.049 A 
ATOM     51  C   UNL A   1      44.063  25.470  29.118  1.00  0.00     0.074 A 
ATOM     52  C   UNL A   1      45.971  30.717  32.142  1.00  0.00     0.029 A 
ATOM     53  N   UNL A   1      44.809  29.207  30.996  1.00  0.00    -0.354 N 
ATOM     54  N   UNL A   1      44.370  26.595  29.720  1.00  0.00    -0.248 NA
ATOM     55  C   UNL A   1      45.157  24.492  29.071  1.00  0.00     0.031 C 
ATOM     56  C   UNL A   1      46.789  29.604  31.921  1.00  0.00     0.029 A 
ATOM     57  C   UNL A   1      46.056  28.651  31.232  1.00  0.00     0.049 A 
ATOM     58  H   UNL A   1      44.074  28.761  30.516  1.00  0.00     0.167 HD
ATOM     59  C   UNL A   1      45.683  26.449  30.149  1.00  0.00     0.074 A 
ATOM     60  C   UNL A   1      46.109  25.123  29.748  1.00  0.00     0.031 C 
ATOM     61  C   UNL A   1      46.466  27.331  30.820  1.00  0.00     0.031 A 
BRANCH  48  62
ATOM     62  C   UNL A   1      43.728  32.756  32.004  1.00  0.00    -0.014 A 
ATOM     63  C   UNL A   1      43.363  33.048  33.331  1.00  0.00     0.010 A 
ATOM     64  C   UNL A   1      44.223  33.791  31.189  1.00  0.00     0.010 A 
ATOM     65  C   UNL A   1      43.435  34.357  33.815  1.00  0.00     0.020 A 
ATOM     66  C   UNL A   1      44.327  35.097  31.680  1.00  0.00     0.020 A 
ATOM     67  C   UNL A   1      43.910  35.375  32.982  1.00  0.00     0.054 A 
BRANCH  67  68
ATOM     68  S   UNL A   1      43.989  37.066  33.634  1.00  0.00     0.124 S 
ATOM     69  O   UNL A   1      42.733  37.160  34.376  1.00  0.00    -0.237 OA
ATOM     70  O   UNL A   1      45.199  37.039  34.452  1.00  0.00    -0.237 OA
ATOM     71  O   UNL A   1      44.068  37.898  32.435  1.00  0.00    -0.744 OA
ENDBRANCH  67  68
ENDBRANCH  48  62
BRANCH  49  72
ATOM     72  C   UNL A   1      42.594  23.723  27.861  1.00  0.00    -0.014 A 
ATOM     73  C   UNL A   1      42.831  23.548  26.487  1.00  0.00     0.010 A 
ATOM     74  C   UNL A   1      42.237  22.607  28.640  1.00  0.00     0.010 A 
ATOM     75  C   UNL A   1      42.710  22.285  25.901  1.00  0.00     0.020 A 
ATOM     76  C   UNL A   1      42.141  21.337  28.064  1.00  0.00     0.020 A 
ATOM     77  C   UNL A   1      42.372  21.186  26.695  1.00  0.00     0.054 A 
BRANCH  77  78
ATOM     78  S   UNL A   1      42.299  19.543  25.929  1.00  0.00     0.124 S 
ATOM     79  O   UNL A   1      42.596  18.666  27.058  1.00  0.00    -0.237 OA
ATOM     80  O   UNL A   1      40.927  19.489  25.429  1.00  0.00    -0.237 OA
ATOM     81  O   UNL A   1      43.328  19.602  24.893  1.00  0.00    -0.744 OA
ENDBRANCH  77  78
ENDBRANCH  49  72
BRANCH  61  82
ATOM     82  C   UNL A   1      47.854  26.882  31.192  1.00  0.00    -0.014 A 
ATOM     83  C   UNL A   1      48.109  26.227  32.410  1.00  0.00     0.010 A 
ATOM     84  C   UNL A   1      48.910  27.069  30.281  1.00  0.00     0.010 A 
ATOM     85  C   UNL A   1      49.401  25.795  32.723  1.00  0.00     0.020 A 
ATOM     86  C   UNL A   1      50.196  26.613  30.577  1.00  0.00     0.020 A 
ATOM     87  C   UNL A   1      50.437  25.991  31.803  1.00  0.00     0.054 A 
BRANCH  87  88
ATOM     88  S   UNL A   1      52.095  25.381  32.214  1.00  0.00     0.124 S 
ATOM     89  O   UNL A   1      52.892  25.902  31.106  1.00  0.00    -0.237 OA
ATOM     90  O   UNL A   1      52.350  25.994  33.514  1.00  0.00    -0.237 OA
ATOM     91  O   UNL A   1      51.934  23.928  32.236  1.00  0.00    -0.744 OA
ENDBRANCH  87  88
ENDBRANCH  61  82
ENDBRANCH  35  36
ENDBRANCH  27  30
ENDBRANCH  25  26
ENDBRANCH  24  25
ENDBRANCH   1  24
TORSDOF 18
ENDMDL
MODEL 3
REMARK VINA RESULT:      -9.1      4.057      7.492
REMARK SMILES CC[C@H](C)[C@@H](C)NC(=O)c1ccncc1/C=C/C(=O)NCCCNC(=O)c1ccc(-c2c3nc(c(-c4ccc(S(=O)(=O)[O-])cc4)c4ccc([nH]4)c(-c4ccc(S(=O)(=O)[O-])cc4)c4nc(c(-c5ccc(S(=O)(=O)[O-])cc5)c5ccc2[nH]5)C=C4)C=C3)cc1
REMARK SMILES IDX 21 1 20 2 18 3 19 4 17 6 16 7 15 8 10 9 11 10 12 11 14 12
REMARK SMILES IDX 13 13 8 14 7 15 9 17 5 18 6 19 3 20 4 21 2 22 1 23 22 24
REMARK SMILES IDX 23 25 24 26 25 27 26 29 27 30 28 31 86 32 29 33 85 34 30 35
REMARK SMILES IDX 31 36 32 37 79 38 33 39 84 40 78 41 80 42 34 43 83 44 77 45
REMARK SMILES IDX 76 46 35 48 65 49 46 50 64 51 47 52 50 53 63 54 81 55 48 56
REMARK SMILES IDX 49 57 62 59 82 60 51 61 36 62 37 63 45 64 38 65 44 66 39 67
REMARK SMILES IDX 40 68 41 69 42 70 43 71 66 72 67 73 75 74 68 75 74 76 69 77
REMARK SMILES IDX 70 78 71 79 72 80 73 81 52 82 53 83 61 84 54 85 60 86 55 87
REMARK SMILES IDX 56 88 57 89 58 90 59 91
REMARK H PARENT 20 5 7 16 24 28 80 47 50 58
REMARK Flexibility Score: inf
ROOT
ATOM      1  C   UNL A   1      34.075  22.937  26.913  1.00  0.00     0.118 C 
ENDROOT
BRANCH   1   2
ATOM      2  N   UNL A   1      32.690  22.718  26.532  1.00  0.00    -0.352 N 
ATOM      3  C   UNL A   1      31.694  23.612  26.299  1.00  0.00     0.244 C 
ATOM      4  O   UNL A   1      30.610  23.226  25.869  1.00  0.00    -0.270 OA
ATOM      5  H   UNL A   1      32.432  21.773  26.427  1.00  0.00     0.163 HD
BRANCH   3   6
ATOM      6  C   UNL A   1      31.931  25.065  26.455  1.00  0.00     0.072 C 
ATOM      7  C   UNL A   1      32.314  25.890  25.468  1.00  0.00     0.016 C 
BRANCH   7   8
ATOM      8  C   UNL A   1      32.508  27.336  25.672  1.00  0.00     0.006 A 
ATOM      9  C   UNL A   1      32.487  28.276  24.629  1.00  0.00     0.050 A 
ATOM     10  C   UNL A   1      32.622  29.640  24.904  1.00  0.00     0.034 A 
ATOM     11  C   UNL A   1      32.859  30.025  26.209  1.00  0.00     0.112 A 
ATOM     12  C   UNL A   1      32.766  27.846  26.945  1.00  0.00     0.119 A 
ATOM     13  N   UNL A   1      32.944  29.157  27.234  1.00  0.00    -0.264 NA
BRANCH   9  14
ATOM     14  C   UNL A   1      32.234  27.864  23.230  1.00  0.00     0.252 C 
ATOM     15  N   UNL A   1      30.951  27.783  22.750  1.00  0.00    -0.349 N 
ATOM     16  H   UNL A   1      30.877  27.485  21.814  1.00  0.00     0.164 HD
ATOM     17  O   UNL A   1      33.182  27.600  22.493  1.00  0.00    -0.269 OA
BRANCH  15  18
ATOM     18  C   UNL A   1      29.671  28.069  23.407  1.00  0.00     0.082 C 
ATOM     19  C   UNL A   1      29.039  26.724  23.782  1.00  0.00     0.031 C 
BRANCH  18  20
ATOM     20  C   UNL A   1      28.741  28.934  22.509  1.00  0.00     0.008 C 
ATOM     21  C   UNL A   1      27.309  28.945  23.069  1.00  0.00     0.010 C 
BRANCH  20  22
ATOM     22  C   UNL A   1      29.277  30.380  22.374  1.00  0.00     0.002 C 
ATOM     23  C   UNL A   1      28.281  31.352  21.753  1.00  0.00     0.004 C 
ENDBRANCH  20  22
ENDBRANCH  18  20
ENDBRANCH  15  18
ENDBRANCH   9  14
ENDBRANCH   7   8
ENDBRANCH   3   6
ENDBRANCH   1   2
BRANCH   1  24
ATOM     24  C   UNL A   1      34.966  23.130  25.688  1.00  0.00     0.042 C 
BRANCH  24  25
ATOM     25  C   UNL A   1      36.309  23.777  26.017  1.00  0.00     0.118 C 
BRANCH  25  26
ATOM     26  N   UNL A   1      37.405  22.819  25.972  1.00  0.00    -0.352 N 
ATOM     27  C   UNL A   1      38.737  22.987  26.258  1.00  0.00     0.251 C 
ATOM     28  H   UNL A   1      37.151  21.910  25.693  1.00  0.00     0.163 HD
ATOM     29  O   UNL A   1      39.536  22.108  25.945  1.00  0.00    -0.269 OA
BRANCH  27  30
ATOM     30  C   UNL A   1      39.215  24.215  26.928  1.00  0.00     0.039 A 
ATOM     31  C   UNL A   1      39.984  25.126  26.196  1.00  0.00     0.014 A 
ATOM     32  C   UNL A   1      38.951  24.452  28.279  1.00  0.00     0.014 A 
ATOM     33  C   UNL A   1      40.445  26.295  26.806  1.00  0.00     0.010 A 
ATOM     34  C   UNL A   1      39.348  25.651  28.865  1.00  0.00     0.010 A 
ATOM     35  C   UNL A   1      40.108  26.580  28.140  1.00  0.00    -0.014 A 
BRANCH  35  36
ATOM     36  C   UNL A   1      40.548  27.838  28.794  1.00  0.00     0.031 A 
ATOM     37  C   UNL A   1      41.929  27.944  29.381  1.00  0.00     0.074 A 
ATOM     38  C   UNL A   1      39.681  28.863  28.915  1.00  0.00     0.049 A 
ATOM     39  N   UNL A   1      42.473  28.936  30.039  1.00  0.00    -0.248 NA
ATOM     40  C   UNL A   1      42.807  26.772  29.230  1.00  0.00     0.031 C 
ATOM     41  C   UNL A   1      38.303  28.869  28.419  1.00  0.00     0.029 A 
ATOM     42  N   UNL A   1      39.829  30.095  29.500  1.00  0.00    -0.354 N 
ATOM     43  C   UNL A   1      43.743  28.500  30.400  1.00  0.00     0.074 A 
ATOM     44  C   UNL A   1      43.871  27.138  29.930  1.00  0.00     0.031 C 
ATOM     45  C   UNL A   1      37.743  30.058  28.693  1.00  0.00     0.029 A 
ATOM     46  C   UNL A   1      38.703  30.881  29.423  1.00  0.00     0.049 A 
ATOM     47  H   UNL A   1      40.662  30.390  29.934  1.00  0.00     0.167 HD
ATOM     48  C   UNL A   1      44.721  29.177  31.050  1.00  0.00     0.031 A 
ATOM     49  C   UNL A   1      38.466  32.122  29.890  1.00  0.00     0.031 A 
ATOM     50  C   UNL A   1      44.590  30.534  31.510  1.00  0.00     0.049 A 
ATOM     51  C   UNL A   1      39.562  32.852  30.617  1.00  0.00     0.074 A 
ATOM     52  C   UNL A   1      45.538  31.331  32.127  1.00  0.00     0.029 A 
ATOM     53  N   UNL A   1      43.434  31.295  31.408  1.00  0.00    -0.354 N 
ATOM     54  N   UNL A   1      40.778  32.446  30.894  1.00  0.00    -0.248 NA
ATOM     55  C   UNL A   1      39.255  34.210  31.085  1.00  0.00     0.031 C 
ATOM     56  C   UNL A   1      44.940  32.554  32.448  1.00  0.00     0.029 A 
ATOM     57  C   UNL A   1      43.638  32.544  31.975  1.00  0.00     0.049 A 
ATOM     58  H   UNL A   1      42.593  30.994  30.995  1.00  0.00     0.167 HD
ATOM     59  C   UNL A   1      41.393  33.510  31.544  1.00  0.00     0.074 A 
ATOM     60  C   UNL A   1      40.417  34.580  31.609  1.00  0.00     0.031 C 
ATOM     61  C   UNL A   1      42.653  33.596  32.038  1.00  0.00     0.031 A 
BRANCH  48  62
ATOM     62  C   UNL A   1      46.013  28.445  31.315  1.00  0.00    -0.014 A 
ATOM     63  C   UNL A   1      46.202  27.701  32.494  1.00  0.00     0.010 A 
ATOM     64  C   UNL A   1      47.048  28.492  30.364  1.00  0.00     0.010 A 
ATOM     65  C   UNL A   1      47.422  27.066  32.744  1.00  0.00     0.020 A 
ATOM     66  C   UNL A   1      48.259  27.831  30.596  1.00  0.00     0.020 A 
ATOM     67  C   UNL A   1      48.446  27.143  31.795  1.00  0.00     0.054 A 
BRANCH  67  68
ATOM     68  S   UNL A   1      50.021  26.314  32.147  1.00  0.00     0.124 S 
ATOM     69  O   UNL A   1      50.690  27.292  33.002  1.00  0.00    -0.237 OA
ATOM     70  O   UNL A   1      49.596  25.086  32.813  1.00  0.00    -0.237 OA
ATOM     71  O   UNL A   1      50.619  26.129  30.826  1.00  0.00    -0.744 OA
ENDBRANCH  67  68
ENDBRANCH  48  62
BRANCH  49  72
ATOM     72  C   UNL A   1      37.141  32.757  29.655  1.00  0.00    -0.014 A 
ATOM     73  C   UNL A   1      36.165  32.763  30.667  1.00  0.00     0.010 A 
ATOM     74  C   UNL A   1      36.862  33.394  28.432  1.00  0.00     0.010 A 
ATOM     75  C   UNL A   1      34.933  33.389  30.459  1.00  0.00     0.020 A 
ATOM     76  C   UNL A   1      35.641  34.046  28.230  1.00  0.00     0.020 A 
ATOM     77  C   UNL A   1      34.682  34.033  29.245  1.00  0.00     0.054 A 
BRANCH  77  78
ATOM     78  S   UNL A   1      33.107  34.908  29.028  1.00  0.00     0.124 S 
ATOM     79  O   UNL A   1      32.551  34.875  30.377  1.00  0.00    -0.237 OA
ATOM     80  O   UNL A   1      33.539  36.221  28.552  1.00  0.00    -0.237 OA
ATOM     81  O   UNL A   1      32.400  34.099  28.037  1.00  0.00    -0.744 OA
ENDBRANCH  77  78
ENDBRANCH  49  72
BRANCH  61  82
ATOM     82  C   UNL A   1      43.064  34.901  32.666  1.00  0.00    -0.014 A 
ATOM     83  C   UNL A   1      42.972  35.106  34.054  1.00  0.00     0.010 A 
ATOM     84  C   UNL A   1      43.602  35.919  31.857  1.00  0.00     0.010 A 
ATOM     85  C   UNL A   1      43.384  36.317  34.617  1.00  0.00     0.020 A 
ATOM     86  C   UNL A   1      44.041  37.119  32.420  1.00  0.00     0.020 A 
ATOM     87  C   UNL A   1      43.916  37.316  33.796  1.00  0.00     0.054 A 
BRANCH  87  88
ATOM     88  S   UNL A   1      44.485  38.861  34.558  1.00  0.00     0.124 S 
ATOM     89  O   UNL A   1      44.209  38.621  35.972  1.00  0.00    -0.237 OA
ATOM     90  O   UNL A   1      45.898  38.899  34.191  1.00  0.00    -0.237 OA
ATOM     91  O   UNL A   1      43.654  39.885  33.926  1.00  0.00    -0.744 OA
ENDBRANCH  87  88
ENDBRANCH  61  82
ENDBRANCH  35  36
ENDBRANCH  27  30
ENDBRANCH  25  26
ENDBRANCH  24  25
ENDBRANCH   1  24
TORSDOF 18
ENDMDL
