MODEL 1
REMARK VINA RESULT:     -10.9      0.000      0.000
REMARK SMILES C[C@@H]1C(=O)NC(=O)CN1C(=O)NC1(CC(=O)NCCCNC(=O)c2ccc(-c3c4nc(c(-c5ccc(S(=O)(=O)[O-])cc5)c5ccc([nH]5)c(-c5ccc(S(=O)(=O)[O-])cc5)c5nc(c(-c6ccc(S(=O)(=O)[O-])cc6)c6ccc3[nH]6)C=C5)C=C4)cc2)CCC1
REMARK SMILES IDX 19 1 18 2 17 3 15 4 16 5 14 7 13 8 84 9 86 10 85 11 12 12
REMARK SMILES IDX 10 13 11 14 9 16 1 17 2 18 3 19 4 20 5 21 8 22 6 23 7 25
REMARK SMILES IDX 20 26 21 27 22 28 23 30 24 31 25 32 83 33 26 34 82 35 27 36
REMARK SMILES IDX 28 37 29 38 76 39 30 40 81 41 75 42 77 43 31 44 80 45 74 46
REMARK SMILES IDX 73 47 32 49 62 50 43 51 61 52 44 53 47 54 60 55 78 56 45 57
REMARK SMILES IDX 46 58 59 60 79 61 48 62 33 63 34 64 42 65 35 66 41 67 36 68
REMARK SMILES IDX 37 69 38 70 39 71 40 72 63 73 64 74 72 75 65 76 71 77 66 78
REMARK SMILES IDX 67 79 68 80 69 81 70 82 49 83 50 84 58 85 51 86 57 87 52 88
REMARK SMILES IDX 53 89 54 90 55 91 56 92
REMARK H PARENT 17 6 12 15 5 24 21 29 77 48 47 59
REMARK Flexibility Score: inf
ROOT
ATOM      1  C   UNL A   1      33.160  28.027  25.521  1.00  0.00     0.042 C 
ENDROOT
BRANCH   1   2
ATOM      2  C   UNL A   1      31.672  28.286  25.772  1.00  0.00     0.117 C 
BRANCH   2   3
ATOM      3  N   UNL A   1      30.913  28.051  24.562  1.00  0.00    -0.356 N 
ATOM      4  C   UNL A   1      31.031  26.866  23.894  1.00  0.00     0.222 C 
ATOM      5  O   UNL A   1      31.456  26.889  22.744  1.00  0.00    -0.275 OA
ATOM      6  H   UNL A   1      30.309  28.749  24.219  1.00  0.00     0.163 HD
BRANCH   4   7
ATOM      7  C   UNL A   1      30.557  25.637  24.625  1.00  0.00     0.128 C 
BRANCH   7   8
ATOM      8  C   UNL A   1      31.594  24.542  24.820  1.00  0.00     0.051 C 
ATOM      9  C   UNL A   1      31.009  23.113  25.147  1.00  0.00     0.029 C 
ATOM     10  C   UNL A   1      32.055  24.536  26.329  1.00  0.00     0.029 C 
ATOM     11  C   UNL A   1      30.905  23.542  26.621  1.00  0.00     0.005 C 
BRANCH   8  12
ATOM     12  N   UNL A   1      32.731  24.390  23.871  1.00  0.00    -0.332 N 
ATOM     13  C   UNL A   1      33.890  23.751  23.633  1.00  0.00     0.318 C 
ATOM     14  O   UNL A   1      34.248  23.831  22.449  1.00  0.00    -0.249 OA
ATOM     15  H   UNL A   1      32.571  25.002  23.116  1.00  0.00     0.165 HD
BRANCH  13  16
ATOM     16  N   UNL A   1      34.655  23.063  24.515  1.00  0.00    -0.304 N 
ATOM     17  C   UNL A   1      33.856  21.222  25.992  1.00  0.00     0.042 C 
ATOM     18  C   UNL A   1      34.698  21.626  24.784  1.00  0.00     0.174 C 
ATOM     19  C   UNL A   1      36.141  21.112  24.988  1.00  0.00     0.249 C 
ATOM     20  O   UNL A   1      36.417  19.911  25.018  1.00  0.00    -0.272 OA
ATOM     21  N   UNL A   1      37.108  22.042  25.274  1.00  0.00    -0.293 N 
ATOM     22  C   UNL A   1      35.474  23.876  25.419  1.00  0.00     0.222 C 
ATOM     23  C   UNL A   1      36.911  23.380  25.504  1.00  0.00     0.246 C 
ATOM     24  H   UNL A   1      38.036  21.717  25.320  1.00  0.00     0.173 HD
ATOM     25  O   UNL A   1      37.829  24.069  25.946  1.00  0.00    -0.273 OA
ENDBRANCH  13  16
ENDBRANCH   8  12
ENDBRANCH   7   8
ENDBRANCH   4   7
ENDBRANCH   2   3
ENDBRANCH   1   2
BRANCH   1  26
ATOM     26  C   UNL A   1      34.038  28.403  26.715  1.00  0.00     0.118 C 
BRANCH  26  27
ATOM     27  N   UNL A   1      33.843  29.797  27.085  1.00  0.00    -0.352 N 
ATOM     28  C   UNL A   1      34.584  30.540  27.968  1.00  0.00     0.251 C 
ATOM     29  H   UNL A   1      33.092  30.261  26.650  1.00  0.00     0.163 HD
ATOM     30  O   UNL A   1      34.106  31.538  28.491  1.00  0.00    -0.269 OA
BRANCH  28  31
ATOM     31  C   UNL A   1      35.960  30.106  28.267  1.00  0.00     0.039 A 
ATOM     32  C   UNL A   1      36.255  29.569  29.518  1.00  0.00     0.014 A 
ATOM     33  C   UNL A   1      36.956  30.243  27.294  1.00  0.00     0.014 A 
ATOM     34  C   UNL A   1      37.558  29.153  29.788  1.00  0.00     0.010 A 
ATOM     35  C   UNL A   1      38.224  29.734  27.529  1.00  0.00     0.010 A 
ATOM     36  C   UNL A   1      38.548  29.224  28.793  1.00  0.00    -0.014 A 
BRANCH  36  37
ATOM     37  C   UNL A   1      39.952  28.846  29.079  1.00  0.00     0.031 A 
ATOM     38  C   UNL A   1      40.870  29.849  29.729  1.00  0.00     0.074 A 
ATOM     39  C   UNL A   1      40.404  27.629  28.723  1.00  0.00     0.049 A 
ATOM     40  N   UNL A   1      42.135  29.729  30.036  1.00  0.00    -0.248 NA
ATOM     41  C   UNL A   1      40.302  31.173  30.048  1.00  0.00     0.031 C 
ATOM     42  C   UNL A   1      39.620  26.596  28.040  1.00  0.00     0.029 A 
ATOM     43  N   UNL A   1      41.638  27.052  28.888  1.00  0.00    -0.354 N 
ATOM     44  C   UNL A   1      42.516  30.963  30.555  1.00  0.00     0.074 A 
ATOM     45  C   UNL A   1      41.368  31.835  30.471  1.00  0.00     0.031 C 
ATOM     46  C   UNL A   1      40.384  25.503  27.874  1.00  0.00     0.029 A 
ATOM     47  C   UNL A   1      41.716  25.768  28.405  1.00  0.00     0.049 A 
ATOM     48  H   UNL A   1      42.396  27.515  29.312  1.00  0.00     0.167 HD
ATOM     49  C   UNL A   1      43.707  31.328  31.082  1.00  0.00     0.031 A 
ATOM     50  C   UNL A   1      42.748  24.902  28.396  1.00  0.00     0.031 A 
ATOM     51  C   UNL A   1      44.833  30.442  31.197  1.00  0.00     0.049 A 
ATOM     52  C   UNL A   1      44.052  25.323  29.019  1.00  0.00     0.074 A 
ATOM     53  C   UNL A   1      46.063  30.687  31.778  1.00  0.00     0.029 A 
ATOM     54  N   UNL A   1      44.858  29.137  30.731  1.00  0.00    -0.354 N 
ATOM     55  N   UNL A   1      44.370  26.470  29.571  1.00  0.00    -0.248 NA
ATOM     56  C   UNL A   1      45.129  24.324  29.039  1.00  0.00     0.031 C 
ATOM     57  C   UNL A   1      46.853  29.544  31.618  1.00  0.00     0.029 A 
ATOM     58  C   UNL A   1      46.091  28.567  30.997  1.00  0.00     0.049 A 
ATOM     59  H   UNL A   1      44.112  28.682  30.278  1.00  0.00     0.167 HD
ATOM     60  C   UNL A   1      45.671  26.317  30.038  1.00  0.00     0.074 A 
ATOM     61  C   UNL A   1      46.073  24.963  29.715  1.00  0.00     0.031 C 
ATOM     62  C   UNL A   1      46.463  27.214  30.677  1.00  0.00     0.031 A 
BRANCH  49  63
ATOM     63  C   UNL A   1      43.852  32.741  31.582  1.00  0.00    -0.014 A 
ATOM     64  C   UNL A   1      44.279  33.776  30.730  1.00  0.00     0.010 A 
ATOM     65  C   UNL A   1      43.498  33.051  32.909  1.00  0.00     0.010 A 
ATOM     66  C   UNL A   1      44.375  35.088  31.201  1.00  0.00     0.020 A 
ATOM     67  C   UNL A   1      43.565  34.367  33.375  1.00  0.00     0.020 A 
ATOM     68  C   UNL A   1      44.013  35.375  32.520  1.00  0.00     0.054 A 
BRANCH  68  69
ATOM     69  S   UNL A   1      44.092  37.097  33.086  1.00  0.00     0.124 S 
ATOM     70  O   UNL A   1      43.994  37.833  31.829  1.00  0.00    -0.237 OA
ATOM     71  O   UNL A   1      42.928  37.198  33.964  1.00  0.00    -0.237 OA
ATOM     72  O   UNL A   1      45.385  37.183  33.760  1.00  0.00    -0.744 OA
ENDBRANCH  68  69
ENDBRANCH  49  63
BRANCH  50  73
ATOM     73  C   UNL A   1      42.587  23.548  27.796  1.00  0.00    -0.014 A 
ATOM     74  C   UNL A   1      42.078  22.481  28.558  1.00  0.00     0.010 A 
ATOM     75  C   UNL A   1      42.952  23.317  26.458  1.00  0.00     0.010 A 
ATOM     76  C   UNL A   1      41.974  21.200  28.004  1.00  0.00     0.020 A 
ATOM     77  C   UNL A   1      42.820  22.046  25.891  1.00  0.00     0.020 A 
ATOM     78  C   UNL A   1      42.349  20.991  26.675  1.00  0.00     0.054 A 
BRANCH  78  79
ATOM     79  S   UNL A   1      42.187  19.328  25.969  1.00  0.00     0.124 S 
ATOM     80  O   UNL A   1      42.994  19.432  24.758  1.00  0.00    -0.237 OA
ATOM     81  O   UNL A   1      42.735  18.481  27.025  1.00  0.00    -0.237 OA
ATOM     82  O   UNL A   1      40.748  19.188  25.753  1.00  0.00    -0.744 OA
ENDBRANCH  78  79
ENDBRANCH  50  73
BRANCH  62  83
ATOM     83  C   UNL A   1      47.820  26.741  31.124  1.00  0.00    -0.014 A 
ATOM     84  C   UNL A   1      47.999  26.057  32.338  1.00  0.00     0.010 A 
ATOM     85  C   UNL A   1      48.930  26.948  30.281  1.00  0.00     0.010 A 
ATOM     86  C   UNL A   1      49.271  25.632  32.726  1.00  0.00     0.020 A 
ATOM     87  C   UNL A   1      50.197  26.495  30.651  1.00  0.00     0.020 A 
ATOM     88  C   UNL A   1      50.363  25.856  31.881  1.00  0.00     0.054 A 
BRANCH  88  89
ATOM     89  S   UNL A   1      52.001  25.274  32.395  1.00  0.00     0.124 S 
ATOM     90  O   UNL A   1      51.760  23.851  32.617  1.00  0.00    -0.237 OA
ATOM     91  O   UNL A   1      52.834  25.599  31.240  1.00  0.00    -0.237 OA
ATOM     92  O   UNL A   1      52.284  26.053  33.599  1.00  0.00    -0.744 OA
ENDBRANCH  88  89
ENDBRANCH  62  83
ENDBRANCH  36  37
ENDBRANCH  28  31
ENDBRANCH  26  27
ENDBRANCH   1  26
TORSDOF 16
ENDMDL
MODEL 2
REMARK VINA RESULT:     -10.8      3.429      9.447
REMARK SMILES C[C@@H]1C(=O)NC(=O)CN1C(=O)NC1(CC(=O)NCCCNC(=O)c2ccc(-c3c4nc(c(-c5ccc(S(=O)(=O)[O-])cc5)c5ccc([nH]5)c(-c5ccc(S(=O)(=O)[O-])cc5)c5nc(c(-c6ccc(S(=O)(=O)[O-])cc6)c6ccc3[nH]6)C=C5)C=C4)cc2)CCC1
REMARK SMILES IDX 19 1 18 2 17 3 15 4 16 5 14 7 13 8 84 9 86 10 85 11 12 12
REMARK SMILES IDX 10 13 11 14 9 16 1 17 2 18 3 19 4 20 5 21 8 22 6 23 7 25
REMARK SMILES IDX 20 26 21 27 22 28 23 30 24 31 25 32 83 33 26 34 82 35 27 36
REMARK SMILES IDX 28 37 29 38 76 39 30 40 81 41 75 42 77 43 31 44 80 45 74 46
REMARK SMILES IDX 73 47 32 49 62 50 43 51 61 52 44 53 47 54 60 55 78 56 45 57
REMARK SMILES IDX 46 58 59 60 79 61 48 62 33 63 34 64 42 65 35 66 41 67 36 68
REMARK SMILES IDX 37 69 38 70 39 71 40 72 63 73 64 74 72 75 65 76 71 77 66 78
REMARK SMILES IDX 67 79 68 80 69 81 70 82 49 83 50 84 58 85 51 86 57 87 52 88
REMARK SMILES IDX 53 89 54 90 55 91 56 92
REMARK H PARENT 17 6 12 15 5 24 21 29 77 48 47 59
REMARK Flexibility Score: inf
ROOT
ATOM      1  C   UNL A   1      38.184  19.815  24.983  1.00  0.00     0.042 C 
ENDROOT
BRANCH   1   2
ATOM      2  C   UNL A   1      36.925  20.685  24.992  1.00  0.00     0.117 C 
BRANCH   2   3
ATOM      3  N   UNL A   1      37.240  22.024  24.540  1.00  0.00    -0.356 N 
ATOM      4  C   UNL A   1      36.298  22.771  23.891  1.00  0.00     0.222 C 
ATOM      5  O   UNL A   1      36.529  23.121  22.739  1.00  0.00    -0.275 OA
ATOM      6  H   UNL A   1      38.136  22.398  24.700  1.00  0.00     0.163 HD
BRANCH   4   7
ATOM      7  C   UNL A   1      35.081  23.151  24.692  1.00  0.00     0.128 C 
BRANCH   7   8
ATOM      8  C   UNL A   1      33.744  22.977  23.987  1.00  0.00     0.051 C 
ATOM      9  C   UNL A   1      32.480  22.981  24.932  1.00  0.00     0.029 C 
ATOM     10  C   UNL A   1      33.443  21.435  23.836  1.00  0.00     0.029 C 
ATOM     11  C   UNL A   1      32.742  21.491  25.216  1.00  0.00     0.005 C 
BRANCH   8  12
ATOM     12  N   UNL A   1      33.425  23.748  22.754  1.00  0.00    -0.332 N 
ATOM     13  C   UNL A   1      33.108  24.959  22.264  1.00  0.00     0.318 C 
ATOM     14  O   UNL A   1      33.278  25.040  21.038  1.00  0.00    -0.249 OA
ATOM     15  H   UNL A   1      33.460  23.122  21.995  1.00  0.00     0.165 HD
BRANCH  13  16
ATOM     16  N   UNL A   1      32.653  26.039  22.946  1.00  0.00    -0.304 N 
ATOM     17  C   UNL A   1      33.013  26.472  25.372  1.00  0.00     0.042 C 
ATOM     18  C   UNL A   1      33.338  26.870  23.934  1.00  0.00     0.174 C 
ATOM     19  C   UNL A   1      33.029  28.372  23.751  1.00  0.00     0.249 C 
ATOM     20  O   UNL A   1      33.659  29.254  24.338  1.00  0.00    -0.272 OA
ATOM     21  N   UNL A   1      31.925  28.703  23.006  1.00  0.00    -0.293 N 
ATOM     22  C   UNL A   1      31.232  26.355  22.764  1.00  0.00     0.222 C 
ATOM     23  C   UNL A   1      30.999  27.834  22.489  1.00  0.00     0.246 C 
ATOM     24  H   UNL A   1      31.783  29.661  22.825  1.00  0.00     0.173 HD
ATOM     25  O   UNL A   1      29.950  28.265  22.011  1.00  0.00    -0.273 OA
ENDBRANCH  13  16
ENDBRANCH   8  12
ENDBRANCH   7   8
ENDBRANCH   4   7
ENDBRANCH   2   3
ENDBRANCH   1   2
BRANCH   1  26
ATOM     26  C   UNL A   1      39.307  20.386  25.849  1.00  0.00     0.118 C 
BRANCH  26  27
ATOM     27  N   UNL A   1      40.316  19.375  26.126  1.00  0.00    -0.352 N 
ATOM     28  C   UNL A   1      41.676  19.542  26.178  1.00  0.00     0.251 C 
ATOM     29  H   UNL A   1      39.984  18.465  26.296  1.00  0.00     0.163 HD
ATOM     30  O   UNL A   1      42.424  18.586  26.020  1.00  0.00    -0.269 OA
BRANCH  28  31
ATOM     31  C   UNL A   1      42.207  20.894  26.427  1.00  0.00     0.039 A 
ATOM     32  C   UNL A   1      42.454  21.306  27.735  1.00  0.00     0.014 A 
ATOM     33  C   UNL A   1      42.452  21.751  25.349  1.00  0.00     0.014 A 
ATOM     34  C   UNL A   1      42.965  22.583  27.959  1.00  0.00     0.010 A 
ATOM     35  C   UNL A   1      43.056  22.979  25.568  1.00  0.00     0.010 A 
ATOM     36  C   UNL A   1      43.278  23.424  26.877  1.00  0.00    -0.014 A 
BRANCH  36  37
ATOM     37  C   UNL A   1      43.763  24.807  27.096  1.00  0.00     0.031 A 
ATOM     38  C   UNL A   1      45.219  25.125  26.867  1.00  0.00     0.074 A 
ATOM     39  C   UNL A   1      42.913  25.755  27.534  1.00  0.00     0.049 A 
ATOM     40  N   UNL A   1      45.850  26.258  27.029  1.00  0.00    -0.248 NA
ATOM     41  C   UNL A   1      46.088  24.017  26.428  1.00  0.00     0.031 C 
ATOM     42  C   UNL A   1      41.495  25.549  27.841  1.00  0.00     0.029 A 
ATOM     43  N   UNL A   1      43.118  27.085  27.796  1.00  0.00    -0.354 N 
ATOM     44  C   UNL A   1      47.184  25.992  26.739  1.00  0.00     0.074 A 
ATOM     45  C   UNL A   1      47.285  24.581  26.447  1.00  0.00     0.031 C 
ATOM     46  C   UNL A   1      40.953  26.719  28.219  1.00  0.00     0.029 A 
ATOM     47  C   UNL A   1      41.988  27.747  28.214  1.00  0.00     0.049 A 
ATOM     48  H   UNL A   1      43.993  27.525  27.694  1.00  0.00     0.167 HD
ATOM     49  C   UNL A   1      48.227  26.851  26.693  1.00  0.00     0.031 A 
ATOM     50  C   UNL A   1      41.809  29.038  28.552  1.00  0.00     0.031 A 
ATOM     51  C   UNL A   1      48.111  28.261  26.948  1.00  0.00     0.049 A 
ATOM     52  C   UNL A   1      42.980  29.980  28.459  1.00  0.00     0.074 A 
ATOM     53  C   UNL A   1      49.089  29.234  26.860  1.00  0.00     0.029 A 
ATOM     54  N   UNL A   1      46.941  28.898  27.330  1.00  0.00    -0.354 N 
ATOM     55  N   UNL A   1      44.220  29.723  28.112  1.00  0.00    -0.248 NA
ATOM     56  C   UNL A   1      42.723  31.389  28.780  1.00  0.00     0.031 C 
ATOM     57  C   UNL A   1      48.522  30.455  27.239  1.00  0.00     0.029 A 
ATOM     58  C   UNL A   1      47.176  30.251  27.498  1.00  0.00     0.049 A 
ATOM     59  H   UNL A   1      46.072  28.455  27.464  1.00  0.00     0.167 HD
ATOM     60  C   UNL A   1      44.880  30.947  28.137  1.00  0.00     0.074 A 
ATOM     61  C   UNL A   1      43.899  31.942  28.518  1.00  0.00     0.031 C 
ATOM     62  C   UNL A   1      46.180  31.224  27.867  1.00  0.00     0.031 A 
BRANCH  49  63
ATOM     63  C   UNL A   1      49.584  26.295  26.345  1.00  0.00    -0.014 A 
ATOM     64  C   UNL A   1      50.104  26.406  25.043  1.00  0.00     0.010 A 
ATOM     65  C   UNL A   1      50.374  25.708  27.350  1.00  0.00     0.010 A 
ATOM     66  C   UNL A   1      51.379  25.916  24.746  1.00  0.00     0.020 A 
ATOM     67  C   UNL A   1      51.661  25.243  27.063  1.00  0.00     0.020 A 
ATOM     68  C   UNL A   1      52.150  25.341  25.759  1.00  0.00     0.054 A 
BRANCH  68  69
ATOM     69  S   UNL A   1      53.824  24.767  25.356  1.00  0.00     0.124 S 
ATOM     70  O   UNL A   1      54.186  25.647  24.249  1.00  0.00    -0.237 OA
ATOM     71  O   UNL A   1      54.548  24.997  26.604  1.00  0.00    -0.237 OA
ATOM     72  O   UNL A   1      53.634  23.363  25.000  1.00  0.00    -0.744 OA
ENDBRANCH  68  69
ENDBRANCH  49  63
BRANCH  50  73
ATOM     73  C   UNL A   1      40.471  29.521  28.990  1.00  0.00    -0.014 A 
ATOM     74  C   UNL A   1      40.212  29.789  30.346  1.00  0.00     0.010 A 
ATOM     75  C   UNL A   1      39.441  29.707  28.051  1.00  0.00     0.010 A 
ATOM     76  C   UNL A   1      38.939  30.196  30.759  1.00  0.00     0.020 A 
ATOM     77  C   UNL A   1      38.176  30.143  28.454  1.00  0.00     0.020 A 
ATOM     78  C   UNL A   1      37.928  30.367  29.810  1.00  0.00     0.054 A 
BRANCH  78  79
ATOM     79  S   UNL A   1      36.290  30.916  30.363  1.00  0.00     0.124 S 
ATOM     80  O   UNL A   1      36.575  32.254  30.872  1.00  0.00    -0.237 OA
ATOM     81  O   UNL A   1      35.505  30.861  29.134  1.00  0.00    -0.237 OA
ATOM     82  O   UNL A   1      35.922  29.927  31.374  1.00  0.00    -0.744 OA
ENDBRANCH  78  79
ENDBRANCH  50  73
BRANCH  62  83
ATOM     83  C   UNL A   1      46.602  32.668  27.915  1.00  0.00    -0.014 A 
ATOM     84  C   UNL A   1      46.520  33.497  26.785  1.00  0.00     0.010 A 
ATOM     85  C   UNL A   1      47.047  33.211  29.137  1.00  0.00     0.010 A 
ATOM     86  C   UNL A   1      46.920  34.833  26.861  1.00  0.00     0.020 A 
ATOM     87  C   UNL A   1      47.416  34.554  29.224  1.00  0.00     0.020 A 
ATOM     88  C   UNL A   1      47.369  35.352  28.079  1.00  0.00     0.054 A 
BRANCH  88  89
ATOM     89  S   UNL A   1      47.862  37.095  28.159  1.00  0.00     0.124 S 
ATOM     90  O   UNL A   1      46.633  37.736  28.616  1.00  0.00    -0.237 OA
ATOM     91  O   UNL A   1      48.958  37.075  29.126  1.00  0.00    -0.237 OA
ATOM     92  O   UNL A   1      48.255  37.408  26.787  1.00  0.00    -0.744 OA
ENDBRANCH  88  89
ENDBRANCH  62  83
ENDBRANCH  36  37
ENDBRANCH  28  31
ENDBRANCH  26  27
ENDBRANCH   1  26
TORSDOF 16
ENDMDL
MODEL 3
REMARK VINA RESULT:     -10.8      3.407      9.422
REMARK SMILES C[C@@H]1C(=O)NC(=O)CN1C(=O)NC1(CC(=O)NCCCNC(=O)c2ccc(-c3c4nc(c(-c5ccc(S(=O)(=O)[O-])cc5)c5ccc([nH]5)c(-c5ccc(S(=O)(=O)[O-])cc5)c5nc(c(-c6ccc(S(=O)(=O)[O-])cc6)c6ccc3[nH]6)C=C5)C=C4)cc2)CCC1
REMARK SMILES IDX 19 1 18 2 17 3 15 4 16 5 14 7 13 8 84 9 86 10 85 11 12 12
REMARK SMILES IDX 10 13 11 14 9 16 1 17 2 18 3 19 4 20 5 21 8 22 6 23 7 25
REMARK SMILES IDX 20 26 21 27 22 28 23 30 24 31 25 32 83 33 26 34 82 35 27 36
REMARK SMILES IDX 28 37 29 38 76 39 30 40 81 41 75 42 77 43 31 44 80 45 74 46
REMARK SMILES IDX 73 47 32 49 62 50 43 51 61 52 44 53 47 54 60 55 78 56 45 57
REMARK SMILES IDX 46 58 59 60 79 61 48 62 33 63 34 64 42 65 35 66 41 67 36 68
REMARK SMILES IDX 37 69 38 70 39 71 40 72 63 73 64 74 72 75 65 76 71 77 66 78
REMARK SMILES IDX 67 79 68 80 69 81 70 82 49 83 50 84 58 85 51 86 57 87 52 88
REMARK SMILES IDX 53 89 54 90 55 91 56 92
REMARK H PARENT 17 6 12 15 5 24 21 29 77 48 47 59
REMARK Flexibility Score: inf
ROOT
ATOM      1  C   UNL A   1      38.088  20.157  24.992  1.00  0.00     0.042 C 
ENDROOT
BRANCH   1   2
ATOM      2  C   UNL A   1      36.889  21.108  24.955  1.00  0.00     0.117 C 
BRANCH   2   3
ATOM      3  N   UNL A   1      35.696  20.425  25.406  1.00  0.00    -0.356 N 
ATOM      4  C   UNL A   1      34.524  21.112  25.553  1.00  0.00     0.222 C 
ATOM      5  O   UNL A   1      34.023  21.171  26.670  1.00  0.00    -0.275 OA
ATOM      6  H   UNL A   1      35.728  19.463  25.609  1.00  0.00     0.163 HD
BRANCH   4   7
ATOM      7  C   UNL A   1      33.921  21.679  24.295  1.00  0.00     0.128 C 
BRANCH   7   8
ATOM      8  C   UNL A   1      33.191  23.005  24.451  1.00  0.00     0.051 C 
ATOM      9  C   UNL A   1      32.209  23.373  23.272  1.00  0.00     0.029 C 
ATOM     10  C   UNL A   1      34.093  24.158  23.863  1.00  0.00     0.029 C 
ATOM     11  C   UNL A   1      33.419  23.914  22.491  1.00  0.00     0.005 C 
BRANCH   8  12
ATOM     12  N   UNL A   1      32.552  23.376  25.744  1.00  0.00    -0.332 N 
ATOM     13  C   UNL A   1      31.748  24.259  26.361  1.00  0.00     0.318 C 
ATOM     14  O   UNL A   1      31.314  23.837  27.443  1.00  0.00    -0.249 OA
ATOM     15  H   UNL A   1      32.830  22.711  26.414  1.00  0.00     0.165 HD
BRANCH  13  16
ATOM     16  N   UNL A   1      31.384  25.493  25.933  1.00  0.00    -0.304 N 
ATOM     17  C   UNL A   1      32.097  27.647  26.960  1.00  0.00     0.042 C 
ATOM     18  C   UNL A   1      32.198  26.697  25.770  1.00  0.00     0.174 C 
ATOM     19  C   UNL A   1      31.843  27.472  24.481  1.00  0.00     0.249 C 
ATOM     20  O   UNL A   1      32.542  28.391  24.050  1.00  0.00    -0.272 OA
ATOM     21  N   UNL A   1      30.636  27.197  23.890  1.00  0.00    -0.293 N 
ATOM     22  C   UNL A   1      29.948  25.694  25.713  1.00  0.00     0.222 C 
ATOM     23  C   UNL A   1      29.655  26.374  24.383  1.00  0.00     0.246 C 
ATOM     24  H   UNL A   1      30.455  27.634  23.027  1.00  0.00     0.173 HD
ATOM     25  O   UNL A   1      28.540  26.366  23.862  1.00  0.00    -0.273 OA
ENDBRANCH  13  16
ENDBRANCH   8  12
ENDBRANCH   7   8
ENDBRANCH   4   7
ENDBRANCH   2   3
ENDBRANCH   1   2
BRANCH   1  26
ATOM     26  C   UNL A   1      39.166  20.598  25.983  1.00  0.00     0.118 C 
BRANCH  26  27
ATOM     27  N   UNL A   1      40.187  19.573  26.132  1.00  0.00    -0.352 N 
ATOM     28  C   UNL A   1      41.548  19.739  26.118  1.00  0.00     0.251 C 
ATOM     29  H   UNL A   1      39.864  18.653  26.257  1.00  0.00     0.163 HD
ATOM     30  O   UNL A   1      42.284  18.799  25.853  1.00  0.00    -0.269 OA
BRANCH  28  31
ATOM     31  C   UNL A   1      42.095  21.072  26.429  1.00  0.00     0.039 A 
ATOM     32  C   UNL A   1      42.384  21.406  27.751  1.00  0.00     0.014 A 
ATOM     33  C   UNL A   1      42.312  21.990  25.396  1.00  0.00     0.014 A 
ATOM     34  C   UNL A   1      42.909  22.666  28.034  1.00  0.00     0.010 A 
ATOM     35  C   UNL A   1      42.929  23.201  25.668  1.00  0.00     0.010 A 
ATOM     36  C   UNL A   1      43.194  23.567  26.994  1.00  0.00    -0.014 A 
BRANCH  36  37
ATOM     37  C   UNL A   1      43.693  24.933  27.278  1.00  0.00     0.031 A 
ATOM     38  C   UNL A   1      45.141  25.261  27.014  1.00  0.00     0.074 A 
ATOM     39  C   UNL A   1      42.865  25.855  27.804  1.00  0.00     0.049 A 
ATOM     40  N   UNL A   1      45.783  26.381  27.221  1.00  0.00    -0.248 NA
ATOM     41  C   UNL A   1      45.988  24.179  26.475  1.00  0.00     0.031 C 
ATOM     42  C   UNL A   1      41.458  25.634  28.152  1.00  0.00     0.029 A 
ATOM     43  N   UNL A   1      43.086  27.166  28.139  1.00  0.00    -0.354 N 
ATOM     44  C   UNL A   1      47.104  26.129  26.865  1.00  0.00     0.074 A 
ATOM     45  C   UNL A   1      47.188  24.739  26.484  1.00  0.00     0.031 C 
ATOM     46  C   UNL A   1      40.936  26.780  28.620  1.00  0.00     0.029 A 
ATOM     47  C   UNL A   1      41.976  27.804  28.639  1.00  0.00     0.049 A 
ATOM     48  H   UNL A   1      43.959  27.609  28.032  1.00  0.00     0.167 HD
ATOM     49  C   UNL A   1      48.149  26.987  26.832  1.00  0.00     0.031 A 
ATOM     50  C   UNL A   1      41.816  29.072  29.062  1.00  0.00     0.031 A 
ATOM     51  C   UNL A   1      48.049  28.379  27.177  1.00  0.00     0.049 A 
ATOM     52  C   UNL A   1      42.987  30.015  28.982  1.00  0.00     0.074 A 
ATOM     53  C   UNL A   1      49.028  29.353  27.111  1.00  0.00     0.029 A 
ATOM     54  N   UNL A   1      46.897  28.994  27.641  1.00  0.00    -0.354 N 
ATOM     55  N   UNL A   1      44.212  29.777  28.574  1.00  0.00    -0.248 NA
ATOM     56  C   UNL A   1      42.749  31.403  29.398  1.00  0.00     0.031 C 
ATOM     57  C   UNL A   1      48.481  30.550  27.585  1.00  0.00     0.029 A 
ATOM     58  C   UNL A   1      47.145  30.334  27.882  1.00  0.00     0.049 A 
ATOM     59  H   UNL A   1      46.032  28.546  27.780  1.00  0.00     0.167 HD
ATOM     60  C   UNL A   1      44.878  30.995  28.648  1.00  0.00     0.074 A 
ATOM     61  C   UNL A   1      43.917  31.968  29.127  1.00  0.00     0.031 C 
ATOM     62  C   UNL A   1      46.169  31.285  28.347  1.00  0.00     0.031 A 
BRANCH  49  63
ATOM     63  C   UNL A   1      49.489  26.450  26.400  1.00  0.00    -0.014 A 
ATOM     64  C   UNL A   1      49.959  26.635  25.087  1.00  0.00     0.010 A 
ATOM     65  C   UNL A   1      50.315  25.804  27.337  1.00  0.00     0.010 A 
ATOM     66  C   UNL A   1      51.219  26.161  24.712  1.00  0.00     0.020 A 
ATOM     67  C   UNL A   1      51.588  25.354  26.974  1.00  0.00     0.020 A 
ATOM     68  C   UNL A   1      52.027  25.526  25.660  1.00  0.00     0.054 A 
BRANCH  68  69
ATOM     69  S   UNL A   1      53.681  24.974  25.160  1.00  0.00     0.124 S 
ATOM     70  O   UNL A   1      53.567  23.524  25.286  1.00  0.00    -0.237 OA
ATOM     71  O   UNL A   1      53.785  25.478  23.792  1.00  0.00    -0.237 OA
ATOM     72  O   UNL A   1      54.569  25.616  26.126  1.00  0.00    -0.744 OA
ENDBRANCH  68  69
ENDBRANCH  49  63
BRANCH  50  73
ATOM     73  C   UNL A   1      40.497  29.531  29.579  1.00  0.00    -0.014 A 
ATOM     74  C   UNL A   1      39.499  29.986  28.698  1.00  0.00     0.010 A 
ATOM     75  C   UNL A   1      40.235  29.525  30.960  1.00  0.00     0.010 A 
ATOM     76  C   UNL A   1      38.280  30.462  29.192  1.00  0.00     0.020 A 
ATOM     77  C   UNL A   1      39.006  29.970  31.456  1.00  0.00     0.020 A 
ATOM     78  C   UNL A   1      38.043  30.453  30.569  1.00  0.00     0.054 A 
BRANCH  78  79
ATOM     79  S   UNL A   1      36.447  31.054  31.188  1.00  0.00     0.124 S 
ATOM     80  O   UNL A   1      35.654  31.121  29.965  1.00  0.00    -0.237 OA
ATOM     81  O   UNL A   1      36.062  30.012  32.135  1.00  0.00    -0.237 OA
ATOM     82  O   UNL A   1      36.778  32.343  31.792  1.00  0.00    -0.744 OA
ENDBRANCH  78  79
ENDBRANCH  50  73
BRANCH  62  83
ATOM     83  C   UNL A   1      46.600  32.722  28.467  1.00  0.00    -0.014 A 
ATOM     84  C   UNL A   1      47.127  33.234  29.664  1.00  0.00     0.010 A 
ATOM     85  C   UNL A   1      46.514  33.560  27.338  1.00  0.00     0.010 A 
ATOM     86  C   UNL A   1      47.517  34.572  29.746  1.00  0.00     0.020 A 
ATOM     87  C   UNL A   1      46.934  34.889  27.407  1.00  0.00     0.020 A 
ATOM     88  C   UNL A   1      47.415  35.393  28.618  1.00  0.00     0.054 A 
BRANCH  88  89
ATOM     89  S   UNL A   1      47.949  37.120  28.741  1.00  0.00     0.124 S 
ATOM     90  O   UNL A   1      46.929  37.809  27.956  1.00  0.00    -0.237 OA
ATOM     91  O   UNL A   1      47.907  37.367  30.181  1.00  0.00    -0.237 OA
ATOM     92  O   UNL A   1      49.287  37.113  28.155  1.00  0.00    -0.744 OA
ENDBRANCH  88  89
ENDBRANCH  62  83
ENDBRANCH  36  37
ENDBRANCH  28  31
ENDBRANCH  26  27
ENDBRANCH   1  26
TORSDOF 16
ENDMDL
