MODEL 1
REMARK VINA RESULT:     -12.4      0.000      0.000
REMARK SMILES CCc1ccccc1NC(=O)CCN1C[C@H](C(=O)NCCCNC(=O)c2ccc(-c3c4nc(c(-c5ccc(S(=O)(=O)[O-])cc5)c5ccc([nH]5)c(-c5ccc(S(=O)(=O)[O-])cc5)c5nc(c(-c6ccc(S(=O)(=O)[O-])cc6)c6ccc3[nH]6)C=C5)C=C4)cc2)CC1=O
REMARK SMILES IDX 20 1 19 2 17 3 18 4 16 6 14 7 15 8 87 9 86 10 88 11 13 12
REMARK SMILES IDX 12 13 10 14 9 15 11 17 8 18 3 19 4 20 5 21 7 22 6 23 2 24
REMARK SMILES IDX 1 25 21 26 22 27 23 28 24 29 25 31 26 32 27 33 85 34 28 35
REMARK SMILES IDX 84 36 29 37 30 38 31 39 78 40 32 41 83 42 77 43 79 44 33 45
REMARK SMILES IDX 82 46 76 47 75 48 34 50 64 51 45 52 63 53 46 54 49 55 62 56
REMARK SMILES IDX 80 57 47 58 48 59 61 61 81 62 50 63 35 64 36 65 44 66 37 67
REMARK SMILES IDX 43 68 38 69 39 70 40 71 41 72 42 73 65 74 66 75 74 76 67 77
REMARK SMILES IDX 73 78 68 79 69 80 70 81 71 82 72 83 51 84 52 85 60 86 53 87
REMARK SMILES IDX 59 88 54 89 55 90 56 91 57 92 58 93
REMARK H PARENT 19 5 9 16 23 30 79 49 49 60
REMARK Flexibility Score: inf
ROOT
ATOM      1  C   UNL A   1      38.614  23.247  26.401  1.00  0.00     0.117 C 
ENDROOT
BRANCH   1   2
ATOM      2  N   UNL A   1      37.925  22.859  25.138  1.00  0.00    -0.356 N 
ATOM      3  C   UNL A   1      36.763  22.156  24.612  1.00  0.00     0.225 C 
ATOM      4  O   UNL A   1      37.008  22.542  23.404  1.00  0.00    -0.275 OA
ATOM      5  H   UNL A   1      38.449  23.203  24.379  1.00  0.00     0.163 HD
BRANCH   3   6
ATOM      6  C   UNL A   1      35.197  20.850  25.396  1.00  0.00     0.107 C 
ATOM      7  N   UNL A   1      32.689  20.858  25.528  1.00  0.00    -0.341 N 
ATOM      8  C   UNL A   1      33.828  21.147  26.355  1.00  0.00     0.133 C 
ATOM      9  C   UNL A   1      32.935  19.869  24.599  1.00  0.00     0.223 C 
ATOM     10  C   UNL A   1      34.371  19.460  24.733  1.00  0.00     0.115 C 
ATOM     11  O   UNL A   1      32.143  19.410  23.794  1.00  0.00    -0.275 OA
BRANCH   7  12
ATOM     12  C   UNL A   1      31.555  21.746  25.442  1.00  0.00     0.129 C 
BRANCH  12  13
ATOM     13  C   UNL A   1      31.915  23.210  25.685  1.00  0.00     0.122 C 
BRANCH  13  14
ATOM     14  C   UNL A   1      31.001  23.942  26.651  1.00  0.00     0.226 C 
ATOM     15  N   UNL A   1      30.871  25.304  26.687  1.00  0.00    -0.326 N 
ATOM     16  H   UNL A   1      30.223  25.627  27.356  1.00  0.00     0.169 HD
ATOM     17  O   UNL A   1      30.289  23.277  27.414  1.00  0.00    -0.275 OA
BRANCH  15  18
ATOM     18  C   UNL A   1      31.488  26.331  25.948  1.00  0.00     0.044 A 
ATOM     19  C   UNL A   1      31.097  26.518  24.201  1.00  0.00    -0.025 A 
ATOM     20  C   UNL A   1      32.221  27.475  23.134  1.00  0.00     0.006 A 
ATOM     21  C   UNL A   1      33.620  28.404  23.874  1.00  0.00     0.000 A 
ATOM     22  C   UNL A   1      32.797  27.324  26.666  1.00  0.00     0.026 A 
ATOM     23  C   UNL A   1      33.853  28.351  25.642  1.00  0.00     0.002 A 
BRANCH  19  24
ATOM     24  C   UNL A   1      29.825  25.994  23.549  1.00  0.00     0.034 C 
ATOM     25  C   UNL A   1      28.514  26.713  23.836  1.00  0.00     0.009 C 
ENDBRANCH  19  24
ENDBRANCH  15  18
ENDBRANCH  13  14
ENDBRANCH  12  13
ENDBRANCH   7  12
ENDBRANCH   3   6
ENDBRANCH   1   2
BRANCH   1  26
ATOM     26  C   UNL A   1      39.869  22.444  26.678  1.00  0.00     0.042 C 
BRANCH  26  27
ATOM     27  C   UNL A   1      40.975  23.296  27.256  1.00  0.00     0.118 C 
BRANCH  27  28
ATOM     28  N   UNL A   1      41.665  24.063  26.217  1.00  0.00    -0.352 N 
ATOM     29  C   UNL A   1      41.718  25.421  26.010  1.00  0.00     0.251 C 
ATOM     30  H   UNL A   1      42.169  23.524  25.566  1.00  0.00     0.163 HD
ATOM     31  O   UNL A   1      42.057  25.865  24.917  1.00  0.00    -0.269 OA
BRANCH  29  32
ATOM     32  C   UNL A   1      41.358  26.329  27.114  1.00  0.00     0.039 A 
ATOM     33  C   UNL A   1      40.365  25.975  28.028  1.00  0.00     0.014 A 
ATOM     34  C   UNL A   1      42.036  27.541  27.246  1.00  0.00     0.014 A 
ATOM     35  C   UNL A   1      40.109  26.813  29.114  1.00  0.00     0.010 A 
ATOM     36  C   UNL A   1      41.899  28.280  28.404  1.00  0.00     0.010 A 
ATOM     37  C   UNL A   1      40.905  27.950  29.331  1.00  0.00    -0.014 A 
BRANCH  37  38
ATOM     38  C   UNL A   1      40.696  28.855  30.484  1.00  0.00     0.031 A 
ATOM     39  C   UNL A   1      41.559  28.703  31.711  1.00  0.00     0.074 A 
ATOM     40  C   UNL A   1      39.686  29.745  30.459  1.00  0.00     0.049 A 
ATOM     41  N   UNL A   1      41.495  29.345  32.847  1.00  0.00    -0.248 NA
ATOM     42  C   UNL A   1      42.603  27.662  31.670  1.00  0.00     0.031 C 
ATOM     43  C   UNL A   1      38.756  29.944  29.345  1.00  0.00     0.029 A 
ATOM     44  N   UNL A   1      39.276  30.652  31.400  1.00  0.00    -0.354 N 
ATOM     45  C   UNL A   1      42.465  28.767  33.658  1.00  0.00     0.074 A 
ATOM     46  C   UNL A   1      43.044  27.672  32.917  1.00  0.00     0.031 C 
ATOM     47  C   UNL A   1      37.921  30.952  29.645  1.00  0.00     0.029 A 
ATOM     48  C   UNL A   1      38.220  31.430  30.990  1.00  0.00     0.049 A 
ATOM     49  H   UNL A   1      39.698  30.739  32.286  1.00  0.00     0.167 HD
ATOM     50  C   UNL A   1      42.863  29.134  34.899  1.00  0.00     0.031 A 
ATOM     51  C   UNL A   1      37.568  32.421  31.629  1.00  0.00     0.031 A 
ATOM     52  C   UNL A   1      42.283  30.232  35.622  1.00  0.00     0.049 A 
ATOM     53  C   UNL A   1      38.010  32.802  33.014  1.00  0.00     0.074 A 
ATOM     54  C   UNL A   1      42.644  30.736  36.857  1.00  0.00     0.029 A 
ATOM     55  N   UNL A   1      41.210  30.991  35.175  1.00  0.00    -0.354 N 
ATOM     56  N   UNL A   1      38.982  32.298  33.737  1.00  0.00    -0.248 NA
ATOM     57  C   UNL A   1      37.275  33.893  33.663  1.00  0.00     0.031 C 
ATOM     58  C   UNL A   1      41.742  31.750  37.191  1.00  0.00     0.029 A 
ATOM     59  C   UNL A   1      40.871  31.935  36.127  1.00  0.00     0.049 A 
ATOM     60  H   UNL A   1      40.757  30.874  34.308  1.00  0.00     0.167 HD
ATOM     61  C   UNL A   1      38.997  33.032  34.917  1.00  0.00     0.074 A 
ATOM     62  C   UNL A   1      37.944  34.023  34.802  1.00  0.00     0.031 C 
ATOM     63  C   UNL A   1      39.810  32.905  35.995  1.00  0.00     0.031 A 
BRANCH  50  64
ATOM     64  C   UNL A   1      43.956  28.319  35.545  1.00  0.00    -0.014 A 
ATOM     65  C   UNL A   1      43.663  27.273  36.443  1.00  0.00     0.010 A 
ATOM     66  C   UNL A   1      45.302  28.610  35.260  1.00  0.00     0.010 A 
ATOM     67  C   UNL A   1      44.691  26.587  37.093  1.00  0.00     0.020 A 
ATOM     68  C   UNL A   1      46.334  27.898  35.877  1.00  0.00     0.020 A 
ATOM     69  C   UNL A   1      46.020  26.908  36.810  1.00  0.00     0.054 A 
BRANCH  69  70
ATOM     70  S   UNL A   1      47.334  26.009  37.678  1.00  0.00     0.124 S 
ATOM     71  O   UNL A   1      48.531  26.713  37.225  1.00  0.00    -0.237 OA
ATOM     72  O   UNL A   1      46.982  26.207  39.082  1.00  0.00    -0.237 OA
ATOM     73  O   UNL A   1      47.196  24.637  37.191  1.00  0.00    -0.744 OA
ENDBRANCH  69  70
ENDBRANCH  50  64
BRANCH  51  74
ATOM     74  C   UNL A   1      36.466  33.142  30.937  1.00  0.00    -0.014 A 
ATOM     75  C   UNL A   1      35.144  33.038  31.410  1.00  0.00     0.010 A 
ATOM     76  C   UNL A   1      36.733  33.977  29.837  1.00  0.00     0.010 A 
ATOM     77  C   UNL A   1      34.113  33.753  30.795  1.00  0.00     0.020 A 
ATOM     78  C   UNL A   1      35.709  34.717  29.239  1.00  0.00     0.020 A 
ATOM     79  C   UNL A   1      34.404  34.597  29.720  1.00  0.00     0.054 A 
BRANCH  79  80
ATOM     80  S   UNL A   1      33.062  35.579  28.995  1.00  0.00     0.124 S 
ATOM     81  O   UNL A   1      32.366  34.589  28.179  1.00  0.00    -0.237 OA
ATOM     82  O   UNL A   1      32.343  36.045  30.178  1.00  0.00    -0.237 OA
ATOM     83  O   UNL A   1      33.764  36.623  28.250  1.00  0.00    -0.744 OA
ENDBRANCH  79  80
ENDBRANCH  51  74
BRANCH  63  84
ATOM     84  C   UNL A   1      39.619  33.881  37.126  1.00  0.00    -0.014 A 
ATOM     85  C   UNL A   1      38.821  33.567  38.240  1.00  0.00     0.010 A 
ATOM     86  C   UNL A   1      40.305  35.110  37.099  1.00  0.00     0.010 A 
ATOM     87  C   UNL A   1      38.685  34.480  39.290  1.00  0.00     0.020 A 
ATOM     88  C   UNL A   1      40.201  36.008  38.162  1.00  0.00     0.020 A 
ATOM     89  C   UNL A   1      39.379  35.693  39.245  1.00  0.00     0.054 A 
BRANCH  89  90
ATOM     90  S   UNL A   1      39.222  36.837  40.641  1.00  0.00     0.124 S 
ATOM     91  O   UNL A   1      38.497  36.028  41.617  1.00  0.00    -0.237 OA
ATOM     92  O   UNL A   1      40.615  37.126  40.974  1.00  0.00    -0.237 OA
ATOM     93  O   UNL A   1      38.473  37.964  40.086  1.00  0.00    -0.744 OA
ENDBRANCH  89  90
ENDBRANCH  63  84
ENDBRANCH  37  38
ENDBRANCH  29  32
ENDBRANCH  27  28
ENDBRANCH  26  27
ENDBRANCH   1  26
TORSDOF 18
ENDMDL
MODEL 2
REMARK VINA RESULT:     -11.8      0.472      8.111
REMARK SMILES CCc1ccccc1NC(=O)CCN1C[C@H](C(=O)NCCCNC(=O)c2ccc(-c3c4nc(c(-c5ccc(S(=O)(=O)[O-])cc5)c5ccc([nH]5)c(-c5ccc(S(=O)(=O)[O-])cc5)c5nc(c(-c6ccc(S(=O)(=O)[O-])cc6)c6ccc3[nH]6)C=C5)C=C4)cc2)CC1=O
REMARK SMILES IDX 20 1 19 2 17 3 18 4 16 6 14 7 15 8 87 9 86 10 88 11 13 12
REMARK SMILES IDX 12 13 10 14 9 15 11 17 8 18 3 19 4 20 5 21 7 22 6 23 2 24
REMARK SMILES IDX 1 25 21 26 22 27 23 28 24 29 25 31 26 32 27 33 85 34 28 35
REMARK SMILES IDX 84 36 29 37 30 38 31 39 78 40 32 41 83 42 77 43 79 44 33 45
REMARK SMILES IDX 82 46 76 47 75 48 34 50 64 51 45 52 63 53 46 54 49 55 62 56
REMARK SMILES IDX 80 57 47 58 48 59 61 61 81 62 50 63 35 64 36 65 44 66 37 67
REMARK SMILES IDX 43 68 38 69 39 70 40 71 41 72 42 73 65 74 66 75 74 76 67 77
REMARK SMILES IDX 73 78 68 79 69 80 70 81 71 82 72 83 51 84 52 85 60 86 53 87
REMARK SMILES IDX 59 88 54 89 55 90 56 91 57 92 58 93
REMARK H PARENT 19 5 9 16 23 30 79 49 49 60
REMARK Flexibility Score: inf
ROOT
ATOM      1  C   UNL A   1      38.652  23.224  26.503  1.00  0.00     0.117 C 
ENDROOT
BRANCH   1   2
ATOM      2  N   UNL A   1      37.948  22.914  25.226  1.00  0.00    -0.356 N 
ATOM      3  C   UNL A   1      36.765  22.270  24.674  1.00  0.00     0.225 C 
ATOM      4  O   UNL A   1      37.017  22.705  23.483  1.00  0.00    -0.275 OA
ATOM      5  H   UNL A   1      38.480  23.278  24.482  1.00  0.00     0.163 HD
BRANCH   3   6
ATOM      6  C   UNL A   1      35.163  20.976  25.403  1.00  0.00     0.107 C 
ATOM      7  N   UNL A   1      32.652  20.996  25.437  1.00  0.00    -0.341 N 
ATOM      8  C   UNL A   1      33.759  21.284  26.306  1.00  0.00     0.133 C 
ATOM      9  C   UNL A   1      32.930  20.000  24.524  1.00  0.00     0.223 C 
ATOM     10  C   UNL A   1      34.358  19.585  24.716  1.00  0.00     0.115 C 
ATOM     11  O   UNL A   1      32.168  19.539  23.691  1.00  0.00    -0.275 OA
BRANCH   7  12
ATOM     12  C   UNL A   1      31.527  21.887  25.301  1.00  0.00     0.129 C 
BRANCH  12  13
ATOM     13  C   UNL A   1      31.873  23.345  25.597  1.00  0.00     0.122 C 
BRANCH  13  14
ATOM     14  C   UNL A   1      30.896  24.062  26.511  1.00  0.00     0.226 C 
ATOM     15  N   UNL A   1      30.732  25.422  26.529  1.00  0.00    -0.326 N 
ATOM     16  H   UNL A   1      30.045  25.734  27.162  1.00  0.00     0.169 HD
ATOM     17  O   UNL A   1      30.162  23.386  27.244  1.00  0.00    -0.275 OA
BRANCH  15  18
ATOM     18  C   UNL A   1      31.362  26.457  25.812  1.00  0.00     0.044 A 
ATOM     19  C   UNL A   1      30.745  26.901  24.180  1.00  0.00    -0.025 A 
ATOM     20  C   UNL A   1      31.814  27.852  23.053  1.00  0.00     0.006 A 
ATOM     21  C   UNL A   1      33.414  28.521  23.651  1.00  0.00     0.000 A 
ATOM     22  C   UNL A   1      32.879  27.203  26.410  1.00  0.00     0.026 A 
ATOM     23  C   UNL A   1      33.896  28.225  25.344  1.00  0.00     0.002 A 
BRANCH  19  24
ATOM     24  C   UNL A   1      29.335  26.606  23.689  1.00  0.00     0.034 C 
ATOM     25  C   UNL A   1      28.374  27.773  23.499  1.00  0.00     0.009 C 
ENDBRANCH  19  24
ENDBRANCH  15  18
ENDBRANCH  13  14
ENDBRANCH  12  13
ENDBRANCH   7  12
ENDBRANCH   3   6
ENDBRANCH   1   2
BRANCH   1  26
ATOM     26  C   UNL A   1      39.962  22.480  26.668  1.00  0.00     0.042 C 
BRANCH  26  27
ATOM     27  C   UNL A   1      41.046  23.357  27.251  1.00  0.00     0.118 C 
BRANCH  27  28
ATOM     28  N   UNL A   1      41.677  24.190  26.224  1.00  0.00    -0.352 N 
ATOM     29  C   UNL A   1      41.691  25.557  26.082  1.00  0.00     0.251 C 
ATOM     30  H   UNL A   1      42.165  23.694  25.528  1.00  0.00     0.163 HD
ATOM     31  O   UNL A   1      41.977  26.060  25.000  1.00  0.00    -0.269 OA
BRANCH  29  32
ATOM     32  C   UNL A   1      41.358  26.402  27.243  1.00  0.00     0.039 A 
ATOM     33  C   UNL A   1      40.344  26.026  28.124  1.00  0.00     0.014 A 
ATOM     34  C   UNL A   1      42.080  27.575  27.460  1.00  0.00     0.014 A 
ATOM     35  C   UNL A   1      40.111  26.798  29.262  1.00  0.00     0.010 A 
ATOM     36  C   UNL A   1      41.962  28.240  28.664  1.00  0.00     0.010 A 
ATOM     37  C   UNL A   1      40.948  27.887  29.560  1.00  0.00    -0.014 A 
BRANCH  37  38
ATOM     38  C   UNL A   1      40.764  28.720  30.771  1.00  0.00     0.031 A 
ATOM     39  C   UNL A   1      39.681  29.768  30.791  1.00  0.00     0.074 A 
ATOM     40  C   UNL A   1      41.616  28.591  31.805  1.00  0.00     0.049 A 
ATOM     41  N   UNL A   1      39.398  30.642  31.721  1.00  0.00    -0.248 NA
ATOM     42  C   UNL A   1      38.832  29.876  29.591  1.00  0.00     0.031 C 
ATOM     43  C   UNL A   1      42.734  27.646  31.874  1.00  0.00     0.029 A 
ATOM     44  N   UNL A   1      41.673  29.260  33.000  1.00  0.00    -0.354 N 
ATOM     45  C   UNL A   1      38.364  31.415  31.204  1.00  0.00     0.074 A 
ATOM     46  C   UNL A   1      38.127  30.964  29.853  1.00  0.00     0.031 C 
ATOM     47  C   UNL A   1      43.328  27.755  33.072  1.00  0.00     0.029 A 
ATOM     48  C   UNL A   1      42.672  28.814  33.832  1.00  0.00     0.049 A 
ATOM     49  H   UNL A   1      41.057  29.989  33.240  1.00  0.00     0.167 HD
ATOM     50  C   UNL A   1      37.652  32.395  31.809  1.00  0.00     0.031 A 
ATOM     51  C   UNL A   1      43.018  29.215  35.071  1.00  0.00     0.031 A 
ATOM     52  C   UNL A   1      37.894  32.829  33.158  1.00  0.00     0.049 A 
ATOM     53  C   UNL A   1      42.228  30.316  35.720  1.00  0.00     0.074 A 
ATOM     54  C   UNL A   1      37.199  33.765  33.898  1.00  0.00     0.029 A 
ATOM     55  N   UNL A   1      38.920  32.357  33.965  1.00  0.00    -0.354 N 
ATOM     56  N   UNL A   1      41.202  30.984  35.249  1.00  0.00    -0.248 NA
ATOM     57  C   UNL A   1      42.637  30.710  37.074  1.00  0.00     0.031 C 
ATOM     58  C   UNL A   1      37.851  33.916  35.126  1.00  0.00     0.029 A 
ATOM     59  C   UNL A   1      38.901  33.011  35.184  1.00  0.00     0.049 A 
ATOM     60  H   UNL A   1      39.566  31.659  33.708  1.00  0.00     0.167 HD
ATOM     61  C   UNL A   1      40.821  31.857  36.261  1.00  0.00     0.074 A 
ATOM     62  C   UNL A   1      41.721  31.621  37.373  1.00  0.00     0.031 C 
ATOM     63  C   UNL A   1      39.815  32.767  36.273  1.00  0.00     0.031 A 
BRANCH  50  64
ATOM     64  C   UNL A   1      36.570  33.066  31.000  1.00  0.00    -0.014 A 
ATOM     65  C   UNL A   1      36.878  33.902  29.909  1.00  0.00     0.010 A 
ATOM     66  C   UNL A   1      35.221  32.869  31.343  1.00  0.00     0.010 A 
ATOM     67  C   UNL A   1      35.866  34.580  29.226  1.00  0.00     0.020 A 
ATOM     68  C   UNL A   1      34.202  33.513  30.636  1.00  0.00     0.020 A 
ATOM     69  C   UNL A   1      34.534  34.385  29.598  1.00  0.00     0.054 A 
BRANCH  69  70
ATOM     70  S   UNL A   1      33.242  35.286  28.701  1.00  0.00     0.124 S 
ATOM     71  O   UNL A   1      34.030  36.166  27.841  1.00  0.00    -0.237 OA
ATOM     72  O   UNL A   1      32.524  34.215  28.014  1.00  0.00    -0.237 OA
ATOM     73  O   UNL A   1      32.489  35.959  29.758  1.00  0.00    -0.744 OA
ENDBRANCH  69  70
ENDBRANCH  50  64
BRANCH  51  74
ATOM     74  C   UNL A   1      44.132  28.531  35.781  1.00  0.00    -0.014 A 
ATOM     75  C   UNL A   1      43.860  27.649  36.843  1.00  0.00     0.010 A 
ATOM     76  C   UNL A   1      45.465  28.713  35.370  1.00  0.00     0.010 A 
ATOM     77  C   UNL A   1      44.899  26.966  37.480  1.00  0.00     0.020 A 
ATOM     78  C   UNL A   1      46.503  28.008  35.985  1.00  0.00     0.020 A 
ATOM     79  C   UNL A   1      46.213  27.141  37.039  1.00  0.00     0.054 A 
BRANCH  79  80
ATOM     80  S   UNL A   1      47.532  26.177  37.828  1.00  0.00     0.124 S 
ATOM     81  O   UNL A   1      47.328  26.479  39.241  1.00  0.00    -0.237 OA
ATOM     82  O   UNL A   1      47.210  24.813  37.418  1.00  0.00    -0.237 OA
ATOM     83  O   UNL A   1      48.755  26.723  37.241  1.00  0.00    -0.744 OA
ENDBRANCH  79  80
ENDBRANCH  51  74
BRANCH  63  84
ATOM     84  C   UNL A   1      39.608  33.554  37.541  1.00  0.00    -0.014 A 
ATOM     85  C   UNL A   1      38.729  33.112  38.545  1.00  0.00     0.010 A 
ATOM     86  C   UNL A   1      40.358  34.727  37.753  1.00  0.00     0.010 A 
ATOM     87  C   UNL A   1      38.578  33.847  39.724  1.00  0.00     0.020 A 
ATOM     88  C   UNL A   1      40.237  35.443  38.945  1.00  0.00     0.020 A 
ATOM     89  C   UNL A   1      39.336  35.006  39.917  1.00  0.00     0.054 A 
BRANCH  89  90
ATOM     90  S   UNL A   1      39.156  35.914  41.475  1.00  0.00     0.124 S 
ATOM     91  O   UNL A   1      37.801  35.553  41.883  1.00  0.00    -0.237 OA
ATOM     92  O   UNL A   1      40.229  35.356  42.294  1.00  0.00    -0.237 OA
ATOM     93  O   UNL A   1      39.339  37.312  41.087  1.00  0.00    -0.744 OA
ENDBRANCH  89  90
ENDBRANCH  63  84
ENDBRANCH  37  38
ENDBRANCH  29  32
ENDBRANCH  27  28
ENDBRANCH  26  27
ENDBRANCH   1  26
TORSDOF 18
ENDMDL
MODEL 3
REMARK VINA RESULT:     -11.8      2.740      9.251
REMARK SMILES CCc1ccccc1NC(=O)CCN1C[C@H](C(=O)NCCCNC(=O)c2ccc(-c3c4nc(c(-c5ccc(S(=O)(=O)[O-])cc5)c5ccc([nH]5)c(-c5ccc(S(=O)(=O)[O-])cc5)c5nc(c(-c6ccc(S(=O)(=O)[O-])cc6)c6ccc3[nH]6)C=C5)C=C4)cc2)CC1=O
REMARK SMILES IDX 20 1 19 2 17 3 18 4 16 6 14 7 15 8 87 9 86 10 88 11 13 12
REMARK SMILES IDX 12 13 10 14 9 15 11 17 8 18 3 19 4 20 5 21 7 22 6 23 2 24
REMARK SMILES IDX 1 25 21 26 22 27 23 28 24 29 25 31 26 32 27 33 85 34 28 35
REMARK SMILES IDX 84 36 29 37 30 38 31 39 78 40 32 41 83 42 77 43 79 44 33 45
REMARK SMILES IDX 82 46 76 47 75 48 34 50 64 51 45 52 63 53 46 54 49 55 62 56
REMARK SMILES IDX 80 57 47 58 48 59 61 61 81 62 50 63 35 64 36 65 44 66 37 67
REMARK SMILES IDX 43 68 38 69 39 70 40 71 41 72 42 73 65 74 66 75 74 76 67 77
REMARK SMILES IDX 73 78 68 79 69 80 70 81 71 82 72 83 51 84 52 85 60 86 53 87
REMARK SMILES IDX 59 88 54 89 55 90 56 91 57 92 58 93
REMARK H PARENT 19 5 9 16 23 30 79 49 49 60
REMARK Flexibility Score: inf
ROOT
ATOM      1  C   UNL A   1      35.589  33.542  27.708  1.00  0.00     0.117 C 
ENDROOT
BRANCH   1   2
ATOM      2  N   UNL A   1      35.548  32.136  28.203  1.00  0.00    -0.356 N 
ATOM      3  C   UNL A   1      34.947  30.832  27.962  1.00  0.00     0.225 C 
ATOM      4  O   UNL A   1      35.701  30.261  28.842  1.00  0.00    -0.275 OA
ATOM      5  H   UNL A   1      36.148  32.062  28.980  1.00  0.00     0.163 HD
BRANCH   3   6
ATOM      6  C   UNL A   1      33.343  30.018  26.722  1.00  0.00     0.107 C 
ATOM      7  N   UNL A   1      32.816  27.837  25.593  1.00  0.00    -0.341 N 
ATOM      8  C   UNL A   1      33.349  29.132  25.273  1.00  0.00     0.133 C 
ATOM      9  C   UNL A   1      31.895  27.872  26.619  1.00  0.00     0.223 C 
ATOM     10  C   UNL A   1      31.803  29.287  27.107  1.00  0.00     0.115 C 
ATOM     11  O   UNL A   1      31.270  26.928  27.073  1.00  0.00    -0.275 OA
BRANCH   7  12
ATOM     12  C   UNL A   1      33.439  26.616  25.146  1.00  0.00     0.129 C 
BRANCH  12  13
ATOM     13  C   UNL A   1      32.689  25.939  24.001  1.00  0.00     0.122 C 
BRANCH  13  14
ATOM     14  C   UNL A   1      33.562  25.474  22.850  1.00  0.00     0.226 C 
ATOM     15  N   UNL A   1      33.939  24.171  22.662  1.00  0.00    -0.326 N 
ATOM     16  H   UNL A   1      34.489  24.025  21.858  1.00  0.00     0.169 HD
ATOM     17  O   UNL A   1      33.911  26.301  21.997  1.00  0.00    -0.275 OA
BRANCH  15  18
ATOM     18  C   UNL A   1      33.689  23.000  23.403  1.00  0.00     0.044 A 
ATOM     19  C   UNL A   1      34.784  22.567  24.764  1.00  0.00    -0.025 A 
ATOM     20  C   UNL A   1      34.790  20.857  25.393  1.00  0.00     0.006 A 
ATOM     21  C   UNL A   1      33.550  19.651  24.783  1.00  0.00     0.000 A 
ATOM     22  C   UNL A   1      32.421  21.839  22.893  1.00  0.00     0.026 A 
ATOM     23  C   UNL A   1      32.349  20.182  23.574  1.00  0.00     0.002 A 
BRANCH  19  24
ATOM     24  C   UNL A   1      35.668  23.564  25.501  1.00  0.00     0.034 C 
ATOM     25  C   UNL A   1      37.120  23.708  25.064  1.00  0.00     0.009 C 
ENDBRANCH  19  24
ENDBRANCH  15  18
ENDBRANCH  13  14
ENDBRANCH  12  13
ENDBRANCH   7  12
ENDBRANCH   3   6
ENDBRANCH   1   2
BRANCH   1  26
ATOM     26  C   UNL A   1      34.907  34.529  28.634  1.00  0.00     0.042 C 
BRANCH  26  27
ATOM     27  C   UNL A   1      33.481  34.132  28.942  1.00  0.00     0.118 C 
BRANCH  27  28
ATOM     28  N   UNL A   1      32.899  34.978  29.985  1.00  0.00    -0.352 N 
ATOM     29  C   UNL A   1      33.118  34.984  31.342  1.00  0.00     0.251 C 
ATOM     30  H   UNL A   1      32.250  35.646  29.666  1.00  0.00     0.163 HD
ATOM     31  O   UNL A   1      32.311  35.523  32.094  1.00  0.00    -0.269 OA
BRANCH  29  32
ATOM     32  C   UNL A   1      34.329  34.335  31.876  1.00  0.00     0.039 A 
ATOM     33  C   UNL A   1      34.356  32.956  32.093  1.00  0.00     0.014 A 
ATOM     34  C   UNL A   1      35.455  35.112  32.144  1.00  0.00     0.014 A 
ATOM     35  C   UNL A   1      35.543  32.357  32.513  1.00  0.00     0.010 A 
ATOM     36  C   UNL A   1      36.667  34.498  32.396  1.00  0.00     0.010 A 
ATOM     37  C   UNL A   1      36.718  33.120  32.626  1.00  0.00    -0.014 A 
BRANCH  37  38
ATOM     38  C   UNL A   1      38.011  32.528  33.037  1.00  0.00     0.031 A 
ATOM     39  C   UNL A   1      38.538  32.789  34.425  1.00  0.00     0.074 A 
ATOM     40  C   UNL A   1      38.741  31.834  32.143  1.00  0.00     0.049 A 
ATOM     41  N   UNL A   1      39.674  32.422  34.958  1.00  0.00    -0.248 NA
ATOM     42  C   UNL A   1      37.697  33.608  35.317  1.00  0.00     0.031 C 
ATOM     43  C   UNL A   1      38.354  31.562  30.757  1.00  0.00     0.029 A 
ATOM     44  N   UNL A   1      39.964  31.228  32.272  1.00  0.00    -0.354 N 
ATOM     45  C   UNL A   1      39.690  32.988  36.228  1.00  0.00     0.074 A 
ATOM     46  C   UNL A   1      38.497  33.790  36.354  1.00  0.00     0.031 C 
ATOM     47  C   UNL A   1      39.294  30.795  30.182  1.00  0.00     0.029 A 
ATOM     48  C   UNL A   1      40.372  30.569  31.137  1.00  0.00     0.049 A 
ATOM     49  H   UNL A   1      40.498  31.261  33.098  1.00  0.00     0.167 HD
ATOM     50  C   UNL A   1      40.604  32.831  37.215  1.00  0.00     0.031 A 
ATOM     51  C   UNL A   1      41.492  29.859  30.897  1.00  0.00     0.031 A 
ATOM     52  C   UNL A   1      41.785  32.024  37.077  1.00  0.00     0.049 A 
ATOM     53  C   UNL A   1      42.504  29.711  31.998  1.00  0.00     0.074 A 
ATOM     54  C   UNL A   1      42.748  31.740  38.026  1.00  0.00     0.029 A 
ATOM     55  N   UNL A   1      42.166  31.378  35.910  1.00  0.00    -0.354 N 
ATOM     56  N   UNL A   1      42.468  30.188  33.220  1.00  0.00    -0.248 NA
ATOM     57  C   UNL A   1      43.701  28.921  31.691  1.00  0.00     0.031 C 
ATOM     58  C   UNL A   1      43.751  30.985  37.411  1.00  0.00     0.029 A 
ATOM     59  C   UNL A   1      43.371  30.727  36.102  1.00  0.00     0.049 A 
ATOM     60  H   UNL A   1      41.654  31.383  35.068  1.00  0.00     0.167 HD
ATOM     61  C   UNL A   1      43.624  29.728  33.840  1.00  0.00     0.074 A 
ATOM     62  C   UNL A   1      44.329  28.926  32.859  1.00  0.00     0.031 C 
ATOM     63  C   UNL A   1      44.061  29.943  35.106  1.00  0.00     0.031 A 
BRANCH  50  64
ATOM     64  C   UNL A   1      40.360  33.570  38.508  1.00  0.00    -0.014 A 
ATOM     65  C   UNL A   1      39.557  33.024  39.528  1.00  0.00     0.010 A 
ATOM     66  C   UNL A   1      40.935  34.838  38.703  1.00  0.00     0.010 A 
ATOM     67  C   UNL A   1      39.277  33.760  40.682  1.00  0.00     0.020 A 
ATOM     68  C   UNL A   1      40.691  35.561  39.874  1.00  0.00     0.020 A 
ATOM     69  C   UNL A   1      39.842  35.027  40.844  1.00  0.00     0.054 A 
BRANCH  69  70
ATOM     70  S   UNL A   1      39.452  35.964  42.347  1.00  0.00     0.124 S 
ATOM     71  O   UNL A   1      39.482  37.341  41.859  1.00  0.00    -0.237 OA
ATOM     72  O   UNL A   1      38.131  35.455  42.707  1.00  0.00    -0.237 OA
ATOM     73  O   UNL A   1      40.528  35.607  43.269  1.00  0.00    -0.744 OA
ENDBRANCH  69  70
ENDBRANCH  50  64
BRANCH  51  74
ATOM     74  C   UNL A   1      41.677  29.203  29.575  1.00  0.00    -0.014 A 
ATOM     75  C   UNL A   1      42.418  29.842  28.564  1.00  0.00     0.010 A 
ATOM     76  C   UNL A   1      41.163  27.916  29.333  1.00  0.00     0.010 A 
ATOM     77  C   UNL A   1      42.638  29.209  27.338  1.00  0.00     0.020 A 
ATOM     78  C   UNL A   1      41.407  27.267  28.120  1.00  0.00     0.020 A 
ATOM     79  C   UNL A   1      42.141  27.920  27.128  1.00  0.00     0.054 A 
BRANCH  79  80
ATOM     80  S   UNL A   1      42.514  27.087  25.560  1.00  0.00     0.124 S 
ATOM     81  O   UNL A   1      41.413  26.137  25.449  1.00  0.00    -0.237 OA
ATOM     82  O   UNL A   1      42.496  28.194  24.607  1.00  0.00    -0.237 OA
ATOM     83  O   UNL A   1      43.832  26.496  25.791  1.00  0.00    -0.744 OA
ENDBRANCH  79  80
ENDBRANCH  51  74
BRANCH  63  84
ATOM     84  C   UNL A   1      45.346  29.274  35.519  1.00  0.00    -0.014 A 
ATOM     85  C   UNL A   1      46.586  29.926  35.394  1.00  0.00     0.010 A 
ATOM     86  C   UNL A   1      45.300  27.993  36.101  1.00  0.00     0.010 A 
ATOM     87  C   UNL A   1      47.759  29.293  35.813  1.00  0.00     0.020 A 
ATOM     88  C   UNL A   1      46.466  27.374  36.554  1.00  0.00     0.020 A 
ATOM     89  C   UNL A   1      47.691  28.023  36.393  1.00  0.00     0.054 A 
BRANCH  89  90
ATOM     90  S   UNL A   1      49.223  27.246  36.970  1.00  0.00     0.124 S 
ATOM     91  O   UNL A   1      50.001  27.156  35.739  1.00  0.00    -0.237 OA
ATOM     92  O   UNL A   1      49.714  28.206  37.956  1.00  0.00    -0.237 OA
ATOM     93  O   UNL A   1      48.779  25.967  37.522  1.00  0.00    -0.744 OA
ENDBRANCH  89  90
ENDBRANCH  63  84
ENDBRANCH  37  38
ENDBRANCH  29  32
ENDBRANCH  27  28
ENDBRANCH  26  27
ENDBRANCH   1  26
TORSDOF 18
ENDMDL
