MODEL 1
REMARK VINA RESULT:     -11.4      0.000      0.000
REMARK SMILES N#C/C(=C\c1ccc(-c2cc(C(F)(F)F)ccc2Cl)o1)C(=O)NCCCNC(=O)c1ccc(-c2c3nc(c(-c4ccc(S(=O)(=O)[O-])cc4)c4ccc([nH]4)c(-c4ccc(S(=O)(=O)[O-])cc4)c4nc(c(-c5ccc(S(=O)(=O)[O-])cc5)c5ccc2[nH]5)C=C4)C=C3)cc1
REMARK SMILES IDX 25 1 24 2 23 3 21 4 22 5 3 7 4 8 2 9 1 10 5 11 6 12 20 13
REMARK SMILES IDX 7 14 8 15 9 16 10 17 18 18 11 19 17 20 19 21 16 22 12 23
REMARK SMILES IDX 13 24 14 25 15 26 26 27 27 28 28 29 29 31 30 32 31 33 89 34
REMARK SMILES IDX 32 35 88 36 33 37 34 38 35 39 82 40 36 41 87 42 81 43 83 44
REMARK SMILES IDX 37 45 86 46 80 47 79 48 38 50 68 51 49 52 67 53 50 54 53 55
REMARK SMILES IDX 66 56 84 57 51 58 52 59 65 61 85 62 54 63 39 64 40 65 48 66
REMARK SMILES IDX 41 67 47 68 42 69 43 70 44 71 45 72 46 73 69 74 70 75 78 76
REMARK SMILES IDX 71 77 77 78 72 79 73 80 74 81 75 82 76 83 55 84 56 85 64 86
REMARK SMILES IDX 57 87 63 88 58 89 59 90 60 91 61 92 62 93
REMARK H PARENT 23 6 27 30 83 49 53 60
REMARK Flexibility Score: inf
ROOT
ATOM      1  C   UNL A   1      34.521  29.841  27.001  1.00  0.00     0.042 C 
ENDROOT
BRANCH   1   2
ATOM      2  C   UNL A   1      33.119  30.224  27.471  1.00  0.00     0.118 C 
BRANCH   2   3
ATOM      3  N   UNL A   1      32.209  30.392  26.351  1.00  0.00    -0.351 N 
ATOM      4  C   UNL A   1      31.713  29.530  25.422  1.00  0.00     0.262 C 
ATOM      5  O   UNL A   1      30.895  29.983  24.620  1.00  0.00    -0.268 OA
ATOM      6  H   UNL A   1      31.887  31.316  26.242  1.00  0.00     0.163 HD
BRANCH   4   7
ATOM      7  C   UNL A   1      32.087  28.096  25.356  1.00  0.00     0.120 C 
ATOM      8  C   UNL A   1      32.037  27.166  26.343  1.00  0.00     0.072 C 
BRANCH   7   9
ATOM      9  C   UNL A   1      32.687  27.589  24.055  1.00  0.00     0.105 C 
ATOM     10  N   UNL A   1      33.185  27.167  22.975  1.00  0.00    -0.192 NA
ENDBRANCH   7   9
BRANCH   8  11
ATOM     11  C   UNL A   1      32.449  25.796  26.174  1.00  0.00     0.129 A 
ATOM     12  C   UNL A   1      31.686  24.630  26.185  1.00  0.00     0.051 A 
ATOM     13  O   UNL A   1      33.762  25.416  25.928  1.00  0.00    -0.457 OA
ATOM     14  C   UNL A   1      32.548  23.531  25.996  1.00  0.00     0.051 A 
ATOM     15  C   UNL A   1      33.805  24.054  25.807  1.00  0.00     0.136 A 
BRANCH  15  16
ATOM     16  C   UNL A   1      35.086  23.429  25.491  1.00  0.00     0.036 A 
ATOM     17  C   UNL A   1      36.273  23.912  26.076  1.00  0.00     0.026 A 
ATOM     18  C   UNL A   1      35.164  22.276  24.685  1.00  0.00     0.052 A 
ATOM     19  C   UNL A   1      37.505  23.251  25.890  1.00  0.00     0.056 A 
ATOM     20  C   UNL A   1      36.386  21.622  24.485  1.00  0.00     0.022 A 
ATOM     21  Cl  UNL A   1      33.783  21.594  23.896  1.00  0.00    -0.084 Cl
ATOM     22  C   UNL A   1      37.547  22.101  25.087  1.00  0.00     0.014 A 
BRANCH  19  23
ATOM     23  C   UNL A   1      38.761  23.759  26.561  1.00  0.00     0.416 C 
ATOM     24  F   UNL A   1      38.563  24.087  27.867  1.00  0.00    -0.166 F 
ATOM     25  F   UNL A   1      39.766  22.841  26.550  1.00  0.00    -0.166 F 
ATOM     26  F   UNL A   1      39.277  24.876  25.973  1.00  0.00    -0.166 F 
ENDBRANCH  19  23
ENDBRANCH  15  16
ENDBRANCH   8  11
ENDBRANCH   4   7
ENDBRANCH   2   3
ENDBRANCH   1   2
BRANCH   1  27
ATOM     27  C   UNL A   1      35.609  30.682  27.662  1.00  0.00     0.118 C 
BRANCH  27  28
ATOM     28  N   UNL A   1      35.365  30.845  29.091  1.00  0.00    -0.352 N 
ATOM     29  C   UNL A   1      36.166  30.518  30.158  1.00  0.00     0.251 C 
ATOM     30  H   UNL A   1      34.499  31.250  29.325  1.00  0.00     0.163 HD
ATOM     31  O   UNL A   1      35.701  30.504  31.289  1.00  0.00    -0.269 OA
BRANCH  29  32
ATOM     32  C   UNL A   1      37.585  30.180  29.925  1.00  0.00     0.039 A 
ATOM     33  C   UNL A   1      38.386  29.802  31.006  1.00  0.00     0.014 A 
ATOM     34  C   UNL A   1      38.119  30.248  28.637  1.00  0.00     0.014 A 
ATOM     35  C   UNL A   1      39.715  29.433  30.784  1.00  0.00     0.010 A 
ATOM     36  C   UNL A   1      39.414  29.809  28.407  1.00  0.00     0.010 A 
ATOM     37  C   UNL A   1      40.227  29.404  29.478  1.00  0.00    -0.014 A 
BRANCH  37  38
ATOM     38  C   UNL A   1      41.614  28.972  29.179  1.00  0.00     0.031 A 
ATOM     39  C   UNL A   1      42.715  29.996  29.155  1.00  0.00     0.074 A 
ATOM     40  C   UNL A   1      41.854  27.703  28.800  1.00  0.00     0.049 A 
ATOM     41  N   UNL A   1      43.943  29.879  28.725  1.00  0.00    -0.248 NA
ATOM     42  C   UNL A   1      42.368  31.343  29.639  1.00  0.00     0.031 C 
ATOM     43  C   UNL A   1      40.860  26.630  28.754  1.00  0.00     0.029 A 
ATOM     44  N   UNL A   1      43.006  27.111  28.347  1.00  0.00    -0.354 N 
ATOM     45  C   UNL A   1      44.503  31.146  28.844  1.00  0.00     0.074 A 
ATOM     46  C   UNL A   1      43.468  32.022  29.349  1.00  0.00     0.031 C 
ATOM     47  C   UNL A   1      41.443  25.512  28.295  1.00  0.00     0.029 A 
ATOM     48  C   UNL A   1      42.836  25.800  27.967  1.00  0.00     0.049 A 
ATOM     49  H   UNL A   1      43.870  27.579  28.299  1.00  0.00     0.167 HD
ATOM     50  C   UNL A   1      45.768  31.541  28.562  1.00  0.00     0.031 A 
ATOM     51  C   UNL A   1      43.694  24.936  27.391  1.00  0.00     0.031 A 
ATOM     52  C   UNL A   1      46.789  30.655  28.073  1.00  0.00     0.049 A 
ATOM     53  C   UNL A   1      45.097  25.387  27.095  1.00  0.00     0.074 A 
ATOM     54  C   UNL A   1      48.120  30.932  27.823  1.00  0.00     0.029 A 
ATOM     55  N   UNL A   1      46.589  29.320  27.753  1.00  0.00    -0.354 N 
ATOM     56  N   UNL A   1      45.633  26.572  27.271  1.00  0.00    -0.248 NA
ATOM     57  C   UNL A   1      46.016  24.386  26.536  1.00  0.00     0.031 C 
ATOM     58  C   UNL A   1      48.712  29.779  27.298  1.00  0.00     0.029 A 
ATOM     59  C   UNL A   1      47.767  28.764  27.285  1.00  0.00     0.049 A 
ATOM     60  H   UNL A   1      45.736  28.838  27.845  1.00  0.00     0.167 HD
ATOM     61  C   UNL A   1      46.960  26.452  26.875  1.00  0.00     0.074 A 
ATOM     62  C   UNL A   1      47.146  25.079  26.448  1.00  0.00     0.031 C 
ATOM     63  C   UNL A   1      47.936  27.392  26.874  1.00  0.00     0.031 A 
BRANCH  50  64
ATOM     64  C   UNL A   1      46.095  33.000  28.749  1.00  0.00    -0.014 A 
ATOM     65  C   UNL A   1      45.919  33.932  27.710  1.00  0.00     0.010 A 
ATOM     66  C   UNL A   1      46.594  33.446  29.987  1.00  0.00     0.010 A 
ATOM     67  C   UNL A   1      46.306  35.265  27.879  1.00  0.00     0.020 A 
ATOM     68  C   UNL A   1      46.948  34.785  30.172  1.00  0.00     0.020 A 
ATOM     69  C   UNL A   1      46.829  35.680  29.107  1.00  0.00     0.054 A 
BRANCH  69  70
ATOM     70  S   UNL A   1      47.347  37.407  29.293  1.00  0.00     0.124 S 
ATOM     71  O   UNL A   1      48.801  37.295  29.205  1.00  0.00    -0.237 OA
ATOM     72  O   UNL A   1      46.699  38.061  28.158  1.00  0.00    -0.237 OA
ATOM     73  O   UNL A   1      46.829  37.786  30.605  1.00  0.00    -0.744 OA
ENDBRANCH  69  70
ENDBRANCH  50  64
BRANCH  51  74
ATOM     74  C   UNL A   1      43.234  23.558  27.074  1.00  0.00    -0.014 A 
ATOM     75  C   UNL A   1      43.051  23.157  25.739  1.00  0.00     0.010 A 
ATOM     76  C   UNL A   1      43.055  22.613  28.102  1.00  0.00     0.010 A 
ATOM     77  C   UNL A   1      42.707  21.837  25.437  1.00  0.00     0.020 A 
ATOM     78  C   UNL A   1      42.735  21.285  27.802  1.00  0.00     0.020 A 
ATOM     79  C   UNL A   1      42.563  20.906  26.470  1.00  0.00     0.054 A 
BRANCH  79  80
ATOM     80  S   UNL A   1      42.219  19.176  26.045  1.00  0.00     0.124 S 
ATOM     81  O   UNL A   1      43.056  18.980  24.866  1.00  0.00    -0.237 OA
ATOM     82  O   UNL A   1      42.644  18.466  27.250  1.00  0.00    -0.237 OA
ATOM     83  O   UNL A   1      40.778  19.163  25.801  1.00  0.00    -0.744 OA
ENDBRANCH  79  80
ENDBRANCH  51  74
BRANCH  63  84
ATOM     84  C   UNL A   1      49.318  26.973  26.450  1.00  0.00    -0.014 A 
ATOM     85  C   UNL A   1      50.190  26.318  27.337  1.00  0.00     0.010 A 
ATOM     86  C   UNL A   1      49.699  27.135  25.105  1.00  0.00     0.010 A 
ATOM     87  C   UNL A   1      51.420  25.833  26.884  1.00  0.00     0.020 A 
ATOM     88  C   UNL A   1      50.916  26.629  24.643  1.00  0.00     0.020 A 
ATOM     89  C   UNL A   1      51.770  25.984  25.538  1.00  0.00     0.054 A 
BRANCH  89  90
ATOM     90  S   UNL A   1      53.329  25.260  24.955  1.00  0.00     0.124 S 
ATOM     91  O   UNL A   1      53.291  25.566  23.528  1.00  0.00    -0.237 OA
ATOM     92  O   UNL A   1      54.329  25.991  25.728  1.00  0.00    -0.237 OA
ATOM     93  O   UNL A   1      53.201  23.844  25.292  1.00  0.00    -0.744 OA
ENDBRANCH  89  90
ENDBRANCH  63  84
ENDBRANCH  37  38
ENDBRANCH  29  32
ENDBRANCH  27  28
ENDBRANCH   1  27
TORSDOF 17
ENDMDL
MODEL 2
REMARK VINA RESULT:     -11.2      2.101      8.390
REMARK SMILES N#C/C(=C\c1ccc(-c2cc(C(F)(F)F)ccc2Cl)o1)C(=O)NCCCNC(=O)c1ccc(-c2c3nc(c(-c4ccc(S(=O)(=O)[O-])cc4)c4ccc([nH]4)c(-c4ccc(S(=O)(=O)[O-])cc4)c4nc(c(-c5ccc(S(=O)(=O)[O-])cc5)c5ccc2[nH]5)C=C4)C=C3)cc1
REMARK SMILES IDX 25 1 24 2 23 3 21 4 22 5 3 7 4 8 2 9 1 10 5 11 6 12 20 13
REMARK SMILES IDX 7 14 8 15 9 16 10 17 18 18 11 19 17 20 19 21 16 22 12 23
REMARK SMILES IDX 13 24 14 25 15 26 26 27 27 28 28 29 29 31 30 32 31 33 89 34
REMARK SMILES IDX 32 35 88 36 33 37 34 38 35 39 82 40 36 41 87 42 81 43 83 44
REMARK SMILES IDX 37 45 86 46 80 47 79 48 38 50 68 51 49 52 67 53 50 54 53 55
REMARK SMILES IDX 66 56 84 57 51 58 52 59 65 61 85 62 54 63 39 64 40 65 48 66
REMARK SMILES IDX 41 67 47 68 42 69 43 70 44 71 45 72 46 73 69 74 70 75 78 76
REMARK SMILES IDX 71 77 77 78 72 79 73 80 74 81 75 82 76 83 55 84 56 85 64 86
REMARK SMILES IDX 57 87 63 88 58 89 59 90 60 91 61 92 62 93
REMARK H PARENT 23 6 27 30 83 49 53 60
REMARK Flexibility Score: inf
ROOT
ATOM      1  C   UNL A   1      34.186  29.817  27.258  1.00  0.00     0.042 C 
ENDROOT
BRANCH   1   2
ATOM      2  C   UNL A   1      33.920  28.965  26.019  1.00  0.00     0.118 C 
BRANCH   2   3
ATOM      3  N   UNL A   1      32.696  29.367  25.348  1.00  0.00    -0.351 N 
ATOM      4  C   UNL A   1      31.600  28.677  24.928  1.00  0.00     0.262 C 
ATOM      5  O   UNL A   1      30.684  29.334  24.433  1.00  0.00    -0.268 OA
ATOM      6  H   UNL A   1      32.651  30.331  25.158  1.00  0.00     0.163 HD
BRANCH   4   7
ATOM      7  C   UNL A   1      31.458  27.207  25.063  1.00  0.00     0.120 C 
ATOM      8  C   UNL A   1      31.472  26.461  26.197  1.00  0.00     0.072 C 
BRANCH   7   9
ATOM      9  C   UNL A   1      31.368  26.391  23.784  1.00  0.00     0.105 C 
ATOM     10  N   UNL A   1      31.293  25.714  22.723  1.00  0.00    -0.192 NA
ENDBRANCH   7   9
BRANCH   8  11
ATOM     11  C   UNL A   1      31.346  25.025  26.212  1.00  0.00     0.129 A 
ATOM     12  C   UNL A   1      30.238  24.233  26.505  1.00  0.00     0.051 A 
ATOM     13  O   UNL A   1      32.384  24.162  25.884  1.00  0.00    -0.457 OA
ATOM     14  C   UNL A   1      30.619  22.879  26.404  1.00  0.00     0.051 A 
ATOM     15  C   UNL A   1      31.929  22.876  25.988  1.00  0.00     0.136 A 
BRANCH  15  16
ATOM     16  C   UNL A   1      32.840  21.791  25.635  1.00  0.00     0.036 A 
ATOM     17  C   UNL A   1      32.369  20.678  24.912  1.00  0.00     0.026 A 
ATOM     18  C   UNL A   1      34.219  21.869  25.910  1.00  0.00     0.052 A 
ATOM     19  C   UNL A   1      33.248  19.678  24.447  1.00  0.00     0.056 A 
ATOM     20  C   UNL A   1      35.097  20.873  25.464  1.00  0.00     0.022 A 
ATOM     21  Cl  UNL A   1      34.920  23.174  26.805  1.00  0.00    -0.084 Cl
ATOM     22  C   UNL A   1      34.617  19.789  24.733  1.00  0.00     0.014 A 
BRANCH  19  23
ATOM     23  C   UNL A   1      32.730  18.513  23.635  1.00  0.00     0.416 C 
ATOM     24  F   UNL A   1      31.825  17.759  24.315  1.00  0.00    -0.166 F 
ATOM     25  F   UNL A   1      32.108  18.910  22.491  1.00  0.00    -0.166 F 
ATOM     26  F   UNL A   1      33.709  17.649  23.239  1.00  0.00    -0.166 F 
ENDBRANCH  19  23
ENDBRANCH  15  16
ENDBRANCH   8  11
ENDBRANCH   4   7
ENDBRANCH   2   3
ENDBRANCH   1   2
BRANCH   1  27
ATOM     27  C   UNL A   1      35.544  29.524  27.889  1.00  0.00     0.118 C 
BRANCH  27  28
ATOM     28  N   UNL A   1      35.522  29.741  29.331  1.00  0.00    -0.352 N 
ATOM     29  C   UNL A   1      36.528  29.587  30.254  1.00  0.00     0.251 C 
ATOM     30  H   UNL A   1      34.660  30.042  29.697  1.00  0.00     0.163 HD
ATOM     31  O   UNL A   1      36.265  29.581  31.448  1.00  0.00    -0.269 OA
BRANCH  29  32
ATOM     32  C   UNL A   1      37.921  29.424  29.791  1.00  0.00     0.039 A 
ATOM     33  C   UNL A   1      38.882  28.916  30.670  1.00  0.00     0.014 A 
ATOM     34  C   UNL A   1      38.273  29.786  28.489  1.00  0.00     0.014 A 
ATOM     35  C   UNL A   1      40.189  28.714  30.221  1.00  0.00     0.010 A 
ATOM     36  C   UNL A   1      39.550  29.514  28.022  1.00  0.00     0.010 A 
ATOM     37  C   UNL A   1      40.523  28.982  28.885  1.00  0.00    -0.014 A 
BRANCH  37  38
ATOM     38  C   UNL A   1      41.881  28.738  28.343  1.00  0.00     0.031 A 
ATOM     39  C   UNL A   1      42.250  27.357  27.876  1.00  0.00     0.074 A 
ATOM     40  C   UNL A   1      42.810  29.711  28.399  1.00  0.00     0.049 A 
ATOM     41  N   UNL A   1      43.425  26.878  27.562  1.00  0.00    -0.248 NA
ATOM     42  C   UNL A   1      41.155  26.376  27.797  1.00  0.00     0.031 C 
ATOM     43  C   UNL A   1      42.576  31.079  28.863  1.00  0.00     0.029 A 
ATOM     44  N   UNL A   1      44.147  29.684  28.096  1.00  0.00    -0.354 N 
ATOM     45  C   UNL A   1      43.218  25.530  27.292  1.00  0.00     0.074 A 
ATOM     46  C   UNL A   1      41.814  25.262  27.518  1.00  0.00     0.031 C 
ATOM     47  C   UNL A   1      43.732  31.761  28.816  1.00  0.00     0.029 A 
ATOM     48  C   UNL A   1      44.795  30.866  28.370  1.00  0.00     0.049 A 
ATOM     49  H   UNL A   1      44.600  28.896  27.719  1.00  0.00     0.167 HD
ATOM     50  C   UNL A   1      44.118  24.601  26.887  1.00  0.00     0.031 A 
ATOM     51  C   UNL A   1      46.102  31.186  28.299  1.00  0.00     0.031 A 
ATOM     52  C   UNL A   1      45.507  24.886  26.655  1.00  0.00     0.049 A 
ATOM     53  C   UNL A   1      47.086  30.148  27.838  1.00  0.00     0.074 A 
ATOM     54  C   UNL A   1      46.491  24.040  26.175  1.00  0.00     0.029 A 
ATOM     55  N   UNL A   1      46.113  26.113  26.891  1.00  0.00    -0.354 N 
ATOM     56  N   UNL A   1      46.867  28.892  27.525  1.00  0.00    -0.248 NA
ATOM     57  C   UNL A   1      48.488  30.568  27.707  1.00  0.00     0.031 C 
ATOM     58  C   UNL A   1      47.702  24.739  26.175  1.00  0.00     0.029 A 
ATOM     59  C   UNL A   1      47.462  26.040  26.590  1.00  0.00     0.049 A 
ATOM     60  H   UNL A   1      45.651  26.916  27.224  1.00  0.00     0.167 HD
ATOM     61  C   UNL A   1      48.097  28.380  27.129  1.00  0.00     0.074 A 
ATOM     62  C   UNL A   1      49.056  29.460  27.243  1.00  0.00     0.031 C 
ATOM     63  C   UNL A   1      48.400  27.130  26.701  1.00  0.00     0.031 A 
BRANCH  50  64
ATOM     64  C   UNL A   1      43.621  23.190  26.706  1.00  0.00    -0.014 A 
ATOM     65  C   UNL A   1      43.051  22.469  27.771  1.00  0.00     0.010 A 
ATOM     66  C   UNL A   1      43.734  22.571  25.447  1.00  0.00     0.010 A 
ATOM     67  C   UNL A   1      42.673  21.134  27.600  1.00  0.00     0.020 A 
ATOM     68  C   UNL A   1      43.324  21.248  25.263  1.00  0.00     0.020 A 
ATOM     69  C   UNL A   1      42.823  20.529  26.349  1.00  0.00     0.054 A 
BRANCH  69  70
ATOM     70  S   UNL A   1      42.349  18.789  26.162  1.00  0.00     0.124 S 
ATOM     71  O   UNL A   1      43.331  18.314  25.190  1.00  0.00    -0.237 OA
ATOM     72  O   UNL A   1      42.506  18.265  27.517  1.00  0.00    -0.237 OA
ATOM     73  O   UNL A   1      40.973  18.854  25.677  1.00  0.00    -0.744 OA
ENDBRANCH  69  70
ENDBRANCH  50  64
BRANCH  51  74
ATOM     74  C   UNL A   1      46.534  32.561  28.670  1.00  0.00    -0.014 A 
ATOM     75  C   UNL A   1      46.577  33.579  27.703  1.00  0.00     0.010 A 
ATOM     76  C   UNL A   1      46.825  32.877  30.011  1.00  0.00     0.010 A 
ATOM     77  C   UNL A   1      46.894  34.890  28.070  1.00  0.00     0.020 A 
ATOM     78  C   UNL A   1      47.118  34.192  30.385  1.00  0.00     0.020 A 
ATOM     79  C   UNL A   1      47.152  35.191  29.411  1.00  0.00     0.054 A 
BRANCH  79  80
ATOM     80  S   UNL A   1      47.458  36.917  29.875  1.00  0.00     0.124 S 
ATOM     81  O   UNL A   1      46.212  37.565  29.480  1.00  0.00    -0.237 OA
ATOM     82  O   UNL A   1      47.693  36.819  31.315  1.00  0.00    -0.237 OA
ATOM     83  O   UNL A   1      48.633  37.281  29.086  1.00  0.00    -0.744 OA
ENDBRANCH  79  80
ENDBRANCH  51  74
BRANCH  63  84
ATOM     84  C   UNL A   1      49.815  26.857  26.267  1.00  0.00    -0.014 A 
ATOM     85  C   UNL A   1      50.735  26.225  27.121  1.00  0.00     0.010 A 
ATOM     86  C   UNL A   1      50.188  27.134  24.938  1.00  0.00     0.010 A 
ATOM     87  C   UNL A   1      52.004  25.876  26.653  1.00  0.00     0.020 A 
ATOM     88  C   UNL A   1      51.446  26.763  24.460  1.00  0.00     0.020 A 
ATOM     89  C   UNL A   1      52.348  26.139  25.322  1.00  0.00     0.054 A 
BRANCH  89  90
ATOM     90  S   UNL A   1      53.966  25.588  24.713  1.00  0.00     0.124 S 
ATOM     91  O   UNL A   1      53.988  26.143  23.363  1.00  0.00    -0.237 OA
ATOM     92  O   UNL A   1      54.891  26.205  25.661  1.00  0.00    -0.237 OA
ATOM     93  O   UNL A   1      53.887  24.131  24.786  1.00  0.00    -0.744 OA
ENDBRANCH  89  90
ENDBRANCH  63  84
ENDBRANCH  37  38
ENDBRANCH  29  32
ENDBRANCH  27  28
ENDBRANCH   1  27
TORSDOF 17
ENDMDL
MODEL 3
REMARK VINA RESULT:     -11.0      3.451      9.470
REMARK SMILES N#C/C(=C\c1ccc(-c2cc(C(F)(F)F)ccc2Cl)o1)C(=O)NCCCNC(=O)c1ccc(-c2c3nc(c(-c4ccc(S(=O)(=O)[O-])cc4)c4ccc([nH]4)c(-c4ccc(S(=O)(=O)[O-])cc4)c4nc(c(-c5ccc(S(=O)(=O)[O-])cc5)c5ccc2[nH]5)C=C4)C=C3)cc1
REMARK SMILES IDX 25 1 24 2 23 3 21 4 22 5 3 7 4 8 2 9 1 10 5 11 6 12 20 13
REMARK SMILES IDX 7 14 8 15 9 16 10 17 18 18 11 19 17 20 19 21 16 22 12 23
REMARK SMILES IDX 13 24 14 25 15 26 26 27 27 28 28 29 29 31 30 32 31 33 89 34
REMARK SMILES IDX 32 35 88 36 33 37 34 38 35 39 82 40 36 41 87 42 81 43 83 44
REMARK SMILES IDX 37 45 86 46 80 47 79 48 38 50 68 51 49 52 67 53 50 54 53 55
REMARK SMILES IDX 66 56 84 57 51 58 52 59 65 61 85 62 54 63 39 64 40 65 48 66
REMARK SMILES IDX 41 67 47 68 42 69 43 70 44 71 45 72 46 73 69 74 70 75 78 76
REMARK SMILES IDX 71 77 77 78 72 79 73 80 74 81 75 82 76 83 55 84 56 85 64 86
REMARK SMILES IDX 57 87 63 88 58 89 59 90 60 91 61 92 62 93
REMARK H PARENT 23 6 27 30 83 49 53 60
REMARK Flexibility Score: inf
ROOT
ATOM      1  C   UNL A   1      42.616  18.906  26.846  1.00  0.00     0.042 C 
ENDROOT
BRANCH   1   2
ATOM      2  C   UNL A   1      41.611  19.752  27.626  1.00  0.00     0.118 C 
BRANCH   2   3
ATOM      3  N   UNL A   1      42.184  21.024  28.030  1.00  0.00    -0.351 N 
ATOM      4  C   UNL A   1      41.719  22.303  27.995  1.00  0.00     0.262 C 
ATOM      5  O   UNL A   1      42.443  23.173  28.480  1.00  0.00    -0.268 OA
ATOM      6  H   UNL A   1      43.091  20.945  28.404  1.00  0.00     0.163 HD
BRANCH   4   7
ATOM      7  C   UNL A   1      40.399  22.678  27.434  1.00  0.00     0.120 C 
ATOM      8  C   UNL A   1      39.661  22.019  26.504  1.00  0.00     0.072 C 
BRANCH   7   9
ATOM      9  C   UNL A   1      39.803  24.006  27.870  1.00  0.00     0.105 C 
ATOM     10  N   UNL A   1      39.310  25.109  28.232  1.00  0.00    -0.192 NA
ENDBRANCH   7   9
BRANCH   8  11
ATOM     11  C   UNL A   1      38.391  22.487  26.010  1.00  0.00     0.129 A 
ATOM     12  C   UNL A   1      38.054  23.718  25.453  1.00  0.00     0.051 A 
ATOM     13  O   UNL A   1      37.242  21.707  25.992  1.00  0.00    -0.457 OA
ATOM     14  C   UNL A   1      36.679  23.705  25.140  1.00  0.00     0.051 A 
ATOM     15  C   UNL A   1      36.225  22.445  25.452  1.00  0.00     0.136 A 
BRANCH  15  16
ATOM     16  C   UNL A   1      34.922  21.806  25.282  1.00  0.00     0.036 A 
ATOM     17  C   UNL A   1      34.843  20.442  24.942  1.00  0.00     0.026 A 
ATOM     18  C   UNL A   1      33.723  22.495  25.549  1.00  0.00     0.052 A 
ATOM     19  C   UNL A   1      33.605  19.766  24.896  1.00  0.00     0.056 A 
ATOM     20  C   UNL A   1      32.489  21.835  25.493  1.00  0.00     0.022 A 
ATOM     21  Cl  UNL A   1      33.684  24.176  25.960  1.00  0.00    -0.084 Cl
ATOM     22  C   UNL A   1      32.430  20.480  25.175  1.00  0.00     0.014 A 
BRANCH  19  23
ATOM     23  C   UNL A   1      33.543  18.292  24.572  1.00  0.00     0.416 C 
ATOM     24  F   UNL A   1      33.043  17.549  25.596  1.00  0.00    -0.166 F 
ATOM     25  F   UNL A   1      32.756  18.027  23.493  1.00  0.00    -0.166 F 
ATOM     26  F   UNL A   1      34.760  17.748  24.281  1.00  0.00    -0.166 F 
ENDBRANCH  19  23
ENDBRANCH  15  16
ENDBRANCH   8  11
ENDBRANCH   4   7
ENDBRANCH   2   3
ENDBRANCH   1   2
BRANCH   1  27
ATOM     27  C   UNL A   1      42.609  19.220  25.353  1.00  0.00     0.118 C 
BRANCH  27  28
ATOM     28  N   UNL A   1      43.846  18.789  24.710  1.00  0.00    -0.352 N 
ATOM     29  C   UNL A   1      44.894  19.542  24.237  1.00  0.00     0.251 C 
ATOM     30  H   UNL A   1      43.944  17.816  24.600  1.00  0.00     0.163 HD
ATOM     31  O   UNL A   1      45.735  19.028  23.514  1.00  0.00    -0.269 OA
BRANCH  29  32
ATOM     32  C   UNL A   1      44.989  20.968  24.605  1.00  0.00     0.039 A 
ATOM     33  C   UNL A   1      45.355  21.318  25.908  1.00  0.00     0.014 A 
ATOM     34  C   UNL A   1      44.704  21.956  23.660  1.00  0.00     0.014 A 
ATOM     35  C   UNL A   1      45.496  22.665  26.247  1.00  0.00     0.010 A 
ATOM     36  C   UNL A   1      44.917  23.290  23.976  1.00  0.00     0.010 A 
ATOM     37  C   UNL A   1      45.308  23.658  25.273  1.00  0.00    -0.014 A 
BRANCH  37  38
ATOM     38  C   UNL A   1      45.492  25.100  25.565  1.00  0.00     0.031 A 
ATOM     39  C   UNL A   1      46.876  25.687  25.529  1.00  0.00     0.074 A 
ATOM     40  C   UNL A   1      44.449  25.837  25.990  1.00  0.00     0.049 A 
ATOM     41  N   UNL A   1      47.289  26.857  25.943  1.00  0.00    -0.248 NA
ATOM     42  C   UNL A   1      47.942  24.822  24.998  1.00  0.00     0.031 C 
ATOM     43  C   UNL A   1      43.067  25.367  26.097  1.00  0.00     0.029 A 
ATOM     44  N   UNL A   1      44.398  27.130  26.447  1.00  0.00    -0.354 N 
ATOM     45  C   UNL A   1      48.667  26.851  25.764  1.00  0.00     0.074 A 
ATOM     46  C   UNL A   1      49.022  25.549  25.242  1.00  0.00     0.031 C 
ATOM     47  C   UNL A   1      42.304  26.355  26.589  1.00  0.00     0.029 A 
ATOM     48  C   UNL A   1      43.150  27.509  26.882  1.00  0.00     0.049 A 
ATOM     49  H   UNL A   1      45.180  27.728  26.462  1.00  0.00     0.167 HD
ATOM     50  C   UNL A   1      49.555  27.845  26.008  1.00  0.00     0.031 A 
ATOM     51  C   UNL A   1      42.737  28.645  27.477  1.00  0.00     0.031 A 
ATOM     52  C   UNL A   1      49.185  29.138  26.515  1.00  0.00     0.049 A 
ATOM     53  C   UNL A   1      43.732  29.742  27.731  1.00  0.00     0.074 A 
ATOM     54  C   UNL A   1      49.991  30.240  26.731  1.00  0.00     0.029 A 
ATOM     55  N   UNL A   1      47.899  29.500  26.892  1.00  0.00    -0.354 N 
ATOM     56  N   UNL A   1      45.024  29.748  27.499  1.00  0.00    -0.248 NA
ATOM     57  C   UNL A   1      43.218  30.988  28.314  1.00  0.00     0.031 C 
ATOM     58  C   UNL A   1      49.203  31.251  27.291  1.00  0.00     0.029 A 
ATOM     59  C   UNL A   1      47.893  30.802  27.361  1.00  0.00     0.049 A 
ATOM     60  H   UNL A   1      47.107  28.917  26.833  1.00  0.00     0.167 HD
ATOM     61  C   UNL A   1      45.472  31.008  27.876  1.00  0.00     0.074 A 
ATOM     62  C   UNL A   1      44.314  31.737  28.355  1.00  0.00     0.031 C 
ATOM     63  C   UNL A   1      46.728  31.515  27.823  1.00  0.00     0.031 A 
BRANCH  50  64
ATOM     64  C   UNL A   1      51.011  27.548  25.758  1.00  0.00    -0.014 A 
ATOM     65  C   UNL A   1      51.830  26.988  26.756  1.00  0.00     0.010 A 
ATOM     66  C   UNL A   1      51.573  27.841  24.501  1.00  0.00     0.010 A 
ATOM     67  C   UNL A   1      53.196  26.798  26.528  1.00  0.00     0.020 A 
ATOM     68  C   UNL A   1      52.931  27.619  24.257  1.00  0.00     0.020 A 
ATOM     69  C   UNL A   1      53.740  27.126  25.282  1.00  0.00     0.054 A 
BRANCH  69  70
ATOM     70  S   UNL A   1      55.519  26.893  25.021  1.00  0.00     0.124 S 
ATOM     71  O   UNL A   1      55.728  27.587  23.753  1.00  0.00    -0.237 OA
ATOM     72  O   UNL A   1      56.103  27.541  26.194  1.00  0.00    -0.237 OA
ATOM     73  O   UNL A   1      55.676  25.442  24.971  1.00  0.00    -0.744 OA
ENDBRANCH  69  70
ENDBRANCH  50  64
BRANCH  51  74
ATOM     74  C   UNL A   1      41.305  28.786  27.857  1.00  0.00    -0.014 A 
ATOM     75  C   UNL A   1      40.915  28.706  29.204  1.00  0.00     0.010 A 
ATOM     76  C   UNL A   1      40.336  29.084  26.880  1.00  0.00     0.010 A 
ATOM     77  C   UNL A   1      39.585  28.930  29.571  1.00  0.00     0.020 A 
ATOM     78  C   UNL A   1      39.010  29.334  27.246  1.00  0.00     0.020 A 
ATOM     79  C   UNL A   1      38.642  29.254  28.590  1.00  0.00     0.054 A 
BRANCH  79  80
ATOM     80  S   UNL A   1      36.946  29.641  29.103  1.00  0.00     0.124 S 
ATOM     81  O   UNL A   1      36.856  28.965  30.393  1.00  0.00    -0.237 OA
ATOM     82  O   UNL A   1      36.959  31.102  29.152  1.00  0.00    -0.237 OA
ATOM     83  O   UNL A   1      36.126  29.071  28.037  1.00  0.00    -0.744 OA
ENDBRANCH  79  80
ENDBRANCH  51  74
BRANCH  63  84
ATOM     84  C   UNL A   1      46.927  32.948  28.240  1.00  0.00    -0.014 A 
ATOM     85  C   UNL A   1      46.779  34.005  27.325  1.00  0.00     0.010 A 
ATOM     86  C   UNL A   1      47.149  33.240  29.599  1.00  0.00     0.010 A 
ATOM     87  C   UNL A   1      46.851  35.330  27.764  1.00  0.00     0.020 A 
ATOM     88  C   UNL A   1      47.196  34.562  30.045  1.00  0.00     0.020 A 
ATOM     89  C   UNL A   1      47.050  35.599  29.123  1.00  0.00     0.054 A 
BRANCH  89  90
ATOM     90  S   UNL A   1      47.042  37.326  29.681  1.00  0.00     0.124 S 
ATOM     91  O   UNL A   1      46.231  37.251  30.893  1.00  0.00    -0.237 OA
ATOM     92  O   UNL A   1      48.462  37.600  29.890  1.00  0.00    -0.237 OA
ATOM     93  O   UNL A   1      46.432  38.048  28.567  1.00  0.00    -0.744 OA
ENDBRANCH  89  90
ENDBRANCH  63  84
ENDBRANCH  37  38
ENDBRANCH  29  32
ENDBRANCH  27  28
ENDBRANCH   1  27
TORSDOF 17
ENDMDL
