MODEL 1
REMARK VINA RESULT:     -13.1      0.000      0.000
REMARK SMILES CC1(C)CC(=O)C(C)(C)c2ccc(NC(=O)c3ccc(C(=O)NCCCNC(=O)c4ccc(-c5c6nc(c(-c7ccc(S(=O)(=O)[O-])cc7)c7ccc([nH]7)c(-c7ccc(S(=O)(=O)[O-])cc7)c7nc(c(-c8ccc(S(=O)(=O)[O-])cc8)c8ccc5[nH]8)C=C7)C=C6)cc4)cc3)cc21
REMARK SMILES IDX 25 1 24 2 23 3 21 4 22 5 20 7 17 8 18 9 91 10 19 11 90 12
REMARK SMILES IDX 15 13 14 14 16 16 13 17 1 18 2 19 3 20 4 21 93 22 5 23 10 24
REMARK SMILES IDX 92 25 6 26 7 27 11 28 8 29 9 30 12 31 26 32 27 33 28 34
REMARK SMILES IDX 29 36 30 37 31 38 89 39 32 40 88 41 33 42 34 43 35 44 82 45
REMARK SMILES IDX 36 46 87 47 81 48 83 49 37 50 86 51 80 52 79 53 38 55 68 56
REMARK SMILES IDX 49 57 67 58 50 59 53 60 66 61 84 62 51 63 52 64 65 66 85 67
REMARK SMILES IDX 54 68 39 69 40 70 48 71 41 72 47 73 42 74 43 75 44 76 45 77
REMARK SMILES IDX 46 78 69 79 70 80 78 81 71 82 77 83 72 84 73 85 74 86 75 87
REMARK SMILES IDX 76 88 55 89 56 90 64 91 57 92 63 93 58 94 59 95 60 96 61 97
REMARK SMILES IDX 62 98
REMARK H PARENT 23 6 14 15 27 35 83 54 53 65
REMARK Flexibility Score: inf
ROOT
ATOM      1  C   UNL A   1      35.912  23.168  23.751  1.00  0.00     0.042 C 
ENDROOT
BRANCH   1   2
ATOM      2  C   UNL A   1      34.456  22.886  24.099  1.00  0.00     0.118 C 
BRANCH   2   3
ATOM      3  N   UNL A   1      33.486  23.684  23.365  1.00  0.00    -0.352 N 
ATOM      4  C   UNL A   1      33.218  25.031  23.296  1.00  0.00     0.251 C 
ATOM      5  O   UNL A   1      32.393  25.385  22.450  1.00  0.00    -0.269 OA
ATOM      6  H   UNL A   1      32.894  23.143  22.793  1.00  0.00     0.163 HD
BRANCH   4   7
ATOM      7  C   UNL A   1      33.749  26.054  24.249  1.00  0.00     0.039 A 
ATOM      8  C   UNL A   1      34.020  28.284  25.921  1.00  0.00     0.040 A 
ATOM      9  C   UNL A   1      34.180  28.441  24.546  1.00  0.00     0.014 A 
ATOM     10  C   UNL A   1      33.987  27.000  26.466  1.00  0.00     0.014 A 
ATOM     11  C   UNL A   1      34.018  27.327  23.715  1.00  0.00     0.014 A 
ATOM     12  C   UNL A   1      33.896  25.885  25.624  1.00  0.00     0.014 A 
BRANCH   8  13
ATOM     13  C   UNL A   1      33.855  29.435  26.828  1.00  0.00     0.255 C 
ATOM     14  N   UNL A   1      32.834  30.354  26.694  1.00  0.00    -0.322 N 
ATOM     15  H   UNL A   1      32.915  31.109  27.320  1.00  0.00     0.170 HD
ATOM     16  O   UNL A   1      34.672  29.568  27.740  1.00  0.00    -0.269 OA
BRANCH  14  17
ATOM     17  C   UNL A   1      31.698  30.456  25.860  1.00  0.00     0.041 A 
ATOM     18  C   UNL A   1      30.890  28.402  22.095  1.00  0.00     0.016 C 
ATOM     19  C   UNL A   1      29.786  28.465  23.178  1.00  0.00    -0.003 C 
ATOM     20  C   UNL A   1      29.695  27.097  23.892  1.00  0.00     0.016 C 
ATOM     21  C   UNL A   1      28.432  28.674  22.486  1.00  0.00     0.087 C 
ATOM     22  C   UNL A   1      30.134  29.614  24.143  1.00  0.00    -0.036 A 
ATOM     23  C   UNL A   1      28.328  30.082  21.963  1.00  0.00     0.143 C 
ATOM     24  C   UNL A   1      29.569  30.900  24.013  1.00  0.00    -0.031 A 
ATOM     25  C   UNL A   1      31.145  29.414  25.118  1.00  0.00     0.030 A 
ATOM     26  O   UNL A   1      28.081  30.290  20.775  1.00  0.00    -0.299 OA
ATOM     27  C   UNL A   1      28.454  31.200  23.004  1.00  0.00     0.049 C 
ATOM     28  C   UNL A   1      30.036  31.918  24.869  1.00  0.00     0.007 A 
ATOM     29  C   UNL A   1      28.699  32.525  22.251  1.00  0.00     0.024 C 
ATOM     30  C   UNL A   1      27.105  31.279  23.742  1.00  0.00     0.024 C 
ATOM     31  C   UNL A   1      31.094  31.706  25.760  1.00  0.00     0.026 A 
ENDBRANCH  14  17
ENDBRANCH   8  13
ENDBRANCH   4   7
ENDBRANCH   2   3
ENDBRANCH   1   2
BRANCH   1  32
ATOM     32  C   UNL A   1      36.778  23.664  24.895  1.00  0.00     0.118 C 
BRANCH  32  33
ATOM     33  N   UNL A   1      37.852  22.747  25.256  1.00  0.00    -0.352 N 
ATOM     34  C   UNL A   1      39.017  22.912  25.975  1.00  0.00     0.251 C 
ATOM     35  H   UNL A   1      37.721  21.830  24.921  1.00  0.00     0.163 HD
ATOM     36  O   UNL A   1      39.828  21.994  26.001  1.00  0.00    -0.269 OA
BRANCH  34  37
ATOM     37  C   UNL A   1      39.326  24.184  26.677  1.00  0.00     0.039 A 
ATOM     38  C   UNL A   1      39.968  25.235  26.033  1.00  0.00     0.014 A 
ATOM     39  C   UNL A   1      38.926  24.346  28.010  1.00  0.00     0.014 A 
ATOM     40  C   UNL A   1      40.417  26.329  26.765  1.00  0.00     0.010 A 
ATOM     41  C   UNL A   1      39.257  25.515  28.712  1.00  0.00     0.010 A 
ATOM     42  C   UNL A   1      40.060  26.495  28.113  1.00  0.00    -0.014 A 
BRANCH  42  43
ATOM     43  C   UNL A   1      40.519  27.718  28.831  1.00  0.00     0.031 A 
ATOM     44  C   UNL A   1      41.963  27.903  29.222  1.00  0.00     0.074 A 
ATOM     45  C   UNL A   1      39.636  28.717  29.045  1.00  0.00     0.049 A 
ATOM     46  N   UNL A   1      42.542  28.961  29.735  1.00  0.00    -0.248 NA
ATOM     47  C   UNL A   1      42.876  26.766  29.023  1.00  0.00     0.031 C 
ATOM     48  C   UNL A   1      38.209  28.655  28.717  1.00  0.00     0.029 A 
ATOM     49  N   UNL A   1      39.807  29.990  29.529  1.00  0.00    -0.354 N 
ATOM     50  C   UNL A   1      43.875  28.614  29.930  1.00  0.00     0.074 A 
ATOM     51  C   UNL A   1      44.014  27.235  29.517  1.00  0.00     0.031 C 
ATOM     52  C   UNL A   1      37.660  29.861  28.907  1.00  0.00     0.029 A 
ATOM     53  C   UNL A   1      38.668  30.762  29.456  1.00  0.00     0.049 A 
ATOM     54  H   UNL A   1      40.660  30.320  29.892  1.00  0.00     0.167 HD
ATOM     55  C   UNL A   1      44.891  29.380  30.392  1.00  0.00     0.031 A 
ATOM     56  C   UNL A   1      38.446  32.049  29.789  1.00  0.00     0.031 A 
ATOM     57  C   UNL A   1      44.749  30.758  30.786  1.00  0.00     0.049 A 
ATOM     58  C   UNL A   1      39.583  32.869  30.323  1.00  0.00     0.074 A 
ATOM     59  C   UNL A   1      45.732  31.625  31.236  1.00  0.00     0.029 A 
ATOM     60  N   UNL A   1      43.561  31.475  30.777  1.00  0.00    -0.354 N 
ATOM     61  N   UNL A   1      40.841  32.528  30.471  1.00  0.00    -0.248 NA
ATOM     62  C   UNL A   1      39.276  34.243  30.740  1.00  0.00     0.031 C 
ATOM     63  C   UNL A   1      45.126  32.838  31.569  1.00  0.00     0.029 A 
ATOM     64  C   UNL A   1      43.780  32.759  31.251  1.00  0.00     0.049 A 
ATOM     65  H   UNL A   1      42.692  31.124  30.478  1.00  0.00     0.167 HD
ATOM     66  C   UNL A   1      41.475  33.642  31.005  1.00  0.00     0.074 A 
ATOM     67  C   UNL A   1      40.472  34.681  31.114  1.00  0.00     0.031 C 
ATOM     68  C   UNL A   1      42.770  33.782  31.382  1.00  0.00     0.031 A 
BRANCH  55  69
ATOM     69  C   UNL A   1      46.264  28.762  30.504  1.00  0.00    -0.014 A 
ATOM     70  C   UNL A   1      47.113  28.737  29.380  1.00  0.00     0.010 A 
ATOM     71  C   UNL A   1      46.668  28.095  31.675  1.00  0.00     0.010 A 
ATOM     72  C   UNL A   1      48.318  28.030  29.412  1.00  0.00     0.020 A 
ATOM     73  C   UNL A   1      47.889  27.413  31.721  1.00  0.00     0.020 A 
ATOM     74  C   UNL A   1      48.694  27.363  30.581  1.00  0.00     0.054 A 
BRANCH  74  75
ATOM     75  S   UNL A   1      50.246  26.422  30.594  1.00  0.00     0.124 S 
ATOM     76  O   UNL A   1      49.952  25.355  31.545  1.00  0.00    -0.237 OA
ATOM     77  O   UNL A   1      50.379  26.008  29.199  1.00  0.00    -0.237 OA
ATOM     78  O   UNL A   1      51.235  27.401  31.039  1.00  0.00    -0.744 OA
ENDBRANCH  74  75
ENDBRANCH  55  69
BRANCH  56  79
ATOM     79  C   UNL A   1      37.084  32.622  29.594  1.00  0.00    -0.014 A 
ATOM     80  C   UNL A   1      36.679  33.070  28.321  1.00  0.00     0.010 A 
ATOM     81  C   UNL A   1      36.230  32.827  30.690  1.00  0.00     0.010 A 
ATOM     82  C   UNL A   1      35.490  33.784  28.163  1.00  0.00     0.020 A 
ATOM     83  C   UNL A   1      35.018  33.508  30.530  1.00  0.00     0.020 A 
ATOM     84  C   UNL A   1      34.676  34.015  29.274  1.00  0.00     0.054 A 
BRANCH  84  85
ATOM     85  S   UNL A   1      33.179  35.018  29.060  1.00  0.00     0.124 S 
ATOM     86  O   UNL A   1      32.602  34.981  30.401  1.00  0.00    -0.237 OA
ATOM     87  O   UNL A   1      33.719  36.309  28.642  1.00  0.00    -0.237 OA
ATOM     88  O   UNL A   1      32.428  34.297  28.035  1.00  0.00    -0.744 OA
ENDBRANCH  84  85
ENDBRANCH  56  79
BRANCH  68  89
ATOM     89  C   UNL A   1      43.187  35.099  31.987  1.00  0.00    -0.014 A 
ATOM     90  C   UNL A   1      42.988  35.341  33.358  1.00  0.00     0.010 A 
ATOM     91  C   UNL A   1      43.682  36.135  31.174  1.00  0.00     0.010 A 
ATOM     92  C   UNL A   1      43.246  36.602  33.901  1.00  0.00     0.020 A 
ATOM     93  C   UNL A   1      43.974  37.389  31.721  1.00  0.00     0.020 A 
ATOM     94  C   UNL A   1      43.732  37.620  33.076  1.00  0.00     0.054 A 
BRANCH  94  95
ATOM     95  S   UNL A   1      44.050  39.254  33.798  1.00  0.00     0.124 S 
ATOM     96  O   UNL A   1      45.255  39.672  33.089  1.00  0.00    -0.237 OA
ATOM     97  O   UNL A   1      42.835  39.993  33.466  1.00  0.00    -0.237 OA
ATOM     98  O   UNL A   1      44.228  38.971  35.220  1.00  0.00    -0.744 OA
ENDBRANCH  94  95
ENDBRANCH  68  89
ENDBRANCH  42  43
ENDBRANCH  34  37
ENDBRANCH  32  33
ENDBRANCH   1  32
TORSDOF 15
ENDMDL
MODEL 2
REMARK VINA RESULT:     -12.9      3.834      5.466
REMARK SMILES CC1(C)CC(=O)C(C)(C)c2ccc(NC(=O)c3ccc(C(=O)NCCCNC(=O)c4ccc(-c5c6nc(c(-c7ccc(S(=O)(=O)[O-])cc7)c7ccc([nH]7)c(-c7ccc(S(=O)(=O)[O-])cc7)c7nc(c(-c8ccc(S(=O)(=O)[O-])cc8)c8ccc5[nH]8)C=C7)C=C6)cc4)cc3)cc21
REMARK SMILES IDX 25 1 24 2 23 3 21 4 22 5 20 7 17 8 18 9 91 10 19 11 90 12
REMARK SMILES IDX 15 13 14 14 16 16 13 17 1 18 2 19 3 20 4 21 93 22 5 23 10 24
REMARK SMILES IDX 92 25 6 26 7 27 11 28 8 29 9 30 12 31 26 32 27 33 28 34
REMARK SMILES IDX 29 36 30 37 31 38 89 39 32 40 88 41 33 42 34 43 35 44 82 45
REMARK SMILES IDX 36 46 87 47 81 48 83 49 37 50 86 51 80 52 79 53 38 55 68 56
REMARK SMILES IDX 49 57 67 58 50 59 53 60 66 61 84 62 51 63 52 64 65 66 85 67
REMARK SMILES IDX 54 68 39 69 40 70 48 71 41 72 47 73 42 74 43 75 44 76 45 77
REMARK SMILES IDX 46 78 69 79 70 80 78 81 71 82 77 83 72 84 73 85 74 86 75 87
REMARK SMILES IDX 76 88 55 89 56 90 64 91 57 92 63 93 58 94 59 95 60 96 61 97
REMARK SMILES IDX 62 98
REMARK H PARENT 23 6 14 15 27 35 83 54 53 65
REMARK Flexibility Score: inf
ROOT
ATOM      1  C   UNL A   1      39.756  22.860  27.327  1.00  0.00     0.042 C 
ENDROOT
BRANCH   1   2
ATOM      2  C   UNL A   1      38.855  22.783  26.101  1.00  0.00     0.118 C 
BRANCH   2   3
ATOM      3  N   UNL A   1      38.601  21.437  25.613  1.00  0.00    -0.352 N 
ATOM      4  C   UNL A   1      37.562  20.854  24.925  1.00  0.00     0.251 C 
ATOM      5  O   UNL A   1      37.737  19.693  24.546  1.00  0.00    -0.269 OA
ATOM      6  H   UNL A   1      39.330  20.806  25.818  1.00  0.00     0.163 HD
BRANCH   4   7
ATOM      7  C   UNL A   1      36.216  21.475  24.730  1.00  0.00     0.039 A 
ATOM      8  C   UNL A   1      33.754  22.272  23.661  1.00  0.00     0.040 A 
ATOM      9  C   UNL A   1      34.911  22.949  23.282  1.00  0.00     0.014 A 
ATOM     10  C   UNL A   1      33.795  21.393  24.745  1.00  0.00     0.014 A 
ATOM     11  C   UNL A   1      36.140  22.528  23.802  1.00  0.00     0.014 A 
ATOM     12  C   UNL A   1      35.026  21.032  25.305  1.00  0.00     0.014 A 
BRANCH   8  13
ATOM     13  C   UNL A   1      32.480  22.429  22.935  1.00  0.00     0.255 C 
ATOM     14  N   UNL A   1      31.611  23.477  23.164  1.00  0.00    -0.322 N 
ATOM     15  H   UNL A   1      30.767  23.390  22.665  1.00  0.00     0.170 HD
ATOM     16  O   UNL A   1      32.192  21.580  22.090  1.00  0.00    -0.269 OA
BRANCH  14  17
ATOM     17  C   UNL A   1      31.660  24.648  23.953  1.00  0.00     0.041 A 
ATOM     18  C   UNL A   1      32.147  28.787  22.659  1.00  0.00     0.016 C 
ATOM     19  C   UNL A   1      31.051  28.439  23.696  1.00  0.00    -0.003 C 
ATOM     20  C   UNL A   1      29.673  28.430  22.995  1.00  0.00     0.016 C 
ATOM     21  C   UNL A   1      30.990  29.563  24.739  1.00  0.00     0.087 C 
ATOM     22  C   UNL A   1      31.407  27.077  24.321  1.00  0.00    -0.036 A 
ATOM     23  C   UNL A   1      32.194  29.500  25.640  1.00  0.00     0.143 C 
ATOM     24  C   UNL A   1      32.089  26.972  25.551  1.00  0.00    -0.031 A 
ATOM     25  C   UNL A   1      31.152  25.892  23.585  1.00  0.00     0.030 A 
ATOM     26  O   UNL A   1      32.924  30.483  25.776  1.00  0.00    -0.299 OA
ATOM     27  C   UNL A   1      32.384  28.198  26.425  1.00  0.00     0.049 C 
ATOM     28  C   UNL A   1      32.475  25.688  25.987  1.00  0.00     0.007 A 
ATOM     29  C   UNL A   1      33.826  28.180  26.975  1.00  0.00     0.024 C 
ATOM     30  C   UNL A   1      31.393  28.235  27.603  1.00  0.00     0.024 C 
ATOM     31  C   UNL A   1      32.283  24.551  25.194  1.00  0.00     0.026 A 
ENDBRANCH  14  17
ENDBRANCH   8  13
ENDBRANCH   4   7
ENDBRANCH   2   3
ENDBRANCH   1   2
BRANCH   1  32
ATOM     32  C   UNL A   1      41.235  23.063  27.045  1.00  0.00     0.118 C 
BRANCH  32  33
ATOM     33  N   UNL A   1      41.502  24.061  26.016  1.00  0.00    -0.352 N 
ATOM     34  C   UNL A   1      41.514  25.440  26.035  1.00  0.00     0.251 C 
ATOM     35  H   UNL A   1      41.715  23.675  25.135  1.00  0.00     0.163 HD
ATOM     36  O   UNL A   1      41.627  26.041  24.974  1.00  0.00    -0.269 OA
BRANCH  34  37
ATOM     37  C   UNL A   1      41.352  26.203  27.298  1.00  0.00     0.039 A 
ATOM     38  C   UNL A   1      40.339  25.910  28.204  1.00  0.00     0.014 A 
ATOM     39  C   UNL A   1      42.266  27.220  27.607  1.00  0.00     0.014 A 
ATOM     40  C   UNL A   1      40.094  26.762  29.274  1.00  0.00     0.010 A 
ATOM     41  C   UNL A   1      42.101  27.993  28.765  1.00  0.00     0.010 A 
ATOM     42  C   UNL A   1      40.976  27.811  29.582  1.00  0.00    -0.014 A 
BRANCH  42  43
ATOM     43  C   UNL A   1      40.696  28.657  30.777  1.00  0.00     0.031 A 
ATOM     44  C   UNL A   1      41.603  28.641  31.981  1.00  0.00     0.074 A 
ATOM     45  C   UNL A   1      39.661  29.523  30.732  1.00  0.00     0.049 A 
ATOM     46  N   UNL A   1      41.566  29.408  33.042  1.00  0.00    -0.248 NA
ATOM     47  C   UNL A   1      42.681  27.640  32.010  1.00  0.00     0.031 C 
ATOM     48  C   UNL A   1      38.707  29.629  29.624  1.00  0.00     0.029 A 
ATOM     49  N   UNL A   1      39.268  30.512  31.600  1.00  0.00    -0.354 N 
ATOM     50  C   UNL A   1      42.602  28.977  33.865  1.00  0.00     0.074 A 
ATOM     51  C   UNL A   1      43.226  27.855  33.200  1.00  0.00     0.031 C 
ATOM     52  C   UNL A   1      37.912  30.687  29.827  1.00  0.00     0.029 A 
ATOM     53  C   UNL A   1      38.233  31.285  31.119  1.00  0.00     0.049 A 
ATOM     54  H   UNL A   1      39.685  30.656  32.480  1.00  0.00     0.167 HD
ATOM     55  C   UNL A   1      43.006  29.482  35.054  1.00  0.00     0.031 A 
ATOM     56  C   UNL A   1      37.605  32.354  31.646  1.00  0.00     0.031 A 
ATOM     57  C   UNL A   1      42.390  30.611  35.703  1.00  0.00     0.049 A 
ATOM     58  C   UNL A   1      38.055  32.879  32.978  1.00  0.00     0.074 A 
ATOM     59  C   UNL A   1      42.752  31.215  36.896  1.00  0.00     0.029 A 
ATOM     60  N   UNL A   1      41.291  31.310  35.223  1.00  0.00    -0.354 N 
ATOM     61  N   UNL A   1      39.055  32.472  33.723  1.00  0.00    -0.248 NA
ATOM     62  C   UNL A   1      37.294  33.999  33.545  1.00  0.00     0.031 C 
ATOM     63  C   UNL A   1      41.831  32.226  37.173  1.00  0.00     0.029 A 
ATOM     64  C   UNL A   1      40.940  32.311  36.115  1.00  0.00     0.049 A 
ATOM     65  H   UNL A   1      40.829  31.122  34.374  1.00  0.00     0.167 HD
ATOM     66  C   UNL A   1      39.040  33.282  34.850  1.00  0.00     0.074 A 
ATOM     67  C   UNL A   1      37.959  34.230  34.670  1.00  0.00     0.031 C 
ATOM     68  C   UNL A   1      39.844  33.234  35.941  1.00  0.00     0.031 A 
BRANCH  55  69
ATOM     69  C   UNL A   1      44.176  28.831  35.752  1.00  0.00    -0.014 A 
ATOM     70  C   UNL A   1      43.948  27.807  36.691  1.00  0.00     0.010 A 
ATOM     71  C   UNL A   1      45.486  29.313  35.577  1.00  0.00     0.010 A 
ATOM     72  C   UNL A   1      44.996  27.303  37.466  1.00  0.00     0.020 A 
ATOM     73  C   UNL A   1      46.543  28.789  36.328  1.00  0.00     0.020 A 
ATOM     74  C   UNL A   1      46.288  27.805  37.286  1.00  0.00     0.054 A 
BRANCH  74  75
ATOM     75  S   UNL A   1      47.631  27.164  38.324  1.00  0.00     0.124 S 
ATOM     76  O   UNL A   1      47.448  25.720  38.209  1.00  0.00    -0.237 OA
ATOM     77  O   UNL A   1      48.823  27.704  37.673  1.00  0.00    -0.237 OA
ATOM     78  O   UNL A   1      47.343  27.728  39.641  1.00  0.00    -0.744 OA
ENDBRANCH  74  75
ENDBRANCH  55  69
BRANCH  56  79
ATOM     79  C   UNL A   1      36.500  32.995  30.878  1.00  0.00    -0.014 A 
ATOM     80  C   UNL A   1      36.790  33.850  29.797  1.00  0.00     0.010 A 
ATOM     81  C   UNL A   1      35.164  32.848  31.289  1.00  0.00     0.010 A 
ATOM     82  C   UNL A   1      35.782  34.606  29.197  1.00  0.00     0.020 A 
ATOM     83  C   UNL A   1      34.145  33.575  30.666  1.00  0.00     0.020 A 
ATOM     84  C   UNL A   1      34.467  34.478  29.649  1.00  0.00     0.054 A 
BRANCH  84  85
ATOM     85  S   UNL A   1      33.189  35.534  28.913  1.00  0.00     0.124 S 
ATOM     86  O   UNL A   1      33.994  36.508  28.181  1.00  0.00    -0.237 OA
ATOM     87  O   UNL A   1      32.435  34.594  28.088  1.00  0.00    -0.237 OA
ATOM     88  O   UNL A   1      32.470  36.060  30.071  1.00  0.00    -0.744 OA
ENDBRANCH  84  85
ENDBRANCH  56  79
BRANCH  68  89
ATOM     89  C   UNL A   1      39.574  34.211  37.058  1.00  0.00    -0.014 A 
ATOM     90  C   UNL A   1      40.081  35.521  36.988  1.00  0.00     0.010 A 
ATOM     91  C   UNL A   1      38.904  33.799  38.224  1.00  0.00     0.010 A 
ATOM     92  C   UNL A   1      39.952  36.391  38.073  1.00  0.00     0.020 A 
ATOM     93  C   UNL A   1      38.742  34.678  39.299  1.00  0.00     0.020 A 
ATOM     94  C   UNL A   1      39.288  35.961  39.224  1.00  0.00     0.054 A 
BRANCH  94  95
ATOM     95  S   UNL A   1      39.140  37.102  40.627  1.00  0.00     0.124 S 
ATOM     96  O   UNL A   1      38.283  38.149  40.081  1.00  0.00    -0.237 OA
ATOM     97  O   UNL A   1      38.534  36.265  41.659  1.00  0.00    -0.237 OA
ATOM     98  O   UNL A   1      40.522  37.499  40.892  1.00  0.00    -0.744 OA
ENDBRANCH  94  95
ENDBRANCH  68  89
ENDBRANCH  42  43
ENDBRANCH  34  37
ENDBRANCH  32  33
ENDBRANCH   1  32
TORSDOF 15
ENDMDL
MODEL 3
REMARK VINA RESULT:     -12.5      3.962     10.120
REMARK SMILES CC1(C)CC(=O)C(C)(C)c2ccc(NC(=O)c3ccc(C(=O)NCCCNC(=O)c4ccc(-c5c6nc(c(-c7ccc(S(=O)(=O)[O-])cc7)c7ccc([nH]7)c(-c7ccc(S(=O)(=O)[O-])cc7)c7nc(c(-c8ccc(S(=O)(=O)[O-])cc8)c8ccc5[nH]8)C=C7)C=C6)cc4)cc3)cc21
REMARK SMILES IDX 25 1 24 2 23 3 21 4 22 5 20 7 17 8 18 9 91 10 19 11 90 12
REMARK SMILES IDX 15 13 14 14 16 16 13 17 1 18 2 19 3 20 4 21 93 22 5 23 10 24
REMARK SMILES IDX 92 25 6 26 7 27 11 28 8 29 9 30 12 31 26 32 27 33 28 34
REMARK SMILES IDX 29 36 30 37 31 38 89 39 32 40 88 41 33 42 34 43 35 44 82 45
REMARK SMILES IDX 36 46 87 47 81 48 83 49 37 50 86 51 80 52 79 53 38 55 68 56
REMARK SMILES IDX 49 57 67 58 50 59 53 60 66 61 84 62 51 63 52 64 65 66 85 67
REMARK SMILES IDX 54 68 39 69 40 70 48 71 41 72 47 73 42 74 43 75 44 76 45 77
REMARK SMILES IDX 46 78 69 79 70 80 78 81 71 82 77 83 72 84 73 85 74 86 75 87
REMARK SMILES IDX 76 88 55 89 56 90 64 91 57 92 63 93 58 94 59 95 60 96 61 97
REMARK SMILES IDX 62 98
REMARK H PARENT 23 6 14 15 27 35 83 54 53 65
REMARK Flexibility Score: inf
ROOT
ATOM      1  C   UNL A   1      34.526  32.839  29.168  1.00  0.00     0.042 C 
ENDROOT
BRANCH   1   2
ATOM      2  C   UNL A   1      33.941  31.863  28.155  1.00  0.00     0.118 C 
BRANCH   2   3
ATOM      3  N   UNL A   1      34.692  30.628  27.992  1.00  0.00    -0.352 N 
ATOM      4  C   UNL A   1      34.489  29.480  27.263  1.00  0.00     0.251 C 
ATOM      5  O   UNL A   1      35.415  28.665  27.251  1.00  0.00    -0.269 OA
ATOM      6  H   UNL A   1      35.526  30.610  28.516  1.00  0.00     0.163 HD
BRANCH   4   7
ATOM      7  C   UNL A   1      33.197  29.103  26.610  1.00  0.00     0.039 A 
ATOM      8  C   UNL A   1      31.270  28.010  24.898  1.00  0.00     0.040 A 
ATOM      9  C   UNL A   1      31.959  29.155  24.504  1.00  0.00     0.014 A 
ATOM     10  C   UNL A   1      31.357  27.577  26.222  1.00  0.00     0.014 A 
ATOM     11  C   UNL A   1      32.937  29.681  25.355  1.00  0.00     0.014 A 
ATOM     12  C   UNL A   1      32.291  28.158  27.087  1.00  0.00     0.014 A 
BRANCH   8  13
ATOM     13  C   UNL A   1      30.468  27.212  23.952  1.00  0.00     0.255 C 
ATOM     14  N   UNL A   1      30.926  26.041  23.383  1.00  0.00    -0.322 N 
ATOM     15  H   UNL A   1      30.309  25.678  22.707  1.00  0.00     0.170 HD
ATOM     16  O   UNL A   1      29.343  27.623  23.666  1.00  0.00    -0.269 OA
BRANCH  14  17
ATOM     17  C   UNL A   1      32.080  25.244  23.553  1.00  0.00     0.041 A 
ATOM     18  C   UNL A   1      32.527  21.549  25.831  1.00  0.00     0.016 C 
ATOM     19  C   UNL A   1      33.106  21.632  24.398  1.00  0.00    -0.003 C 
ATOM     20  C   UNL A   1      32.174  20.868  23.429  1.00  0.00     0.016 C 
ATOM     21  C   UNL A   1      34.449  20.891  24.369  1.00  0.00     0.087 C 
ATOM     22  C   UNL A   1      33.249  23.121  24.032  1.00  0.00    -0.036 A 
ATOM     23  C   UNL A   1      35.499  21.691  25.091  1.00  0.00     0.143 C 
ATOM     24  C   UNL A   1      34.470  23.813  24.170  1.00  0.00    -0.031 A 
ATOM     25  C   UNL A   1      32.094  23.854  23.658  1.00  0.00     0.030 A 
ATOM     26  O   UNL A   1      36.138  21.190  26.018  1.00  0.00    -0.299 OA
ATOM     27  C   UNL A   1      35.774  23.097  24.545  1.00  0.00     0.049 C 
ATOM     28  C   UNL A   1      34.477  25.201  23.922  1.00  0.00     0.007 A 
ATOM     29  C   UNL A   1      36.573  23.874  25.612  1.00  0.00     0.024 C 
ATOM     30  C   UNL A   1      36.642  22.927  23.285  1.00  0.00     0.024 C 
ATOM     31  C   UNL A   1      33.301  25.906  23.639  1.00  0.00     0.026 A 
ENDBRANCH  14  17
ENDBRANCH   8  13
ENDBRANCH   4   7
ENDBRANCH   2   3
ENDBRANCH   1   2
BRANCH   1  32
ATOM     32  C   UNL A   1      35.875  32.454  29.749  1.00  0.00     0.118 C 
BRANCH  32  33
ATOM     33  N   UNL A   1      35.788  31.500  30.848  1.00  0.00    -0.352 N 
ATOM     34  C   UNL A   1      36.621  30.485  31.269  1.00  0.00     0.251 C 
ATOM     35  H   UNL A   1      34.976  31.599  31.396  1.00  0.00     0.163 HD
ATOM     36  O   UNL A   1      36.227  29.727  32.147  1.00  0.00    -0.269 OA
BRANCH  34  37
ATOM     37  C   UNL A   1      37.957  30.267  30.657  1.00  0.00     0.039 A 
ATOM     38  C   UNL A   1      38.142  30.300  29.280  1.00  0.00     0.014 A 
ATOM     39  C   UNL A   1      39.067  30.062  31.487  1.00  0.00     0.014 A 
ATOM     40  C   UNL A   1      39.355  29.900  28.731  1.00  0.00     0.010 A 
ATOM     41  C   UNL A   1      40.327  29.797  30.932  1.00  0.00     0.010 A 
ATOM     42  C   UNL A   1      40.472  29.654  29.546  1.00  0.00    -0.014 A 
BRANCH  42  43
ATOM     43  C   UNL A   1      41.765  29.286  28.899  1.00  0.00     0.031 A 
ATOM     44  C   UNL A   1      42.939  30.231  28.898  1.00  0.00     0.074 A 
ATOM     45  C   UNL A   1      41.907  28.043  28.392  1.00  0.00     0.049 A 
ATOM     46  N   UNL A   1      44.165  30.012  28.491  1.00  0.00    -0.248 NA
ATOM     47  C   UNL A   1      42.719  31.595  29.407  1.00  0.00     0.031 C 
ATOM     48  C   UNL A   1      40.842  27.038  28.330  1.00  0.00     0.029 A 
ATOM     49  N   UNL A   1      43.005  27.389  27.890  1.00  0.00    -0.354 N 
ATOM     50  C   UNL A   1      44.854  31.205  28.683  1.00  0.00     0.074 A 
ATOM     51  C   UNL A   1      43.902  32.159  29.206  1.00  0.00     0.031 C 
ATOM     52  C   UNL A   1      41.358  25.873  27.921  1.00  0.00     0.029 A 
ATOM     53  C   UNL A   1      42.771  26.062  27.605  1.00  0.00     0.049 A 
ATOM     54  H   UNL A   1      43.876  27.826  27.748  1.00  0.00     0.167 HD
ATOM     55  C   UNL A   1      46.162  31.473  28.460  1.00  0.00     0.031 A 
ATOM     56  C   UNL A   1      43.589  25.095  27.142  1.00  0.00     0.031 A 
ATOM     57  C   UNL A   1      47.109  30.512  27.955  1.00  0.00     0.049 A 
ATOM     58  C   UNL A   1      45.028  25.425  26.879  1.00  0.00     0.074 A 
ATOM     59  C   UNL A   1      48.465  30.684  27.729  1.00  0.00     0.029 A 
ATOM     60  N   UNL A   1      46.810  29.204  27.599  1.00  0.00    -0.354 N 
ATOM     61  N   UNL A   1      45.663  26.552  27.096  1.00  0.00    -0.248 NA
ATOM     62  C   UNL A   1      45.862  24.361  26.308  1.00  0.00     0.031 C 
ATOM     63  C   UNL A   1      48.968  29.509  27.167  1.00  0.00     0.029 A 
ATOM     64  C   UNL A   1      47.947  28.573  27.118  1.00  0.00     0.049 A 
ATOM     65  H   UNL A   1      45.923  28.786  27.676  1.00  0.00     0.167 HD
ATOM     66  C   UNL A   1      46.970  26.336  26.680  1.00  0.00     0.074 A 
ATOM     67  C   UNL A   1      47.046  24.958  26.240  1.00  0.00     0.031 C 
ATOM     68  C   UNL A   1      48.008  27.208  26.655  1.00  0.00     0.031 A 
BRANCH  55  69
ATOM     69  C   UNL A   1      46.673  32.861  28.761  1.00  0.00    -0.014 A 
ATOM     70  C   UNL A   1      46.687  33.836  27.744  1.00  0.00     0.010 A 
ATOM     71  C   UNL A   1      47.255  33.169  30.005  1.00  0.00     0.010 A 
ATOM     72  C   UNL A   1      47.302  35.074  27.952  1.00  0.00     0.020 A 
ATOM     73  C   UNL A   1      47.843  34.418  30.226  1.00  0.00     0.020 A 
ATOM     74  C   UNL A   1      47.885  35.353  29.190  1.00  0.00     0.054 A 
BRANCH  74  75
ATOM     75  S   UNL A   1      48.710  36.953  29.430  1.00  0.00     0.124 S 
ATOM     76  O   UNL A   1      49.451  37.108  28.182  1.00  0.00    -0.237 OA
ATOM     77  O   UNL A   1      47.584  37.867  29.615  1.00  0.00    -0.237 OA
ATOM     78  O   UNL A   1      49.528  36.739  30.622  1.00  0.00    -0.744 OA
ENDBRANCH  74  75
ENDBRANCH  55  69
BRANCH  56  79
ATOM     79  C   UNL A   1      43.041  23.726  26.928  1.00  0.00    -0.014 A 
ATOM     80  C   UNL A   1      43.003  22.803  27.992  1.00  0.00     0.010 A 
ATOM     81  C   UNL A   1      42.661  23.299  25.644  1.00  0.00     0.010 A 
ATOM     82  C   UNL A   1      42.679  21.465  27.762  1.00  0.00     0.020 A 
ATOM     83  C   UNL A   1      42.298  21.967  25.416  1.00  0.00     0.020 A 
ATOM     84  C   UNL A   1      42.347  21.052  26.470  1.00  0.00     0.054 A 
BRANCH  84  85
ATOM     85  S   UNL A   1      42.013  19.292  26.181  1.00  0.00     0.124 S 
ATOM     86  O   UNL A   1      42.887  19.007  25.045  1.00  0.00    -0.237 OA
ATOM     87  O   UNL A   1      42.408  18.680  27.447  1.00  0.00    -0.237 OA
ATOM     88  O   UNL A   1      40.581  19.258  25.893  1.00  0.00    -0.744 OA
ENDBRANCH  84  85
ENDBRANCH  56  79
BRANCH  68  89
ATOM     89  C   UNL A   1      49.323  26.719  26.100  1.00  0.00    -0.014 A 
ATOM     90  C   UNL A   1      50.249  26.076  26.942  1.00  0.00     0.010 A 
ATOM     91  C   UNL A   1      49.684  26.991  24.768  1.00  0.00     0.010 A 
ATOM     92  C   UNL A   1      51.521  25.740  26.472  1.00  0.00     0.020 A 
ATOM     93  C   UNL A   1      50.944  26.625  24.284  1.00  0.00     0.020 A 
ATOM     94  C   UNL A   1      51.862  26.023  25.147  1.00  0.00     0.054 A 
BRANCH  94  95
ATOM     95  S   UNL A   1      53.522  25.590  24.559  1.00  0.00     0.124 S 
ATOM     96  O   UNL A   1      53.522  24.136  24.685  1.00  0.00    -0.237 OA
ATOM     97  O   UNL A   1      53.523  26.104  23.192  1.00  0.00    -0.237 OA
ATOM     98  O   UNL A   1      54.407  26.297  25.482  1.00  0.00    -0.744 OA
ENDBRANCH  94  95
ENDBRANCH  68  89
ENDBRANCH  42  43
ENDBRANCH  34  37
ENDBRANCH  32  33
ENDBRANCH   1  32
TORSDOF 15
ENDMDL
