MODEL 1
REMARK VINA RESULT:     -10.3      0.000      0.000
REMARK SMILES COc1ccccc1N1C(=O)/C(=C\c2ccc(O[C@H](C)C(=O)NCCCNC(=O)c3ccc(-c4c5nc(c(-c6ccc(S(=O)(=O)[O-])cc6)c6ccc([nH]6)c(-c6ccc(S(=O)(=O)[O-])cc6)c6nc(c(-c7ccc(S(=O)(=O)[O-])cc7)c7ccc4[nH]7)C=C6)C=C5)cc3)cc2)SC1=S
REMARK SMILES IDX 24 1 23 2 21 3 22 4 19 6 20 7 18 8 17 9 14 10 15 11 91 12
REMARK SMILES IDX 16 13 90 14 13 15 9 16 10 17 93 18 11 19 12 20 92 21 94 22
REMARK SMILES IDX 8 23 3 24 4 25 5 26 7 27 6 28 2 29 1 30 25 31 26 32 27 33
REMARK SMILES IDX 28 34 29 36 30 37 31 38 89 39 32 40 88 41 33 42 34 43 35 44
REMARK SMILES IDX 82 45 36 46 87 47 81 48 83 49 37 50 86 51 80 52 79 53 38 55
REMARK SMILES IDX 68 56 49 57 67 58 50 59 53 60 66 61 84 62 51 63 52 64 65 66
REMARK SMILES IDX 85 67 54 68 39 69 40 70 48 71 41 72 47 73 42 74 43 75 44 76
REMARK SMILES IDX 45 77 46 78 69 79 70 80 78 81 71 82 77 83 72 84 73 85 74 86
REMARK SMILES IDX 75 87 76 88 55 89 56 90 64 91 57 92 63 93 58 94 59 95 60 96
REMARK SMILES IDX 61 97 62 98
REMARK H PARENT 23 5 27 35 83 54 53 65
REMARK Flexibility Score: inf
ROOT
ATOM      1  C   UNL A   1      34.961  33.649  30.270  1.00  0.00     0.118 C 
ENDROOT
BRANCH   1   2
ATOM      2  N   UNL A   1      34.105  33.279  31.372  1.00  0.00    -0.353 N 
ATOM      3  C   UNL A   1      34.320  33.229  32.712  1.00  0.00     0.260 C 
ATOM      4  O   UNL A   1      33.302  33.094  33.407  1.00  0.00    -0.271 OA
ATOM      5  H   UNL A   1      33.195  33.015  31.103  1.00  0.00     0.163 HD
BRANCH   3   6
ATOM      6  C   UNL A   1      35.721  33.202  33.393  1.00  0.00     0.258 C 
ATOM      7  C   UNL A   1      35.761  34.206  34.544  1.00  0.00     0.064 C 
BRANCH   6   8
ATOM      8  O   UNL A   1      36.506  32.026  33.537  1.00  0.00    -0.481 OA
BRANCH   8   9
ATOM      9  C   UNL A   1      37.649  31.984  34.267  1.00  0.00     0.120 A 
ATOM     10  C   UNL A   1      40.154  31.832  35.526  1.00  0.00    -0.024 A 
ATOM     11  C   UNL A   1      38.976  31.641  36.256  1.00  0.00     0.012 A 
ATOM     12  C   UNL A   1      40.076  32.146  34.168  1.00  0.00     0.012 A 
ATOM     13  C   UNL A   1      37.731  31.742  35.632  1.00  0.00     0.047 A 
ATOM     14  C   UNL A   1      38.824  32.236  33.548  1.00  0.00     0.047 A 
BRANCH  10  15
ATOM     15  C   UNL A   1      41.427  31.877  36.248  1.00  0.00     0.029 C 
ATOM     16  N   UNL A   1      42.831  28.517  36.231  1.00  0.00    -0.257 N 
ATOM     17  C   UNL A   1      41.793  29.402  35.989  1.00  0.00     0.270 C 
ATOM     18  C   UNL A   1      43.974  29.030  36.816  1.00  0.00     0.153 C 
ATOM     19  O   UNL A   1      40.677  29.093  35.591  1.00  0.00    -0.268 OA
ATOM     20  C   UNL A   1      42.180  30.779  36.408  1.00  0.00     0.081 C 
ATOM     21  S   UNL A   1      43.738  30.757  37.136  1.00  0.00    -0.054 SA
ATOM     22  S   UNL A   1      45.428  28.273  37.138  1.00  0.00    -0.051 S 
BRANCH  16  23
ATOM     23  C   UNL A   1      42.565  27.146  35.989  1.00  0.00     0.093 A 
ATOM     24  C   UNL A   1      43.197  26.438  34.955  1.00  0.00     0.143 A 
ATOM     25  C   UNL A   1      43.019  25.055  34.846  1.00  0.00     0.048 A 
ATOM     26  C   UNL A   1      42.251  24.366  35.787  1.00  0.00     0.004 A 
ATOM     27  C   UNL A   1      41.798  26.438  36.931  1.00  0.00     0.031 A 
ATOM     28  C   UNL A   1      41.639  25.056  36.830  1.00  0.00     0.002 A 
BRANCH  24  29
ATOM     29  O   UNL A   1      44.006  27.027  34.018  1.00  0.00    -0.495 OA
ATOM     30  C   UNL A   1      43.781  26.521  32.703  1.00  0.00     0.278 C 
ENDBRANCH  24  29
ENDBRANCH  16  23
ENDBRANCH  10  15
ENDBRANCH   8   9
ENDBRANCH   6   8
ENDBRANCH   3   6
ENDBRANCH   1   2
BRANCH   1  31
ATOM     31  C   UNL A   1      34.257  33.633  28.921  1.00  0.00     0.042 C 
BRANCH  31  32
ATOM     32  C   UNL A   1      34.932  32.703  27.923  1.00  0.00     0.118 C 
BRANCH  32  33
ATOM     33  N   UNL A   1      34.202  31.450  27.749  1.00  0.00    -0.352 N 
ATOM     34  C   UNL A   1      34.646  30.148  27.781  1.00  0.00     0.251 C 
ATOM     35  H   UNL A   1      33.238  31.554  27.580  1.00  0.00     0.163 HD
ATOM     36  O   UNL A   1      33.892  29.246  27.448  1.00  0.00    -0.269 OA
BRANCH  34  37
ATOM     37  C   UNL A   1      36.038  29.851  28.187  1.00  0.00     0.039 A 
ATOM     38  C   UNL A   1      36.288  29.423  29.496  1.00  0.00     0.014 A 
ATOM     39  C   UNL A   1      37.092  29.988  27.284  1.00  0.00     0.014 A 
ATOM     40  C   UNL A   1      37.584  29.061  29.871  1.00  0.00     0.010 A 
ATOM     41  C   UNL A   1      38.357  29.532  27.627  1.00  0.00     0.010 A 
ATOM     42  C   UNL A   1      38.620  29.075  28.926  1.00  0.00    -0.014 A 
BRANCH  42  43
ATOM     43  C   UNL A   1      40.008  28.664  29.256  1.00  0.00     0.031 A 
ATOM     44  C   UNL A   1      40.937  29.664  29.890  1.00  0.00     0.074 A 
ATOM     45  C   UNL A   1      40.463  27.452  28.884  1.00  0.00     0.049 A 
ATOM     46  N   UNL A   1      42.229  29.596  30.070  1.00  0.00    -0.248 NA
ATOM     47  C   UNL A   1      40.333  30.931  30.340  1.00  0.00     0.031 C 
ATOM     48  C   UNL A   1      39.667  26.400  28.245  1.00  0.00     0.029 A 
ATOM     49  N   UNL A   1      41.719  26.906  28.974  1.00  0.00    -0.354 N 
ATOM     50  C   UNL A   1      42.597  30.822  30.613  1.00  0.00     0.074 A 
ATOM     51  C   UNL A   1      41.402  31.631  30.684  1.00  0.00     0.031 C 
ATOM     52  C   UNL A   1      40.449  25.332  28.020  1.00  0.00     0.029 A 
ATOM     53  C   UNL A   1      41.810  25.639  28.445  1.00  0.00     0.049 A 
ATOM     54  H   UNL A   1      42.483  27.377  29.379  1.00  0.00     0.167 HD
ATOM     55  C   UNL A   1      43.818  31.231  31.032  1.00  0.00     0.031 A 
ATOM     56  C   UNL A   1      42.875  24.826  28.303  1.00  0.00     0.031 A 
ATOM     57  C   UNL A   1      44.994  30.408  30.985  1.00  0.00     0.049 A 
ATOM     58  C   UNL A   1      44.224  25.300  28.772  1.00  0.00     0.074 A 
ATOM     59  C   UNL A   1      46.271  30.703  31.427  1.00  0.00     0.029 A 
ATOM     60  N   UNL A   1      45.033  29.119  30.473  1.00  0.00    -0.354 N 
ATOM     61  N   UNL A   1      44.550  26.452  29.308  1.00  0.00    -0.248 NA
ATOM     62  C   UNL A   1      45.346  24.363  28.625  1.00  0.00     0.031 C 
ATOM     63  C   UNL A   1      47.092  29.607  31.145  1.00  0.00     0.029 A 
ATOM     64  C   UNL A   1      46.313  28.608  30.581  1.00  0.00     0.049 A 
ATOM     65  H   UNL A   1      44.264  28.639  30.089  1.00  0.00     0.167 HD
ATOM     66  C   UNL A   1      45.906  26.363  29.600  1.00  0.00     0.074 A 
ATOM     67  C   UNL A   1      46.340  25.047  29.179  1.00  0.00     0.031 C 
ATOM     68  C   UNL A   1      46.717  27.285  30.174  1.00  0.00     0.031 A 
BRANCH  55  69
ATOM     69  C   UNL A   1      43.931  32.634  31.570  1.00  0.00    -0.014 A 
ATOM     70  C   UNL A   1      44.291  33.708  30.735  1.00  0.00     0.010 A 
ATOM     71  C   UNL A   1      43.666  32.885  32.929  1.00  0.00     0.010 A 
ATOM     72  C   UNL A   1      44.445  34.993  31.259  1.00  0.00     0.020 A 
ATOM     73  C   UNL A   1      43.786  34.176  33.451  1.00  0.00     0.020 A 
ATOM     74  C   UNL A   1      44.199  35.218  32.617  1.00  0.00     0.054 A 
BRANCH  74  75
ATOM     75  S   UNL A   1      44.411  36.895  33.272  1.00  0.00     0.124 S 
ATOM     76  O   UNL A   1      44.854  37.626  32.088  1.00  0.00    -0.237 OA
ATOM     77  O   UNL A   1      43.070  37.225  33.748  1.00  0.00    -0.237 OA
ATOM     78  O   UNL A   1      45.418  36.734  34.318  1.00  0.00    -0.744 OA
ENDBRANCH  74  75
ENDBRANCH  55  69
BRANCH  56  79
ATOM     79  C   UNL A   1      42.699  23.470  27.714  1.00  0.00    -0.014 A 
ATOM     80  C   UNL A   1      43.249  23.169  26.456  1.00  0.00     0.010 A 
ATOM     81  C   UNL A   1      42.008  22.466  28.416  1.00  0.00     0.010 A 
ATOM     82  C   UNL A   1      43.100  21.894  25.903  1.00  0.00     0.020 A 
ATOM     83  C   UNL A   1      41.880  21.181  27.879  1.00  0.00     0.020 A 
ATOM     84  C   UNL A   1      42.421  20.906  26.620  1.00  0.00     0.054 A 
BRANCH  84  85
ATOM     85  S   UNL A   1      42.292  19.242  25.908  1.00  0.00     0.124 S 
ATOM     86  O   UNL A   1      40.855  19.116  25.686  1.00  0.00    -0.237 OA
ATOM     87  O   UNL A   1      43.112  19.351  24.704  1.00  0.00    -0.237 OA
ATOM     88  O   UNL A   1      42.844  18.381  26.952  1.00  0.00    -0.744 OA
ENDBRANCH  84  85
ENDBRANCH  56  79
BRANCH  68  89
ATOM     89  C   UNL A   1      48.144  26.892  30.446  1.00  0.00    -0.014 A 
ATOM     90  C   UNL A   1      49.172  27.185  29.535  1.00  0.00     0.010 A 
ATOM     91  C   UNL A   1      48.465  26.309  31.687  1.00  0.00     0.010 A 
ATOM     92  C   UNL A   1      50.500  26.892  29.858  1.00  0.00     0.020 A 
ATOM     93  C   UNL A   1      49.794  26.038  32.022  1.00  0.00     0.020 A 
ATOM     94  C   UNL A   1      50.802  26.327  31.101  1.00  0.00     0.054 A 
BRANCH  94  95
ATOM     95  S   UNL A   1      52.541  26.036  31.529  1.00  0.00     0.124 S 
ATOM     96  O   UNL A   1      52.784  27.070  32.531  1.00  0.00    -0.237 OA
ATOM     97  O   UNL A   1      52.522  24.664  32.032  1.00  0.00    -0.237 OA
ATOM     98  O   UNL A   1      53.245  26.218  30.262  1.00  0.00    -0.744 OA
ENDBRANCH  94  95
ENDBRANCH  68  89
ENDBRANCH  42  43
ENDBRANCH  34  37
ENDBRANCH  32  33
ENDBRANCH  31  32
ENDBRANCH   1  31
TORSDOF 18
ENDMDL
MODEL 2
REMARK VINA RESULT:      -9.3      2.363      3.604
REMARK SMILES COc1ccccc1N1C(=O)/C(=C\c2ccc(O[C@H](C)C(=O)NCCCNC(=O)c3ccc(-c4c5nc(c(-c6ccc(S(=O)(=O)[O-])cc6)c6ccc([nH]6)c(-c6ccc(S(=O)(=O)[O-])cc6)c6nc(c(-c7ccc(S(=O)(=O)[O-])cc7)c7ccc4[nH]7)C=C6)C=C5)cc3)cc2)SC1=S
REMARK SMILES IDX 24 1 23 2 21 3 22 4 19 6 20 7 18 8 17 9 14 10 15 11 91 12
REMARK SMILES IDX 16 13 90 14 13 15 9 16 10 17 93 18 11 19 12 20 92 21 94 22
REMARK SMILES IDX 8 23 3 24 4 25 5 26 7 27 6 28 2 29 1 30 25 31 26 32 27 33
REMARK SMILES IDX 28 34 29 36 30 37 31 38 89 39 32 40 88 41 33 42 34 43 35 44
REMARK SMILES IDX 82 45 36 46 87 47 81 48 83 49 37 50 86 51 80 52 79 53 38 55
REMARK SMILES IDX 68 56 49 57 67 58 50 59 53 60 66 61 84 62 51 63 52 64 65 66
REMARK SMILES IDX 85 67 54 68 39 69 40 70 48 71 41 72 47 73 42 74 43 75 44 76
REMARK SMILES IDX 45 77 46 78 69 79 70 80 78 81 71 82 77 83 72 84 73 85 74 86
REMARK SMILES IDX 75 87 76 88 55 89 56 90 64 91 57 92 63 93 58 94 59 95 60 96
REMARK SMILES IDX 61 97 62 98
REMARK H PARENT 23 5 27 35 83 54 53 65
REMARK Flexibility Score: inf
ROOT
ATOM      1  C   UNL A   1      34.455  33.642  30.506  1.00  0.00     0.118 C 
ENDROOT
BRANCH   1   2
ATOM      2  N   UNL A   1      34.275  34.850  31.275  1.00  0.00    -0.353 N 
ATOM      3  C   UNL A   1      34.964  35.369  32.323  1.00  0.00     0.260 C 
ATOM      4  O   UNL A   1      34.690  36.546  32.605  1.00  0.00    -0.271 OA
ATOM      5  H   UNL A   1      33.512  35.400  30.985  1.00  0.00     0.163 HD
BRANCH   3   6
ATOM      6  C   UNL A   1      35.942  34.571  33.236  1.00  0.00     0.258 C 
ATOM      7  C   UNL A   1      35.182  33.979  34.422  1.00  0.00     0.064 C 
BRANCH   6   8
ATOM      8  O   UNL A   1      37.050  33.829  32.747  1.00  0.00    -0.481 OA
BRANCH   8   9
ATOM      9  C   UNL A   1      38.110  33.483  33.521  1.00  0.00     0.120 A 
ATOM     10  C   UNL A   1      40.435  33.010  35.021  1.00  0.00    -0.024 A 
ATOM     11  C   UNL A   1      39.576  31.959  34.687  1.00  0.00     0.012 A 
ATOM     12  C   UNL A   1      40.105  34.312  34.642  1.00  0.00     0.012 A 
ATOM     13  C   UNL A   1      38.407  32.200  33.962  1.00  0.00     0.047 A 
ATOM     14  C   UNL A   1      38.936  34.545  33.908  1.00  0.00     0.047 A 
BRANCH  10  15
ATOM     15  C   UNL A   1      41.561  32.737  35.917  1.00  0.00     0.029 C 
ATOM     16  N   UNL A   1      40.366  33.090  39.339  1.00  0.00    -0.257 N 
ATOM     17  C   UNL A   1      40.194  33.226  37.971  1.00  0.00     0.270 C 
ATOM     18  C   UNL A   1      41.593  32.629  39.777  1.00  0.00     0.153 C 
ATOM     19  O   UNL A   1      39.219  33.729  37.426  1.00  0.00    -0.268 OA
ATOM     20  C   UNL A   1      41.424  32.793  37.250  1.00  0.00     0.081 C 
ATOM     21  S   UNL A   1      42.652  32.376  38.379  1.00  0.00    -0.054 SA
ATOM     22  S   UNL A   1      42.089  32.253  41.327  1.00  0.00    -0.051 S 
BRANCH  16  23
ATOM     23  C   UNL A   1      39.317  33.575  40.162  1.00  0.00     0.093 A 
ATOM     24  C   UNL A   1      38.272  32.746  40.597  1.00  0.00     0.143 A 
ATOM     25  C   UNL A   1      37.344  33.225  41.527  1.00  0.00     0.048 A 
ATOM     26  C   UNL A   1      37.475  34.509  42.058  1.00  0.00     0.004 A 
ATOM     27  C   UNL A   1      39.439  34.864  40.708  1.00  0.00     0.031 A 
ATOM     28  C   UNL A   1      38.522  35.331  41.649  1.00  0.00     0.002 A 
BRANCH  24  29
ATOM     29  O   UNL A   1      38.098  31.456  40.166  1.00  0.00    -0.495 OA
ATOM     30  C   UNL A   1      36.752  31.186  39.775  1.00  0.00     0.278 C 
ENDBRANCH  24  29
ENDBRANCH  16  23
ENDBRANCH  10  15
ENDBRANCH   8   9
ENDBRANCH   6   8
ENDBRANCH   3   6
ENDBRANCH   1   2
BRANCH   1  31
ATOM     31  C   UNL A   1      34.086  33.795  29.037  1.00  0.00     0.042 C 
BRANCH  31  32
ATOM     32  C   UNL A   1      34.885  32.865  28.136  1.00  0.00     0.118 C 
BRANCH  32  33
ATOM     33  N   UNL A   1      34.186  31.610  27.872  1.00  0.00    -0.352 N 
ATOM     34  C   UNL A   1      34.660  30.319  27.826  1.00  0.00     0.251 C 
ATOM     35  H   UNL A   1      33.222  31.703  27.699  1.00  0.00     0.163 HD
ATOM     36  O   UNL A   1      33.931  29.423  27.426  1.00  0.00    -0.269 OA
BRANCH  34  37
ATOM     37  C   UNL A   1      36.055  30.027  28.228  1.00  0.00     0.039 A 
ATOM     38  C   UNL A   1      36.310  29.606  29.538  1.00  0.00     0.014 A 
ATOM     39  C   UNL A   1      37.105  30.163  27.320  1.00  0.00     0.014 A 
ATOM     40  C   UNL A   1      37.609  29.250  29.910  1.00  0.00     0.010 A 
ATOM     41  C   UNL A   1      38.372  29.712  27.661  1.00  0.00     0.010 A 
ATOM     42  C   UNL A   1      38.641  29.262  28.962  1.00  0.00    -0.014 A 
BRANCH  42  43
ATOM     43  C   UNL A   1      40.032  28.857  29.288  1.00  0.00     0.031 A 
ATOM     44  C   UNL A   1      40.963  29.866  29.904  1.00  0.00     0.074 A 
ATOM     45  C   UNL A   1      40.486  27.640  28.929  1.00  0.00     0.049 A 
ATOM     46  N   UNL A   1      42.256  29.801  30.077  1.00  0.00    -0.248 NA
ATOM     47  C   UNL A   1      40.360  31.137  30.342  1.00  0.00     0.031 C 
ATOM     48  C   UNL A   1      39.687  26.580  28.308  1.00  0.00     0.029 A 
ATOM     49  N   UNL A   1      41.742  27.097  29.018  1.00  0.00    -0.354 N 
ATOM     50  C   UNL A   1      42.626  31.034  30.602  1.00  0.00     0.074 A 
ATOM     51  C   UNL A   1      41.430  31.843  30.670  1.00  0.00     0.031 C 
ATOM     52  C   UNL A   1      40.468  25.509  28.092  1.00  0.00     0.029 A 
ATOM     53  C   UNL A   1      41.832  25.824  28.505  1.00  0.00     0.049 A 
ATOM     54  H   UNL A   1      42.509  27.574  29.413  1.00  0.00     0.167 HD
ATOM     55  C   UNL A   1      43.849  31.449  31.010  1.00  0.00     0.031 A 
ATOM     56  C   UNL A   1      42.897  25.010  28.367  1.00  0.00     0.031 A 
ATOM     57  C   UNL A   1      45.026  30.627  30.966  1.00  0.00     0.049 A 
ATOM     58  C   UNL A   1      44.248  25.490  28.822  1.00  0.00     0.074 A 
ATOM     59  C   UNL A   1      46.305  30.929  31.397  1.00  0.00     0.029 A 
ATOM     60  N   UNL A   1      45.063  29.331  30.470  1.00  0.00    -0.354 N 
ATOM     61  N   UNL A   1      44.576  26.650  29.342  1.00  0.00    -0.248 NA
ATOM     62  C   UNL A   1      45.371  24.554  28.680  1.00  0.00     0.031 C 
ATOM     63  C   UNL A   1      47.125  29.830  31.124  1.00  0.00     0.029 A 
ATOM     64  C   UNL A   1      46.344  28.823  30.576  1.00  0.00     0.049 A 
ATOM     65  H   UNL A   1      44.292  28.846  30.097  1.00  0.00     0.167 HD
ATOM     66  C   UNL A   1      45.934  26.566  29.626  1.00  0.00     0.074 A 
ATOM     67  C   UNL A   1      46.366  25.245  29.219  1.00  0.00     0.031 C 
ATOM     68  C   UNL A   1      46.747  27.496  30.184  1.00  0.00     0.031 A 
BRANCH  55  69
ATOM     69  C   UNL A   1      43.964  32.859  31.529  1.00  0.00    -0.014 A 
ATOM     70  C   UNL A   1      43.628  33.175  32.859  1.00  0.00     0.010 A 
ATOM     71  C   UNL A   1      44.422  33.882  30.680  1.00  0.00     0.010 A 
ATOM     72  C   UNL A   1      43.687  34.496  33.310  1.00  0.00     0.020 A 
ATOM     73  C   UNL A   1      44.516  35.200  31.137  1.00  0.00     0.020 A 
ATOM     74  C   UNL A   1      44.124  35.501  32.444  1.00  0.00     0.054 A 
BRANCH  74  75
ATOM     75  S   UNL A   1      44.188  37.207  33.054  1.00  0.00     0.124 S 
ATOM     76  O   UNL A   1      43.708  37.958  31.897  1.00  0.00    -0.237 OA
ATOM     77  O   UNL A   1      43.282  37.172  34.199  1.00  0.00    -0.237 OA
ATOM     78  O   UNL A   1      45.597  37.405  33.384  1.00  0.00    -0.744 OA
ENDBRANCH  74  75
ENDBRANCH  55  69
BRANCH  56  79
ATOM     79  C   UNL A   1      42.718  23.646  27.796  1.00  0.00    -0.014 A 
ATOM     80  C   UNL A   1      42.342  22.576  28.627  1.00  0.00     0.010 A 
ATOM     81  C   UNL A   1      42.895  23.414  26.421  1.00  0.00     0.010 A 
ATOM     82  C   UNL A   1      42.158  21.296  28.096  1.00  0.00     0.020 A 
ATOM     83  C   UNL A   1      42.686  22.141  25.881  1.00  0.00     0.020 A 
ATOM     84  C   UNL A   1      42.328  21.087  26.725  1.00  0.00     0.054 A 
BRANCH  84  85
ATOM     85  S   UNL A   1      42.026  19.430  26.050  1.00  0.00     0.124 S 
ATOM     86  O   UNL A   1      42.461  18.571  27.146  1.00  0.00    -0.237 OA
ATOM     87  O   UNL A   1      40.587  19.452  25.794  1.00  0.00    -0.237 OA
ATOM     88  O   UNL A   1      42.863  19.392  24.852  1.00  0.00    -0.744 OA
ENDBRANCH  84  85
ENDBRANCH  56  79
BRANCH  68  89
ATOM     89  C   UNL A   1      48.176  27.107  30.452  1.00  0.00    -0.014 A 
ATOM     90  C   UNL A   1      49.208  27.449  29.564  1.00  0.00     0.010 A 
ATOM     91  C   UNL A   1      48.493  26.476  31.671  1.00  0.00     0.010 A 
ATOM     92  C   UNL A   1      50.537  27.158  29.886  1.00  0.00     0.020 A 
ATOM     93  C   UNL A   1      49.822  26.207  32.006  1.00  0.00     0.020 A 
ATOM     94  C   UNL A   1      50.835  26.545  31.108  1.00  0.00     0.054 A 
BRANCH  94  95
ATOM     95  S   UNL A   1      52.573  26.256  31.539  1.00  0.00     0.124 S 
ATOM     96  O   UNL A   1      52.484  25.064  32.377  1.00  0.00    -0.237 OA
ATOM     97  O   UNL A   1      53.199  26.061  30.232  1.00  0.00    -0.237 OA
ATOM     98  O   UNL A   1      52.966  27.480  32.234  1.00  0.00    -0.744 OA
ENDBRANCH  94  95
ENDBRANCH  68  89
ENDBRANCH  42  43
ENDBRANCH  34  37
ENDBRANCH  32  33
ENDBRANCH  31  32
ENDBRANCH   1  31
TORSDOF 18
ENDMDL
MODEL 3
REMARK VINA RESULT:      -9.0      8.537     14.310
REMARK SMILES COc1ccccc1N1C(=O)/C(=C\c2ccc(O[C@H](C)C(=O)NCCCNC(=O)c3ccc(-c4c5nc(c(-c6ccc(S(=O)(=O)[O-])cc6)c6ccc([nH]6)c(-c6ccc(S(=O)(=O)[O-])cc6)c6nc(c(-c7ccc(S(=O)(=O)[O-])cc7)c7ccc4[nH]7)C=C6)C=C5)cc3)cc2)SC1=S
REMARK SMILES IDX 24 1 23 2 21 3 22 4 19 6 20 7 18 8 17 9 14 10 15 11 91 12
REMARK SMILES IDX 16 13 90 14 13 15 9 16 10 17 93 18 11 19 12 20 92 21 94 22
REMARK SMILES IDX 8 23 3 24 4 25 5 26 7 27 6 28 2 29 1 30 25 31 26 32 27 33
REMARK SMILES IDX 28 34 29 36 30 37 31 38 89 39 32 40 88 41 33 42 34 43 35 44
REMARK SMILES IDX 82 45 36 46 87 47 81 48 83 49 37 50 86 51 80 52 79 53 38 55
REMARK SMILES IDX 68 56 49 57 67 58 50 59 53 60 66 61 84 62 51 63 52 64 65 66
REMARK SMILES IDX 85 67 54 68 39 69 40 70 48 71 41 72 47 73 42 74 43 75 44 76
REMARK SMILES IDX 45 77 46 78 69 79 70 80 78 81 71 82 77 83 72 84 73 85 74 86
REMARK SMILES IDX 75 87 76 88 55 89 56 90 64 91 57 92 63 93 58 94 59 95 60 96
REMARK SMILES IDX 61 97 62 98
REMARK H PARENT 23 5 27 35 83 54 53 65
REMARK Flexibility Score: inf
ROOT
ATOM      1  C   UNL A   1      45.833  39.299  26.371  1.00  0.00     0.118 C 
ENDROOT
BRANCH   1   2
ATOM      2  N   UNL A   1      45.409  40.351  27.264  1.00  0.00    -0.353 N 
ATOM      3  C   UNL A   1      44.389  41.244  27.195  1.00  0.00     0.260 C 
ATOM      4  O   UNL A   1      44.156  41.864  28.243  1.00  0.00    -0.271 OA
ATOM      5  H   UNL A   1      45.961  40.435  28.075  1.00  0.00     0.163 HD
BRANCH   3   6
ATOM      6  C   UNL A   1      43.610  41.616  25.897  1.00  0.00     0.258 C 
ATOM      7  C   UNL A   1      42.341  40.773  25.792  1.00  0.00     0.064 C 
BRANCH   6   8
ATOM      8  O   UNL A   1      43.558  42.929  25.357  1.00  0.00    -0.481 OA
BRANCH   8   9
ATOM      9  C   UNL A   1      44.485  43.411  24.491  1.00  0.00     0.120 A 
ATOM     10  C   UNL A   1      46.522  44.139  22.701  1.00  0.00    -0.024 A 
ATOM     11  C   UNL A   1      45.877  45.106  23.479  1.00  0.00     0.012 A 
ATOM     12  C   UNL A   1      46.114  42.807  22.787  1.00  0.00     0.012 A 
ATOM     13  C   UNL A   1      44.847  44.745  24.350  1.00  0.00     0.047 A 
ATOM     14  C   UNL A   1      45.087  42.451  23.669  1.00  0.00     0.047 A 
BRANCH  10  15
ATOM     15  C   UNL A   1      47.482  44.581  21.687  1.00  0.00     0.029 C 
ATOM     16  N   UNL A   1      45.589  45.721  18.792  1.00  0.00    -0.257 N 
ATOM     17  C   UNL A   1      45.664  45.097  20.028  1.00  0.00     0.270 C 
ATOM     18  C   UNL A   1      46.777  46.147  18.228  1.00  0.00     0.153 C 
ATOM     19  O   UNL A   1      44.729  44.558  20.607  1.00  0.00    -0.268 OA
ATOM     20  C   UNL A   1      47.076  45.056  20.501  1.00  0.00     0.081 C 
ATOM     21  S   UNL A   1      48.119  45.706  19.298  1.00  0.00    -0.054 SA
ATOM     22  S   UNL A   1      47.028  47.017  16.825  1.00  0.00    -0.051 S 
BRANCH  16  23
ATOM     23  C   UNL A   1      44.318  45.730  18.162  1.00  0.00     0.093 A 
ATOM     24  C   UNL A   1      43.543  46.896  18.073  1.00  0.00     0.143 A 
ATOM     25  C   UNL A   1      42.368  46.895  17.314  1.00  0.00     0.048 A 
ATOM     26  C   UNL A   1      41.984  45.753  16.608  1.00  0.00     0.004 A 
ATOM     27  C   UNL A   1      43.922  44.589  17.444  1.00  0.00     0.031 A 
ATOM     28  C   UNL A   1      42.760  44.598  16.673  1.00  0.00     0.002 A 
BRANCH  24  29
ATOM     29  O   UNL A   1      43.871  48.074  18.692  1.00  0.00    -0.495 OA
ATOM     30  C   UNL A   1      43.944  49.170  17.781  1.00  0.00     0.278 C 
ENDBRANCH  24  29
ENDBRANCH  16  23
ENDBRANCH  10  15
ENDBRANCH   8   9
ENDBRANCH   6   8
ENDBRANCH   3   6
ENDBRANCH   1   2
BRANCH   1  31
ATOM     31  C   UNL A   1      45.457  37.905  26.851  1.00  0.00     0.042 C 
BRANCH  31  32
ATOM     32  C   UNL A   1      45.574  37.758  28.361  1.00  0.00     0.118 C 
BRANCH  32  33
ATOM     33  N   UNL A   1      46.960  37.806  28.819  1.00  0.00    -0.352 N 
ATOM     34  C   UNL A   1      47.835  36.786  29.117  1.00  0.00     0.251 C 
ATOM     35  H   UNL A   1      47.326  38.712  28.932  1.00  0.00     0.163 HD
ATOM     36  O   UNL A   1      48.907  37.047  29.642  1.00  0.00    -0.269 OA
BRANCH  34  37
ATOM     37  C   UNL A   1      47.461  35.383  28.833  1.00  0.00     0.039 A 
ATOM     38  C   UNL A   1      47.254  34.505  29.903  1.00  0.00     0.014 A 
ATOM     39  C   UNL A   1      47.312  34.933  27.521  1.00  0.00     0.014 A 
ATOM     40  C   UNL A   1      46.823  33.199  29.654  1.00  0.00     0.010 A 
ATOM     41  C   UNL A   1      46.787  33.671  27.281  1.00  0.00     0.010 A 
ATOM     42  C   UNL A   1      46.547  32.787  28.343  1.00  0.00    -0.014 A 
BRANCH  42  43
ATOM     43  C   UNL A   1      46.049  31.426  28.020  1.00  0.00     0.031 A 
ATOM     44  C   UNL A   1      44.613  31.084  28.311  1.00  0.00     0.074 A 
ATOM     45  C   UNL A   1      46.901  30.478  27.584  1.00  0.00     0.049 A 
ATOM     46  N   UNL A   1      44.023  29.918  28.308  1.00  0.00    -0.248 NA
ATOM     47  C   UNL A   1      43.736  32.201  28.703  1.00  0.00     0.031 C 
ATOM     48  C   UNL A   1      48.321  30.680  27.281  1.00  0.00     0.029 A 
ATOM     49  N   UNL A   1      46.698  29.143  27.337  1.00  0.00    -0.354 N 
ATOM     50  C   UNL A   1      42.722  30.156  28.736  1.00  0.00     0.074 A 
ATOM     51  C   UNL A   1      42.625  31.565  29.040  1.00  0.00     0.031 C 
ATOM     52  C   UNL A   1      48.853  29.517  26.871  1.00  0.00     0.029 A 
ATOM     53  C   UNL A   1      47.832  28.477  26.934  1.00  0.00     0.049 A 
ATOM     54  H   UNL A   1      45.822  28.704  27.438  1.00  0.00     0.167 HD
ATOM     55  C   UNL A   1      41.694  29.281  28.849  1.00  0.00     0.031 A 
ATOM     56  C   UNL A   1      48.029  27.172  26.664  1.00  0.00     0.031 A 
ATOM     57  C   UNL A   1      41.792  27.887  28.516  1.00  0.00     0.049 A 
ATOM     58  C   UNL A   1      46.875  26.215  26.799  1.00  0.00     0.074 A 
ATOM     59  C   UNL A   1      40.802  26.922  28.547  1.00  0.00     0.029 A 
ATOM     60  N   UNL A   1      42.952  27.262  28.080  1.00  0.00    -0.354 N 
ATOM     61  N   UNL A   1      45.643  26.461  27.179  1.00  0.00    -0.248 NA
ATOM     62  C   UNL A   1      47.133  24.809  26.461  1.00  0.00     0.031 C 
ATOM     63  C   UNL A   1      41.373  25.704  28.167  1.00  0.00     0.029 A 
ATOM     64  C   UNL A   1      42.704  25.922  27.845  1.00  0.00     0.049 A 
ATOM     65  H   UNL A   1      43.821  27.706  27.956  1.00  0.00     0.167 HD
ATOM     66  C   UNL A   1      44.970  25.248  27.087  1.00  0.00     0.074 A 
ATOM     67  C   UNL A   1      45.931  24.270  26.618  1.00  0.00     0.031 C 
ATOM     68  C   UNL A   1      43.671  24.971  27.357  1.00  0.00     0.031 A 
BRANCH  55  69
ATOM     69  C   UNL A   1      40.382  29.818  29.360  1.00  0.00    -0.014 A 
ATOM     70  C   UNL A   1      40.134  29.944  30.740  1.00  0.00     0.010 A 
ATOM     71  C   UNL A   1      39.384  30.209  28.449  1.00  0.00     0.010 A 
ATOM     72  C   UNL A   1      38.893  30.391  31.199  1.00  0.00     0.020 A 
ATOM     73  C   UNL A   1      38.153  30.689  28.904  1.00  0.00     0.020 A 
ATOM     74  C   UNL A   1      37.907  30.754  30.278  1.00  0.00     0.054 A 
BRANCH  74  75
ATOM     75  S   UNL A   1      36.304  31.328  30.901  1.00  0.00     0.124 S 
ATOM     76  O   UNL A   1      35.466  31.230  29.709  1.00  0.00    -0.237 OA
ATOM     77  O   UNL A   1      36.007  30.364  31.957  1.00  0.00    -0.237 OA
ATOM     78  O   UNL A   1      36.576  32.687  31.360  1.00  0.00    -0.744 OA
ENDBRANCH  74  75
ENDBRANCH  55  69
BRANCH  56  79
ATOM     79  C   UNL A   1      49.368  26.702  26.212  1.00  0.00    -0.014 A 
ATOM     80  C   UNL A   1      49.707  26.740  24.848  1.00  0.00     0.010 A 
ATOM     81  C   UNL A   1      50.318  26.242  27.140  1.00  0.00     0.010 A 
ATOM     82  C   UNL A   1      50.967  26.315  24.419  1.00  0.00     0.020 A 
ATOM     83  C   UNL A   1      51.590  25.841  26.718  1.00  0.00     0.020 A 
ATOM     84  C   UNL A   1      51.902  25.871  25.357  1.00  0.00     0.054 A 
BRANCH  84  85
ATOM     85  S   UNL A   1      53.552  25.380  24.782  1.00  0.00     0.124 S 
ATOM     86  O   UNL A   1      54.423  26.161  25.653  1.00  0.00    -0.237 OA
ATOM     87  O   UNL A   1      53.549  23.938  25.015  1.00  0.00    -0.237 OA
ATOM     88  O   UNL A   1      53.554  25.776  23.374  1.00  0.00    -0.744 OA
ENDBRANCH  84  85
ENDBRANCH  56  79
BRANCH  68  89
ATOM     89  C   UNL A   1      43.183  23.573  27.094  1.00  0.00    -0.014 A 
ATOM     90  C   UNL A   1      42.959  23.108  25.787  1.00  0.00     0.010 A 
ATOM     91  C   UNL A   1      43.047  22.683  28.176  1.00  0.00     0.010 A 
ATOM     92  C   UNL A   1      42.598  21.776  25.568  1.00  0.00     0.020 A 
ATOM     93  C   UNL A   1      42.710  21.345  27.958  1.00  0.00     0.020 A 
ATOM     94  C   UNL A   1      42.483  20.902  26.655  1.00  0.00     0.054 A 
BRANCH  94  95
ATOM     95  S   UNL A   1      42.096  19.158  26.335  1.00  0.00     0.124 S 
ATOM     96  O   UNL A   1      40.704  19.230  25.903  1.00  0.00    -0.237 OA
ATOM     97  O   UNL A   1      43.061  18.802  25.296  1.00  0.00    -0.237 OA
ATOM     98  O   UNL A   1      42.316  18.513  27.627  1.00  0.00    -0.744 OA
ENDBRANCH  94  95
ENDBRANCH  68  89
ENDBRANCH  42  43
ENDBRANCH  34  37
ENDBRANCH  32  33
ENDBRANCH  31  32
ENDBRANCH   1  31
TORSDOF 18
ENDMDL
