MODEL 1
REMARK VINA RESULT:     -11.8      0.000      0.000
REMARK SMILES Cc1cc(C(=O)N[C@H](CC(C)C)C(=O)NCCCNC(=O)c2ccc(-c3c4nc(c(-c5ccc(S(=O)(=O)[O-])cc5)c5ccc([nH]5)c(-c5ccc(S(=O)(=O)[O-])cc5)c5nc(c(-c6ccc(S(=O)(=O)[O-])cc6)c6ccc3[nH]6)C=C5)C=C4)cc2)sc1Br
REMARK SMILES IDX 17 1 16 2 15 3 13 4 14 5 8 7 7 8 5 9 6 10 4 12 1 13 2 14
REMARK SMILES IDX 3 15 83 16 82 17 84 18 9 19 10 20 11 21 12 22 18 23 19 24
REMARK SMILES IDX 20 25 21 27 22 28 23 29 81 30 24 31 80 32 25 33 26 34 27 35
REMARK SMILES IDX 74 36 28 37 79 38 73 39 75 40 29 41 78 42 72 43 71 44 30 46
REMARK SMILES IDX 60 47 41 48 59 49 42 50 45 51 58 52 76 53 43 54 44 55 57 57
REMARK SMILES IDX 77 58 46 59 31 60 32 61 40 62 33 63 39 64 34 65 35 66 36 67
REMARK SMILES IDX 37 68 38 69 61 70 62 71 70 72 63 73 69 74 64 75 65 76 66 77
REMARK SMILES IDX 67 78 68 79 47 80 48 81 56 82 49 83 55 84 50 85 51 86 52 87
REMARK SMILES IDX 53 88 54 89
REMARK H PARENT 15 6 7 11 19 26 75 45 45 56
REMARK Flexibility Score: inf
ROOT
ATOM      1  C   UNL A   1      37.533  21.329  25.251  1.00  0.00     0.042 C 
ENDROOT
BRANCH   1   2
ATOM      2  C   UNL A   1      36.086  21.761  25.512  1.00  0.00     0.117 C 
BRANCH   2   3
ATOM      3  N   UNL A   1      35.172  20.633  25.518  1.00  0.00    -0.354 N 
ATOM      4  C   UNL A   1      33.825  20.549  25.336  1.00  0.00     0.242 C 
ATOM      5  O   UNL A   1      33.314  19.431  25.461  1.00  0.00    -0.273 OA
ATOM      6  H   UNL A   1      35.607  19.767  25.684  1.00  0.00     0.163 HD
BRANCH   4   7
ATOM      7  C   UNL A   1      32.931  21.766  24.990  1.00  0.00     0.171 C 
BRANCH   7   8
ATOM      8  N   UNL A   1      31.996  22.029  26.068  1.00  0.00    -0.340 N 
ATOM      9  C   UNL A   1      31.547  23.191  26.647  1.00  0.00     0.262 C 
ATOM     10  O   UNL A   1      30.822  23.004  27.631  1.00  0.00    -0.268 OA
ATOM     11  H   UNL A   1      31.607  21.215  26.460  1.00  0.00     0.164 HD
BRANCH   9  12
ATOM     12  C   UNL A   1      31.848  24.520  26.124  1.00  0.00     0.093 A 
ATOM     13  C   UNL A   1      33.982  27.354  24.825  1.00  0.00     0.046 C 
ATOM     14  C   UNL A   1      32.834  26.500  25.262  1.00  0.00    -0.025 A 
ATOM     15  C   UNL A   1      33.019  25.230  25.923  1.00  0.00     0.030 A 
ATOM     16  C   UNL A   1      31.490  26.757  25.122  1.00  0.00     0.074 A 
ATOM     17  S   UNL A   1      30.499  25.501  25.671  1.00  0.00    -0.123 S 
ATOM     18  Br  UNL A   1      30.758  28.328  24.396  1.00  0.00    -0.039 Br
ENDBRANCH   9  12
ENDBRANCH   7   8
BRANCH   7  19
ATOM     19  C   UNL A   1      32.375  21.794  23.551  1.00  0.00     0.038 C 
BRANCH  19  20
ATOM     20  C   UNL A   1      32.823  22.852  22.529  1.00  0.00    -0.015 C 
ATOM     21  C   UNL A   1      31.956  24.105  22.469  1.00  0.00     0.007 C 
ATOM     22  C   UNL A   1      34.276  23.251  22.822  1.00  0.00     0.007 C 
ENDBRANCH  19  20
ENDBRANCH   7  19
ENDBRANCH   4   7
ENDBRANCH   2   3
ENDBRANCH   1   2
BRANCH   1  23
ATOM     23  C   UNL A   1      38.523  21.984  26.186  1.00  0.00     0.118 C 
BRANCH  23  24
ATOM     24  N   UNL A   1      39.906  21.659  25.849  1.00  0.00    -0.352 N 
ATOM     25  C   UNL A   1      41.022  22.461  26.024  1.00  0.00     0.251 C 
ATOM     26  H   UNL A   1      40.063  20.771  25.453  1.00  0.00     0.163 HD
ATOM     27  O   UNL A   1      42.052  22.240  25.419  1.00  0.00    -0.269 OA
BRANCH  25  28
ATOM     28  C   UNL A   1      40.895  23.612  26.940  1.00  0.00     0.039 A 
ATOM     29  C   UNL A   1      41.836  23.831  27.944  1.00  0.00     0.014 A 
ATOM     30  C   UNL A   1      39.888  24.537  26.691  1.00  0.00     0.014 A 
ATOM     31  C   UNL A   1      41.815  25.048  28.620  1.00  0.00     0.010 A 
ATOM     32  C   UNL A   1      39.983  25.799  27.230  1.00  0.00     0.010 A 
ATOM     33  C   UNL A   1      40.913  26.055  28.231  1.00  0.00    -0.014 A 
BRANCH  33  34
ATOM     34  C   UNL A   1      41.002  27.392  28.819  1.00  0.00     0.031 A 
ATOM     35  C   UNL A   1      42.067  28.277  28.268  1.00  0.00     0.074 A 
ATOM     36  C   UNL A   1      40.122  27.907  29.706  1.00  0.00     0.049 A 
ATOM     37  N   UNL A   1      43.174  28.616  28.842  1.00  0.00    -0.248 NA
ATOM     38  C   UNL A   1      41.946  28.750  26.880  1.00  0.00     0.031 C 
ATOM     39  C   UNL A   1      38.850  27.354  30.190  1.00  0.00     0.029 A 
ATOM     40  N   UNL A   1      40.162  29.124  30.310  1.00  0.00    -0.354 N 
ATOM     41  C   UNL A   1      43.808  29.506  27.981  1.00  0.00     0.074 A 
ATOM     42  C   UNL A   1      43.085  29.433  26.733  1.00  0.00     0.031 C 
ATOM     43  C   UNL A   1      38.137  28.324  30.803  1.00  0.00     0.029 A 
ATOM     44  C   UNL A   1      38.982  29.492  30.941  1.00  0.00     0.049 A 
ATOM     45  H   UNL A   1      40.962  29.698  30.300  1.00  0.00     0.167 HD
ATOM     46  C   UNL A   1      44.753  30.383  28.421  1.00  0.00     0.031 A 
ATOM     47  C   UNL A   1      38.718  30.674  31.547  1.00  0.00     0.031 A 
ATOM     48  C   UNL A   1      45.208  30.060  29.750  1.00  0.00     0.049 A 
ATOM     49  C   UNL A   1      40.023  31.276  31.908  1.00  0.00     0.074 A 
ATOM     50  C   UNL A   1      45.800  28.957  30.334  1.00  0.00     0.029 A 
ATOM     51  N   UNL A   1      44.702  30.805  30.791  1.00  0.00    -0.354 N 
ATOM     52  N   UNL A   1      40.824  30.760  32.799  1.00  0.00    -0.248 NA
ATOM     53  C   UNL A   1      40.641  32.204  30.978  1.00  0.00     0.031 C 
ATOM     54  C   UNL A   1      45.175  28.842  31.611  1.00  0.00     0.029 A 
ATOM     55  C   UNL A   1      44.297  29.919  31.757  1.00  0.00     0.049 A 
ATOM     56  H   UNL A   1      44.642  31.786  30.835  1.00  0.00     0.167 HD
ATOM     57  C   UNL A   1      42.098  30.951  32.285  1.00  0.00     0.074 A 
ATOM     58  C   UNL A   1      41.928  31.937  31.219  1.00  0.00     0.031 C 
ATOM     59  C   UNL A   1      43.124  30.101  32.589  1.00  0.00     0.031 A 
BRANCH  46  60
ATOM     60  C   UNL A   1      45.003  31.737  27.804  1.00  0.00    -0.014 A 
ATOM     61  C   UNL A   1      46.312  32.079  27.402  1.00  0.00     0.010 A 
ATOM     62  C   UNL A   1      44.059  32.782  27.857  1.00  0.00     0.010 A 
ATOM     63  C   UNL A   1      46.669  33.408  27.135  1.00  0.00     0.020 A 
ATOM     64  C   UNL A   1      44.393  34.102  27.549  1.00  0.00     0.020 A 
ATOM     65  C   UNL A   1      45.707  34.414  27.227  1.00  0.00     0.054 A 
BRANCH  65  66
ATOM     66  S   UNL A   1      46.200  36.139  26.994  1.00  0.00     0.124 S 
ATOM     67  O   UNL A   1      47.011  36.381  28.183  1.00  0.00    -0.237 OA
ATOM     68  O   UNL A   1      46.926  36.087  25.728  1.00  0.00    -0.237 OA
ATOM     69  O   UNL A   1      44.925  36.855  26.947  1.00  0.00    -0.744 OA
ENDBRANCH  65  66
ENDBRANCH  46  60
BRANCH  47  70
ATOM     70  C   UNL A   1      37.440  31.419  31.576  1.00  0.00    -0.014 A 
ATOM     71  C   UNL A   1      36.684  31.498  32.759  1.00  0.00     0.010 A 
ATOM     72  C   UNL A   1      37.113  32.300  30.523  1.00  0.00     0.010 A 
ATOM     73  C   UNL A   1      35.693  32.479  32.916  1.00  0.00     0.020 A 
ATOM     74  C   UNL A   1      36.122  33.276  30.670  1.00  0.00     0.020 A 
ATOM     75  C   UNL A   1      35.438  33.380  31.879  1.00  0.00     0.054 A 
BRANCH  75  76
ATOM     76  S   UNL A   1      34.311  34.776  32.170  1.00  0.00     0.124 S 
ATOM     77  O   UNL A   1      33.969  35.188  30.812  1.00  0.00    -0.237 OA
ATOM     78  O   UNL A   1      33.231  34.157  32.934  1.00  0.00    -0.237 OA
ATOM     79  O   UNL A   1      35.128  35.728  32.921  1.00  0.00    -0.744 OA
ENDBRANCH  75  76
ENDBRANCH  47  70
BRANCH  59  80
ATOM     80  C   UNL A   1      42.936  29.106  33.716  1.00  0.00    -0.014 A 
ATOM     81  C   UNL A   1      43.410  29.306  35.029  1.00  0.00     0.010 A 
ATOM     82  C   UNL A   1      42.123  27.986  33.468  1.00  0.00     0.010 A 
ATOM     83  C   UNL A   1      43.105  28.394  36.052  1.00  0.00     0.020 A 
ATOM     84  C   UNL A   1      41.800  27.084  34.486  1.00  0.00     0.020 A 
ATOM     85  C   UNL A   1      42.301  27.285  35.772  1.00  0.00     0.054 A 
BRANCH  85  86
ATOM     86  S   UNL A   1      41.879  26.127  37.104  1.00  0.00     0.124 S 
ATOM     87  O   UNL A   1      40.515  26.519  37.446  1.00  0.00    -0.237 OA
ATOM     88  O   UNL A   1      42.015  24.823  36.458  1.00  0.00    -0.237 OA
ATOM     89  O   UNL A   1      42.878  26.403  38.136  1.00  0.00    -0.744 OA
ENDBRANCH  85  86
ENDBRANCH  59  80
ENDBRANCH  33  34
ENDBRANCH  25  28
ENDBRANCH  23  24
ENDBRANCH   1  23
TORSDOF 17
ENDMDL
MODEL 2
REMARK VINA RESULT:     -11.7      3.297      9.559
REMARK SMILES Cc1cc(C(=O)N[C@H](CC(C)C)C(=O)NCCCNC(=O)c2ccc(-c3c4nc(c(-c5ccc(S(=O)(=O)[O-])cc5)c5ccc([nH]5)c(-c5ccc(S(=O)(=O)[O-])cc5)c5nc(c(-c6ccc(S(=O)(=O)[O-])cc6)c6ccc3[nH]6)C=C5)C=C4)cc2)sc1Br
REMARK SMILES IDX 17 1 16 2 15 3 13 4 14 5 8 7 7 8 5 9 6 10 4 12 1 13 2 14
REMARK SMILES IDX 3 15 83 16 82 17 84 18 9 19 10 20 11 21 12 22 18 23 19 24
REMARK SMILES IDX 20 25 21 27 22 28 23 29 81 30 24 31 80 32 25 33 26 34 27 35
REMARK SMILES IDX 74 36 28 37 79 38 73 39 75 40 29 41 78 42 72 43 71 44 30 46
REMARK SMILES IDX 60 47 41 48 59 49 42 50 45 51 58 52 76 53 43 54 44 55 57 57
REMARK SMILES IDX 77 58 46 59 31 60 32 61 40 62 33 63 39 64 34 65 35 66 36 67
REMARK SMILES IDX 37 68 38 69 61 70 62 71 70 72 63 73 69 74 64 75 65 76 66 77
REMARK SMILES IDX 67 78 68 79 47 80 48 81 56 82 49 83 55 84 50 85 51 86 52 87
REMARK SMILES IDX 53 88 54 89
REMARK H PARENT 15 6 7 11 19 26 75 45 45 56
REMARK Flexibility Score: inf
ROOT
ATOM      1  C   UNL A   1      32.978  29.212  26.773  1.00  0.00     0.042 C 
ENDROOT
BRANCH   1   2
ATOM      2  C   UNL A   1      32.375  29.641  25.431  1.00  0.00     0.117 C 
BRANCH   2   3
ATOM      3  N   UNL A   1      33.326  29.521  24.341  1.00  0.00    -0.354 N 
ATOM      4  C   UNL A   1      33.303  28.804  23.184  1.00  0.00     0.242 C 
ATOM      5  O   UNL A   1      34.310  28.863  22.470  1.00  0.00    -0.273 OA
ATOM      6  H   UNL A   1      34.142  30.059  24.461  1.00  0.00     0.163 HD
BRANCH   4   7
ATOM      7  C   UNL A   1      32.098  27.937  22.739  1.00  0.00     0.171 C 
BRANCH   7   8
ATOM      8  N   UNL A   1      32.522  26.943  21.771  1.00  0.00    -0.340 N 
ATOM      9  C   UNL A   1      32.878  25.621  21.891  1.00  0.00     0.262 C 
ATOM     10  O   UNL A   1      33.291  25.124  20.837  1.00  0.00    -0.268 OA
ATOM     11  H   UNL A   1      32.560  27.281  20.848  1.00  0.00     0.164 HD
BRANCH   9  12
ATOM     12  C   UNL A   1      32.732  24.857  23.126  1.00  0.00     0.093 A 
ATOM     13  C   UNL A   1      31.060  22.599  25.651  1.00  0.00     0.046 C 
ATOM     14  C   UNL A   1      32.030  23.476  24.925  1.00  0.00    -0.025 A 
ATOM     15  C   UNL A   1      31.670  24.214  23.738  1.00  0.00     0.030 A 
ATOM     16  C   UNL A   1      33.346  23.720  25.240  1.00  0.00     0.074 A 
ATOM     17  S   UNL A   1      34.139  24.710  24.120  1.00  0.00    -0.123 S 
ATOM     18  Br  UNL A   1      34.241  23.049  26.750  1.00  0.00    -0.039 Br
ENDBRANCH   9  12
ENDBRANCH   7   8
BRANCH   7  19
ATOM     19  C   UNL A   1      30.800  28.712  22.432  1.00  0.00     0.038 C 
BRANCH  19  20
ATOM     20  C   UNL A   1      29.551  28.585  23.320  1.00  0.00    -0.015 C 
ATOM     21  C   UNL A   1      28.300  29.272  22.783  1.00  0.00     0.007 C 
ATOM     22  C   UNL A   1      29.253  27.097  23.558  1.00  0.00     0.007 C 
ENDBRANCH  19  20
ENDBRANCH   7  19
ENDBRANCH   4   7
ENDBRANCH   2   3
ENDBRANCH   1   2
BRANCH   1  23
ATOM     23  C   UNL A   1      34.295  29.888  27.073  1.00  0.00     0.118 C 
BRANCH  23  24
ATOM     24  N   UNL A   1      34.125  31.265  27.526  1.00  0.00    -0.352 N 
ATOM     25  C   UNL A   1      34.759  31.882  28.592  1.00  0.00     0.251 C 
ATOM     26  H   UNL A   1      33.487  31.817  27.017  1.00  0.00     0.163 HD
ATOM     27  O   UNL A   1      34.312  32.899  29.083  1.00  0.00    -0.269 OA
BRANCH  25  28
ATOM     28  C   UNL A   1      35.971  31.231  29.130  1.00  0.00     0.039 A 
ATOM     29  C   UNL A   1      35.950  29.892  29.514  1.00  0.00     0.014 A 
ATOM     30  C   UNL A   1      37.159  31.953  29.122  1.00  0.00     0.014 A 
ATOM     31  C   UNL A   1      37.161  29.258  29.782  1.00  0.00     0.010 A 
ATOM     32  C   UNL A   1      38.356  31.282  29.209  1.00  0.00     0.010 A 
ATOM     33  C   UNL A   1      38.373  29.944  29.585  1.00  0.00    -0.014 A 
BRANCH  33  34
ATOM     34  C   UNL A   1      39.648  29.234  29.697  1.00  0.00     0.031 A 
ATOM     35  C   UNL A   1      40.101  28.920  31.082  1.00  0.00     0.074 A 
ATOM     36  C   UNL A   1      40.353  28.742  28.655  1.00  0.00     0.049 A 
ATOM     37  N   UNL A   1      41.057  29.490  31.738  1.00  0.00    -0.248 NA
ATOM     38  C   UNL A   1      39.336  27.943  31.872  1.00  0.00     0.031 C 
ATOM     39  C   UNL A   1      39.993  28.671  27.233  1.00  0.00     0.029 A 
ATOM     40  N   UNL A   1      41.553  28.102  28.687  1.00  0.00    -0.354 N 
ATOM     41  C   UNL A   1      41.157  28.817  32.952  1.00  0.00     0.074 A 
ATOM     42  C   UNL A   1      39.982  27.982  33.040  1.00  0.00     0.031 C 
ATOM     43  C   UNL A   1      40.824  27.818  26.595  1.00  0.00     0.029 A 
ATOM     44  C   UNL A   1      41.890  27.455  27.507  1.00  0.00     0.049 A 
ATOM     45  H   UNL A   1      42.133  28.097  29.482  1.00  0.00     0.167 HD
ATOM     46  C   UNL A   1      42.296  28.846  33.699  1.00  0.00     0.031 A 
ATOM     47  C   UNL A   1      42.979  26.681  27.286  1.00  0.00     0.031 A 
ATOM     48  C   UNL A   1      43.209  29.866  33.247  1.00  0.00     0.049 A 
ATOM     49  C   UNL A   1      43.999  27.074  28.286  1.00  0.00     0.074 A 
ATOM     50  C   UNL A   1      43.139  31.238  33.099  1.00  0.00     0.029 A 
ATOM     51  N   UNL A   1      44.278  29.463  32.480  1.00  0.00    -0.354 N 
ATOM     52  N   UNL A   1      44.574  28.244  28.296  1.00  0.00    -0.248 NA
ATOM     53  C   UNL A   1      44.067  26.336  29.536  1.00  0.00     0.031 C 
ATOM     54  C   UNL A   1      43.820  31.507  31.875  1.00  0.00     0.029 A 
ATOM     55  C   UNL A   1      44.325  30.297  31.391  1.00  0.00     0.049 A 
ATOM     56  H   UNL A   1      44.892  28.719  32.673  1.00  0.00     0.167 HD
ATOM     57  C   UNL A   1      44.692  28.573  29.638  1.00  0.00     0.074 A 
ATOM     58  C   UNL A   1      44.461  27.318  30.352  1.00  0.00     0.031 C 
ATOM     59  C   UNL A   1      44.700  29.874  30.056  1.00  0.00     0.031 A 
BRANCH  46  60
ATOM     60  C   UNL A   1      42.745  27.723  34.601  1.00  0.00    -0.014 A 
ATOM     61  C   UNL A   1      42.982  27.990  35.966  1.00  0.00     0.010 A 
ATOM     62  C   UNL A   1      43.203  26.486  34.103  1.00  0.00     0.010 A 
ATOM     63  C   UNL A   1      43.702  27.094  36.769  1.00  0.00     0.020 A 
ATOM     64  C   UNL A   1      43.881  25.567  34.906  1.00  0.00     0.020 A 
ATOM     65  C   UNL A   1      44.160  25.894  36.227  1.00  0.00     0.054 A 
BRANCH  65  66
ATOM     66  S   UNL A   1      45.186  24.796  37.236  1.00  0.00     0.124 S 
ATOM     67  O   UNL A   1      46.521  25.334  36.999  1.00  0.00    -0.237 OA
ATOM     68  O   UNL A   1      44.643  25.007  38.575  1.00  0.00    -0.237 OA
ATOM     69  O   UNL A   1      44.932  23.473  36.667  1.00  0.00    -0.744 OA
ENDBRANCH  65  66
ENDBRANCH  46  60
BRANCH  47  70
ATOM     70  C   UNL A   1      43.077  25.458  26.458  1.00  0.00    -0.014 A 
ATOM     71  C   UNL A   1      44.003  25.380  25.403  1.00  0.00     0.010 A 
ATOM     72  C   UNL A   1      42.469  24.262  26.894  1.00  0.00     0.010 A 
ATOM     73  C   UNL A   1      44.372  24.139  24.860  1.00  0.00     0.020 A 
ATOM     74  C   UNL A   1      42.826  23.022  26.352  1.00  0.00     0.020 A 
ATOM     75  C   UNL A   1      43.800  22.966  25.358  1.00  0.00     0.054 A 
BRANCH  75  76
ATOM     76  S   UNL A   1      44.440  21.358  24.801  1.00  0.00     0.124 S 
ATOM     77  O   UNL A   1      45.692  21.247  25.544  1.00  0.00    -0.237 OA
ATOM     78  O   UNL A   1      43.381  20.439  25.205  1.00  0.00    -0.237 OA
ATOM     79  O   UNL A   1      44.589  21.529  23.357  1.00  0.00    -0.744 OA
ENDBRANCH  75  76
ENDBRANCH  47  70
BRANCH  59  80
ATOM     80  C   UNL A   1      44.863  30.969  29.023  1.00  0.00    -0.014 A 
ATOM     81  C   UNL A   1      46.105  31.530  28.660  1.00  0.00     0.010 A 
ATOM     82  C   UNL A   1      43.725  31.347  28.287  1.00  0.00     0.010 A 
ATOM     83  C   UNL A   1      46.197  32.464  27.615  1.00  0.00     0.020 A 
ATOM     84  C   UNL A   1      43.812  32.262  27.233  1.00  0.00     0.020 A 
ATOM     85  C   UNL A   1      45.047  32.826  26.909  1.00  0.00     0.054 A 
BRANCH  85  86
ATOM     86  S   UNL A   1      45.174  34.006  25.536  1.00  0.00     0.124 S 
ATOM     87  O   UNL A   1      44.416  35.151  26.029  1.00  0.00    -0.237 OA
ATOM     88  O   UNL A   1      46.616  34.211  25.415  1.00  0.00    -0.237 OA
ATOM     89  O   UNL A   1      44.563  33.299  24.410  1.00  0.00    -0.744 OA
ENDBRANCH  85  86
ENDBRANCH  59  80
ENDBRANCH  33  34
ENDBRANCH  25  28
ENDBRANCH  23  24
ENDBRANCH   1  23
TORSDOF 17
ENDMDL
MODEL 3
REMARK VINA RESULT:     -11.4      5.245     11.845
REMARK SMILES Cc1cc(C(=O)N[C@H](CC(C)C)C(=O)NCCCNC(=O)c2ccc(-c3c4nc(c(-c5ccc(S(=O)(=O)[O-])cc5)c5ccc([nH]5)c(-c5ccc(S(=O)(=O)[O-])cc5)c5nc(c(-c6ccc(S(=O)(=O)[O-])cc6)c6ccc3[nH]6)C=C5)C=C4)cc2)sc1Br
REMARK SMILES IDX 17 1 16 2 15 3 13 4 14 5 8 7 7 8 5 9 6 10 4 12 1 13 2 14
REMARK SMILES IDX 3 15 83 16 82 17 84 18 9 19 10 20 11 21 12 22 18 23 19 24
REMARK SMILES IDX 20 25 21 27 22 28 23 29 81 30 24 31 80 32 25 33 26 34 27 35
REMARK SMILES IDX 74 36 28 37 79 38 73 39 75 40 29 41 78 42 72 43 71 44 30 46
REMARK SMILES IDX 60 47 41 48 59 49 42 50 45 51 58 52 76 53 43 54 44 55 57 57
REMARK SMILES IDX 77 58 46 59 31 60 32 61 40 62 33 63 39 64 34 65 35 66 36 67
REMARK SMILES IDX 37 68 38 69 61 70 62 71 70 72 63 73 69 74 64 75 65 76 66 77
REMARK SMILES IDX 67 78 68 79 47 80 48 81 56 82 49 83 55 84 50 85 51 86 52 87
REMARK SMILES IDX 53 88 54 89
REMARK H PARENT 15 6 7 11 19 26 75 45 45 56
REMARK Flexibility Score: inf
ROOT
ATOM      1  C   UNL A   1      34.753  33.728  32.378  1.00  0.00     0.042 C 
ENDROOT
BRANCH   1   2
ATOM      2  C   UNL A   1      35.150  33.495  33.840  1.00  0.00     0.117 C 
BRANCH   2   3
ATOM      3  N   UNL A   1      36.299  34.294  34.227  1.00  0.00    -0.354 N 
ATOM      4  C   UNL A   1      37.638  34.106  34.064  1.00  0.00     0.242 C 
ATOM      5  O   UNL A   1      38.385  34.953  34.566  1.00  0.00    -0.273 OA
ATOM      6  H   UNL A   1      36.067  35.127  34.697  1.00  0.00     0.163 HD
BRANCH   4   7
ATOM      7  C   UNL A   1      38.246  32.906  33.295  1.00  0.00     0.171 C 
BRANCH   7   8
ATOM      8  N   UNL A   1      38.094  31.685  34.064  1.00  0.00    -0.340 N 
ATOM      9  C   UNL A   1      38.770  31.180  35.149  1.00  0.00     0.262 C 
ATOM     10  O   UNL A   1      38.414  30.038  35.463  1.00  0.00    -0.268 OA
ATOM     11  H   UNL A   1      37.365  31.107  33.748  1.00  0.00     0.164 HD
BRANCH   9  12
ATOM     12  C   UNL A   1      39.770  31.934  35.897  1.00  0.00     0.093 A 
ATOM     13  C   UNL A   1      43.115  33.544  36.600  1.00  0.00     0.046 C 
ATOM     14  C   UNL A   1      41.698  33.074  36.686  1.00  0.00    -0.025 A 
ATOM     15  C   UNL A   1      41.130  32.142  35.742  1.00  0.00     0.030 A 
ATOM     16  C   UNL A   1      40.748  33.423  37.618  1.00  0.00     0.074 A 
ATOM     17  S   UNL A   1      39.228  32.740  37.326  1.00  0.00    -0.123 S 
ATOM     18  Br  UNL A   1      41.043  34.546  39.096  1.00  0.00    -0.039 Br
ENDBRANCH   9  12
ENDBRANCH   7   8
BRANCH   7  19
ATOM     19  C   UNL A   1      39.619  33.163  32.641  1.00  0.00     0.038 C 
BRANCH  19  20
ATOM     20  C   UNL A   1      39.821  34.265  31.588  1.00  0.00    -0.015 C 
ATOM     21  C   UNL A   1      40.799  33.922  30.469  1.00  0.00     0.007 C 
ATOM     22  C   UNL A   1      38.461  34.637  30.981  1.00  0.00     0.007 C 
ENDBRANCH  19  20
ENDBRANCH   7  19
ENDBRANCH   4   7
ENDBRANCH   2   3
ENDBRANCH   1   2
BRANCH   1  23
ATOM     23  C   UNL A   1      35.141  32.584  31.470  1.00  0.00     0.118 C 
BRANCH  23  24
ATOM     24  N   UNL A   1      34.266  32.474  30.307  1.00  0.00    -0.352 N 
ATOM     25  C   UNL A   1      34.631  32.150  29.011  1.00  0.00     0.251 C 
ATOM     26  H   UNL A   1      33.309  32.652  30.461  1.00  0.00     0.163 HD
ATOM     27  O   UNL A   1      33.904  32.408  28.073  1.00  0.00    -0.269 OA
BRANCH  25  28
ATOM     28  C   UNL A   1      35.952  31.520  28.815  1.00  0.00     0.039 A 
ATOM     29  C   UNL A   1      37.122  32.270  28.917  1.00  0.00     0.014 A 
ATOM     30  C   UNL A   1      36.000  30.140  28.655  1.00  0.00     0.014 A 
ATOM     31  C   UNL A   1      38.340  31.598  28.968  1.00  0.00     0.010 A 
ATOM     32  C   UNL A   1      37.182  29.475  28.887  1.00  0.00     0.010 A 
ATOM     33  C   UNL A   1      38.368  30.191  28.998  1.00  0.00    -0.014 A 
BRANCH  33  34
ATOM     34  C   UNL A   1      39.629  29.483  29.226  1.00  0.00     0.031 A 
ATOM     35  C   UNL A   1      40.007  29.266  30.651  1.00  0.00     0.074 A 
ATOM     36  C   UNL A   1      40.381  28.914  28.258  1.00  0.00     0.049 A 
ATOM     37  N   UNL A   1      40.934  29.875  31.313  1.00  0.00    -0.248 NA
ATOM     38  C   UNL A   1      39.193  28.352  31.467  1.00  0.00     0.031 C 
ATOM     39  C   UNL A   1      40.094  28.744  26.828  1.00  0.00     0.029 A 
ATOM     40  N   UNL A   1      41.571  28.270  28.397  1.00  0.00    -0.354 N 
ATOM     41  C   UNL A   1      40.965  29.290  32.575  1.00  0.00     0.074 A 
ATOM     42  C   UNL A   1      39.779  28.470  32.662  1.00  0.00     0.031 C 
ATOM     43  C   UNL A   1      40.948  27.842  26.296  1.00  0.00     0.029 A 
ATOM     44  C   UNL A   1      41.962  27.538  27.285  1.00  0.00     0.049 A 
ATOM     45  H   UNL A   1      42.110  28.318  29.220  1.00  0.00     0.167 HD
ATOM     46  C   UNL A   1      42.065  29.365  33.376  1.00  0.00     0.031 A 
ATOM     47  C   UNL A   1      43.053  26.744  27.177  1.00  0.00     0.031 A 
ATOM     48  C   UNL A   1      43.010  30.343  32.901  1.00  0.00     0.049 A 
ATOM     49  C   UNL A   1      44.024  27.200  28.198  1.00  0.00     0.074 A 
ATOM     50  C   UNL A   1      42.961  31.702  32.653  1.00  0.00     0.029 A 
ATOM     51  N   UNL A   1      44.113  29.881  32.220  1.00  0.00    -0.354 N 
ATOM     52  N   UNL A   1      44.610  28.365  28.154  1.00  0.00    -0.248 NA
ATOM     53  C   UNL A   1      44.021  26.553  29.499  1.00  0.00     0.031 C 
ATOM     54  C   UNL A   1      43.706  31.878  31.449  1.00  0.00     0.029 A 
ATOM     55  C   UNL A   1      44.224  30.635  31.079  1.00  0.00     0.049 A 
ATOM     56  H   UNL A   1      44.709  29.148  32.498  1.00  0.00     0.167 HD
ATOM     57  C   UNL A   1      44.662  28.787  29.474  1.00  0.00     0.074 A 
ATOM     58  C   UNL A   1      44.383  27.588  30.262  1.00  0.00     0.031 C 
ATOM     59  C   UNL A   1      44.661  30.115  29.799  1.00  0.00     0.031 A 
BRANCH  46  60
ATOM     60  C   UNL A   1      42.456  28.305  34.378  1.00  0.00    -0.014 A 
ATOM     61  C   UNL A   1      42.757  28.688  35.701  1.00  0.00     0.010 A 
ATOM     62  C   UNL A   1      42.803  26.993  33.998  1.00  0.00     0.010 A 
ATOM     63  C   UNL A   1      43.431  27.824  36.575  1.00  0.00     0.020 A 
ATOM     64  C   UNL A   1      43.434  26.109  34.874  1.00  0.00     0.020 A 
ATOM     65  C   UNL A   1      43.780  26.543  36.147  1.00  0.00     0.054 A 
BRANCH  65  66
ATOM     66  S   UNL A   1      44.751  25.475  37.239  1.00  0.00     0.124 S 
ATOM     67  O   UNL A   1      44.150  25.751  38.539  1.00  0.00    -0.237 OA
ATOM     68  O   UNL A   1      44.490  24.148  36.687  1.00  0.00    -0.237 OA
ATOM     69  O   UNL A   1      46.119  25.960  37.062  1.00  0.00    -0.744 OA
ENDBRANCH  65  66
ENDBRANCH  46  60
BRANCH  47  70
ATOM     70  C   UNL A   1      43.180  25.464  26.444  1.00  0.00    -0.014 A 
ATOM     71  C   UNL A   1      44.093  25.335  25.382  1.00  0.00     0.010 A 
ATOM     72  C   UNL A   1      42.621  24.286  26.981  1.00  0.00     0.010 A 
ATOM     73  C   UNL A   1      44.496  24.069  24.930  1.00  0.00     0.020 A 
ATOM     74  C   UNL A   1      43.013  23.021  26.529  1.00  0.00     0.020 A 
ATOM     75  C   UNL A   1      43.973  22.919  25.526  1.00  0.00     0.054 A 
BRANCH  75  76
ATOM     76  S   UNL A   1      44.660  21.296  25.083  1.00  0.00     0.124 S 
ATOM     77  O   UNL A   1      43.731  20.377  25.734  1.00  0.00    -0.237 OA
ATOM     78  O   UNL A   1      44.610  21.319  23.624  1.00  0.00    -0.237 OA
ATOM     79  O   UNL A   1      46.007  21.325  25.653  1.00  0.00    -0.744 OA
ENDBRANCH  75  76
ENDBRANCH  47  70
BRANCH  59  80
ATOM     80  C   UNL A   1      44.889  31.133  28.700  1.00  0.00    -0.014 A 
ATOM     81  C   UNL A   1      43.858  31.684  27.912  1.00  0.00     0.010 A 
ATOM     82  C   UNL A   1      46.186  31.656  28.555  1.00  0.00     0.010 A 
ATOM     83  C   UNL A   1      44.125  32.705  26.986  1.00  0.00     0.020 A 
ATOM     84  C   UNL A   1      46.457  32.686  27.648  1.00  0.00     0.020 A 
ATOM     85  C   UNL A   1      45.427  33.198  26.859  1.00  0.00     0.054 A 
BRANCH  85  86
ATOM     86  S   UNL A   1      45.764  34.542  25.686  1.00  0.00     0.124 S 
ATOM     87  O   UNL A   1      45.345  35.726  26.430  1.00  0.00    -0.237 OA
ATOM     88  O   UNL A   1      47.202  34.421  25.456  1.00  0.00    -0.237 OA
ATOM     89  O   UNL A   1      44.931  34.213  24.529  1.00  0.00    -0.744 OA
ENDBRANCH  85  86
ENDBRANCH  59  80
ENDBRANCH  33  34
ENDBRANCH  25  28
ENDBRANCH  23  24
ENDBRANCH   1  23
TORSDOF 17
ENDMDL
