MODEL 1
REMARK VINA RESULT:     -11.5      0.000      0.000
REMARK SMILES Cc1cc(Cl)c2c(c1)C=C(C(=O)NCCCNC(=O)c1ccc(-c3c4nc(c(-c5ccc(S(=O)(=O)[O-])cc5)c5ccc([nH]5)c(-c5ccc(S(=O)(=O)[O-])cc5)c5nc(c(-c6ccc(S(=O)(=O)[O-])cc6)c6ccc3[nH]6)C=C5)C=C4)cc1)[C@@H](C(F)(F)F)O2
REMARK SMILES IDX 16 1 15 2 14 3 13 4 11 5 12 6 10 8 1 9 2 10 3 11 8 12 4 13
REMARK SMILES IDX 7 14 5 15 6 16 9 17 85 18 80 19 81 20 82 21 83 22 84 23
REMARK SMILES IDX 17 24 18 25 19 27 20 28 21 29 79 30 22 31 78 32 23 33 24 34
REMARK SMILES IDX 25 35 72 36 26 37 77 38 71 39 73 40 27 41 76 42 70 43 69 44
REMARK SMILES IDX 28 46 58 47 39 48 57 49 40 50 43 51 56 52 74 53 41 54 42 55
REMARK SMILES IDX 55 57 75 58 44 59 29 60 30 61 38 62 31 63 37 64 32 65 33 66
REMARK SMILES IDX 34 67 35 68 36 69 59 70 60 71 68 72 61 73 67 74 62 75 63 76
REMARK SMILES IDX 64 77 65 78 66 79 45 80 46 81 54 82 47 83 53 84 48 85 49 86
REMARK SMILES IDX 50 87 51 88 52 89
REMARK H PARENT 13 7 17 26 73 45 43 56
REMARK Flexibility Score: inf
ROOT
ATOM      1  C   UNL A   1      33.928  28.187  26.463  1.00  0.00     0.118 C 
ENDROOT
BRANCH   1   2
ATOM      2  C   UNL A   1      34.016  27.987  24.955  1.00  0.00     0.042 C 
BRANCH   2   3
ATOM      3  C   UNL A   1      32.769  27.325  24.389  1.00  0.00     0.118 C 
BRANCH   3   4
ATOM      4  N   UNL A   1      31.947  26.725  25.430  1.00  0.00    -0.352 N 
ATOM      5  C   UNL A   1      31.851  25.527  26.050  1.00  0.00     0.251 C 
ATOM      6  O   UNL A   1      30.987  25.456  26.930  1.00  0.00    -0.270 OA
ATOM      7  H   UNL A   1      31.281  27.364  25.776  1.00  0.00     0.163 HD
BRANCH   5   8
ATOM      8  C   UNL A   1      32.697  24.336  25.749  1.00  0.00     0.067 C 
ATOM      9  C   UNL A   1      38.599  22.462  25.964  1.00  0.00     0.044 C 
ATOM     10  C   UNL A   1      37.120  22.351  25.743  1.00  0.00    -0.049 A 
ATOM     11  C   UNL A   1      36.567  21.127  25.347  1.00  0.00     0.028 A 
ATOM     12  C   UNL A   1      36.270  23.441  25.984  1.00  0.00     0.015 A 
ATOM     13  C   UNL A   1      35.189  20.998  25.181  1.00  0.00     0.084 A 
ATOM     14  C   UNL A   1      34.886  23.315  25.813  1.00  0.00     0.019 A 
ATOM     15  Cl  UNL A   1      34.558  19.469  24.685  1.00  0.00    -0.080 Cl
ATOM     16  C   UNL A   1      34.348  22.092  25.408  1.00  0.00     0.146 A 
ATOM     17  C   UNL A   1      33.994  24.435  26.095  1.00  0.00     0.025 C 
ATOM     18  O   UNL A   1      33.000  21.907  25.276  1.00  0.00    -0.474 OA
ATOM     19  C   UNL A   1      32.191  23.094  25.074  1.00  0.00     0.314 C 
BRANCH  19  20
ATOM     20  C   UNL A   1      31.957  23.297  23.565  1.00  0.00     0.429 C 
ATOM     21  F   UNL A   1      30.702  23.753  23.331  1.00  0.00    -0.167 F 
ATOM     22  F   UNL A   1      32.801  24.208  23.022  1.00  0.00    -0.167 F 
ATOM     23  F   UNL A   1      32.114  22.155  22.857  1.00  0.00    -0.167 F 
ENDBRANCH  19  20
ENDBRANCH   5   8
ENDBRANCH   3   4
ENDBRANCH   2   3
ENDBRANCH   1   2
BRANCH   1  24
ATOM     24  N   UNL A   1      33.699  29.588  26.810  1.00  0.00    -0.352 N 
ATOM     25  C   UNL A   1      34.404  30.419  27.641  1.00  0.00     0.251 C 
ATOM     26  H   UNL A   1      32.916  29.999  26.378  1.00  0.00     0.163 HD
ATOM     27  O   UNL A   1      33.890  31.468  28.030  1.00  0.00    -0.269 OA
BRANCH  25  28
ATOM     28  C   UNL A   1      35.770  30.059  28.066  1.00  0.00     0.039 A 
ATOM     29  C   UNL A   1      35.992  29.623  29.375  1.00  0.00     0.014 A 
ATOM     30  C   UNL A   1      36.838  30.180  27.174  1.00  0.00     0.014 A 
ATOM     31  C   UNL A   1      37.278  29.250  29.766  1.00  0.00     0.010 A 
ATOM     32  C   UNL A   1      38.095  29.715  27.533  1.00  0.00     0.010 A 
ATOM     33  C   UNL A   1      38.333  29.263  28.838  1.00  0.00    -0.014 A 
BRANCH  33  34
ATOM     34  C   UNL A   1      39.702  28.839  29.216  1.00  0.00     0.031 A 
ATOM     35  C   UNL A   1      40.613  29.806  29.924  1.00  0.00     0.074 A 
ATOM     36  C   UNL A   1      40.141  27.612  28.868  1.00  0.00     0.049 A 
ATOM     37  N   UNL A   1      41.863  29.652  30.273  1.00  0.00    -0.248 NA
ATOM     38  C   UNL A   1      40.059  31.130  30.261  1.00  0.00     0.031 C 
ATOM     39  C   UNL A   1      39.362  26.609  28.137  1.00  0.00     0.029 A 
ATOM     40  N   UNL A   1      41.352  27.003  29.075  1.00  0.00    -0.354 N 
ATOM     41  C   UNL A   1      42.247  30.858  30.849  1.00  0.00     0.074 A 
ATOM     42  C   UNL A   1      41.117  31.753  30.760  1.00  0.00     0.031 C 
ATOM     43  C   UNL A   1      40.106  25.500  27.984  1.00  0.00     0.029 A 
ATOM     44  C   UNL A   1      41.424  25.727  28.564  1.00  0.00     0.049 A 
ATOM     45  H   UNL A   1      42.100  27.437  29.546  1.00  0.00     0.167 HD
ATOM     46  C   UNL A   1      43.427  31.177  31.426  1.00  0.00     0.031 A 
ATOM     47  C   UNL A   1      42.443  24.845  28.557  1.00  0.00     0.031 A 
ATOM     48  C   UNL A   1      44.532  30.268  31.548  1.00  0.00     0.049 A 
ATOM     49  C   UNL A   1      43.743  25.229  29.210  1.00  0.00     0.074 A 
ATOM     50  C   UNL A   1      45.745  30.474  32.179  1.00  0.00     0.029 A 
ATOM     51  N   UNL A   1      44.558  28.981  31.035  1.00  0.00    -0.354 N 
ATOM     52  N   UNL A   1      44.059  26.350  29.815  1.00  0.00    -0.248 NA
ATOM     53  C   UNL A   1      44.821  24.231  29.188  1.00  0.00     0.031 C 
ATOM     54  C   UNL A   1      46.527  29.332  32.000  1.00  0.00     0.029 A 
ATOM     55  C   UNL A   1      45.778  28.391  31.312  1.00  0.00     0.049 A 
ATOM     56  H   UNL A   1      43.819  28.550  30.546  1.00  0.00     0.167 HD
ATOM     57  C   UNL A   1      45.364  26.181  30.264  1.00  0.00     0.074 A 
ATOM     58  C   UNL A   1      45.769  24.845  29.881  1.00  0.00     0.031 C 
ATOM     59  C   UNL A   1      46.158  27.057  30.928  1.00  0.00     0.031 A 
BRANCH  46  60
ATOM     60  C   UNL A   1      43.590  32.561  31.995  1.00  0.00    -0.014 A 
ATOM     61  C   UNL A   1      44.070  33.616  31.198  1.00  0.00     0.010 A 
ATOM     62  C   UNL A   1      43.151  32.833  33.304  1.00  0.00     0.010 A 
ATOM     63  C   UNL A   1      44.108  34.919  31.701  1.00  0.00     0.020 A 
ATOM     64  C   UNL A   1      43.164  34.139  33.801  1.00  0.00     0.020 A 
ATOM     65  C   UNL A   1      43.643  35.174  32.995  1.00  0.00     0.054 A 
BRANCH  65  66
ATOM     66  S   UNL A   1      43.617  36.890  33.581  1.00  0.00     0.124 S 
ATOM     67  O   UNL A   1      43.611  37.639  32.327  1.00  0.00    -0.237 OA
ATOM     68  O   UNL A   1      42.377  36.943  34.350  1.00  0.00    -0.237 OA
ATOM     69  O   UNL A   1      44.842  37.007  34.368  1.00  0.00    -0.744 OA
ENDBRANCH  65  66
ENDBRANCH  46  60
BRANCH  47  70
ATOM     70  C   UNL A   1      42.276  23.514  27.910  1.00  0.00    -0.014 A 
ATOM     71  C   UNL A   1      41.809  22.409  28.646  1.00  0.00     0.010 A 
ATOM     72  C   UNL A   1      42.595  23.339  26.550  1.00  0.00     0.010 A 
ATOM     73  C   UNL A   1      41.694  21.152  28.044  1.00  0.00     0.020 A 
ATOM     74  C   UNL A   1      42.453  22.092  25.937  1.00  0.00     0.020 A 
ATOM     75  C   UNL A   1      42.019  21.002  26.692  1.00  0.00     0.054 A 
BRANCH  75  76
ATOM     76  S   UNL A   1      41.844  19.365  25.928  1.00  0.00     0.124 S 
ATOM     77  O   UNL A   1      42.744  19.466  24.785  1.00  0.00    -0.237 OA
ATOM     78  O   UNL A   1      42.277  18.471  26.999  1.00  0.00    -0.237 OA
ATOM     79  O   UNL A   1      40.421  19.291  25.602  1.00  0.00    -0.744 OA
ENDBRANCH  75  76
ENDBRANCH  47  70
BRANCH  59  80
ATOM     80  C   UNL A   1      47.540  26.598  31.306  1.00  0.00    -0.014 A 
ATOM     81  C   UNL A   1      47.765  25.881  32.493  1.00  0.00     0.010 A 
ATOM     82  C   UNL A   1      48.610  26.809  30.415  1.00  0.00     0.010 A 
ATOM     83  C   UNL A   1      49.040  25.400  32.793  1.00  0.00     0.020 A 
ATOM     84  C   UNL A   1      49.879  26.302  30.698  1.00  0.00     0.020 A 
ATOM     85  C   UNL A   1      50.088  25.609  31.891  1.00  0.00     0.054 A 
BRANCH  85  86
ATOM     86  S   UNL A   1      51.719  24.918  32.279  1.00  0.00     0.124 S 
ATOM     87  O   UNL A   1      51.926  25.377  33.650  1.00  0.00    -0.237 OA
ATOM     88  O   UNL A   1      51.501  23.481  32.125  1.00  0.00    -0.237 OA
ATOM     89  O   UNL A   1      52.600  25.521  31.281  1.00  0.00    -0.744 OA
ENDBRANCH  85  86
ENDBRANCH  59  80
ENDBRANCH  33  34
ENDBRANCH  25  28
ENDBRANCH   1  24
TORSDOF 14
ENDMDL
MODEL 2
REMARK VINA RESULT:     -11.4      2.881      9.326
REMARK SMILES Cc1cc(Cl)c2c(c1)C=C(C(=O)NCCCNC(=O)c1ccc(-c3c4nc(c(-c5ccc(S(=O)(=O)[O-])cc5)c5ccc([nH]5)c(-c5ccc(S(=O)(=O)[O-])cc5)c5nc(c(-c6ccc(S(=O)(=O)[O-])cc6)c6ccc3[nH]6)C=C5)C=C4)cc1)[C@@H](C(F)(F)F)O2
REMARK SMILES IDX 16 1 15 2 14 3 13 4 11 5 12 6 10 8 1 9 2 10 3 11 8 12 4 13
REMARK SMILES IDX 7 14 5 15 6 16 9 17 85 18 80 19 81 20 82 21 83 22 84 23
REMARK SMILES IDX 17 24 18 25 19 27 20 28 21 29 79 30 22 31 78 32 23 33 24 34
REMARK SMILES IDX 25 35 72 36 26 37 77 38 71 39 73 40 27 41 76 42 70 43 69 44
REMARK SMILES IDX 28 46 58 47 39 48 57 49 40 50 43 51 56 52 74 53 41 54 42 55
REMARK SMILES IDX 55 57 75 58 44 59 29 60 30 61 38 62 31 63 37 64 32 65 33 66
REMARK SMILES IDX 34 67 35 68 36 69 59 70 60 71 68 72 61 73 67 74 62 75 63 76
REMARK SMILES IDX 64 77 65 78 66 79 45 80 46 81 54 82 47 83 53 84 48 85 49 86
REMARK SMILES IDX 50 87 51 88 52 89
REMARK H PARENT 13 7 17 26 73 45 43 56
REMARK Flexibility Score: inf
ROOT
ATOM      1  C   UNL A   1      36.483  23.629  25.620  1.00  0.00     0.118 C 
ENDROOT
BRANCH   1   2
ATOM      2  C   UNL A   1      35.258  23.329  26.473  1.00  0.00     0.042 C 
BRANCH   2   3
ATOM      3  C   UNL A   1      34.112  22.756  25.653  1.00  0.00     0.118 C 
BRANCH   3   4
ATOM      4  N   UNL A   1      34.265  23.030  24.231  1.00  0.00    -0.352 N 
ATOM      5  C   UNL A   1      33.979  24.042  23.382  1.00  0.00     0.251 C 
ATOM      6  O   UNL A   1      34.315  23.856  22.208  1.00  0.00    -0.270 OA
ATOM      7  H   UNL A   1      34.691  22.276  23.763  1.00  0.00     0.163 HD
BRANCH   5   8
ATOM      8  C   UNL A   1      33.314  25.322  23.765  1.00  0.00     0.067 C 
ATOM      9  C   UNL A   1      34.117  30.232  27.456  1.00  0.00     0.044 C 
ATOM     10  C   UNL A   1      33.456  29.377  26.416  1.00  0.00    -0.049 A 
ATOM     11  C   UNL A   1      32.296  29.832  25.779  1.00  0.00     0.028 A 
ATOM     12  C   UNL A   1      34.017  28.152  26.028  1.00  0.00     0.015 A 
ATOM     13  C   UNL A   1      31.697  29.067  24.779  1.00  0.00     0.084 A 
ATOM     14  C   UNL A   1      33.414  27.380  25.027  1.00  0.00     0.019 A 
ATOM     15  Cl  UNL A   1      30.263  29.669  24.028  1.00  0.00    -0.080 Cl
ATOM     16  C   UNL A   1      32.251  27.839  24.406  1.00  0.00     0.146 A 
ATOM     17  C   UNL A   1      34.011  26.121  24.594  1.00  0.00     0.025 C 
ATOM     18  O   UNL A   1      31.655  27.144  23.391  1.00  0.00    -0.474 OA
ATOM     19  C   UNL A   1      31.941  25.725  23.309  1.00  0.00     0.314 C 
BRANCH  19  20
ATOM     20  C   UNL A   1      30.827  24.942  24.029  1.00  0.00     0.429 C 
ATOM     21  F   UNL A   1      30.463  23.853  23.307  1.00  0.00    -0.167 F 
ATOM     22  F   UNL A   1      31.212  24.481  25.244  1.00  0.00    -0.167 F 
ATOM     23  F   UNL A   1      29.717  25.686  24.232  1.00  0.00    -0.167 F 
ENDBRANCH  19  20
ENDBRANCH   5   8
ENDBRANCH   3   4
ENDBRANCH   2   3
ENDBRANCH   1   2
BRANCH   1  24
ATOM     24  N   UNL A   1      37.560  22.673  25.866  1.00  0.00    -0.352 N 
ATOM     25  C   UNL A   1      38.846  22.880  26.293  1.00  0.00     0.251 C 
ATOM     26  H   UNL A   1      37.325  21.731  25.698  1.00  0.00     0.163 HD
ATOM     27  O   UNL A   1      39.682  21.986  26.158  1.00  0.00    -0.269 OA
BRANCH  25  28
ATOM     28  C   UNL A   1      39.224  24.164  26.912  1.00  0.00     0.039 A 
ATOM     29  C   UNL A   1      38.858  24.425  28.235  1.00  0.00     0.014 A 
ATOM     30  C   UNL A   1      39.917  25.124  26.171  1.00  0.00     0.014 A 
ATOM     31  C   UNL A   1      39.245  25.625  28.831  1.00  0.00     0.010 A 
ATOM     32  C   UNL A   1      40.386  26.272  26.794  1.00  0.00     0.010 A 
ATOM     33  C   UNL A   1      40.040  26.543  28.125  1.00  0.00    -0.014 A 
BRANCH  33  34
ATOM     34  C   UNL A   1      40.495  27.811  28.744  1.00  0.00     0.031 A 
ATOM     35  C   UNL A   1      41.882  27.904  29.321  1.00  0.00     0.074 A 
ATOM     36  C   UNL A   1      39.641  28.851  28.841  1.00  0.00     0.049 A 
ATOM     37  N   UNL A   1      42.440  28.895  29.965  1.00  0.00    -0.248 NA
ATOM     38  C   UNL A   1      42.750  26.719  29.181  1.00  0.00     0.031 C 
ATOM     39  C   UNL A   1      38.256  28.858  28.360  1.00  0.00     0.029 A 
ATOM     40  N   UNL A   1      39.809  30.100  29.382  1.00  0.00    -0.354 N 
ATOM     41  C   UNL A   1      43.708  28.449  30.321  1.00  0.00     0.074 A 
ATOM     42  C   UNL A   1      43.823  27.083  29.869  1.00  0.00     0.031 C 
ATOM     43  C   UNL A   1      37.713  30.063  28.603  1.00  0.00     0.029 A 
ATOM     44  C   UNL A   1      38.691  30.896  29.292  1.00  0.00     0.049 A 
ATOM     45  H   UNL A   1      40.651  30.399  29.795  1.00  0.00     0.167 HD
ATOM     46  C   UNL A   1      44.695  29.130  30.945  1.00  0.00     0.031 A 
ATOM     47  C   UNL A   1      38.477  32.155  29.726  1.00  0.00     0.031 A 
ATOM     48  C   UNL A   1      44.587  30.502  31.355  1.00  0.00     0.049 A 
ATOM     49  C   UNL A   1      39.597  32.887  30.414  1.00  0.00     0.074 A 
ATOM     50  C   UNL A   1      45.557  31.303  31.930  1.00  0.00     0.029 A 
ATOM     51  N   UNL A   1      43.446  31.278  31.230  1.00  0.00    -0.354 N 
ATOM     52  N   UNL A   1      40.814  32.470  30.674  1.00  0.00    -0.248 NA
ATOM     53  C   UNL A   1      39.322  34.260  30.859  1.00  0.00     0.031 C 
ATOM     54  C   UNL A   1      44.987  32.546  32.204  1.00  0.00     0.029 A 
ATOM     55  C   UNL A   1      43.680  32.541  31.743  1.00  0.00     0.049 A 
ATOM     56  H   UNL A   1      42.596  30.976  30.835  1.00  0.00     0.167 HD
ATOM     57  C   UNL A   1      41.454  33.538  31.294  1.00  0.00     0.074 A 
ATOM     58  C   UNL A   1      40.498  34.625  31.348  1.00  0.00     0.031 C 
ATOM     59  C   UNL A   1      42.717  33.611  31.780  1.00  0.00     0.031 A 
BRANCH  46  60
ATOM     60  C   UNL A   1      45.995  28.419  31.208  1.00  0.00    -0.014 A 
ATOM     61  C   UNL A   1      46.195  27.698  32.400  1.00  0.00     0.010 A 
ATOM     62  C   UNL A   1      46.981  28.373  30.205  1.00  0.00     0.010 A 
ATOM     63  C   UNL A   1      47.357  26.947  32.584  1.00  0.00     0.020 A 
ATOM     64  C   UNL A   1      48.134  27.602  30.375  1.00  0.00     0.020 A 
ATOM     65  C   UNL A   1      48.314  26.894  31.565  1.00  0.00     0.054 A 
BRANCH  65  66
ATOM     66  S   UNL A   1      49.766  25.833  31.798  1.00  0.00     0.124 S 
ATOM     67  O   UNL A   1      49.334  24.963  32.890  1.00  0.00    -0.237 OA
ATOM     68  O   UNL A   1      49.898  25.186  30.496  1.00  0.00    -0.237 OA
ATOM     69  O   UNL A   1      50.832  26.771  32.137  1.00  0.00    -0.744 OA
ENDBRANCH  65  66
ENDBRANCH  46  60
BRANCH  47  70
ATOM     70  C   UNL A   1      37.150  32.801  29.525  1.00  0.00    -0.014 A 
ATOM     71  C   UNL A   1      36.785  33.319  28.269  1.00  0.00     0.010 A 
ATOM     72  C   UNL A   1      36.244  32.911  30.596  1.00  0.00     0.010 A 
ATOM     73  C   UNL A   1      35.555  33.962  28.097  1.00  0.00     0.020 A 
ATOM     74  C   UNL A   1      35.001  33.525  30.420  1.00  0.00     0.020 A 
ATOM     75  C   UNL A   1      34.671  34.062  29.175  1.00  0.00     0.054 A 
BRANCH  75  76
ATOM     76  S   UNL A   1      33.073  34.884  28.922  1.00  0.00     0.124 S 
ATOM     77  O   UNL A   1      33.481  36.193  28.425  1.00  0.00    -0.237 OA
ATOM     78  O   UNL A   1      32.423  34.010  27.949  1.00  0.00    -0.237 OA
ATOM     79  O   UNL A   1      32.471  34.879  30.254  1.00  0.00    -0.744 OA
ENDBRANCH  75  76
ENDBRANCH  47  70
BRANCH  59  80
ATOM     80  C   UNL A   1      43.155  34.911  32.396  1.00  0.00    -0.014 A 
ATOM     81  C   UNL A   1      43.766  35.910  31.619  1.00  0.00     0.010 A 
ATOM     82  C   UNL A   1      42.867  35.170  33.749  1.00  0.00     0.010 A 
ATOM     83  C   UNL A   1      44.100  37.139  32.191  1.00  0.00     0.020 A 
ATOM     84  C   UNL A   1      43.172  36.409  34.315  1.00  0.00     0.020 A 
ATOM     85  C   UNL A   1      43.796  37.383  33.534  1.00  0.00     0.054 A 
BRANCH  85  86
ATOM     86  S   UNL A   1      44.185  39.011  34.231  1.00  0.00     0.124 S 
ATOM     87  O   UNL A   1      45.430  39.346  33.544  1.00  0.00    -0.237 OA
ATOM     88  O   UNL A   1      43.022  39.808  33.846  1.00  0.00    -0.237 OA
ATOM     89  O   UNL A   1      44.314  38.755  35.664  1.00  0.00    -0.744 OA
ENDBRANCH  85  86
ENDBRANCH  59  80
ENDBRANCH  33  34
ENDBRANCH  25  28
ENDBRANCH   1  24
TORSDOF 14
ENDMDL
MODEL 3
REMARK VINA RESULT:     -11.2      0.498      8.244
REMARK SMILES Cc1cc(Cl)c2c(c1)C=C(C(=O)NCCCNC(=O)c1ccc(-c3c4nc(c(-c5ccc(S(=O)(=O)[O-])cc5)c5ccc([nH]5)c(-c5ccc(S(=O)(=O)[O-])cc5)c5nc(c(-c6ccc(S(=O)(=O)[O-])cc6)c6ccc3[nH]6)C=C5)C=C4)cc1)[C@@H](C(F)(F)F)O2
REMARK SMILES IDX 16 1 15 2 14 3 13 4 11 5 12 6 10 8 1 9 2 10 3 11 8 12 4 13
REMARK SMILES IDX 7 14 5 15 6 16 9 17 85 18 80 19 81 20 82 21 83 22 84 23
REMARK SMILES IDX 17 24 18 25 19 27 20 28 21 29 79 30 22 31 78 32 23 33 24 34
REMARK SMILES IDX 25 35 72 36 26 37 77 38 71 39 73 40 27 41 76 42 70 43 69 44
REMARK SMILES IDX 28 46 58 47 39 48 57 49 40 50 43 51 56 52 74 53 41 54 42 55
REMARK SMILES IDX 55 57 75 58 44 59 29 60 30 61 38 62 31 63 37 64 32 65 33 66
REMARK SMILES IDX 34 67 35 68 36 69 59 70 60 71 68 72 61 73 67 74 62 75 63 76
REMARK SMILES IDX 64 77 65 78 66 79 45 80 46 81 54 82 47 83 53 84 48 85 49 86
REMARK SMILES IDX 50 87 51 88 52 89
REMARK H PARENT 13 7 17 26 73 45 43 56
REMARK Flexibility Score: inf
ROOT
ATOM      1  C   UNL A   1      33.470  28.038  26.935  1.00  0.00     0.118 C 
ENDROOT
BRANCH   1   2
ATOM      2  C   UNL A   1      33.770  27.684  25.484  1.00  0.00     0.042 C 
BRANCH   2   3
ATOM      3  C   UNL A   1      32.537  27.184  24.747  1.00  0.00     0.118 C 
BRANCH   3   4
ATOM      4  N   UNL A   1      31.633  26.453  25.623  1.00  0.00    -0.352 N 
ATOM      5  C   UNL A   1      31.522  25.193  26.102  1.00  0.00     0.251 C 
ATOM      6  O   UNL A   1      30.573  25.003  26.870  1.00  0.00    -0.270 OA
ATOM      7  H   UNL A   1      30.909  27.030  25.956  1.00  0.00     0.163 HD
BRANCH   5   8
ATOM      8  C   UNL A   1      32.444  24.066  25.777  1.00  0.00     0.067 C 
ATOM      9  C   UNL A   1      38.459  22.590  25.934  1.00  0.00     0.044 C 
ATOM     10  C   UNL A   1      36.990  22.384  25.717  1.00  0.00    -0.049 A 
ATOM     11  C   UNL A   1      36.519  21.133  25.302  1.00  0.00     0.028 A 
ATOM     12  C   UNL A   1      36.071  23.409  25.981  1.00  0.00     0.015 A 
ATOM     13  C   UNL A   1      35.152  20.914  25.140  1.00  0.00     0.084 A 
ATOM     14  C   UNL A   1      34.698  23.194  25.813  1.00  0.00     0.019 A 
ATOM     15  Cl  UNL A   1      34.621  19.355  24.619  1.00  0.00    -0.080 Cl
ATOM     16  C   UNL A   1      34.240  21.945  25.389  1.00  0.00     0.146 A 
ATOM     17  C   UNL A   1      33.734  24.246  26.119  1.00  0.00     0.025 C 
ATOM     18  O   UNL A   1      32.907  21.673  25.260  1.00  0.00    -0.474 OA
ATOM     19  C   UNL A   1      32.019  22.805  25.083  1.00  0.00     0.314 C 
BRANCH  19  20
ATOM     20  C   UNL A   1      31.764  23.018  23.578  1.00  0.00     0.429 C 
ATOM     21  F   UNL A   1      30.506  23.477  23.365  1.00  0.00    -0.167 F 
ATOM     22  F   UNL A   1      32.601  23.932  23.030  1.00  0.00    -0.167 F 
ATOM     23  F   UNL A   1      31.910  21.881  22.861  1.00  0.00    -0.167 F 
ENDBRANCH  19  20
ENDBRANCH   5   8
ENDBRANCH   3   4
ENDBRANCH   2   3
ENDBRANCH   1   2
BRANCH   1  24
ATOM     24  N   UNL A   1      33.337  29.480  27.123  1.00  0.00    -0.352 N 
ATOM     25  C   UNL A   1      34.165  30.369  27.757  1.00  0.00     0.251 C 
ATOM     26  H   UNL A   1      32.524  29.876  26.732  1.00  0.00     0.163 HD
ATOM     27  O   UNL A   1      33.740  31.484  28.063  1.00  0.00    -0.269 OA
BRANCH  25  28
ATOM     28  C   UNL A   1      35.556  29.994  28.069  1.00  0.00     0.039 A 
ATOM     29  C   UNL A   1      36.526  30.047  27.065  1.00  0.00     0.014 A 
ATOM     30  C   UNL A   1      35.896  29.560  29.353  1.00  0.00     0.014 A 
ATOM     31  C   UNL A   1      37.849  29.724  27.369  1.00  0.00     0.010 A 
ATOM     32  C   UNL A   1      37.226  29.336  29.678  1.00  0.00     0.010 A 
ATOM     33  C   UNL A   1      38.214  29.398  28.686  1.00  0.00    -0.014 A 
BRANCH  33  34
ATOM     34  C   UNL A   1      39.618  29.084  29.046  1.00  0.00     0.031 A 
ATOM     35  C   UNL A   1      40.195  27.740  28.692  1.00  0.00     0.074 A 
ATOM     36  C   UNL A   1      40.345  29.982  29.741  1.00  0.00     0.049 A 
ATOM     37  N   UNL A   1      41.371  27.249  28.982  1.00  0.00    -0.248 NA
ATOM     38  C   UNL A   1      39.331  26.812  27.939  1.00  0.00     0.031 C 
ATOM     39  C   UNL A   1      39.873  31.298  30.180  1.00  0.00     0.029 A 
ATOM     40  N   UNL A   1      41.634  29.922  30.206  1.00  0.00    -0.354 N 
ATOM     41  C   UNL A   1      41.380  25.958  28.466  1.00  0.00     0.074 A 
ATOM     42  C   UNL A   1      40.078  25.719  27.890  1.00  0.00     0.031 C 
ATOM     43  C   UNL A   1      40.868  31.930  30.825  1.00  0.00     0.029 A 
ATOM     44  C   UNL A   1      42.031  31.052  30.884  1.00  0.00     0.049 A 
ATOM     45  H   UNL A   1      42.220  29.143  30.069  1.00  0.00     0.167 HD
ATOM     46  C   UNL A   1      42.395  25.065  28.450  1.00  0.00     0.031 A 
ATOM     47  C   UNL A   1      43.198  31.342  31.491  1.00  0.00     0.031 A 
ATOM     48  C   UNL A   1      43.701  25.325  28.989  1.00  0.00     0.049 A 
ATOM     49  C   UNL A   1      44.309  30.328  31.454  1.00  0.00     0.074 A 
ATOM     50  C   UNL A   1      44.818  24.510  28.957  1.00  0.00     0.029 A 
ATOM     51  N   UNL A   1      44.067  26.487  29.649  1.00  0.00    -0.354 N 
ATOM     52  N   UNL A   1      44.320  29.141  30.895  1.00  0.00    -0.248 NA
ATOM     53  C   UNL A   1      45.568  30.693  32.119  1.00  0.00     0.031 C 
ATOM     54  C   UNL A   1      45.845  25.156  29.648  1.00  0.00     0.029 A 
ATOM     55  C   UNL A   1      45.387  26.399  30.054  1.00  0.00     0.049 A 
ATOM     56  H   UNL A   1      43.477  27.260  29.806  1.00  0.00     0.167 HD
ATOM     57  C   UNL A   1      45.592  28.627  31.124  1.00  0.00     0.074 A 
ATOM     58  C   UNL A   1      46.328  29.641  31.851  1.00  0.00     0.031 C 
ATOM     59  C   UNL A   1      46.103  27.423  30.770  1.00  0.00     0.031 A 
BRANCH  46  60
ATOM     60  C   UNL A   1      42.153  23.723  27.812  1.00  0.00    -0.014 A 
ATOM     61  C   UNL A   1      42.604  23.454  26.507  1.00  0.00     0.010 A 
ATOM     62  C   UNL A   1      41.574  22.686  28.566  1.00  0.00     0.010 A 
ATOM     63  C   UNL A   1      42.478  22.172  25.968  1.00  0.00     0.020 A 
ATOM     64  C   UNL A   1      41.470  21.396  28.039  1.00  0.00     0.020 A 
ATOM     65  C   UNL A   1      41.924  21.148  26.742  1.00  0.00     0.054 A 
BRANCH  65  66
ATOM     66  S   UNL A   1      41.863  19.474  26.046  1.00  0.00     0.124 S 
ATOM     67  O   UNL A   1      42.731  19.601  24.877  1.00  0.00    -0.237 OA
ATOM     68  O   UNL A   1      42.394  18.659  27.135  1.00  0.00    -0.237 OA
ATOM     69  O   UNL A   1      40.448  19.271  25.750  1.00  0.00    -0.744 OA
ENDBRANCH  65  66
ENDBRANCH  46  60
BRANCH  47  70
ATOM     70  C   UNL A   1      43.376  32.647  32.188  1.00  0.00    -0.014 A 
ATOM     71  C   UNL A   1      43.076  32.779  33.556  1.00  0.00     0.010 A 
ATOM     72  C   UNL A   1      43.840  33.772  31.481  1.00  0.00     0.010 A 
ATOM     73  C   UNL A   1      43.205  34.016  34.194  1.00  0.00     0.020 A 
ATOM     74  C   UNL A   1      43.999  35.003  32.123  1.00  0.00     0.020 A 
ATOM     75  C   UNL A   1      43.664  35.121  33.472  1.00  0.00     0.054 A 
BRANCH  75  76
ATOM     76  S   UNL A   1      43.842  36.712  34.328  1.00  0.00     0.124 S 
ATOM     77  O   UNL A   1      42.453  37.135  34.472  1.00  0.00    -0.237 OA
ATOM     78  O   UNL A   1      44.519  36.329  35.564  1.00  0.00    -0.237 OA
ATOM     79  O   UNL A   1      44.648  37.509  33.405  1.00  0.00    -0.744 OA
ENDBRANCH  75  76
ENDBRANCH  47  70
BRANCH  59  80
ATOM     80  C   UNL A   1      47.532  27.133  31.141  1.00  0.00    -0.014 A 
ATOM     81  C   UNL A   1      47.843  26.389  32.291  1.00  0.00     0.010 A 
ATOM     82  C   UNL A   1      48.568  27.533  30.276  1.00  0.00     0.010 A 
ATOM     83  C   UNL A   1      49.170  26.067  32.582  1.00  0.00     0.020 A 
ATOM     84  C   UNL A   1      49.892  27.186  30.548  1.00  0.00     0.020 A 
ATOM     85  C   UNL A   1      50.186  26.462  31.705  1.00  0.00     0.054 A 
BRANCH  85  86
ATOM     86  S   UNL A   1      51.892  25.975  32.076  1.00  0.00     0.124 S 
ATOM     87  O   UNL A   1      51.703  24.690  32.745  1.00  0.00    -0.237 OA
ATOM     88  O   UNL A   1      52.501  25.909  30.750  1.00  0.00    -0.237 OA
ATOM     89  O   UNL A   1      52.385  27.053  32.930  1.00  0.00    -0.744 OA
ENDBRANCH  85  86
ENDBRANCH  59  80
ENDBRANCH  33  34
ENDBRANCH  25  28
ENDBRANCH   1  24
TORSDOF 14
ENDMDL
