MODEL 1
REMARK VINA RESULT:     -10.0      0.000      0.000
REMARK SMILES CC(=O)Nc1cccc(-c2ccc(F)c(C(=O)NCCCNC(=O)c3ccc(-c4c5nc(c(-c6ccc(S(=O)(=O)[O-])cc6)c6ccc([nH]6)c(-c6ccc(S(=O)(=O)[O-])cc6)c6nc(c(-c7ccc(S(=O)(=O)[O-])cc7)c7ccc4[nH]7)C=C6)C=C5)cc3)c2)c1
REMARK SMILES IDX 20 1 19 2 18 3 16 4 17 5 15 7 10 8 11 9 85 10 12 11 13 12
REMARK SMILES IDX 14 13 9 14 5 15 6 16 86 17 7 18 8 19 4 20 1 21 2 22 3 23
REMARK SMILES IDX 21 25 22 26 23 27 24 29 25 30 26 31 84 32 27 33 83 34 28 35
REMARK SMILES IDX 29 36 30 37 77 38 31 39 82 40 76 41 78 42 32 43 81 44 75 45
REMARK SMILES IDX 74 46 33 48 63 49 44 50 62 51 45 52 48 53 61 54 79 55 46 56
REMARK SMILES IDX 47 57 60 59 80 60 49 61 34 62 35 63 43 64 36 65 42 66 37 67
REMARK SMILES IDX 38 68 39 69 40 70 41 71 64 72 65 73 73 74 66 75 72 76 67 77
REMARK SMILES IDX 68 78 69 79 70 80 71 81 50 82 51 83 59 84 52 85 58 86 53 87
REMARK SMILES IDX 54 88 55 89 56 90 57 91
REMARK H PARENT 18 6 4 24 22 28 78 47 48 58
REMARK Flexibility Score: inf
ROOT
ATOM      1  C   UNL A   1      34.094  34.298  29.065  1.00  0.00     0.042 C 
ENDROOT
BRANCH   1   2
ATOM      2  C   UNL A   1      34.915  34.017  30.323  1.00  0.00     0.118 C 
BRANCH   2   3
ATOM      3  N   UNL A   1      34.072  33.613  31.436  1.00  0.00    -0.352 N 
ATOM      4  C   UNL A   1      34.283  33.160  32.716  1.00  0.00     0.254 C 
ATOM      5  O   UNL A   1      33.262  32.968  33.376  1.00  0.00    -0.269 OA
ATOM      6  H   UNL A   1      33.113  33.680  31.219  1.00  0.00     0.163 HD
BRANCH   4   7
ATOM      7  C   UNL A   1      35.621  32.915  33.334  1.00  0.00     0.076 A 
ATOM      8  C   UNL A   1      37.629  31.547  33.744  1.00  0.00    -0.017 A 
ATOM      9  C   UNL A   1      38.182  32.575  34.509  1.00  0.00     0.012 A 
ATOM     10  C   UNL A   1      36.332  31.721  33.214  1.00  0.00     0.025 A 
ATOM     11  C   UNL A   1      37.464  33.756  34.701  1.00  0.00     0.041 A 
ATOM     12  C   UNL A   1      36.210  33.925  34.106  1.00  0.00     0.135 A 
ATOM     13  F   UNL A   1      35.598  35.101  34.315  1.00  0.00    -0.206 F 
BRANCH   8  14
ATOM     14  C   UNL A   1      38.324  30.279  33.480  1.00  0.00    -0.016 A 
ATOM     15  C   UNL A   1      40.434  29.121  33.032  1.00  0.00     0.041 A 
ATOM     16  C   UNL A   1      39.706  28.032  32.543  1.00  0.00     0.026 A 
ATOM     17  C   UNL A   1      39.735  30.234  33.500  1.00  0.00     0.034 A 
ATOM     18  C   UNL A   1      38.310  28.030  32.584  1.00  0.00     0.003 A 
ATOM     19  C   UNL A   1      37.620  29.146  33.057  1.00  0.00     0.009 A 
BRANCH  15  20
ATOM     20  N   UNL A   1      41.834  29.062  32.917  1.00  0.00    -0.326 N 
ATOM     21  C   UNL A   1      42.489  28.050  35.100  1.00  0.00     0.114 C 
ATOM     22  C   UNL A   1      42.817  28.745  33.807  1.00  0.00     0.221 C 
ATOM     23  O   UNL A   1      43.991  28.980  33.509  1.00  0.00    -0.275 OA
ATOM     24  H   UNL A   1      42.169  29.294  32.020  1.00  0.00     0.169 HD
ENDBRANCH  15  20
ENDBRANCH   8  14
ENDBRANCH   4   7
ENDBRANCH   2   3
ENDBRANCH   1   2
BRANCH   1  25
ATOM     25  C   UNL A   1      34.549  33.465  27.865  1.00  0.00     0.118 C 
BRANCH  25  26
ATOM     26  N   UNL A   1      33.823  32.201  27.774  1.00  0.00    -0.352 N 
ATOM     27  C   UNL A   1      34.288  30.907  27.782  1.00  0.00     0.251 C 
ATOM     28  H   UNL A   1      32.845  32.289  27.695  1.00  0.00     0.163 HD
ATOM     29  O   UNL A   1      33.548  29.992  27.445  1.00  0.00    -0.269 OA
BRANCH  27  30
ATOM     30  C   UNL A   1      35.678  30.628  28.194  1.00  0.00     0.039 A 
ATOM     31  C   UNL A   1      36.008  30.625  29.553  1.00  0.00     0.014 A 
ATOM     32  C   UNL A   1      36.660  30.392  27.231  1.00  0.00     0.014 A 
ATOM     33  C   UNL A   1      37.311  30.309  29.949  1.00  0.00     0.010 A 
ATOM     34  C   UNL A   1      37.932  30.002  27.627  1.00  0.00     0.010 A 
ATOM     35  C   UNL A   1      38.273  29.957  28.989  1.00  0.00    -0.014 A 
BRANCH  35  36
ATOM     36  C   UNL A   1      39.655  29.554  29.351  1.00  0.00     0.031 A 
ATOM     37  C   UNL A   1      40.589  30.580  29.933  1.00  0.00     0.074 A 
ATOM     38  C   UNL A   1      40.101  28.319  29.047  1.00  0.00     0.049 A 
ATOM     39  N   UNL A   1      41.883  30.517  30.104  1.00  0.00    -0.248 NA
ATOM     40  C   UNL A   1      39.989  31.862  30.342  1.00  0.00     0.031 C 
ATOM     41  C   UNL A   1      39.295  27.239  28.471  1.00  0.00     0.029 A 
ATOM     42  N   UNL A   1      41.355  27.772  29.158  1.00  0.00    -0.354 N 
ATOM     43  C   UNL A   1      42.256  31.758  30.608  1.00  0.00     0.074 A 
ATOM     44  C   UNL A   1      41.060  32.568  30.672  1.00  0.00     0.031 C 
ATOM     45  C   UNL A   1      40.072  26.158  28.292  1.00  0.00     0.029 A 
ATOM     46  C   UNL A   1      41.439  26.483  28.682  1.00  0.00     0.049 A 
ATOM     47  H   UNL A   1      42.122  28.256  29.541  1.00  0.00     0.167 HD
ATOM     48  C   UNL A   1      43.481  32.179  30.998  1.00  0.00     0.031 A 
ATOM     49  C   UNL A   1      42.504  25.667  28.552  1.00  0.00     0.031 A 
ATOM     50  C   UNL A   1      44.661  31.358  30.952  1.00  0.00     0.049 A 
ATOM     51  C   UNL A   1      43.862  26.166  28.968  1.00  0.00     0.074 A 
ATOM     52  C   UNL A   1      45.948  31.677  31.348  1.00  0.00     0.029 A 
ATOM     53  N   UNL A   1      44.694  30.050  30.493  1.00  0.00    -0.354 N 
ATOM     54  N   UNL A   1      44.194  27.338  29.455  1.00  0.00    -0.248 NA
ATOM     55  C   UNL A   1      44.988  25.233  28.822  1.00  0.00     0.031 C 
ATOM     56  C   UNL A   1      46.767  30.572  31.096  1.00  0.00     0.029 A 
ATOM     57  C   UNL A   1      45.978  29.547  30.596  1.00  0.00     0.049 A 
ATOM     58  H   UNL A   1      43.918  29.553  30.146  1.00  0.00     0.167 HD
ATOM     59  C   UNL A   1      45.558  27.265  29.719  1.00  0.00     0.074 A 
ATOM     60  C   UNL A   1      45.990  25.938  29.333  1.00  0.00     0.031 C 
ATOM     61  C   UNL A   1      46.377  28.210  30.240  1.00  0.00     0.031 A 
BRANCH  48  62
ATOM     62  C   UNL A   1      43.606  33.588  31.514  1.00  0.00    -0.014 A 
ATOM     63  C   UNL A   1      43.784  34.667  30.630  1.00  0.00     0.010 A 
ATOM     64  C   UNL A   1      43.501  33.844  32.893  1.00  0.00     0.010 A 
ATOM     65  C   UNL A   1      43.896  35.971  31.118  1.00  0.00     0.020 A 
ATOM     66  C   UNL A   1      43.583  35.151  33.383  1.00  0.00     0.020 A 
ATOM     67  C   UNL A   1      43.797  36.205  32.492  1.00  0.00     0.054 A 
BRANCH  67  68
ATOM     68  S   UNL A   1      43.918  37.911  33.093  1.00  0.00     0.124 S 
ATOM     69  O   UNL A   1      42.738  38.013  33.949  1.00  0.00    -0.237 OA
ATOM     70  O   UNL A   1      45.200  37.915  33.791  1.00  0.00    -0.237 OA
ATOM     71  O   UNL A   1      43.871  38.713  31.873  1.00  0.00    -0.744 OA
ENDBRANCH  67  68
ENDBRANCH  48  62
BRANCH  49  72
ATOM     72  C   UNL A   1      42.333  24.290  28.013  1.00  0.00    -0.014 A 
ATOM     73  C   UNL A   1      42.256  23.191  28.887  1.00  0.00     0.010 A 
ATOM     74  C   UNL A   1      42.256  24.064  26.626  1.00  0.00     0.010 A 
ATOM     75  C   UNL A   1      42.136  21.892  28.386  1.00  0.00     0.020 A 
ATOM     76  C   UNL A   1      42.106  22.769  26.121  1.00  0.00     0.020 A 
ATOM     77  C   UNL A   1      42.064  21.688  27.005  1.00  0.00     0.054 A 
BRANCH  77  78
ATOM     78  S   UNL A   1      41.882  19.996  26.377  1.00  0.00     0.124 S 
ATOM     79  O   UNL A   1      42.832  19.979  25.270  1.00  0.00    -0.237 OA
ATOM     80  O   UNL A   1      42.245  19.188  27.538  1.00  0.00    -0.237 OA
ATOM     81  O   UNL A   1      40.472  19.925  25.995  1.00  0.00    -0.744 OA
ENDBRANCH  77  78
ENDBRANCH  49  72
BRANCH  61  82
ATOM     82  C   UNL A   1      47.808  27.831  30.508  1.00  0.00    -0.014 A 
ATOM     83  C   UNL A   1      48.186  27.191  31.699  1.00  0.00     0.010 A 
ATOM     84  C   UNL A   1      48.765  28.025  29.494  1.00  0.00     0.010 A 
ATOM     85  C   UNL A   1      49.502  26.752  31.873  1.00  0.00     0.020 A 
ATOM     86  C   UNL A   1      50.074  27.567  29.655  1.00  0.00     0.020 A 
ATOM     87  C   UNL A   1      50.435  26.936  30.846  1.00  0.00     0.054 A 
BRANCH  87  88
ATOM     88  S   UNL A   1      52.110  26.274  31.059  1.00  0.00     0.124 S 
ATOM     89  O   UNL A   1      51.849  24.988  31.702  1.00  0.00    -0.237 OA
ATOM     90  O   UNL A   1      52.601  26.200  29.685  1.00  0.00    -0.237 OA
ATOM     91  O   UNL A   1      52.773  27.268  31.899  1.00  0.00    -0.744 OA
ENDBRANCH  87  88
ENDBRANCH  61  82
ENDBRANCH  35  36
ENDBRANCH  27  30
ENDBRANCH  25  26
ENDBRANCH   1  25
TORSDOF 15
ENDMDL
MODEL 2
REMARK VINA RESULT:      -9.8      4.154      6.667
REMARK SMILES CC(=O)Nc1cccc(-c2ccc(F)c(C(=O)NCCCNC(=O)c3ccc(-c4c5nc(c(-c6ccc(S(=O)(=O)[O-])cc6)c6ccc([nH]6)c(-c6ccc(S(=O)(=O)[O-])cc6)c6nc(c(-c7ccc(S(=O)(=O)[O-])cc7)c7ccc4[nH]7)C=C6)C=C5)cc3)c2)c1
REMARK SMILES IDX 20 1 19 2 18 3 16 4 17 5 15 7 10 8 11 9 85 10 12 11 13 12
REMARK SMILES IDX 14 13 9 14 5 15 6 16 86 17 7 18 8 19 4 20 1 21 2 22 3 23
REMARK SMILES IDX 21 25 22 26 23 27 24 29 25 30 26 31 84 32 27 33 83 34 28 35
REMARK SMILES IDX 29 36 30 37 77 38 31 39 82 40 76 41 78 42 32 43 81 44 75 45
REMARK SMILES IDX 74 46 33 48 63 49 44 50 62 51 45 52 48 53 61 54 79 55 46 56
REMARK SMILES IDX 47 57 60 59 80 60 49 61 34 62 35 63 43 64 36 65 42 66 37 67
REMARK SMILES IDX 38 68 39 69 40 70 41 71 64 72 65 73 73 74 66 75 72 76 67 77
REMARK SMILES IDX 68 78 69 79 70 80 71 81 50 82 51 83 59 84 52 85 58 86 53 87
REMARK SMILES IDX 54 88 55 89 56 90 57 91
REMARK H PARENT 18 6 4 24 22 28 78 47 48 58
REMARK Flexibility Score: inf
ROOT
ATOM      1  C   UNL A   1      32.298  28.122  26.565  1.00  0.00     0.042 C 
ENDROOT
BRANCH   1   2
ATOM      2  C   UNL A   1      31.893  29.056  25.424  1.00  0.00     0.118 C 
BRANCH   2   3
ATOM      3  N   UNL A   1      32.873  29.048  24.351  1.00  0.00    -0.352 N 
ATOM      4  C   UNL A   1      33.332  28.123  23.445  1.00  0.00     0.254 C 
ATOM      5  O   UNL A   1      34.166  28.547  22.644  1.00  0.00    -0.269 OA
ATOM      6  H   UNL A   1      33.319  29.921  24.248  1.00  0.00     0.163 HD
BRANCH   4   7
ATOM      7  C   UNL A   1      32.885  26.700  23.363  1.00  0.00     0.076 A 
ATOM      8  C   UNL A   1      32.957  24.336  24.057  1.00  0.00    -0.017 A 
ATOM      9  C   UNL A   1      31.922  24.037  23.170  1.00  0.00     0.012 A 
ATOM     10  C   UNL A   1      33.453  25.658  24.097  1.00  0.00     0.025 A 
ATOM     11  C   UNL A   1      31.379  25.048  22.376  1.00  0.00     0.041 A 
ATOM     12  C   UNL A   1      31.846  26.361  22.487  1.00  0.00     0.135 A 
ATOM     13  F   UNL A   1      31.251  27.279  21.710  1.00  0.00    -0.206 F 
BRANCH   8  14
ATOM     14  C   UNL A   1      33.573  23.336  24.940  1.00  0.00    -0.016 A 
ATOM     15  C   UNL A   1      33.453  21.115  25.965  1.00  0.00     0.041 A 
ATOM     16  C   UNL A   1      34.392  21.528  26.915  1.00  0.00     0.026 A 
ATOM     17  C   UNL A   1      33.054  22.023  24.983  1.00  0.00     0.034 A 
ATOM     18  C   UNL A   1      34.970  22.798  26.843  1.00  0.00     0.003 A 
ATOM     19  C   UNL A   1      34.567  23.697  25.856  1.00  0.00     0.009 A 
BRANCH  15  20
ATOM     20  N   UNL A   1      32.890  19.838  26.131  1.00  0.00    -0.326 N 
ATOM     21  C   UNL A   1      33.950  18.560  24.270  1.00  0.00     0.114 C 
ATOM     22  C   UNL A   1      32.935  18.707  25.370  1.00  0.00     0.221 C 
ATOM     23  O   UNL A   1      32.171  17.777  25.638  1.00  0.00    -0.275 OA
ATOM     24  H   UNL A   1      32.361  19.741  26.956  1.00  0.00     0.169 HD
ENDBRANCH  15  20
ENDBRANCH   8  14
ENDBRANCH   4   7
ENDBRANCH   2   3
ENDBRANCH   1   2
BRANCH   1  25
ATOM     25  C   UNL A   1      33.582  28.569  27.264  1.00  0.00     0.118 C 
BRANCH  25  26
ATOM     26  N   UNL A   1      33.540  29.983  27.627  1.00  0.00    -0.352 N 
ATOM     27  C   UNL A   1      34.469  30.761  28.278  1.00  0.00     0.251 C 
ATOM     28  H   UNL A   1      32.717  30.455  27.363  1.00  0.00     0.163 HD
ATOM     29  O   UNL A   1      34.147  31.861  28.709  1.00  0.00    -0.269 OA
BRANCH  27  30
ATOM     30  C   UNL A   1      35.849  30.266  28.454  1.00  0.00     0.039 A 
ATOM     31  C   UNL A   1      36.735  30.288  27.373  1.00  0.00     0.014 A 
ATOM     32  C   UNL A   1      36.258  29.757  29.688  1.00  0.00     0.014 A 
ATOM     33  C   UNL A   1      38.056  29.869  27.550  1.00  0.00     0.010 A 
ATOM     34  C   UNL A   1      37.589  29.416  29.884  1.00  0.00     0.010 A 
ATOM     35  C   UNL A   1      38.502  29.466  28.818  1.00  0.00    -0.014 A 
BRANCH  35  36
ATOM     36  C   UNL A   1      39.908  29.068  29.084  1.00  0.00     0.031 A 
ATOM     37  C   UNL A   1      40.881  30.103  29.579  1.00  0.00     0.074 A 
ATOM     38  C   UNL A   1      40.331  27.828  28.768  1.00  0.00     0.049 A 
ATOM     39  N   UNL A   1      42.185  30.042  29.654  1.00  0.00    -0.248 NA
ATOM     40  C   UNL A   1      40.312  31.391  30.010  1.00  0.00     0.031 C 
ATOM     41  C   UNL A   1      39.486  26.740  28.270  1.00  0.00     0.029 A 
ATOM     42  N   UNL A   1      41.590  27.282  28.794  1.00  0.00    -0.354 N 
ATOM     43  C   UNL A   1      42.593  31.290  30.110  1.00  0.00     0.074 A 
ATOM     44  C   UNL A   1      41.404  32.102  30.249  1.00  0.00     0.031 C 
ATOM     45  C   UNL A   1      40.247  25.655  28.051  1.00  0.00     0.029 A 
ATOM     46  C   UNL A   1      41.639  25.986  28.335  1.00  0.00     0.049 A 
ATOM     47  H   UNL A   1      42.383  27.772  29.112  1.00  0.00     0.167 HD
ATOM     48  C   UNL A   1      43.844  31.717  30.402  1.00  0.00     0.031 A 
ATOM     49  C   UNL A   1      42.692  25.167  28.139  1.00  0.00     0.031 A 
ATOM     50  C   UNL A   1      45.017  30.895  30.281  1.00  0.00     0.049 A 
ATOM     51  C   UNL A   1      44.077  25.672  28.446  1.00  0.00     0.074 A 
ATOM     52  C   UNL A   1      46.330  31.219  30.577  1.00  0.00     0.029 A 
ATOM     53  N   UNL A   1      45.017  29.579  29.843  1.00  0.00    -0.354 N 
ATOM     54  N   UNL A   1      44.444  26.851  28.888  1.00  0.00    -0.248 NA
ATOM     55  C   UNL A   1      45.190  24.736  28.232  1.00  0.00     0.031 C 
ATOM     56  C   UNL A   1      47.128  30.110  30.282  1.00  0.00     0.029 A 
ATOM     57  C   UNL A   1      46.305  29.077  29.858  1.00  0.00     0.049 A 
ATOM     58  H   UNL A   1      44.218  29.077  29.562  1.00  0.00     0.167 HD
ATOM     59  C   UNL A   1      45.823  26.781  29.051  1.00  0.00     0.074 A 
ATOM     60  C   UNL A   1      46.226  25.448  28.656  1.00  0.00     0.031 C 
ATOM     61  C   UNL A   1      46.678  27.735  29.495  1.00  0.00     0.031 A 
BRANCH  48  62
ATOM     62  C   UNL A   1      44.005  33.134  30.884  1.00  0.00    -0.014 A 
ATOM     63  C   UNL A   1      44.377  34.160  29.998  1.00  0.00     0.010 A 
ATOM     64  C   UNL A   1      43.742  33.453  32.228  1.00  0.00     0.010 A 
ATOM     65  C   UNL A   1      44.522  35.472  30.454  1.00  0.00     0.020 A 
ATOM     66  C   UNL A   1      43.856  34.771  32.683  1.00  0.00     0.020 A 
ATOM     67  C   UNL A   1      44.262  35.769  31.795  1.00  0.00     0.054 A 
BRANCH  67  68
ATOM     68  S   UNL A   1      44.432  37.486  32.352  1.00  0.00     0.124 S 
ATOM     69  O   UNL A   1      43.746  37.453  33.642  1.00  0.00    -0.237 OA
ATOM     70  O   UNL A   1      45.880  37.661  32.417  1.00  0.00    -0.237 OA
ATOM     71  O   UNL A   1      43.759  38.257  31.310  1.00  0.00    -0.744 OA
ENDBRANCH  67  68
ENDBRANCH  48  62
BRANCH  49  72
ATOM     72  C   UNL A   1      42.483  23.782  27.636  1.00  0.00    -0.014 A 
ATOM     73  C   UNL A   1      42.239  22.730  28.537  1.00  0.00     0.010 A 
ATOM     74  C   UNL A   1      42.534  23.500  26.258  1.00  0.00     0.010 A 
ATOM     75  C   UNL A   1      42.082  21.420  28.074  1.00  0.00     0.020 A 
ATOM     76  C   UNL A   1      42.349  22.196  25.789  1.00  0.00     0.020 A 
ATOM     77  C   UNL A   1      42.139  21.161  26.702  1.00  0.00     0.054 A 
BRANCH  77  78
ATOM     78  S   UNL A   1      41.906  19.458  26.122  1.00  0.00     0.124 S 
ATOM     79  O   UNL A   1      42.267  18.683  27.305  1.00  0.00    -0.237 OA
ATOM     80  O   UNL A   1      40.492  19.438  25.758  1.00  0.00    -0.237 OA
ATOM     81  O   UNL A   1      42.832  19.353  24.995  1.00  0.00    -0.744 OA
ENDBRANCH  77  78
ENDBRANCH  49  72
BRANCH  61  82
ATOM     82  C   UNL A   1      48.125  27.359  29.663  1.00  0.00    -0.014 A 
ATOM     83  C   UNL A   1      49.062  27.575  28.639  1.00  0.00     0.010 A 
ATOM     84  C   UNL A   1      48.565  26.885  30.913  1.00  0.00     0.010 A 
ATOM     85  C   UNL A   1      50.418  27.319  28.863  1.00  0.00     0.020 A 
ATOM     86  C   UNL A   1      49.921  26.651  31.148  1.00  0.00     0.020 A 
ATOM     87  C   UNL A   1      50.839  26.866  30.119  1.00  0.00     0.054 A 
BRANCH  87  88
ATOM     88  S   UNL A   1      52.614  26.632  30.412  1.00  0.00     0.124 S 
ATOM     89  O   UNL A   1      53.109  26.343  29.069  1.00  0.00    -0.237 OA
ATOM     90  O   UNL A   1      53.019  27.922  30.966  1.00  0.00    -0.237 OA
ATOM     91  O   UNL A   1      52.666  25.514  31.351  1.00  0.00    -0.744 OA
ENDBRANCH  87  88
ENDBRANCH  61  82
ENDBRANCH  35  36
ENDBRANCH  27  30
ENDBRANCH  25  26
ENDBRANCH   1  25
TORSDOF 15
ENDMDL
MODEL 3
REMARK VINA RESULT:      -9.7      5.102     11.414
REMARK SMILES CC(=O)Nc1cccc(-c2ccc(F)c(C(=O)NCCCNC(=O)c3ccc(-c4c5nc(c(-c6ccc(S(=O)(=O)[O-])cc6)c6ccc([nH]6)c(-c6ccc(S(=O)(=O)[O-])cc6)c6nc(c(-c7ccc(S(=O)(=O)[O-])cc7)c7ccc4[nH]7)C=C6)C=C5)cc3)c2)c1
REMARK SMILES IDX 20 1 19 2 18 3 16 4 17 5 15 7 10 8 11 9 85 10 12 11 13 12
REMARK SMILES IDX 14 13 9 14 5 15 6 16 86 17 7 18 8 19 4 20 1 21 2 22 3 23
REMARK SMILES IDX 21 25 22 26 23 27 24 29 25 30 26 31 84 32 27 33 83 34 28 35
REMARK SMILES IDX 29 36 30 37 77 38 31 39 82 40 76 41 78 42 32 43 81 44 75 45
REMARK SMILES IDX 74 46 33 48 63 49 44 50 62 51 45 52 48 53 61 54 79 55 46 56
REMARK SMILES IDX 47 57 60 59 80 60 49 61 34 62 35 63 43 64 36 65 42 66 37 67
REMARK SMILES IDX 38 68 39 69 40 70 41 71 64 72 65 73 73 74 66 75 72 76 67 77
REMARK SMILES IDX 68 78 69 79 70 80 71 81 50 82 51 83 59 84 52 85 58 86 53 87
REMARK SMILES IDX 54 88 55 89 56 90 57 91
REMARK H PARENT 18 6 4 24 22 28 78 47 48 58
REMARK Flexibility Score: inf
ROOT
ATOM      1  C   UNL A   1      38.236  23.864  26.280  1.00  0.00     0.042 C 
ENDROOT
BRANCH   1   2
ATOM      2  C   UNL A   1      37.853  22.517  25.666  1.00  0.00     0.118 C 
BRANCH   2   3
ATOM      3  N   UNL A   1      37.330  22.671  24.319  1.00  0.00    -0.352 N 
ATOM      4  C   UNL A   1      36.157  23.125  23.765  1.00  0.00     0.254 C 
ATOM      5  O   UNL A   1      36.131  23.135  22.534  1.00  0.00    -0.269 OA
ATOM      6  H   UNL A   1      37.974  22.376  23.634  1.00  0.00     0.163 HD
BRANCH   4   7
ATOM      7  C   UNL A   1      34.971  23.607  24.534  1.00  0.00     0.076 A 
ATOM      8  C   UNL A   1      33.458  25.373  25.352  1.00  0.00    -0.017 A 
ATOM      9  C   UNL A   1      32.661  24.412  25.974  1.00  0.00     0.012 A 
ATOM     10  C   UNL A   1      34.630  24.952  24.686  1.00  0.00     0.025 A 
ATOM     11  C   UNL A   1      33.014  23.064  25.894  1.00  0.00     0.041 A 
ATOM     12  C   UNL A   1      34.144  22.672  25.170  1.00  0.00     0.135 A 
ATOM     13  F   UNL A   1      34.397  21.355  25.116  1.00  0.00    -0.206 F 
BRANCH   8  14
ATOM     14  C   UNL A   1      33.150  26.810  25.375  1.00  0.00    -0.016 A 
ATOM     15  C   UNL A   1      32.173  28.742  24.231  1.00  0.00     0.041 A 
ATOM     16  C   UNL A   1      32.894  29.583  25.085  1.00  0.00     0.026 A 
ATOM     17  C   UNL A   1      32.306  27.362  24.386  1.00  0.00     0.034 A 
ATOM     18  C   UNL A   1      33.676  29.054  26.114  1.00  0.00     0.003 A 
ATOM     19  C   UNL A   1      33.799  27.673  26.263  1.00  0.00     0.009 A 
BRANCH  15  20
ATOM     20  N   UNL A   1      31.443  29.351  23.196  1.00  0.00    -0.326 N 
ATOM     21  C   UNL A   1      29.353  27.990  23.168  1.00  0.00     0.114 C 
ATOM     22  C   UNL A   1      30.278  29.015  22.572  1.00  0.00     0.221 C 
ATOM     23  O   UNL A   1      29.961  29.611  21.539  1.00  0.00    -0.275 OA
ATOM     24  H   UNL A   1      31.851  30.181  22.856  1.00  0.00     0.169 HD
ENDBRANCH  15  20
ENDBRANCH   8  14
ENDBRANCH   4   7
ENDBRANCH   2   3
ENDBRANCH   1   2
BRANCH   1  25
ATOM     25  C   UNL A   1      39.674  23.887  26.801  1.00  0.00     0.118 C 
BRANCH  25  26
ATOM     26  N   UNL A   1      40.566  24.612  25.900  1.00  0.00    -0.352 N 
ATOM     27  C   UNL A   1      41.089  25.880  25.999  1.00  0.00     0.251 C 
ATOM     28  H   UNL A   1      40.837  24.114  25.095  1.00  0.00     0.163 HD
ATOM     29  O   UNL A   1      41.616  26.399  25.023  1.00  0.00    -0.269 OA
BRANCH  27  30
ATOM     30  C   UNL A   1      41.012  26.610  27.280  1.00  0.00     0.039 A 
ATOM     31  C   UNL A   1      41.819  27.732  27.485  1.00  0.00     0.014 A 
ATOM     32  C   UNL A   1      40.155  26.166  28.288  1.00  0.00     0.014 A 
ATOM     33  C   UNL A   1      41.711  28.456  28.676  1.00  0.00     0.010 A 
ATOM     34  C   UNL A   1      39.992  26.928  29.436  1.00  0.00     0.010 A 
ATOM     35  C   UNL A   1      40.767  28.080  29.644  1.00  0.00    -0.014 A 
BRANCH  35  36
ATOM     36  C   UNL A   1      40.563  28.842  30.901  1.00  0.00     0.031 A 
ATOM     37  C   UNL A   1      39.521  29.927  30.940  1.00  0.00     0.074 A 
ATOM     38  C   UNL A   1      41.384  28.647  31.952  1.00  0.00     0.049 A 
ATOM     39  N   UNL A   1      39.331  30.859  31.836  1.00  0.00    -0.248 NA
ATOM     40  C   UNL A   1      38.593  29.991  29.797  1.00  0.00     0.031 C 
ATOM     41  C   UNL A   1      42.439  27.633  32.034  1.00  0.00     0.029 A 
ATOM     42  N   UNL A   1      41.475  29.315  33.149  1.00  0.00    -0.354 N 
ATOM     43  C   UNL A   1      38.287  31.639  31.351  1.00  0.00     0.074 A 
ATOM     44  C   UNL A   1      37.916  31.098  30.062  1.00  0.00     0.031 C 
ATOM     45  C   UNL A   1      43.061  27.739  33.219  1.00  0.00     0.029 A 
ATOM     46  C   UNL A   1      42.492  28.861  33.957  1.00  0.00     0.049 A 
ATOM     47  H   UNL A   1      40.870  30.048  33.403  1.00  0.00     0.167 HD
ATOM     48  C   UNL A   1      37.681  32.699  31.934  1.00  0.00     0.031 A 
ATOM     49  C   UNL A   1      42.932  29.317  35.148  1.00  0.00     0.031 A 
ATOM     50  C   UNL A   1      38.043  33.216  33.226  1.00  0.00     0.049 A 
ATOM     51  C   UNL A   1      42.259  30.514  35.765  1.00  0.00     0.074 A 
ATOM     52  C   UNL A   1      37.476  34.269  33.922  1.00  0.00     0.029 A 
ATOM     53  N   UNL A   1      39.056  32.706  34.023  1.00  0.00    -0.354 N 
ATOM     54  N   UNL A   1      41.265  31.231  35.298  1.00  0.00    -0.248 NA
ATOM     55  C   UNL A   1      42.764  30.962  37.071  1.00  0.00     0.031 C 
ATOM     56  C   UNL A   1      38.171  34.419  35.125  1.00  0.00     0.029 A 
ATOM     57  C   UNL A   1      39.132  33.423  35.203  1.00  0.00     0.049 A 
ATOM     58  H   UNL A   1      39.636  31.947  33.784  1.00  0.00     0.167 HD
ATOM     59  C   UNL A   1      40.995  32.183  36.275  1.00  0.00     0.074 A 
ATOM     60  C   UNL A   1      41.931  31.955  37.355  1.00  0.00     0.031 C 
ATOM     61  C   UNL A   1      40.050  33.154  36.280  1.00  0.00     0.031 A 
BRANCH  48  62
ATOM     62  C   UNL A   1      36.561  33.367  31.180  1.00  0.00    -0.014 A 
ATOM     63  C   UNL A   1      35.278  33.478  31.744  1.00  0.00     0.010 A 
ATOM     64  C   UNL A   1      36.802  33.927  29.913  1.00  0.00     0.010 A 
ATOM     65  C   UNL A   1      34.245  34.100  31.038  1.00  0.00     0.020 A 
ATOM     66  C   UNL A   1      35.779  34.578  29.216  1.00  0.00     0.020 A 
ATOM     67  C   UNL A   1      34.502  34.645  29.777  1.00  0.00     0.054 A 
BRANCH  67  68
ATOM     68  S   UNL A   1      33.150  35.472  28.898  1.00  0.00     0.124 S 
ATOM     69  O   UNL A   1      33.871  36.457  28.094  1.00  0.00    -0.237 OA
ATOM     70  O   UNL A   1      32.539  34.378  28.148  1.00  0.00    -0.237 OA
ATOM     71  O   UNL A   1      32.327  36.027  29.969  1.00  0.00    -0.744 OA
ENDBRANCH  67  68
ENDBRANCH  48  62
BRANCH  49  72
ATOM     72  C   UNL A   1      44.059  28.637  35.842  1.00  0.00    -0.014 A 
ATOM     73  C   UNL A   1      45.386  29.041  35.603  1.00  0.00     0.010 A 
ATOM     74  C   UNL A   1      43.820  27.577  36.737  1.00  0.00     0.010 A 
ATOM     75  C   UNL A   1      46.451  28.380  36.221  1.00  0.00     0.020 A 
ATOM     76  C   UNL A   1      44.882  26.932  37.379  1.00  0.00     0.020 A 
ATOM     77  C   UNL A   1      46.193  27.328  37.104  1.00  0.00     0.054 A 
BRANCH  77  78
ATOM     78  S   UNL A   1      47.590  26.501  37.915  1.00  0.00     0.124 S 
ATOM     79  O   UNL A   1      47.243  26.633  39.326  1.00  0.00    -0.237 OA
ATOM     80  O   UNL A   1      47.519  25.150  37.367  1.00  0.00    -0.237 OA
ATOM     81  O   UNL A   1      48.747  27.282  37.477  1.00  0.00    -0.744 OA
ENDBRANCH  77  78
ENDBRANCH  49  72
BRANCH  61  82
ATOM     82  C   UNL A   1      39.914  33.998  37.518  1.00  0.00    -0.014 A 
ATOM     83  C   UNL A   1      40.553  35.244  37.630  1.00  0.00     0.010 A 
ATOM     84  C   UNL A   1      39.039  33.577  38.537  1.00  0.00     0.010 A 
ATOM     85  C   UNL A   1      40.321  36.055  38.745  1.00  0.00     0.020 A 
ATOM     86  C   UNL A   1      38.786  34.395  39.640  1.00  0.00     0.020 A 
ATOM     87  C   UNL A   1      39.432  35.628  39.738  1.00  0.00     0.054 A 
BRANCH  87  88
ATOM     88  S   UNL A   1      39.075  36.739  41.127  1.00  0.00     0.124 S 
ATOM     89  O   UNL A   1      38.467  37.883  40.452  1.00  0.00    -0.237 OA
ATOM     90  O   UNL A   1      38.170  35.941  41.950  1.00  0.00    -0.237 OA
ATOM     91  O   UNL A   1      40.388  36.989  41.718  1.00  0.00    -0.744 OA
ENDBRANCH  87  88
ENDBRANCH  61  82
ENDBRANCH  35  36
ENDBRANCH  27  30
ENDBRANCH  25  26
ENDBRANCH   1  25
TORSDOF 15
ENDMDL
