MODEL 1
REMARK VINA RESULT:     -11.6      0.000      0.000
REMARK SMILES CCN1C(=O)/C(=C2/SC(=S)N([C@@H](C)C(=O)NCCCNC(=O)c3ccc(-c4c5nc(c(-c6ccc(S(=O)(=O)[O-])cc6)c6ccc([nH]6)c(-c6ccc(S(=O)(=O)[O-])cc6)c6nc(c(-c7ccc(S(=O)(=O)[O-])cc7)c7ccc4[nH]7)C=C6)C=C5)cc3)C2=O)c2cc(Br)ccc21
REMARK SMILES IDX 18 1 17 2 16 3 14 4 15 5 12 7 13 8 11 9 3 10 4 11 91 12 5 13
REMARK SMILES IDX 6 14 85 15 90 16 7 17 86 18 89 19 8 20 83 21 87 22 9 23
REMARK SMILES IDX 84 24 88 25 10 26 2 27 1 28 19 29 20 30 21 31 22 33 23 34
REMARK SMILES IDX 24 35 82 36 25 37 81 38 26 39 27 40 28 41 75 42 29 43 80 44
REMARK SMILES IDX 74 45 76 46 30 47 79 48 73 49 72 50 31 52 61 53 42 54 60 55
REMARK SMILES IDX 43 56 46 57 59 58 77 59 44 60 45 61 58 63 78 64 47 65 32 66
REMARK SMILES IDX 33 67 41 68 34 69 40 70 35 71 36 72 37 73 38 74 39 75 62 76
REMARK SMILES IDX 63 77 71 78 64 79 70 80 65 81 66 82 67 83 68 84 69 85 48 86
REMARK SMILES IDX 49 87 57 88 50 89 56 90 51 91 52 92 53 93 54 94 55 95
REMARK H PARENT 16 6 20 32 76 51 46 62
REMARK Flexibility Score: inf
ROOT
ATOM      1  C   UNL A   1      31.681  27.896  27.523  1.00  0.00     0.042 C 
ENDROOT
BRANCH   1   2
ATOM      2  C   UNL A   1      31.255  26.784  26.564  1.00  0.00     0.117 C 
BRANCH   2   3
ATOM      3  N   UNL A   1      30.774  27.312  25.297  1.00  0.00    -0.354 N 
ATOM      4  C   UNL A   1      31.358  27.604  24.101  1.00  0.00     0.242 C 
ATOM      5  O   UNL A   1      30.583  28.036  23.237  1.00  0.00    -0.273 OA
ATOM      6  H   UNL A   1      29.808  27.504  25.305  1.00  0.00     0.163 HD
BRANCH   4   7
ATOM      7  C   UNL A   1      32.864  27.424  23.758  1.00  0.00     0.178 C 
ATOM      8  C   UNL A   1      33.330  28.366  22.655  1.00  0.00     0.042 C 
BRANCH   7   9
ATOM      9  N   UNL A   1      33.235  25.999  23.649  1.00  0.00    -0.280 N 
ATOM     10  N   UNL A   1      36.594  21.749  25.576  1.00  0.00    -0.308 N 
ATOM     11  C   UNL A   1      36.061  23.054  25.545  1.00  0.00     0.260 C 
ATOM     12  C   UNL A   1      35.660  20.802  25.118  1.00  0.00     0.052 A 
ATOM     13  O   UNL A   1      36.628  24.090  25.811  1.00  0.00    -0.269 OA
ATOM     14  C   UNL A   1      34.668  22.894  24.975  1.00  0.00     0.069 C 
ATOM     15  C   UNL A   1      34.476  21.445  24.767  1.00  0.00     0.014 A 
ATOM     16  C   UNL A   1      35.805  19.427  24.977  1.00  0.00     0.028 A 
ATOM     17  C   UNL A   1      33.862  23.881  24.545  1.00  0.00     0.093 C 
ATOM     18  C   UNL A   1      33.398  20.705  24.317  1.00  0.00     0.026 A 
ATOM     19  C   UNL A   1      34.751  18.698  24.414  1.00  0.00     0.018 A 
ATOM     20  S   UNL A   1      32.578  23.595  23.406  1.00  0.00    -0.053 SA
ATOM     21  C   UNL A   1      33.918  25.377  24.708  1.00  0.00     0.267 C 
ATOM     22  C   UNL A   1      33.563  19.349  24.081  1.00  0.00     0.018 A 
ATOM     23  C   UNL A   1      32.852  25.135  22.661  1.00  0.00     0.149 C 
ATOM     24  O   UNL A   1      34.418  25.945  25.664  1.00  0.00    -0.268 OA
ATOM     25  Br  UNL A   1      32.148  18.466  23.223  1.00  0.00    -0.051 Br
ATOM     26  S   UNL A   1      32.772  25.328  21.012  1.00  0.00    -0.052 S 
BRANCH  10  27
ATOM     27  C   UNL A   1      37.944  21.417  25.989  1.00  0.00     0.122 C 
ATOM     28  C   UNL A   1      38.995  22.430  25.544  1.00  0.00     0.028 C 
ENDBRANCH  10  27
ENDBRANCH   7   9
ENDBRANCH   4   7
ENDBRANCH   2   3
ENDBRANCH   1   2
BRANCH   1  29
ATOM     29  C   UNL A   1      33.112  28.382  27.315  1.00  0.00     0.118 C 
BRANCH  29  30
ATOM     30  N   UNL A   1      33.216  29.837  27.277  1.00  0.00    -0.352 N 
ATOM     31  C   UNL A   1      34.233  30.684  27.656  1.00  0.00     0.251 C 
ATOM     32  H   UNL A   1      32.420  30.291  26.918  1.00  0.00     0.163 HD
ATOM     33  O   UNL A   1      34.010  31.893  27.685  1.00  0.00    -0.269 OA
BRANCH  31  34
ATOM     34  C   UNL A   1      35.571  30.177  28.055  1.00  0.00     0.039 A 
ATOM     35  C   UNL A   1      35.820  29.681  29.333  1.00  0.00     0.014 A 
ATOM     36  C   UNL A   1      36.599  30.149  27.102  1.00  0.00     0.014 A 
ATOM     37  C   UNL A   1      37.118  29.338  29.711  1.00  0.00     0.010 A 
ATOM     38  C   UNL A   1      37.882  29.706  27.456  1.00  0.00     0.010 A 
ATOM     39  C   UNL A   1      38.169  29.340  28.779  1.00  0.00    -0.014 A 
BRANCH  39  40
ATOM     40  C   UNL A   1      39.542  28.933  29.203  1.00  0.00     0.031 A 
ATOM     41  C   UNL A   1      40.376  29.819  30.098  1.00  0.00     0.074 A 
ATOM     42  C   UNL A   1      40.027  27.732  28.819  1.00  0.00     0.049 A 
ATOM     43  N   UNL A   1      41.584  29.610  30.561  1.00  0.00    -0.248 NA
ATOM     44  C   UNL A   1      39.791  31.100  30.528  1.00  0.00     0.031 C 
ATOM     45  C   UNL A   1      39.324  26.776  27.959  1.00  0.00     0.029 A 
ATOM     46  N   UNL A   1      41.206  27.094  29.123  1.00  0.00    -0.354 N 
ATOM     47  C   UNL A   1      41.903  30.729  31.325  1.00  0.00     0.074 A 
ATOM     48  C   UNL A   1      40.781  31.634  31.233  1.00  0.00     0.031 C 
ATOM     49  C   UNL A   1      40.053  25.654  27.860  1.00  0.00     0.029 A 
ATOM     50  C   UNL A   1      41.307  25.832  28.583  1.00  0.00     0.049 A 
ATOM     51  H   UNL A   1      41.912  27.502  29.675  1.00  0.00     0.167 HD
ATOM     52  C   UNL A   1      43.017  30.966  32.058  1.00  0.00     0.031 A 
ATOM     53  C   UNL A   1      42.297  24.917  28.646  1.00  0.00     0.031 A 
ATOM     54  C   UNL A   1      44.112  30.048  32.190  1.00  0.00     0.049 A 
ATOM     55  C   UNL A   1      43.540  25.230  29.428  1.00  0.00     0.074 A 
ATOM     56  C   UNL A   1      45.265  30.206  32.940  1.00  0.00     0.029 A 
ATOM     57  N   UNL A   1      44.190  28.806  31.584  1.00  0.00    -0.354 N 
ATOM     58  N   UNL A   1      43.806  26.291  30.153  1.00  0.00    -0.248 NA
ATOM     59  C   UNL A   1      44.620  24.234  29.400  1.00  0.00     0.031 C 
ATOM     60  C   UNL A   1      46.061  29.077  32.753  1.00  0.00     0.029 A 
ATOM     61  C   UNL A   1      45.383  28.196  31.926  1.00  0.00     0.049 A 
ATOM     62  H   UNL A   1      43.500  28.416  31.000  1.00  0.00     0.167 HD
ATOM     63  C   UNL A   1      45.078  26.083  30.675  1.00  0.00     0.074 A 
ATOM     64  C   UNL A   1      45.521  24.789  30.202  1.00  0.00     0.031 C 
ATOM     65  C   UNL A   1      45.810  26.900  31.466  1.00  0.00     0.031 A 
BRANCH  52  66
ATOM     66  C   UNL A   1      43.113  32.241  32.850  1.00  0.00    -0.014 A 
ATOM     67  C   UNL A   1      42.496  32.365  34.106  1.00  0.00     0.010 A 
ATOM     68  C   UNL A   1      43.676  33.377  32.253  1.00  0.00     0.010 A 
ATOM     69  C   UNL A   1      42.457  33.607  34.755  1.00  0.00     0.020 A 
ATOM     70  C   UNL A   1      43.680  34.608  32.913  1.00  0.00     0.020 A 
ATOM     71  C   UNL A   1      43.052  34.720  34.153  1.00  0.00     0.054 A 
BRANCH  71  72
ATOM     72  S   UNL A   1      43.011  36.327  34.994  1.00  0.00     0.124 S 
ATOM     73  O   UNL A   1      44.334  36.387  35.608  1.00  0.00    -0.237 OA
ATOM     74  O   UNL A   1      42.780  37.263  33.898  1.00  0.00    -0.237 OA
ATOM     75  O   UNL A   1      41.895  36.190  35.928  1.00  0.00    -0.744 OA
ENDBRANCH  71  72
ENDBRANCH  52  66
BRANCH  53  76
ATOM     76  C   UNL A   1      42.131  23.613  27.943  1.00  0.00    -0.014 A 
ATOM     77  C   UNL A   1      41.489  22.535  28.583  1.00  0.00     0.010 A 
ATOM     78  C   UNL A   1      42.676  23.417  26.662  1.00  0.00     0.010 A 
ATOM     79  C   UNL A   1      41.449  21.274  27.984  1.00  0.00     0.020 A 
ATOM     80  C   UNL A   1      42.608  22.163  26.045  1.00  0.00     0.020 A 
ATOM     81  C   UNL A   1      42.022  21.093  26.724  1.00  0.00     0.054 A 
BRANCH  81  82
ATOM     82  S   UNL A   1      42.000  19.436  25.985  1.00  0.00     0.124 S 
ATOM     83  O   UNL A   1      42.525  18.617  27.074  1.00  0.00    -0.237 OA
ATOM     84  O   UNL A   1      40.585  19.241  25.678  1.00  0.00    -0.237 OA
ATOM     85  O   UNL A   1      42.873  19.569  24.823  1.00  0.00    -0.744 OA
ENDBRANCH  81  82
ENDBRANCH  53  76
BRANCH  65  86
ATOM     86  C   UNL A   1      47.181  26.452  31.891  1.00  0.00    -0.014 A 
ATOM     87  C   UNL A   1      48.298  26.770  31.096  1.00  0.00     0.010 A 
ATOM     88  C   UNL A   1      47.337  25.574  32.977  1.00  0.00     0.010 A 
ATOM     89  C   UNL A   1      49.538  26.182  31.351  1.00  0.00     0.020 A 
ATOM     90  C   UNL A   1      48.583  25.004  33.251  1.00  0.00     0.020 A 
ATOM     91  C   UNL A   1      49.667  25.289  32.418  1.00  0.00     0.054 A 
BRANCH  91  92
ATOM     92  S   UNL A   1      51.270  24.486  32.697  1.00  0.00     0.124 S 
ATOM     93  O   UNL A   1      51.728  25.133  33.923  1.00  0.00    -0.237 OA
ATOM     94  O   UNL A   1      50.904  23.077  32.826  1.00  0.00    -0.237 OA
ATOM     95  O   UNL A   1      52.032  24.816  31.495  1.00  0.00    -0.744 OA
ENDBRANCH  91  92
ENDBRANCH  65  86
ENDBRANCH  39  40
ENDBRANCH  31  34
ENDBRANCH  29  30
ENDBRANCH   1  29
TORSDOF 15
ENDMDL
MODEL 2
REMARK VINA RESULT:     -11.4      4.133      7.863
REMARK SMILES CCN1C(=O)/C(=C2/SC(=S)N([C@@H](C)C(=O)NCCCNC(=O)c3ccc(-c4c5nc(c(-c6ccc(S(=O)(=O)[O-])cc6)c6ccc([nH]6)c(-c6ccc(S(=O)(=O)[O-])cc6)c6nc(c(-c7ccc(S(=O)(=O)[O-])cc7)c7ccc4[nH]7)C=C6)C=C5)cc3)C2=O)c2cc(Br)ccc21
REMARK SMILES IDX 18 1 17 2 16 3 14 4 15 5 12 7 13 8 11 9 3 10 4 11 91 12 5 13
REMARK SMILES IDX 6 14 85 15 90 16 7 17 86 18 89 19 8 20 83 21 87 22 9 23
REMARK SMILES IDX 84 24 88 25 10 26 2 27 1 28 19 29 20 30 21 31 22 33 23 34
REMARK SMILES IDX 24 35 82 36 25 37 81 38 26 39 27 40 28 41 75 42 29 43 80 44
REMARK SMILES IDX 74 45 76 46 30 47 79 48 73 49 72 50 31 52 61 53 42 54 60 55
REMARK SMILES IDX 43 56 46 57 59 58 77 59 44 60 45 61 58 63 78 64 47 65 32 66
REMARK SMILES IDX 33 67 41 68 34 69 40 70 35 71 36 72 37 73 38 74 39 75 62 76
REMARK SMILES IDX 63 77 71 78 64 79 70 80 65 81 66 82 67 83 68 84 69 85 48 86
REMARK SMILES IDX 49 87 57 88 50 89 56 90 51 91 52 92 53 93 54 94 55 95
REMARK H PARENT 16 6 20 32 76 51 46 62
REMARK Flexibility Score: inf
ROOT
ATOM      1  C   UNL A   1      33.686  34.106  28.859  1.00  0.00     0.042 C 
ENDROOT
BRANCH   1   2
ATOM      2  C   UNL A   1      34.282  34.504  30.209  1.00  0.00     0.117 C 
BRANCH   2   3
ATOM      3  N   UNL A   1      33.744  33.704  31.300  1.00  0.00    -0.354 N 
ATOM      4  C   UNL A   1      33.969  33.647  32.642  1.00  0.00     0.242 C 
ATOM      5  O   UNL A   1      33.279  32.816  33.249  1.00  0.00    -0.273 OA
ATOM      6  H   UNL A   1      33.066  33.056  31.000  1.00  0.00     0.163 HD
BRANCH   4   7
ATOM      7  C   UNL A   1      34.978  34.528  33.432  1.00  0.00     0.178 C 
ATOM      8  C   UNL A   1      35.005  35.970  32.942  1.00  0.00     0.042 C 
BRANCH   7   9
ATOM      9  N   UNL A   1      36.270  33.842  33.626  1.00  0.00    -0.280 N 
ATOM     10  N   UNL A   1      40.465  32.446  37.302  1.00  0.00    -0.308 N 
ATOM     11  C   UNL A   1      39.227  32.996  36.912  1.00  0.00     0.260 C 
ATOM     12  C   UNL A   1      40.830  31.367  36.478  1.00  0.00     0.052 A 
ATOM     13  O   UNL A   1      38.672  33.968  37.374  1.00  0.00    -0.269 OA
ATOM     14  C   UNL A   1      38.807  32.193  35.700  1.00  0.00     0.069 C 
ATOM     15  C   UNL A   1      39.847  31.163  35.512  1.00  0.00     0.014 A 
ATOM     16  C   UNL A   1      41.975  30.580  36.521  1.00  0.00     0.028 A 
ATOM     17  C   UNL A   1      37.811  32.495  34.847  1.00  0.00     0.093 C 
ATOM     18  C   UNL A   1      39.978  30.128  34.605  1.00  0.00     0.026 A 
ATOM     19  C   UNL A   1      42.155  29.608  35.530  1.00  0.00     0.018 A 
ATOM     20  S   UNL A   1      37.771  31.879  33.220  1.00  0.00    -0.053 SA
ATOM     21  C   UNL A   1      36.679  33.484  34.922  1.00  0.00     0.267 C 
ATOM     22  C   UNL A   1      41.159  29.401  34.577  1.00  0.00     0.018 A 
ATOM     23  C   UNL A   1      37.089  33.363  32.641  1.00  0.00     0.149 C 
ATOM     24  O   UNL A   1      36.155  33.851  35.960  1.00  0.00    -0.268 OA
ATOM     25  Br  UNL A   1      41.372  28.197  33.154  1.00  0.00    -0.051 Br
ATOM     26  S   UNL A   1      37.563  34.029  31.194  1.00  0.00    -0.052 S 
BRANCH  10  27
ATOM     27  C   UNL A   1      41.286  32.945  38.389  1.00  0.00     0.122 C 
ATOM     28  C   UNL A   1      42.236  34.068  37.984  1.00  0.00     0.028 C 
ENDBRANCH  10  27
ENDBRANCH   7   9
ENDBRANCH   4   7
ENDBRANCH   2   3
ENDBRANCH   1   2
BRANCH   1  29
ATOM     29  C   UNL A   1      34.507  33.070  28.098  1.00  0.00     0.118 C 
BRANCH  29  30
ATOM     30  N   UNL A   1      33.742  31.871  27.770  1.00  0.00    -0.352 N 
ATOM     31  C   UNL A   1      34.131  30.557  27.628  1.00  0.00     0.251 C 
ATOM     32  H   UNL A   1      32.782  32.029  27.625  1.00  0.00     0.163 HD
ATOM     33  O   UNL A   1      33.321  29.751  27.175  1.00  0.00    -0.269 OA
BRANCH  31  34
ATOM     34  C   UNL A   1      35.500  30.101  27.978  1.00  0.00     0.039 A 
ATOM     35  C   UNL A   1      35.823  29.651  29.256  1.00  0.00     0.014 A 
ATOM     36  C   UNL A   1      36.484  30.075  26.980  1.00  0.00     0.014 A 
ATOM     37  C   UNL A   1      37.147  29.357  29.583  1.00  0.00     0.010 A 
ATOM     38  C   UNL A   1      37.795  29.681  27.286  1.00  0.00     0.010 A 
ATOM     39  C   UNL A   1      38.154  29.362  28.603  1.00  0.00    -0.014 A 
BRANCH  39  40
ATOM     40  C   UNL A   1      39.556  29.008  28.974  1.00  0.00     0.031 A 
ATOM     41  C   UNL A   1      40.416  29.961  29.771  1.00  0.00     0.074 A 
ATOM     42  C   UNL A   1      40.048  27.797  28.631  1.00  0.00     0.049 A 
ATOM     43  N   UNL A   1      41.651  29.803  30.178  1.00  0.00    -0.248 NA
ATOM     44  C   UNL A   1      39.824  31.251  30.160  1.00  0.00     0.031 C 
ATOM     45  C   UNL A   1      39.323  26.779  27.866  1.00  0.00     0.029 A 
ATOM     46  N   UNL A   1      41.256  27.202  28.906  1.00  0.00    -0.354 N 
ATOM     47  C   UNL A   1      41.984  30.970  30.860  1.00  0.00     0.074 A 
ATOM     48  C   UNL A   1      40.838  31.845  30.779  1.00  0.00     0.031 C 
ATOM     49  C   UNL A   1      40.071  25.669  27.790  1.00  0.00     0.029 A 
ATOM     50  C   UNL A   1      41.358  25.913  28.432  1.00  0.00     0.049 A 
ATOM     51  H   UNL A   1      41.981  27.655  29.395  1.00  0.00     0.167 HD
ATOM     52  C   UNL A   1      43.130  31.271  31.517  1.00  0.00     0.031 A 
ATOM     53  C   UNL A   1      42.370  25.023  28.492  1.00  0.00     0.031 A 
ATOM     54  C   UNL A   1      44.252  30.384  31.640  1.00  0.00     0.049 A 
ATOM     55  C   UNL A   1      43.646  25.406  29.187  1.00  0.00     0.074 A 
ATOM     56  C   UNL A   1      45.439  30.608  32.316  1.00  0.00     0.029 A 
ATOM     57  N   UNL A   1      44.326  29.112  31.101  1.00  0.00    -0.354 N 
ATOM     58  N   UNL A   1      43.925  26.511  29.835  1.00  0.00    -0.248 NA
ATOM     59  C   UNL A   1      44.746  24.432  29.155  1.00  0.00     0.031 C 
ATOM     60  C   UNL A   1      46.250  29.487  32.149  1.00  0.00     0.029 A 
ATOM     61  C   UNL A   1      45.550  28.546  31.411  1.00  0.00     0.049 A 
ATOM     62  H   UNL A   1      43.615  28.676  30.578  1.00  0.00     0.167 HD
ATOM     63  C   UNL A   1      45.227  26.360  30.298  1.00  0.00     0.074 A 
ATOM     64  C   UNL A   1      45.675  25.050  29.875  1.00  0.00     0.031 C 
ATOM     65  C   UNL A   1      45.982  27.236  31.001  1.00  0.00     0.031 A 
BRANCH  52  66
ATOM     66  C   UNL A   1      43.239  32.590  32.230  1.00  0.00    -0.014 A 
ATOM     67  C   UNL A   1      43.807  33.711  31.602  1.00  0.00     0.010 A 
ATOM     68  C   UNL A   1      42.931  32.659  33.596  1.00  0.00     0.010 A 
ATOM     69  C   UNL A   1      44.050  34.883  32.332  1.00  0.00     0.020 A 
ATOM     70  C   UNL A   1      43.129  33.837  34.319  1.00  0.00     0.020 A 
ATOM     71  C   UNL A   1      43.706  34.938  33.686  1.00  0.00     0.054 A 
BRANCH  71  72
ATOM     72  S   UNL A   1      44.010  36.456  34.632  1.00  0.00     0.124 S 
ATOM     73  O   UNL A   1      45.167  37.020  33.944  1.00  0.00    -0.237 OA
ATOM     74  O   UNL A   1      42.760  37.193  34.476  1.00  0.00    -0.237 OA
ATOM     75  O   UNL A   1      44.266  35.964  35.985  1.00  0.00    -0.744 OA
ENDBRANCH  71  72
ENDBRANCH  52  66
BRANCH  53  76
ATOM     76  C   UNL A   1      42.198  23.679  27.874  1.00  0.00    -0.014 A 
ATOM     77  C   UNL A   1      41.832  22.572  28.664  1.00  0.00     0.010 A 
ATOM     78  C   UNL A   1      42.469  23.480  26.508  1.00  0.00     0.010 A 
ATOM     79  C   UNL A   1      41.799  21.287  28.118  1.00  0.00     0.020 A 
ATOM     80  C   UNL A   1      42.404  22.199  25.950  1.00  0.00     0.020 A 
ATOM     81  C   UNL A   1      42.100  21.107  26.767  1.00  0.00     0.054 A 
BRANCH  81  82
ATOM     82  S   UNL A   1      42.097  19.424  26.089  1.00  0.00     0.124 S 
ATOM     83  O   UNL A   1      43.004  19.558  24.953  1.00  0.00    -0.237 OA
ATOM     84  O   UNL A   1      42.601  18.628  27.206  1.00  0.00    -0.237 OA
ATOM     85  O   UNL A   1      40.696  19.196  25.749  1.00  0.00    -0.744 OA
ENDBRANCH  81  82
ENDBRANCH  53  76
BRANCH  65  86
ATOM     86  C   UNL A   1      47.383  26.840  31.376  1.00  0.00    -0.014 A 
ATOM     87  C   UNL A   1      48.408  26.900  30.412  1.00  0.00     0.010 A 
ATOM     88  C   UNL A   1      47.646  26.249  32.623  1.00  0.00     0.010 A 
ATOM     89  C   UNL A   1      49.657  26.334  30.670  1.00  0.00     0.020 A 
ATOM     90  C   UNL A   1      48.904  25.704  32.895  1.00  0.00     0.020 A 
ATOM     91  C   UNL A   1      49.891  25.725  31.906  1.00  0.00     0.054 A 
BRANCH  91  92
ATOM     92  S   UNL A   1      51.498  24.939  32.202  1.00  0.00     0.124 S 
ATOM     93  O   UNL A   1      52.363  25.646  31.262  1.00  0.00    -0.237 OA
ATOM     94  O   UNL A   1      51.738  25.222  33.615  1.00  0.00    -0.237 OA
ATOM     95  O   UNL A   1      51.255  23.532  31.890  1.00  0.00    -0.744 OA
ENDBRANCH  91  92
ENDBRANCH  65  86
ENDBRANCH  39  40
ENDBRANCH  31  34
ENDBRANCH  29  30
ENDBRANCH   1  29
TORSDOF 15
ENDMDL
MODEL 3
REMARK VINA RESULT:     -11.2      1.832      2.340
REMARK SMILES CCN1C(=O)/C(=C2/SC(=S)N([C@@H](C)C(=O)NCCCNC(=O)c3ccc(-c4c5nc(c(-c6ccc(S(=O)(=O)[O-])cc6)c6ccc([nH]6)c(-c6ccc(S(=O)(=O)[O-])cc6)c6nc(c(-c7ccc(S(=O)(=O)[O-])cc7)c7ccc4[nH]7)C=C6)C=C5)cc3)C2=O)c2cc(Br)ccc21
REMARK SMILES IDX 18 1 17 2 16 3 14 4 15 5 12 7 13 8 11 9 3 10 4 11 91 12 5 13
REMARK SMILES IDX 6 14 85 15 90 16 7 17 86 18 89 19 8 20 83 21 87 22 9 23
REMARK SMILES IDX 84 24 88 25 10 26 2 27 1 28 19 29 20 30 21 31 22 33 23 34
REMARK SMILES IDX 24 35 82 36 25 37 81 38 26 39 27 40 28 41 75 42 29 43 80 44
REMARK SMILES IDX 74 45 76 46 30 47 79 48 73 49 72 50 31 52 61 53 42 54 60 55
REMARK SMILES IDX 43 56 46 57 59 58 77 59 44 60 45 61 58 63 78 64 47 65 32 66
REMARK SMILES IDX 33 67 41 68 34 69 40 70 35 71 36 72 37 73 38 74 39 75 62 76
REMARK SMILES IDX 63 77 71 78 64 79 70 80 65 81 66 82 67 83 68 84 69 85 48 86
REMARK SMILES IDX 49 87 57 88 50 89 56 90 51 91 52 92 53 93 54 94 55 95
REMARK H PARENT 16 6 20 32 76 51 46 62
REMARK Flexibility Score: inf
ROOT
ATOM      1  C   UNL A   1      31.790  28.243  27.545  1.00  0.00     0.042 C 
ENDROOT
BRANCH   1   2
ATOM      2  C   UNL A   1      31.447  27.014  26.704  1.00  0.00     0.117 C 
BRANCH   2   3
ATOM      3  N   UNL A   1      30.964  27.377  25.380  1.00  0.00    -0.354 N 
ATOM      4  C   UNL A   1      31.553  27.549  24.163  1.00  0.00     0.242 C 
ATOM      5  O   UNL A   1      30.774  27.853  23.249  1.00  0.00    -0.273 OA
ATOM      6  H   UNL A   1      29.993  27.536  25.358  1.00  0.00     0.163 HD
BRANCH   4   7
ATOM      7  C   UNL A   1      33.068  27.381  23.855  1.00  0.00     0.178 C 
ATOM      8  C   UNL A   1      33.552  28.328  22.765  1.00  0.00     0.042 C 
BRANCH   7   9
ATOM      9  N   UNL A   1      33.452  25.960  23.754  1.00  0.00    -0.280 N 
ATOM     10  N   UNL A   1      37.089  21.835  25.435  1.00  0.00    -0.308 N 
ATOM     11  C   UNL A   1      36.531  23.129  25.420  1.00  0.00     0.260 C 
ATOM     12  C   UNL A   1      36.130  20.858  25.117  1.00  0.00     0.052 A 
ATOM     13  O   UNL A   1      37.103  24.183  25.585  1.00  0.00    -0.269 OA
ATOM     14  C   UNL A   1      35.087  22.927  25.016  1.00  0.00     0.069 C 
ATOM     15  C   UNL A   1      34.901  21.469  24.880  1.00  0.00     0.014 A 
ATOM     16  C   UNL A   1      36.285  19.481  25.007  1.00  0.00     0.028 A 
ATOM     17  C   UNL A   1      34.218  23.886  24.645  1.00  0.00     0.093 C 
ATOM     18  C   UNL A   1      33.795  20.696  24.578  1.00  0.00     0.026 A 
ATOM     19  C   UNL A   1      35.189  18.716  24.590  1.00  0.00     0.018 A 
ATOM     20  S   UNL A   1      32.821  23.538  23.668  1.00  0.00    -0.053 SA
ATOM     21  C   UNL A   1      34.261  25.386  24.750  1.00  0.00     0.267 C 
ATOM     22  C   UNL A   1      33.959  19.335  24.371  1.00  0.00     0.018 A 
ATOM     23  C   UNL A   1      32.980  25.055  22.845  1.00  0.00     0.149 C 
ATOM     24  O   UNL A   1      34.854  25.997  25.625  1.00  0.00    -0.268 OA
ATOM     25  Br  UNL A   1      32.475  18.399  23.707  1.00  0.00    -0.051 Br
ATOM     26  S   UNL A   1      32.712  25.187  21.210  1.00  0.00    -0.052 S 
BRANCH  10  27
ATOM     27  C   UNL A   1      38.484  21.540  25.705  1.00  0.00     0.122 C 
ATOM     28  C   UNL A   1      39.216  22.644  26.462  1.00  0.00     0.028 C 
ENDBRANCH  10  27
ENDBRANCH   7   9
ENDBRANCH   4   7
ENDBRANCH   2   3
ENDBRANCH   1   2
BRANCH   1  29
ATOM     29  C   UNL A   1      33.146  28.862  27.218  1.00  0.00     0.118 C 
BRANCH  29  30
ATOM     30  N   UNL A   1      33.133  30.319  27.281  1.00  0.00    -0.352 N 
ATOM     31  C   UNL A   1      34.020  31.211  27.841  1.00  0.00     0.251 C 
ATOM     32  H   UNL A   1      32.353  30.737  26.849  1.00  0.00     0.163 HD
ATOM     33  O   UNL A   1      33.697  32.396  27.913  1.00  0.00    -0.269 OA
BRANCH  31  34
ATOM     34  C   UNL A   1      35.335  30.778  28.380  1.00  0.00     0.039 A 
ATOM     35  C   UNL A   1      35.453  29.698  29.252  1.00  0.00     0.014 A 
ATOM     36  C   UNL A   1      36.495  31.444  27.961  1.00  0.00     0.014 A 
ATOM     37  C   UNL A   1      36.683  29.404  29.841  1.00  0.00     0.010 A 
ATOM     38  C   UNL A   1      37.747  31.080  28.477  1.00  0.00     0.010 A 
ATOM     39  C   UNL A   1      37.851  30.086  29.460  1.00  0.00    -0.014 A 
BRANCH  39  40
ATOM     40  C   UNL A   1      39.160  29.725  30.081  1.00  0.00     0.031 A 
ATOM     41  C   UNL A   1      39.643  30.412  31.337  1.00  0.00     0.074 A 
ATOM     42  C   UNL A   1      39.903  28.736  29.538  1.00  0.00     0.049 A 
ATOM     43  N   UNL A   1      40.752  30.212  32.004  1.00  0.00    -0.248 NA
ATOM     44  C   UNL A   1      38.781  31.454  31.919  1.00  0.00     0.031 C 
ATOM     45  C   UNL A   1      39.552  27.986  28.328  1.00  0.00     0.029 A 
ATOM     46  N   UNL A   1      41.087  28.168  29.943  1.00  0.00    -0.354 N 
ATOM     47  C   UNL A   1      40.725  31.103  33.073  1.00  0.00     0.074 A 
ATOM     48  C   UNL A   1      39.510  31.873  32.947  1.00  0.00     0.031 C 
ATOM     49  C   UNL A   1      40.460  27.020  28.129  1.00  0.00     0.029 A 
ATOM     50  C   UNL A   1      41.500  27.123  29.147  1.00  0.00     0.049 A 
ATOM     51  H   UNL A   1      41.593  28.480  30.728  1.00  0.00     0.167 HD
ATOM     52  C   UNL A   1      41.617  31.244  34.083  1.00  0.00     0.031 A 
ATOM     53  C   UNL A   1      42.594  26.336  29.213  1.00  0.00     0.031 A 
ATOM     54  C   UNL A   1      42.800  30.447  34.238  1.00  0.00     0.049 A 
ATOM     55  C   UNL A   1      43.589  26.551  30.318  1.00  0.00     0.074 A 
ATOM     56  C   UNL A   1      43.739  30.512  35.253  1.00  0.00     0.029 A 
ATOM     57  N   UNL A   1      43.200  29.437  33.381  1.00  0.00    -0.354 N 
ATOM     58  N   UNL A   1      43.527  27.391  31.323  1.00  0.00    -0.248 NA
ATOM     59  C   UNL A   1      44.803  25.722  30.300  1.00  0.00     0.031 C 
ATOM     60  C   UNL A   1      44.732  29.571  34.986  1.00  0.00     0.029 A 
ATOM     61  C   UNL A   1      44.386  28.886  33.831  1.00  0.00     0.049 A 
ATOM     62  H   UNL A   1      42.713  29.154  32.573  1.00  0.00     0.167 HD
ATOM     63  C   UNL A   1      44.687  27.183  32.062  1.00  0.00     0.074 A 
ATOM     64  C   UNL A   1      45.422  26.125  31.402  1.00  0.00     0.031 C 
ATOM     65  C   UNL A   1      45.104  27.822  33.179  1.00  0.00     0.031 A 
BRANCH  52  66
ATOM     66  C   UNL A   1      41.343  32.252  35.165  1.00  0.00    -0.014 A 
ATOM     67  C   UNL A   1      40.613  31.905  36.314  1.00  0.00     0.010 A 
ATOM     68  C   UNL A   1      41.667  33.598  34.945  1.00  0.00     0.010 A 
ATOM     69  C   UNL A   1      40.227  32.893  37.232  1.00  0.00     0.020 A 
ATOM     70  C   UNL A   1      41.325  34.581  35.877  1.00  0.00     0.020 A 
ATOM     71  C   UNL A   1      40.589  34.224  37.006  1.00  0.00     0.054 A 
BRANCH  71  72
ATOM     72  S   UNL A   1      40.100  35.504  38.196  1.00  0.00     0.124 S 
ATOM     73  O   UNL A   1      38.831  34.987  38.699  1.00  0.00    -0.237 OA
ATOM     74  O   UNL A   1      41.206  35.503  39.149  1.00  0.00    -0.237 OA
ATOM     75  O   UNL A   1      40.002  36.709  37.373  1.00  0.00    -0.744 OA
ENDBRANCH  71  72
ENDBRANCH  52  66
BRANCH  53  76
ATOM     76  C   UNL A   1      42.789  25.269  28.192  1.00  0.00    -0.014 A 
ATOM     77  C   UNL A   1      42.373  23.949  28.453  1.00  0.00     0.010 A 
ATOM     78  C   UNL A   1      43.454  25.547  26.985  1.00  0.00     0.010 A 
ATOM     79  C   UNL A   1      42.671  22.919  27.559  1.00  0.00     0.020 A 
ATOM     80  C   UNL A   1      43.725  24.522  26.071  1.00  0.00     0.020 A 
ATOM     81  C   UNL A   1      43.359  23.211  26.379  1.00  0.00     0.054 A 
BRANCH  81  82
ATOM     82  S   UNL A   1      43.777  21.850  25.254  1.00  0.00     0.124 S 
ATOM     83  O   UNL A   1      45.088  21.444  25.751  1.00  0.00    -0.237 OA
ATOM     84  O   UNL A   1      42.694  20.897  25.486  1.00  0.00    -0.237 OA
ATOM     85  O   UNL A   1      43.773  22.483  23.938  1.00  0.00    -0.744 OA
ENDBRANCH  81  82
ENDBRANCH  53  76
BRANCH  65  86
ATOM     86  C   UNL A   1      46.418  27.421  33.790  1.00  0.00    -0.014 A 
ATOM     87  C   UNL A   1      46.445  26.460  34.819  1.00  0.00     0.010 A 
ATOM     88  C   UNL A   1      47.595  28.117  33.468  1.00  0.00     0.010 A 
ATOM     89  C   UNL A   1      47.615  26.237  35.547  1.00  0.00     0.020 A 
ATOM     90  C   UNL A   1      48.774  27.877  34.177  1.00  0.00     0.020 A 
ATOM     91  C   UNL A   1      48.768  26.959  35.230  1.00  0.00     0.054 A 
BRANCH  91  92
ATOM     92  S   UNL A   1      50.262  26.701  36.226  1.00  0.00     0.124 S 
ATOM     93  O   UNL A   1      50.953  27.979  36.079  1.00  0.00    -0.237 OA
ATOM     94  O   UNL A   1      49.719  26.428  37.555  1.00  0.00    -0.237 OA
ATOM     95  O   UNL A   1      50.911  25.562  35.581  1.00  0.00    -0.744 OA
ENDBRANCH  91  92
ENDBRANCH  65  86
ENDBRANCH  39  40
ENDBRANCH  31  34
ENDBRANCH  29  30
ENDBRANCH   1  29
TORSDOF 15
ENDMDL
