MODEL 1
REMARK VINA RESULT:     -10.7      0.000      0.000
REMARK SMILES C[NH2+][C@@]1(C(=O)NCCCNC(=O)c2ccc(-c3c4nc(c(-c5ccc(S(=O)(=O)[O-])cc5)c5ccc([nH]5)c(-c5ccc(S(=O)(=O)[O-])cc5)c5nc(c(-c6ccc(S(=O)(=O)[O-])cc6)c6ccc3[nH]6)C=C5)C=C4)cc2)CC[C@H](SC2CCOCC2)C1
REMARK SMILES IDX 8 1 7 2 6 3 4 4 5 5 3 7 73 8 83 9 74 10 75 11 2 12 1 13
REMARK SMILES IDX 76 16 77 17 78 18 82 19 79 20 81 21 80 22 9 23 10 24 11 25
REMARK SMILES IDX 12 27 13 28 14 29 72 30 15 31 71 32 16 33 17 34 18 35 65 36
REMARK SMILES IDX 19 37 70 38 64 39 66 40 20 41 69 42 63 43 62 44 21 46 51 47
REMARK SMILES IDX 32 48 50 49 33 50 36 51 49 52 67 53 34 54 35 55 48 57 68 58
REMARK SMILES IDX 37 59 22 60 23 61 31 62 24 63 30 64 25 65 26 66 27 67 28 68
REMARK SMILES IDX 29 69 52 70 53 71 61 72 54 73 60 74 55 75 56 76 57 77 58 78
REMARK SMILES IDX 59 79 38 80 39 81 47 82 40 83 46 84 41 85 42 86 43 87 44 88
REMARK SMILES IDX 45 89
REMARK H PARENT 6 6 2 14 2 15 10 26 66 45 36 56
REMARK Flexibility Score: inf
ROOT
ATOM      1  C   UNL A   1      33.529  28.195  24.941  1.00  0.00     0.042 C 
ENDROOT
BRANCH   1   2
ATOM      2  C   UNL A   1      33.486  26.755  24.465  1.00  0.00     0.118 C 
BRANCH   2   3
ATOM      3  N   UNL A   1      32.684  25.869  25.271  1.00  0.00    -0.351 N 
ATOM      4  C   UNL A   1      32.925  24.617  25.754  1.00  0.00     0.281 C 
ATOM      5  O   UNL A   1      32.192  24.321  26.709  1.00  0.00    -0.268 OA
ATOM      6  H   UNL A   1      31.802  26.233  25.516  1.00  0.00     0.163 HD
BRANCH   4   7
ATOM      7  C   UNL A   1      34.062  23.634  25.220  1.00  0.00     0.176 C 
ATOM      8  C   UNL A   1      34.010  23.518  23.682  1.00  0.00     0.080 C 
ATOM      9  C   UNL A   1      33.950  22.176  25.719  1.00  0.00     0.093 C 
ATOM     10  C   UNL A   1      33.322  22.205  23.341  1.00  0.00     0.022 C 
ATOM     11  C   UNL A   1      33.631  21.261  24.496  1.00  0.00     0.054 C 
BRANCH   7  12
ATOM     12  N   UNL A   1      35.452  24.116  25.537  1.00  0.00    -0.336 N 
ATOM     13  C   UNL A   1      36.542  23.701  24.663  1.00  0.00     0.331 C 
ATOM     14  H   UNL A   1      35.429  25.136  25.525  1.00  0.00     0.346 HD
ATOM     15  H   UNL A   1      35.670  23.684  26.434  1.00  0.00     0.346 HD
ENDBRANCH   7  12
BRANCH  11  16
ATOM     16  S   UNL A   1      32.484  19.935  25.087  1.00  0.00    -0.155 SA
BRANCH  16  17
ATOM     17  C   UNL A   1      33.230  18.248  24.946  1.00  0.00     0.051 C 
ATOM     18  C   UNL A   1      33.359  17.856  23.471  1.00  0.00     0.043 C 
ATOM     19  C   UNL A   1      32.724  17.068  25.766  1.00  0.00     0.043 C 
ATOM     20  C   UNL A   1      34.163  16.564  23.340  1.00  0.00     0.161 C 
ATOM     21  C   UNL A   1      33.583  15.834  25.511  1.00  0.00     0.161 C 
ATOM     22  O   UNL A   1      33.580  15.520  24.121  1.00  0.00    -0.381 OA
ENDBRANCH  16  17
ENDBRANCH  11  16
ENDBRANCH   4   7
ENDBRANCH   2   3
ENDBRANCH   1   2
BRANCH   1  23
ATOM     23  C   UNL A   1      33.729  28.311  26.441  1.00  0.00     0.118 C 
BRANCH  23  24
ATOM     24  N   UNL A   1      33.633  29.694  26.902  1.00  0.00    -0.352 N 
ATOM     25  C   UNL A   1      34.422  30.459  27.728  1.00  0.00     0.251 C 
ATOM     26  H   UNL A   1      32.847  30.174  26.550  1.00  0.00     0.163 HD
ATOM     27  O   UNL A   1      33.949  31.504  28.171  1.00  0.00    -0.269 OA
BRANCH  25  28
ATOM     28  C   UNL A   1      35.799  30.058  28.113  1.00  0.00     0.039 A 
ATOM     29  C   UNL A   1      36.031  29.572  29.407  1.00  0.00     0.014 A 
ATOM     30  C   UNL A   1      36.884  30.225  27.257  1.00  0.00     0.014 A 
ATOM     31  C   UNL A   1      37.325  29.209  29.806  1.00  0.00     0.010 A 
ATOM     32  C   UNL A   1      38.140  29.737  27.602  1.00  0.00     0.010 A 
ATOM     33  C   UNL A   1      38.388  29.253  28.892  1.00  0.00    -0.014 A 
BRANCH  33  34
ATOM     34  C   UNL A   1      39.777  28.857  29.255  1.00  0.00     0.031 A 
ATOM     35  C   UNL A   1      40.689  29.853  29.934  1.00  0.00     0.074 A 
ATOM     36  C   UNL A   1      40.252  27.648  28.894  1.00  0.00     0.049 A 
ATOM     37  N   UNL A   1      41.970  29.762  30.190  1.00  0.00    -0.248 NA
ATOM     38  C   UNL A   1      40.093  31.138  30.338  1.00  0.00     0.031 C 
ATOM     39  C   UNL A   1      39.493  26.609  28.193  1.00  0.00     0.029 A 
ATOM     40  N   UNL A   1      41.498  27.094  29.056  1.00  0.00    -0.354 N 
ATOM     41  C   UNL A   1      42.336  30.989  30.733  1.00  0.00     0.074 A 
ATOM     42  C   UNL A   1      41.157  31.825  30.721  1.00  0.00     0.031 C 
ATOM     43  C   UNL A   1      40.278  25.535  28.015  1.00  0.00     0.029 A 
ATOM     44  C   UNL A   1      41.608  25.823  28.540  1.00  0.00     0.049 A 
ATOM     45  H   UNL A   1      42.241  27.561  29.498  1.00  0.00     0.167 HD
ATOM     46  C   UNL A   1      43.538  31.382  31.220  1.00  0.00     0.031 A 
ATOM     47  C   UNL A   1      42.662  24.986  28.486  1.00  0.00     0.031 A 
ATOM     48  C   UNL A   1      44.695  30.530  31.280  1.00  0.00     0.049 A 
ATOM     49  C   UNL A   1      43.978  25.429  29.065  1.00  0.00     0.074 A 
ATOM     50  C   UNL A   1      45.937  30.802  31.825  1.00  0.00     0.029 A 
ATOM     51  N   UNL A   1      44.748  29.235  30.786  1.00  0.00    -0.354 N 
ATOM     52  N   UNL A   1      44.289  26.576  29.622  1.00  0.00    -0.248 NA
ATOM     53  C   UNL A   1      45.081  24.460  29.020  1.00  0.00     0.031 C 
ATOM     54  C   UNL A   1      46.754  29.684  31.626  1.00  0.00     0.029 A 
ATOM     55  C   UNL A   1      46.004  28.698  31.004  1.00  0.00     0.049 A 
ATOM     56  H   UNL A   1      44.001  28.766  30.347  1.00  0.00     0.167 HD
ATOM     57  C   UNL A   1      45.615  26.455  30.020  1.00  0.00     0.074 A 
ATOM     58  C   UNL A   1      46.043  25.120  29.652  1.00  0.00     0.031 C 
ATOM     59  C   UNL A   1      46.409  27.365  30.637  1.00  0.00     0.031 A 
BRANCH  46  60
ATOM     60  C   UNL A   1      43.658  32.796  31.733  1.00  0.00    -0.014 A 
ATOM     61  C   UNL A   1      43.433  33.102  33.088  1.00  0.00     0.010 A 
ATOM     62  C   UNL A   1      44.030  33.829  30.853  1.00  0.00     0.010 A 
ATOM     63  C   UNL A   1      43.523  34.421  33.541  1.00  0.00     0.020 A 
ATOM     64  C   UNL A   1      44.154  35.145  31.309  1.00  0.00     0.020 A 
ATOM     65  C   UNL A   1      43.880  35.435  32.648  1.00  0.00     0.054 A 
BRANCH  65  66
ATOM     66  S   UNL A   1      44.003  37.135  33.267  1.00  0.00     0.124 S 
ATOM     67  O   UNL A   1      45.264  37.095  34.003  1.00  0.00    -0.237 OA
ATOM     68  O   UNL A   1      44.017  37.925  32.039  1.00  0.00    -0.237 OA
ATOM     69  O   UNL A   1      42.807  37.292  34.092  1.00  0.00    -0.744 OA
ENDBRANCH  65  66
ENDBRANCH  46  60
BRANCH  47  70
ATOM     70  C   UNL A   1      42.507  23.633  27.886  1.00  0.00    -0.014 A 
ATOM     71  C   UNL A   1      42.848  23.414  26.539  1.00  0.00     0.010 A 
ATOM     72  C   UNL A   1      42.040  22.554  28.657  1.00  0.00     0.010 A 
ATOM     73  C   UNL A   1      42.707  22.145  25.970  1.00  0.00     0.020 A 
ATOM     74  C   UNL A   1      41.924  21.278  28.099  1.00  0.00     0.020 A 
ATOM     75  C   UNL A   1      42.247  21.084  26.755  1.00  0.00     0.054 A 
BRANCH  75  76
ATOM     76  S   UNL A   1      42.125  19.433  26.009  1.00  0.00     0.124 S 
ATOM     77  O   UNL A   1      42.955  19.577  24.818  1.00  0.00    -0.237 OA
ATOM     78  O   UNL A   1      42.666  18.572  27.059  1.00  0.00    -0.237 OA
ATOM     79  O   UNL A   1      40.693  19.276  25.763  1.00  0.00    -0.744 OA
ENDBRANCH  75  76
ENDBRANCH  47  70
BRANCH  59  80
ATOM     80  C   UNL A   1      47.805  26.938  30.994  1.00  0.00    -0.014 A 
ATOM     81  C   UNL A   1      48.087  26.313  32.221  1.00  0.00     0.010 A 
ATOM     82  C   UNL A   1      48.841  27.113  30.058  1.00  0.00     0.010 A 
ATOM     83  C   UNL A   1      49.389  25.900  32.518  1.00  0.00     0.020 A 
ATOM     84  C   UNL A   1      50.137  26.675  30.340  1.00  0.00     0.020 A 
ATOM     85  C   UNL A   1      50.405  26.083  31.576  1.00  0.00     0.054 A 
BRANCH  85  86
ATOM     86  S   UNL A   1      52.076  25.497  31.967  1.00  0.00     0.124 S 
ATOM     87  O   UNL A   1      52.819  25.882  30.771  1.00  0.00    -0.237 OA
ATOM     88  O   UNL A   1      52.402  26.244  33.179  1.00  0.00    -0.237 OA
ATOM     89  O   UNL A   1      51.902  24.058  32.158  1.00  0.00    -0.744 OA
ENDBRANCH  85  86
ENDBRANCH  59  80
ENDBRANCH  33  34
ENDBRANCH  25  28
ENDBRANCH  23  24
ENDBRANCH   1  23
TORSDOF 16
ENDMDL
MODEL 2
REMARK VINA RESULT:     -10.7      4.622      9.511
REMARK SMILES C[NH2+][C@@]1(C(=O)NCCCNC(=O)c2ccc(-c3c4nc(c(-c5ccc(S(=O)(=O)[O-])cc5)c5ccc([nH]5)c(-c5ccc(S(=O)(=O)[O-])cc5)c5nc(c(-c6ccc(S(=O)(=O)[O-])cc6)c6ccc3[nH]6)C=C5)C=C4)cc2)CC[C@H](SC2CCOCC2)C1
REMARK SMILES IDX 8 1 7 2 6 3 4 4 5 5 3 7 73 8 83 9 74 10 75 11 2 12 1 13
REMARK SMILES IDX 76 16 77 17 78 18 82 19 79 20 81 21 80 22 9 23 10 24 11 25
REMARK SMILES IDX 12 27 13 28 14 29 72 30 15 31 71 32 16 33 17 34 18 35 65 36
REMARK SMILES IDX 19 37 70 38 64 39 66 40 20 41 69 42 63 43 62 44 21 46 51 47
REMARK SMILES IDX 32 48 50 49 33 50 36 51 49 52 67 53 34 54 35 55 48 57 68 58
REMARK SMILES IDX 37 59 22 60 23 61 31 62 24 63 30 64 25 65 26 66 27 67 28 68
REMARK SMILES IDX 29 69 52 70 53 71 61 72 54 73 60 74 55 75 56 76 57 77 58 78
REMARK SMILES IDX 59 79 38 80 39 81 47 82 40 83 46 84 41 85 42 86 43 87 44 88
REMARK SMILES IDX 45 89
REMARK H PARENT 6 6 2 14 2 15 10 26 66 45 36 56
REMARK Flexibility Score: inf
ROOT
ATOM      1  C   UNL A   1      38.745  22.751  26.555  1.00  0.00     0.042 C 
ENDROOT
BRANCH   1   2
ATOM      2  C   UNL A   1      37.949  23.763  25.754  1.00  0.00     0.118 C 
BRANCH   2   3
ATOM      3  N   UNL A   1      37.430  23.279  24.499  1.00  0.00    -0.351 N 
ATOM      4  C   UNL A   1      36.161  23.229  24.002  1.00  0.00     0.281 C 
ATOM      5  O   UNL A   1      36.132  23.113  22.769  1.00  0.00    -0.268 OA
ATOM      6  H   UNL A   1      38.116  22.918  23.891  1.00  0.00     0.163 HD
BRANCH   4   7
ATOM      7  C   UNL A   1      34.832  23.369  24.873  1.00  0.00     0.176 C 
ATOM      8  C   UNL A   1      34.985  22.645  26.228  1.00  0.00     0.080 C 
ATOM      9  C   UNL A   1      33.570  22.740  24.242  1.00  0.00     0.093 C 
ATOM     10  C   UNL A   1      34.257  21.314  26.125  1.00  0.00     0.022 C 
ATOM     11  C   UNL A   1      33.128  21.533  25.126  1.00  0.00     0.054 C 
BRANCH   7  12
ATOM     12  N   UNL A   1      34.503  24.796  25.218  1.00  0.00    -0.336 N 
ATOM     13  C   UNL A   1      33.358  25.418  24.565  1.00  0.00     0.331 C 
ATOM     14  H   UNL A   1      34.332  24.833  26.224  1.00  0.00     0.346 HD
ATOM     15  H   UNL A   1      35.304  25.328  24.882  1.00  0.00     0.346 HD
ENDBRANCH   7  12
BRANCH  11  16
ATOM     16  S   UNL A   1      32.483  20.225  23.988  1.00  0.00    -0.155 SA
BRANCH  16  17
ATOM     17  C   UNL A   1      33.161  18.550  24.388  1.00  0.00     0.051 C 
ATOM     18  C   UNL A   1      33.307  17.726  23.105  1.00  0.00     0.043 C 
ATOM     19  C   UNL A   1      32.587  17.690  25.507  1.00  0.00     0.043 C 
ATOM     20  C   UNL A   1      34.058  16.429  23.397  1.00  0.00     0.161 C 
ATOM     21  C   UNL A   1      33.399  16.409  25.666  1.00  0.00     0.161 C 
ATOM     22  O   UNL A   1      33.415  15.690  24.436  1.00  0.00    -0.381 OA
ENDBRANCH  16  17
ENDBRANCH  11  16
ENDBRANCH   4   7
ENDBRANCH   2   3
ENDBRANCH   1   2
BRANCH   1  23
ATOM     23  C   UNL A   1      40.034  23.327  27.111  1.00  0.00     0.118 C 
BRANCH  23  24
ATOM     24  N   UNL A   1      40.693  24.217  26.158  1.00  0.00    -0.352 N 
ATOM     25  C   UNL A   1      40.933  25.571  26.160  1.00  0.00     0.251 C 
ATOM     26  H   UNL A   1      41.033  23.756  25.357  1.00  0.00     0.163 HD
ATOM     27  O   UNL A   1      41.255  26.100  25.096  1.00  0.00    -0.269 OA
BRANCH  25  28
ATOM     28  C   UNL A   1      40.798  26.406  27.380  1.00  0.00     0.039 A 
ATOM     29  C   UNL A   1      39.756  26.136  28.278  1.00  0.00     0.014 A 
ATOM     30  C   UNL A   1      41.623  27.501  27.621  1.00  0.00     0.014 A 
ATOM     31  C   UNL A   1      39.591  26.923  29.427  1.00  0.00     0.010 A 
ATOM     32  C   UNL A   1      41.546  28.193  28.825  1.00  0.00     0.010 A 
ATOM     33  C   UNL A   1      40.509  27.938  29.731  1.00  0.00    -0.014 A 
BRANCH  33  34
ATOM     34  C   UNL A   1      40.394  28.788  30.948  1.00  0.00     0.031 A 
ATOM     35  C   UNL A   1      39.356  29.886  31.003  1.00  0.00     0.074 A 
ATOM     36  C   UNL A   1      41.274  28.645  31.959  1.00  0.00     0.049 A 
ATOM     37  N   UNL A   1      39.196  30.830  31.895  1.00  0.00    -0.248 NA
ATOM     38  C   UNL A   1      38.401  29.959  29.883  1.00  0.00     0.031 C 
ATOM     39  C   UNL A   1      42.354  27.656  32.014  1.00  0.00     0.029 A 
ATOM     40  N   UNL A   1      41.407  29.344  33.133  1.00  0.00    -0.354 N 
ATOM     41  C   UNL A   1      38.163  31.631  31.419  1.00  0.00     0.074 A 
ATOM     42  C   UNL A   1      37.770  31.095  30.136  1.00  0.00     0.031 C 
ATOM     43  C   UNL A   1      43.016  27.791  33.175  1.00  0.00     0.029 A 
ATOM     44  C   UNL A   1      42.445  28.906  33.922  1.00  0.00     0.049 A 
ATOM     45  H   UNL A   1      40.816  30.088  33.386  1.00  0.00     0.167 HD
ATOM     46  C   UNL A   1      37.576  32.703  32.004  1.00  0.00     0.031 A 
ATOM     47  C   UNL A   1      42.894  29.355  35.111  1.00  0.00     0.031 A 
ATOM     48  C   UNL A   1      37.933  33.202  33.304  1.00  0.00     0.049 A 
ATOM     49  C   UNL A   1      42.205  30.524  35.759  1.00  0.00     0.074 A 
ATOM     50  C   UNL A   1      37.350  34.230  34.022  1.00  0.00     0.029 A 
ATOM     51  N   UNL A   1      38.961  32.698  34.087  1.00  0.00    -0.354 N 
ATOM     52  N   UNL A   1      41.195  31.235  35.315  1.00  0.00    -0.248 NA
ATOM     53  C   UNL A   1      42.707  30.944  37.074  1.00  0.00     0.031 C 
ATOM     54  C   UNL A   1      38.051  34.375  35.223  1.00  0.00     0.029 A 
ATOM     55  C   UNL A   1      39.037  33.402  35.276  1.00  0.00     0.049 A 
ATOM     56  H   UNL A   1      39.549  31.950  33.835  1.00  0.00     0.167 HD
ATOM     57  C   UNL A   1      40.923  32.167  36.309  1.00  0.00     0.074 A 
ATOM     58  C   UNL A   1      41.865  31.921  37.383  1.00  0.00     0.031 C 
ATOM     59  C   UNL A   1      39.977  33.138  36.335  1.00  0.00     0.031 A 
BRANCH  46  60
ATOM     60  C   UNL A   1      36.480  33.405  31.240  1.00  0.00    -0.014 A 
ATOM     61  C   UNL A   1      36.707  33.925  29.952  1.00  0.00     0.010 A 
ATOM     62  C   UNL A   1      35.198  33.520  31.805  1.00  0.00     0.010 A 
ATOM     63  C   UNL A   1      35.688  34.594  29.267  1.00  0.00     0.020 A 
ATOM     64  C   UNL A   1      34.166  34.160  31.111  1.00  0.00     0.020 A 
ATOM     65  C   UNL A   1      34.425  34.711  29.854  1.00  0.00     0.054 A 
BRANCH  65  66
ATOM     66  S   UNL A   1      33.118  35.572  28.937  1.00  0.00     0.124 S 
ATOM     67  O   UNL A   1      33.888  36.520  28.136  1.00  0.00    -0.237 OA
ATOM     68  O   UNL A   1      32.483  34.490  28.191  1.00  0.00    -0.237 OA
ATOM     69  O   UNL A   1      32.294  36.169  29.986  1.00  0.00    -0.744 OA
ENDBRANCH  65  66
ENDBRANCH  46  60
BRANCH  47  70
ATOM     70  C   UNL A   1      44.040  28.677  35.776  1.00  0.00    -0.014 A 
ATOM     71  C   UNL A   1      45.355  29.113  35.539  1.00  0.00     0.010 A 
ATOM     72  C   UNL A   1      43.824  27.609  36.666  1.00  0.00     0.010 A 
ATOM     73  C   UNL A   1      46.435  28.482  36.162  1.00  0.00     0.020 A 
ATOM     74  C   UNL A   1      44.899  26.994  37.313  1.00  0.00     0.020 A 
ATOM     75  C   UNL A   1      46.200  27.427  37.049  1.00  0.00     0.054 A 
BRANCH  75  76
ATOM     76  S   UNL A   1      47.613  26.660  37.890  1.00  0.00     0.124 S 
ATOM     77  O   UNL A   1      48.285  25.975  36.789  1.00  0.00    -0.237 OA
ATOM     78  O   UNL A   1      48.317  27.815  38.441  1.00  0.00    -0.237 OA
ATOM     79  O   UNL A   1      46.988  25.790  38.883  1.00  0.00    -0.744 OA
ENDBRANCH  75  76
ENDBRANCH  47  70
BRANCH  59  80
ATOM     80  C   UNL A   1      39.882  33.980  37.577  1.00  0.00    -0.014 A 
ATOM     81  C   UNL A   1      40.596  35.183  37.701  1.00  0.00     0.010 A 
ATOM     82  C   UNL A   1      39.015  33.585  38.613  1.00  0.00     0.010 A 
ATOM     83  C   UNL A   1      40.469  35.963  38.854  1.00  0.00     0.020 A 
ATOM     84  C   UNL A   1      38.864  34.376  39.755  1.00  0.00     0.020 A 
ATOM     85  C   UNL A   1      39.604  35.553  39.873  1.00  0.00     0.054 A 
BRANCH  85  86
ATOM     86  S   UNL A   1      39.421  36.605  41.340  1.00  0.00     0.124 S 
ATOM     87  O   UNL A   1      38.897  37.840  40.764  1.00  0.00    -0.237 OA
ATOM     88  O   UNL A   1      38.483  35.847  42.163  1.00  0.00    -0.237 OA
ATOM     89  O   UNL A   1      40.779  36.693  41.874  1.00  0.00    -0.744 OA
ENDBRANCH  85  86
ENDBRANCH  59  80
ENDBRANCH  33  34
ENDBRANCH  25  28
ENDBRANCH  23  24
ENDBRANCH   1  23
TORSDOF 16
ENDMDL
MODEL 3
REMARK VINA RESULT:     -10.5      1.492      2.240
REMARK SMILES C[NH2+][C@@]1(C(=O)NCCCNC(=O)c2ccc(-c3c4nc(c(-c5ccc(S(=O)(=O)[O-])cc5)c5ccc([nH]5)c(-c5ccc(S(=O)(=O)[O-])cc5)c5nc(c(-c6ccc(S(=O)(=O)[O-])cc6)c6ccc3[nH]6)C=C5)C=C4)cc2)CC[C@H](SC2CCOCC2)C1
REMARK SMILES IDX 8 1 7 2 6 3 4 4 5 5 3 7 73 8 83 9 74 10 75 11 2 12 1 13
REMARK SMILES IDX 76 16 77 17 78 18 82 19 79 20 81 21 80 22 9 23 10 24 11 25
REMARK SMILES IDX 12 27 13 28 14 29 72 30 15 31 71 32 16 33 17 34 18 35 65 36
REMARK SMILES IDX 19 37 70 38 64 39 66 40 20 41 69 42 63 43 62 44 21 46 51 47
REMARK SMILES IDX 32 48 50 49 33 50 36 51 49 52 67 53 34 54 35 55 48 57 68 58
REMARK SMILES IDX 37 59 22 60 23 61 31 62 24 63 30 64 25 65 26 66 27 67 28 68
REMARK SMILES IDX 29 69 52 70 53 71 61 72 54 73 60 74 55 75 56 76 57 77 58 78
REMARK SMILES IDX 59 79 38 80 39 81 47 82 40 83 46 84 41 85 42 86 43 87 44 88
REMARK SMILES IDX 45 89
REMARK H PARENT 6 6 2 14 2 15 10 26 66 45 36 56
REMARK Flexibility Score: inf
ROOT
ATOM      1  C   UNL A   1      33.407  27.727  26.798  1.00  0.00     0.042 C 
ENDROOT
BRANCH   1   2
ATOM      2  C   UNL A   1      31.934  27.962  27.075  1.00  0.00     0.118 C 
BRANCH   2   3
ATOM      3  N   UNL A   1      31.113  26.777  27.065  1.00  0.00    -0.351 N 
ATOM      4  C   UNL A   1      30.748  25.937  26.055  1.00  0.00     0.281 C 
ATOM      5  O   UNL A   1      30.367  24.830  26.464  1.00  0.00    -0.268 OA
ATOM      6  H   UNL A   1      30.750  26.530  27.946  1.00  0.00     0.163 HD
BRANCH   4   7
ATOM      7  C   UNL A   1      30.847  26.279  24.500  1.00  0.00     0.176 C 
ATOM      8  C   UNL A   1      29.861  25.415  23.683  1.00  0.00     0.080 C 
ATOM      9  C   UNL A   1      32.224  26.000  23.858  1.00  0.00     0.093 C 
ATOM     10  C   UNL A   1      30.656  24.289  23.042  1.00  0.00     0.022 C 
ATOM     11  C   UNL A   1      32.060  24.840  22.827  1.00  0.00     0.054 C 
BRANCH   7  12
ATOM     12  N   UNL A   1      30.481  27.705  24.187  1.00  0.00    -0.336 N 
ATOM     13  C   UNL A   1      30.203  28.058  22.801  1.00  0.00     0.331 C 
ATOM     14  H   UNL A   1      29.646  27.929  24.729  1.00  0.00     0.346 HD
ATOM     15  H   UNL A   1      31.320  28.236  24.419  1.00  0.00     0.346 HD
ENDBRANCH   7  12
BRANCH  11  16
ATOM     16  S   UNL A   1      33.599  23.815  22.904  1.00  0.00    -0.155 SA
BRANCH  16  17
ATOM     17  C   UNL A   1      33.344  22.236  23.836  1.00  0.00     0.051 C 
ATOM     18  C   UNL A   1      32.438  21.298  23.033  1.00  0.00     0.043 C 
ATOM     19  C   UNL A   1      32.953  22.219  25.308  1.00  0.00     0.043 C 
ATOM     20  C   UNL A   1      32.395  19.920  23.691  1.00  0.00     0.161 C 
ATOM     21  C   UNL A   1      32.904  20.787  25.830  1.00  0.00     0.161 C 
ATOM     22  O   UNL A   1      31.985  20.020  25.055  1.00  0.00    -0.381 OA
ENDBRANCH  16  17
ENDBRANCH  11  16
ENDBRANCH   4   7
ENDBRANCH   2   3
ENDBRANCH   1   2
BRANCH   1  23
ATOM     23  C   UNL A   1      34.052  28.877  26.047  1.00  0.00     0.118 C 
BRANCH  23  24
ATOM     24  N   UNL A   1      33.906  30.146  26.756  1.00  0.00    -0.352 N 
ATOM     25  C   UNL A   1      34.629  30.739  27.765  1.00  0.00     0.251 C 
ATOM     26  H   UNL A   1      33.138  30.683  26.451  1.00  0.00     0.163 HD
ATOM     27  O   UNL A   1      34.112  31.680  28.367  1.00  0.00    -0.269 OA
BRANCH  25  28
ATOM     28  C   UNL A   1      35.983  30.275  28.158  1.00  0.00     0.039 A 
ATOM     29  C   UNL A   1      37.035  30.389  27.238  1.00  0.00     0.014 A 
ATOM     30  C   UNL A   1      36.226  29.656  29.380  1.00  0.00     0.014 A 
ATOM     31  C   UNL A   1      38.319  29.936  27.573  1.00  0.00     0.010 A 
ATOM     32  C   UNL A   1      37.524  29.335  29.765  1.00  0.00     0.010 A 
ATOM     33  C   UNL A   1      38.585  29.438  28.857  1.00  0.00    -0.014 A 
BRANCH  33  34
ATOM     34  C   UNL A   1      39.934  28.966  29.273  1.00  0.00     0.031 A 
ATOM     35  C   UNL A   1      40.867  29.905  30.003  1.00  0.00     0.074 A 
ATOM     36  C   UNL A   1      40.360  27.738  28.917  1.00  0.00     0.049 A 
ATOM     37  N   UNL A   1      42.129  29.744  30.311  1.00  0.00    -0.248 NA
ATOM     38  C   UNL A   1      40.322  31.216  30.398  1.00  0.00     0.031 C 
ATOM     39  C   UNL A   1      39.579  26.748  28.170  1.00  0.00     0.029 A 
ATOM     40  N   UNL A   1      41.567  27.117  29.123  1.00  0.00    -0.354 N 
ATOM     41  C   UNL A   1      42.535  30.944  30.886  1.00  0.00     0.074 A 
ATOM     42  C   UNL A   1      41.404  31.841  30.835  1.00  0.00     0.031 C 
ATOM     43  C   UNL A   1      40.313  25.636  28.012  1.00  0.00     0.029 A 
ATOM     44  C   UNL A   1      41.633  25.848  28.596  1.00  0.00     0.049 A 
ATOM     45  H   UNL A   1      42.315  27.539  29.603  1.00  0.00     0.167 HD
ATOM     46  C   UNL A   1      43.734  31.268  31.428  1.00  0.00     0.031 A 
ATOM     47  C   UNL A   1      42.644  24.957  28.576  1.00  0.00     0.031 A 
ATOM     48  C   UNL A   1      44.841  30.356  31.525  1.00  0.00     0.049 A 
ATOM     49  C   UNL A   1      43.954  25.323  29.216  1.00  0.00     0.074 A 
ATOM     50  C   UNL A   1      46.072  30.555  32.126  1.00  0.00     0.029 A 
ATOM     51  N   UNL A   1      44.848  29.065  31.017  1.00  0.00    -0.354 N 
ATOM     52  N   UNL A   1      44.301  26.446  29.800  1.00  0.00    -0.248 NA
ATOM     53  C   UNL A   1      45.007  24.299  29.204  1.00  0.00     0.031 C 
ATOM     54  C   UNL A   1      46.837  29.399  31.946  1.00  0.00     0.029 A 
ATOM     55  C   UNL A   1      46.064  28.460  31.280  1.00  0.00     0.049 A 
ATOM     56  H   UNL A   1      44.097  28.641  30.541  1.00  0.00     0.167 HD
ATOM     57  C   UNL A   1      45.601  26.252  30.252  1.00  0.00     0.074 A 
ATOM     58  C   UNL A   1      45.974  24.900  29.884  1.00  0.00     0.031 C 
ATOM     59  C   UNL A   1      46.414  27.112  30.913  1.00  0.00     0.031 A 
BRANCH  46  60
ATOM     60  C   UNL A   1      43.905  32.668  31.964  1.00  0.00    -0.014 A 
ATOM     61  C   UNL A   1      43.588  32.982  33.298  1.00  0.00     0.010 A 
ATOM     62  C   UNL A   1      44.419  33.677  31.129  1.00  0.00     0.010 A 
ATOM     63  C   UNL A   1      43.730  34.290  33.772  1.00  0.00     0.020 A 
ATOM     64  C   UNL A   1      44.593  34.979  31.608  1.00  0.00     0.020 A 
ATOM     65  C   UNL A   1      44.227  35.281  32.922  1.00  0.00     0.054 A 
BRANCH  65  66
ATOM     66  S   UNL A   1      44.413  36.966  33.568  1.00  0.00     0.124 S 
ATOM     67  O   UNL A   1      45.362  36.766  34.659  1.00  0.00    -0.237 OA
ATOM     68  O   UNL A   1      44.928  37.697  32.413  1.00  0.00    -0.237 OA
ATOM     69  O   UNL A   1      43.059  37.331  33.979  1.00  0.00    -0.744 OA
ENDBRANCH  65  66
ENDBRANCH  46  60
BRANCH  47  70
ATOM     70  C   UNL A   1      42.444  23.621  27.952  1.00  0.00    -0.014 A 
ATOM     71  C   UNL A   1      42.809  23.405  26.611  1.00  0.00     0.010 A 
ATOM     72  C   UNL A   1      41.910  22.553  28.695  1.00  0.00     0.010 A 
ATOM     73  C   UNL A   1      42.626  22.152  26.019  1.00  0.00     0.020 A 
ATOM     74  C   UNL A   1      41.752  21.291  28.116  1.00  0.00     0.020 A 
ATOM     75  C   UNL A   1      42.100  21.101  26.777  1.00  0.00     0.054 A 
BRANCH  75  76
ATOM     76  S   UNL A   1      41.924  19.468  26.004  1.00  0.00     0.124 S 
ATOM     77  O   UNL A   1      42.403  18.581  27.058  1.00  0.00    -0.237 OA
ATOM     78  O   UNL A   1      40.491  19.405  25.725  1.00  0.00    -0.237 OA
ATOM     79  O   UNL A   1      42.776  19.558  24.820  1.00  0.00    -0.744 OA
ENDBRANCH  75  76
ENDBRANCH  47  70
BRANCH  59  80
ATOM     80  C   UNL A   1      47.769  26.608  31.323  1.00  0.00    -0.014 A 
ATOM     81  C   UNL A   1      47.973  25.988  32.568  1.00  0.00     0.010 A 
ATOM     82  C   UNL A   1      48.844  26.705  30.420  1.00  0.00     0.010 A 
ATOM     83  C   UNL A   1      49.237  25.502  32.915  1.00  0.00     0.020 A 
ATOM     84  C   UNL A   1      50.101  26.195  30.752  1.00  0.00     0.020 A 
ATOM     85  C   UNL A   1      50.292  25.609  32.005  1.00  0.00     0.054 A 
BRANCH  85  86
ATOM     86  S   UNL A   1      51.911  24.930  32.460  1.00  0.00     0.124 S 
ATOM     87  O   UNL A   1      52.770  25.461  31.406  1.00  0.00    -0.237 OA
ATOM     88  O   UNL A   1      52.130  25.489  33.792  1.00  0.00    -0.237 OA
ATOM     89  O   UNL A   1      51.702  23.484  32.426  1.00  0.00    -0.744 OA
ENDBRANCH  85  86
ENDBRANCH  59  80
ENDBRANCH  33  34
ENDBRANCH  25  28
ENDBRANCH  23  24
ENDBRANCH   1  23
TORSDOF 16
ENDMDL
