MODEL 1
REMARK VINA RESULT:     -10.6      0.000      0.000
REMARK SMILES CC[C@@]1(C(=O)NCCCNC(=O)c2ccc(-c3c4nc(c(-c5ccc(S(=O)(=O)[O-])cc5)c5ccc([nH]5)c(-c5ccc(S(=O)(=O)[O-])cc5)c5nc(c(-c6ccc(S(=O)(=O)[O-])cc6)c6ccc3[nH]6)C=C5)C=C4)cc2)CCN(C(=O)N(C)CCc2cccs2)C1
REMARK SMILES IDX 7 1 6 2 4 3 5 4 3 6 73 7 87 8 74 9 75 10 2 11 1 12 76 13
REMARK SMILES IDX 77 14 78 15 79 16 80 17 81 18 82 19 83 20 86 21 84 22 85 23
REMARK SMILES IDX 8 24 9 25 10 26 11 27 12 29 13 30 14 31 72 32 15 33 71 34
REMARK SMILES IDX 16 35 17 36 18 37 65 38 19 39 70 40 64 41 66 42 20 43 69 44
REMARK SMILES IDX 63 45 62 46 21 48 51 49 32 50 50 51 33 52 36 53 49 54 67 55
REMARK SMILES IDX 34 56 35 57 48 59 68 60 37 61 22 62 23 63 31 64 24 65 30 66
REMARK SMILES IDX 25 67 26 68 27 69 28 70 29 71 52 72 53 73 61 74 54 75 60 76
REMARK SMILES IDX 55 77 56 78 57 79 58 80 59 81 38 82 39 83 47 84 40 85 46 86
REMARK SMILES IDX 41 87 42 88 43 89 44 90 45 91
REMARK H PARENT 6 5 10 28 66 47 36 58
REMARK Flexibility Score: inf
ROOT
ATOM      1  C   UNL A   1      32.023  28.315  25.150  1.00  0.00     0.117 C 
ENDROOT
BRANCH   1   2
ATOM      2  N   UNL A   1      31.099  27.363  25.754  1.00  0.00    -0.355 N 
ATOM      3  C   UNL A   1      30.868  26.042  25.523  1.00  0.00     0.228 C 
ATOM      4  O   UNL A   1      30.167  25.467  26.363  1.00  0.00    -0.274 OA
ATOM      5  H   UNL A   1      30.534  27.749  26.462  1.00  0.00     0.163 HD
BRANCH   3   6
ATOM      6  C   UNL A   1      31.326  25.310  24.251  1.00  0.00     0.068 C 
ATOM      7  C   UNL A   1      30.623  23.923  24.155  1.00  0.00     0.040 C 
ATOM      8  C   UNL A   1      32.786  24.876  24.280  1.00  0.00     0.138 C 
ATOM      9  C   UNL A   1      31.523  22.966  24.928  1.00  0.00     0.122 C 
ATOM     10  N   UNL A   1      32.853  23.532  24.825  1.00  0.00    -0.324 N 
BRANCH   6  11
ATOM     11  C   UNL A   1      30.911  26.135  23.004  1.00  0.00     0.015 C 
ATOM     12  C   UNL A   1      31.950  26.314  21.908  1.00  0.00     0.005 C 
ENDBRANCH   6  11
BRANCH  10  13
ATOM     13  C   UNL A   1      34.107  23.062  25.129  1.00  0.00     0.319 C 
ATOM     14  O   UNL A   1      35.090  23.557  24.567  1.00  0.00    -0.248 OA
BRANCH  13  15
ATOM     15  N   UNL A   1      34.270  21.968  25.943  1.00  0.00    -0.327 N 
ATOM     16  C   UNL A   1      34.085  21.912  27.378  1.00  0.00     0.148 C 
BRANCH  15  17
ATOM     17  C   UNL A   1      34.671  20.717  25.274  1.00  0.00     0.126 C 
BRANCH  17  18
ATOM     18  C   UNL A   1      33.518  20.006  24.531  1.00  0.00     0.068 C 
BRANCH  18  19
ATOM     19  C   UNL A   1      33.409  18.530  24.818  1.00  0.00     0.006 A 
ATOM     20  C   UNL A   1      32.599  17.893  25.739  1.00  0.00     0.015 A 
ATOM     21  S   UNL A   1      34.363  17.402  23.946  1.00  0.00    -0.149 S 
ATOM     22  C   UNL A   1      32.691  16.473  25.657  1.00  0.00     0.012 A 
ATOM     23  C   UNL A   1      33.621  16.071  24.725  1.00  0.00     0.065 A 
ENDBRANCH  18  19
ENDBRANCH  17  18
ENDBRANCH  15  17
ENDBRANCH  13  15
ENDBRANCH  10  13
ENDBRANCH   3   6
ENDBRANCH   1   2
BRANCH   1  24
ATOM     24  C   UNL A   1      33.404  28.328  25.775  1.00  0.00     0.042 C 
BRANCH  24  25
ATOM     25  C   UNL A   1      33.423  28.557  27.272  1.00  0.00     0.118 C 
BRANCH  25  26
ATOM     26  N   UNL A   1      33.456  29.964  27.643  1.00  0.00    -0.352 N 
ATOM     27  C   UNL A   1      34.460  30.717  28.211  1.00  0.00     0.251 C 
ATOM     28  H   UNL A   1      32.625  30.458  27.458  1.00  0.00     0.163 HD
ATOM     29  O   UNL A   1      34.228  31.864  28.568  1.00  0.00    -0.269 OA
BRANCH  27  30
ATOM     30  C   UNL A   1      35.802  30.129  28.430  1.00  0.00     0.039 A 
ATOM     31  C   UNL A   1      36.733  30.152  27.388  1.00  0.00     0.014 A 
ATOM     32  C   UNL A   1      36.154  29.569  29.658  1.00  0.00     0.014 A 
ATOM     33  C   UNL A   1      38.037  29.702  27.613  1.00  0.00     0.010 A 
ATOM     34  C   UNL A   1      37.480  29.246  29.918  1.00  0.00     0.010 A 
ATOM     35  C   UNL A   1      38.438  29.297  28.897  1.00  0.00    -0.014 A 
BRANCH  35  36
ATOM     36  C   UNL A   1      39.839  28.893  29.192  1.00  0.00     0.031 A 
ATOM     37  C   UNL A   1      40.785  29.880  29.830  1.00  0.00     0.074 A 
ATOM     38  C   UNL A   1      40.280  27.670  28.833  1.00  0.00     0.049 A 
ATOM     39  N   UNL A   1      42.065  29.757  30.072  1.00  0.00    -0.248 NA
ATOM     40  C   UNL A   1      40.228  31.188  30.217  1.00  0.00     0.031 C 
ATOM     41  C   UNL A   1      39.481  26.635  28.168  1.00  0.00     0.029 A 
ATOM     42  N   UNL A   1      41.518  27.088  28.970  1.00  0.00    -0.354 N 
ATOM     43  C   UNL A   1      42.463  30.969  30.627  1.00  0.00     0.074 A 
ATOM     44  C   UNL A   1      41.310  31.839  30.619  1.00  0.00     0.031 C 
ATOM     45  C   UNL A   1      40.237  25.540  27.988  1.00  0.00     0.029 A 
ATOM     46  C   UNL A   1      41.586  25.806  28.474  1.00  0.00     0.049 A 
ATOM     47  H   UNL A   1      42.284  27.546  29.385  1.00  0.00     0.167 HD
ATOM     48  C   UNL A   1      43.668  31.318  31.136  1.00  0.00     0.031 A 
ATOM     49  C   UNL A   1      42.620  24.945  28.409  1.00  0.00     0.031 A 
ATOM     50  C   UNL A   1      44.810  30.446  31.167  1.00  0.00     0.049 A 
ATOM     51  C   UNL A   1      43.958  25.368  28.959  1.00  0.00     0.074 A 
ATOM     52  C   UNL A   1      46.069  30.695  31.686  1.00  0.00     0.029 A 
ATOM     53  N   UNL A   1      44.830  29.151  30.670  1.00  0.00    -0.354 N 
ATOM     54  N   UNL A   1      44.298  26.504  29.520  1.00  0.00    -0.248 NA
ATOM     55  C   UNL A   1      45.050  24.387  28.876  1.00  0.00     0.031 C 
ATOM     56  C   UNL A   1      46.863  29.566  31.466  1.00  0.00     0.029 A 
ATOM     57  C   UNL A   1      46.082  28.593  30.863  1.00  0.00     0.049 A 
ATOM     58  H   UNL A   1      44.068  28.697  30.245  1.00  0.00     0.167 HD
ATOM     59  C   UNL A   1      45.631  26.359  29.889  1.00  0.00     0.074 A 
ATOM     60  C   UNL A   1      46.030  25.021  29.503  1.00  0.00     0.031 C 
ATOM     61  C   UNL A   1      46.454  27.253  30.489  1.00  0.00     0.031 A 
BRANCH  48  62
ATOM     62  C   UNL A   1      43.803  32.695  31.730  1.00  0.00    -0.014 A 
ATOM     63  C   UNL A   1      43.583  32.907  33.104  1.00  0.00     0.010 A 
ATOM     64  C   UNL A   1      44.215  33.774  30.928  1.00  0.00     0.010 A 
ATOM     65  C   UNL A   1      43.742  34.178  33.658  1.00  0.00     0.020 A 
ATOM     66  C   UNL A   1      44.405  35.042  31.486  1.00  0.00     0.020 A 
ATOM     67  C   UNL A   1      44.157  35.238  32.847  1.00  0.00     0.054 A 
BRANCH  67  68
ATOM     68  S   UNL A   1      44.407  36.864  33.609  1.00  0.00     0.124 S 
ATOM     69  O   UNL A   1      44.817  36.502  34.963  1.00  0.00    -0.237 OA
ATOM     70  O   UNL A   1      45.451  37.451  32.773  1.00  0.00    -0.237 OA
ATOM     71  O   UNL A   1      43.097  37.502  33.505  1.00  0.00    -0.744 OA
ENDBRANCH  67  68
ENDBRANCH  48  62
BRANCH  49  72
ATOM     72  C   UNL A   1      42.448  23.597  27.797  1.00  0.00    -0.014 A 
ATOM     73  C   UNL A   1      42.090  22.490  28.587  1.00  0.00     0.010 A 
ATOM     74  C   UNL A   1      42.682  23.404  26.423  1.00  0.00     0.010 A 
ATOM     75  C   UNL A   1      42.021  21.210  28.026  1.00  0.00     0.020 A 
ATOM     76  C   UNL A   1      42.580  22.132  25.852  1.00  0.00     0.020 A 
ATOM     77  C   UNL A   1      42.273  21.039  26.663  1.00  0.00     0.054 A 
BRANCH  77  78
ATOM     78  S   UNL A   1      42.184  19.370  25.955  1.00  0.00     0.124 S 
ATOM     79  O   UNL A   1      40.755  19.227  25.701  1.00  0.00    -0.237 OA
ATOM     80  O   UNL A   1      43.032  19.484  24.770  1.00  0.00    -0.237 OA
ATOM     81  O   UNL A   1      42.720  18.521  27.017  1.00  0.00    -0.744 OA
ENDBRANCH  77  78
ENDBRANCH  49  72
BRANCH  61  82
ATOM     82  C   UNL A   1      47.852  26.800  30.817  1.00  0.00    -0.014 A 
ATOM     83  C   UNL A   1      48.931  27.077  29.960  1.00  0.00     0.010 A 
ATOM     84  C   UNL A   1      48.094  26.134  32.033  1.00  0.00     0.010 A 
ATOM     85  C   UNL A   1      50.223  26.666  30.296  1.00  0.00     0.020 A 
ATOM     86  C   UNL A   1      49.389  25.749  32.388  1.00  0.00     0.020 A 
ATOM     87  C   UNL A   1      50.443  26.005  31.510  1.00  0.00     0.054 A 
BRANCH  87  88
ATOM     88  S   UNL A   1      52.137  25.524  31.944  1.00  0.00     0.124 S 
ATOM     89  O   UNL A   1      52.865  25.835  30.716  1.00  0.00    -0.237 OA
ATOM     90  O   UNL A   1      52.432  26.386  33.085  1.00  0.00    -0.237 OA
ATOM     91  O   UNL A   1      52.024  24.101  32.257  1.00  0.00    -0.744 OA
ENDBRANCH  87  88
ENDBRANCH  61  82
ENDBRANCH  35  36
ENDBRANCH  27  30
ENDBRANCH  25  26
ENDBRANCH  24  25
ENDBRANCH   1  24
TORSDOF 19
ENDMDL
MODEL 2
REMARK VINA RESULT:     -10.5      3.037      9.632
REMARK SMILES CC[C@@]1(C(=O)NCCCNC(=O)c2ccc(-c3c4nc(c(-c5ccc(S(=O)(=O)[O-])cc5)c5ccc([nH]5)c(-c5ccc(S(=O)(=O)[O-])cc5)c5nc(c(-c6ccc(S(=O)(=O)[O-])cc6)c6ccc3[nH]6)C=C5)C=C4)cc2)CCN(C(=O)N(C)CCc2cccs2)C1
REMARK SMILES IDX 7 1 6 2 4 3 5 4 3 6 73 7 87 8 74 9 75 10 2 11 1 12 76 13
REMARK SMILES IDX 77 14 78 15 79 16 80 17 81 18 82 19 83 20 86 21 84 22 85 23
REMARK SMILES IDX 8 24 9 25 10 26 11 27 12 29 13 30 14 31 72 32 15 33 71 34
REMARK SMILES IDX 16 35 17 36 18 37 65 38 19 39 70 40 64 41 66 42 20 43 69 44
REMARK SMILES IDX 63 45 62 46 21 48 51 49 32 50 50 51 33 52 36 53 49 54 67 55
REMARK SMILES IDX 34 56 35 57 48 59 68 60 37 61 22 62 23 63 31 64 24 65 30 66
REMARK SMILES IDX 25 67 26 68 27 69 28 70 29 71 52 72 53 73 61 74 54 75 60 76
REMARK SMILES IDX 55 77 56 78 57 79 58 80 59 81 38 82 39 83 47 84 40 85 46 86
REMARK SMILES IDX 41 87 42 88 43 89 44 90 45 91
REMARK H PARENT 6 5 10 28 66 47 36 58
REMARK Flexibility Score: inf
ROOT
ATOM      1  C   UNL A   1      34.484  22.727  25.836  1.00  0.00     0.117 C 
ENDROOT
BRANCH   1   2
ATOM      2  N   UNL A   1      33.413  22.927  26.804  1.00  0.00    -0.355 N 
ATOM      3  C   UNL A   1      32.213  23.562  26.718  1.00  0.00     0.228 C 
ATOM      4  O   UNL A   1      31.433  23.361  27.657  1.00  0.00    -0.274 OA
ATOM      5  H   UNL A   1      33.591  22.528  27.686  1.00  0.00     0.163 HD
BRANCH   3   6
ATOM      6  C   UNL A   1      31.861  24.569  25.610  1.00  0.00     0.068 C 
ATOM      7  C   UNL A   1      33.164  25.098  24.942  1.00  0.00     0.040 C 
ATOM      8  C   UNL A   1      31.267  25.873  26.126  1.00  0.00     0.138 C 
ATOM      9  C   UNL A   1      33.584  26.298  25.782  1.00  0.00     0.122 C 
ATOM     10  N   UNL A   1      32.352  26.813  26.346  1.00  0.00    -0.324 N 
BRANCH   6  11
ATOM     11  C   UNL A   1      31.026  23.856  24.513  1.00  0.00     0.015 C 
ATOM     12  C   UNL A   1      31.782  23.002  23.506  1.00  0.00     0.005 C 
ENDBRANCH   6  11
BRANCH  10  13
ATOM     13  C   UNL A   1      32.028  27.966  27.017  1.00  0.00     0.319 C 
ATOM     14  O   UNL A   1      31.284  27.904  28.001  1.00  0.00    -0.248 OA
BRANCH  13  15
ATOM     15  N   UNL A   1      32.410  29.193  26.531  1.00  0.00    -0.327 N 
ATOM     16  C   UNL A   1      33.724  29.796  26.618  1.00  0.00     0.148 C 
BRANCH  15  17
ATOM     17  C   UNL A   1      31.363  29.971  25.843  1.00  0.00     0.126 C 
BRANCH  17  18
ATOM     18  C   UNL A   1      31.281  29.705  24.323  1.00  0.00     0.068 C 
BRANCH  18  19
ATOM     19  C   UNL A   1      29.914  29.916  23.727  1.00  0.00     0.006 A 
ATOM     20  C   UNL A   1      29.158  31.073  23.701  1.00  0.00     0.015 A 
ATOM     21  S   UNL A   1      29.095  28.624  22.950  1.00  0.00    -0.149 S 
ATOM     22  C   UNL A   1      27.952  30.922  22.955  1.00  0.00     0.012 A 
ATOM     23  C   UNL A   1      27.791  29.634  22.496  1.00  0.00     0.065 A 
ENDBRANCH  18  19
ENDBRANCH  17  18
ENDBRANCH  15  17
ENDBRANCH  13  15
ENDBRANCH  10  13
ENDBRANCH   3   6
ENDBRANCH   1   2
BRANCH   1  24
ATOM     24  C   UNL A   1      35.798  23.383  26.214  1.00  0.00     0.042 C 
BRANCH  24  25
ATOM     25  C   UNL A   1      36.835  23.410  25.110  1.00  0.00     0.118 C 
BRANCH  25  26
ATOM     26  N   UNL A   1      37.968  22.530  25.358  1.00  0.00    -0.352 N 
ATOM     27  C   UNL A   1      39.168  22.771  25.990  1.00  0.00     0.251 C 
ATOM     28  H   UNL A   1      37.859  21.614  25.017  1.00  0.00     0.163 HD
ATOM     29  O   UNL A   1      40.045  21.919  25.969  1.00  0.00    -0.269 OA
BRANCH  27  30
ATOM     30  C   UNL A   1      39.414  24.073  26.655  1.00  0.00     0.039 A 
ATOM     31  C   UNL A   1      39.006  24.247  27.980  1.00  0.00     0.014 A 
ATOM     32  C   UNL A   1      40.055  25.116  25.987  1.00  0.00     0.014 A 
ATOM     33  C   UNL A   1      39.329  25.429  28.655  1.00  0.00     0.010 A 
ATOM     34  C   UNL A   1      40.489  26.230  26.696  1.00  0.00     0.010 A 
ATOM     35  C   UNL A   1      40.122  26.408  28.035  1.00  0.00    -0.014 A 
BRANCH  35  36
ATOM     36  C   UNL A   1      40.556  27.637  28.752  1.00  0.00     0.031 A 
ATOM     37  C   UNL A   1      41.917  27.686  29.401  1.00  0.00     0.074 A 
ATOM     38  C   UNL A   1      39.710  28.681  28.876  1.00  0.00     0.049 A 
ATOM     39  N   UNL A   1      42.438  28.620  30.155  1.00  0.00    -0.248 NA
ATOM     40  C   UNL A   1      42.796  26.519  29.203  1.00  0.00     0.031 C 
ATOM     41  C   UNL A   1      38.349  28.746  28.335  1.00  0.00     0.029 A 
ATOM     42  N   UNL A   1      39.869  29.892  29.506  1.00  0.00    -0.354 N 
ATOM     43  C   UNL A   1      43.693  28.149  30.525  1.00  0.00     0.074 A 
ATOM     44  C   UNL A   1      43.827  26.819  29.978  1.00  0.00     0.031 C 
ATOM     45  C   UNL A   1      37.813  29.942  28.627  1.00  0.00     0.029 A 
ATOM     46  C   UNL A   1      38.767  30.712  29.418  1.00  0.00     0.049 A 
ATOM     47  H   UNL A   1      40.695  30.149  29.977  1.00  0.00     0.167 HD
ATOM     48  C   UNL A   1      44.666  28.779  31.226  1.00  0.00     0.031 A 
ATOM     49  C   UNL A   1      38.546  31.940  29.924  1.00  0.00     0.031 A 
ATOM     50  C   UNL A   1      44.544  30.111  31.752  1.00  0.00     0.049 A 
ATOM     51  C   UNL A   1      39.636  32.608  30.723  1.00  0.00     0.074 A 
ATOM     52  C   UNL A   1      45.483  30.849  32.452  1.00  0.00     0.029 A 
ATOM     53  N   UNL A   1      43.419  30.912  31.624  1.00  0.00    -0.354 N 
ATOM     54  N   UNL A   1      40.832  32.161  31.022  1.00  0.00    -0.248 NA
ATOM     55  C   UNL A   1      39.349  33.954  31.242  1.00  0.00     0.031 C 
ATOM     56  C   UNL A   1      44.911  32.081  32.783  1.00  0.00     0.029 A 
ATOM     57  C   UNL A   1      43.637  32.131  32.239  1.00  0.00     0.049 A 
ATOM     58  H   UNL A   1      42.589  30.650  31.164  1.00  0.00     0.167 HD
ATOM     59  C   UNL A   1      41.451  33.183  31.733  1.00  0.00     0.074 A 
ATOM     60  C   UNL A   1      40.505  34.278  31.803  1.00  0.00     0.031 C 
ATOM     61  C   UNL A   1      42.690  33.215  32.282  1.00  0.00     0.031 A 
BRANCH  48  62
ATOM     62  C   UNL A   1      45.963  28.043  31.438  1.00  0.00    -0.014 A 
ATOM     63  C   UNL A   1      46.191  27.320  32.623  1.00  0.00     0.010 A 
ATOM     64  C   UNL A   1      46.936  28.019  30.423  1.00  0.00     0.010 A 
ATOM     65  C   UNL A   1      47.380  26.611  32.802  1.00  0.00     0.020 A 
ATOM     66  C   UNL A   1      48.115  27.285  30.587  1.00  0.00     0.020 A 
ATOM     67  C   UNL A   1      48.334  26.594  31.781  1.00  0.00     0.054 A 
BRANCH  67  68
ATOM     68  S   UNL A   1      49.844  25.619  32.023  1.00  0.00     0.124 S 
ATOM     69  O   UNL A   1      50.085  25.099  30.680  1.00  0.00    -0.237 OA
ATOM     70  O   UNL A   1      50.798  26.621  32.490  1.00  0.00    -0.237 OA
ATOM     71  O   UNL A   1      49.456  24.619  33.016  1.00  0.00    -0.744 OA
ENDBRANCH  67  68
ENDBRANCH  48  62
BRANCH  49  72
ATOM     72  C   UNL A   1      37.241  32.627  29.707  1.00  0.00    -0.014 A 
ATOM     73  C   UNL A   1      37.057  33.488  28.610  1.00  0.00     0.010 A 
ATOM     74  C   UNL A   1      36.185  32.456  30.621  1.00  0.00     0.010 A 
ATOM     75  C   UNL A   1      35.864  34.203  28.460  1.00  0.00     0.020 A 
ATOM     76  C   UNL A   1      34.979  33.143  30.456  1.00  0.00     0.020 A 
ATOM     77  C   UNL A   1      34.835  34.030  29.389  1.00  0.00     0.054 A 
BRANCH  77  78
ATOM     78  S   UNL A   1      33.297  34.970  29.180  1.00  0.00     0.124 S 
ATOM     79  O   UNL A   1      32.749  34.955  30.532  1.00  0.00    -0.237 OA
ATOM     80  O   UNL A   1      33.780  36.266  28.706  1.00  0.00    -0.237 OA
ATOM     81  O   UNL A   1      32.553  34.191  28.193  1.00  0.00    -0.744 OA
ENDBRANCH  77  78
ENDBRANCH  49  72
BRANCH  61  82
ATOM     82  C   UNL A   1      43.117  34.489  32.961  1.00  0.00    -0.014 A 
ATOM     83  C   UNL A   1      43.693  35.547  32.236  1.00  0.00     0.010 A 
ATOM     84  C   UNL A   1      42.885  34.648  34.340  1.00  0.00     0.010 A 
ATOM     85  C   UNL A   1      44.060  36.729  32.884  1.00  0.00     0.020 A 
ATOM     86  C   UNL A   1      43.222  35.840  34.986  1.00  0.00     0.020 A 
ATOM     87  C   UNL A   1      43.822  36.867  34.255  1.00  0.00     0.054 A 
BRANCH  87  88
ATOM     88  S   UNL A   1      44.266  38.430  35.063  1.00  0.00     0.124 S 
ATOM     89  O   UNL A   1      45.708  38.486  34.842  1.00  0.00    -0.237 OA
ATOM     90  O   UNL A   1      43.477  39.409  34.321  1.00  0.00    -0.237 OA
ATOM     91  O   UNL A   1      43.856  38.230  36.451  1.00  0.00    -0.744 OA
ENDBRANCH  87  88
ENDBRANCH  61  82
ENDBRANCH  35  36
ENDBRANCH  27  30
ENDBRANCH  25  26
ENDBRANCH  24  25
ENDBRANCH   1  24
TORSDOF 19
ENDMDL
MODEL 3
REMARK VINA RESULT:     -10.2      3.128      3.900
REMARK SMILES CC[C@@]1(C(=O)NCCCNC(=O)c2ccc(-c3c4nc(c(-c5ccc(S(=O)(=O)[O-])cc5)c5ccc([nH]5)c(-c5ccc(S(=O)(=O)[O-])cc5)c5nc(c(-c6ccc(S(=O)(=O)[O-])cc6)c6ccc3[nH]6)C=C5)C=C4)cc2)CCN(C(=O)N(C)CCc2cccs2)C1
REMARK SMILES IDX 7 1 6 2 4 3 5 4 3 6 73 7 87 8 74 9 75 10 2 11 1 12 76 13
REMARK SMILES IDX 77 14 78 15 79 16 80 17 81 18 82 19 83 20 86 21 84 22 85 23
REMARK SMILES IDX 8 24 9 25 10 26 11 27 12 29 13 30 14 31 72 32 15 33 71 34
REMARK SMILES IDX 16 35 17 36 18 37 65 38 19 39 70 40 64 41 66 42 20 43 69 44
REMARK SMILES IDX 63 45 62 46 21 48 51 49 32 50 50 51 33 52 36 53 49 54 67 55
REMARK SMILES IDX 34 56 35 57 48 59 68 60 37 61 22 62 23 63 31 64 24 65 30 66
REMARK SMILES IDX 25 67 26 68 27 69 28 70 29 71 52 72 53 73 61 74 54 75 60 76
REMARK SMILES IDX 55 77 56 78 57 79 58 80 59 81 38 82 39 83 47 84 40 85 46 86
REMARK SMILES IDX 41 87 42 88 43 89 44 90 45 91
REMARK H PARENT 6 5 10 28 66 47 36 58
REMARK Flexibility Score: inf
ROOT
ATOM      1  C   UNL A   1      33.955  28.035  26.314  1.00  0.00     0.117 C 
ENDROOT
BRANCH   1   2
ATOM      2  N   UNL A   1      32.622  27.576  26.687  1.00  0.00    -0.355 N 
ATOM      3  C   UNL A   1      31.609  27.031  25.962  1.00  0.00     0.228 C 
ATOM      4  O   UNL A   1      30.682  26.543  26.621  1.00  0.00    -0.274 OA
ATOM      5  H   UNL A   1      32.416  27.682  27.644  1.00  0.00     0.163 HD
BRANCH   3   6
ATOM      6  C   UNL A   1      31.524  27.107  24.429  1.00  0.00     0.068 C 
ATOM      7  C   UNL A   1      30.221  26.413  23.934  1.00  0.00     0.040 C 
ATOM      8  C   UNL A   1      32.573  26.269  23.710  1.00  0.00     0.138 C 
ATOM      9  C   UNL A   1      30.594  24.946  23.755  1.00  0.00     0.122 C 
ATOM     10  N   UNL A   1      32.014  24.950  23.465  1.00  0.00    -0.324 N 
BRANCH   6  11
ATOM     11  C   UNL A   1      31.460  28.595  23.991  1.00  0.00     0.015 C 
ATOM     12  C   UNL A   1      30.287  29.015  23.119  1.00  0.00     0.005 C 
ENDBRANCH   6  11
BRANCH  10  13
ATOM     13  C   UNL A   1      32.892  23.993  23.022  1.00  0.00     0.319 C 
ATOM     14  O   UNL A   1      33.394  24.106  21.899  1.00  0.00    -0.248 OA
BRANCH  13  15
ATOM     15  N   UNL A   1      33.114  22.851  23.752  1.00  0.00    -0.327 N 
ATOM     16  C   UNL A   1      33.909  22.726  24.957  1.00  0.00     0.148 C 
BRANCH  15  17
ATOM     17  C   UNL A   1      32.465  21.625  23.252  1.00  0.00     0.126 C 
BRANCH  17  18
ATOM     18  C   UNL A   1      32.293  20.525  24.322  1.00  0.00     0.068 C 
BRANCH  18  19
ATOM     19  C   UNL A   1      33.037  19.248  24.028  1.00  0.00     0.006 A 
ATOM     20  C   UNL A   1      34.227  18.803  24.574  1.00  0.00     0.015 A 
ATOM     21  S   UNL A   1      32.420  18.124  22.888  1.00  0.00    -0.149 S 
ATOM     22  C   UNL A   1      34.577  17.495  24.129  1.00  0.00     0.012 A 
ATOM     23  C   UNL A   1      33.680  17.011  23.203  1.00  0.00     0.065 A 
ENDBRANCH  18  19
ENDBRANCH  17  18
ENDBRANCH  15  17
ENDBRANCH  13  15
ENDBRANCH  10  13
ENDBRANCH   3   6
ENDBRANCH   1   2
BRANCH   1  24
ATOM     24  C   UNL A   1      34.374  29.337  26.968  1.00  0.00     0.042 C 
BRANCH  24  25
ATOM     25  C   UNL A   1      35.772  29.334  27.550  1.00  0.00     0.118 C 
BRANCH  25  26
ATOM     26  N   UNL A   1      35.799  29.489  28.997  1.00  0.00    -0.352 N 
ATOM     27  C   UNL A   1      36.821  29.297  29.900  1.00  0.00     0.251 C 
ATOM     28  H   UNL A   1      34.947  29.779  29.395  1.00  0.00     0.163 HD
ATOM     29  O   UNL A   1      36.588  29.355  31.100  1.00  0.00    -0.269 OA
BRANCH  27  30
ATOM     30  C   UNL A   1      38.188  28.978  29.424  1.00  0.00     0.039 A 
ATOM     31  C   UNL A   1      38.596  29.439  28.170  1.00  0.00     0.014 A 
ATOM     32  C   UNL A   1      39.073  28.240  30.210  1.00  0.00     0.014 A 
ATOM     33  C   UNL A   1      39.916  29.241  27.754  1.00  0.00     0.010 A 
ATOM     34  C   UNL A   1      40.414  28.160  29.855  1.00  0.00     0.010 A 
ATOM     35  C   UNL A   1      40.852  28.648  28.617  1.00  0.00    -0.014 A 
BRANCH  35  36
ATOM     36  C   UNL A   1      42.284  28.500  28.241  1.00  0.00     0.031 A 
ATOM     37  C   UNL A   1      43.228  29.665  28.405  1.00  0.00     0.074 A 
ATOM     38  C   UNL A   1      42.723  27.346  27.697  1.00  0.00     0.049 A 
ATOM     39  N   UNL A   1      44.480  29.770  28.041  1.00  0.00    -0.248 NA
ATOM     40  C   UNL A   1      42.683  30.885  29.028  1.00  0.00     0.031 C 
ATOM     41  C   UNL A   1      41.905  26.155  27.443  1.00  0.00     0.029 A 
ATOM     42  N   UNL A   1      43.972  26.985  27.250  1.00  0.00    -0.354 N 
ATOM     43  C   UNL A   1      44.866  31.061  28.382  1.00  0.00     0.074 A 
ATOM     44  C   UNL A   1      43.699  31.728  28.912  1.00  0.00     0.031 C 
ATOM     45  C   UNL A   1      42.678  25.191  26.919  1.00  0.00     0.029 A 
ATOM     46  C   UNL A   1      44.033  25.704  26.751  1.00  0.00     0.049 A 
ATOM     47  H   UNL A   1      44.750  27.587  27.285  1.00  0.00     0.167 HD
ATOM     48  C   UNL A   1      46.090  31.634  28.300  1.00  0.00     0.031 A 
ATOM     49  C   UNL A   1      45.062  25.022  26.209  1.00  0.00     0.031 A 
ATOM     50  C   UNL A   1      47.258  30.965  27.795  1.00  0.00     0.049 A 
ATOM     51  C   UNL A   1      46.408  25.692  26.106  1.00  0.00     0.074 A 
ATOM     52  C   UNL A   1      48.551  31.450  27.697  1.00  0.00     0.029 A 
ATOM     53  N   UNL A   1      47.280  29.664  27.317  1.00  0.00    -0.354 N 
ATOM     54  N   UNL A   1      46.759  26.900  26.477  1.00  0.00    -0.248 NA
ATOM     55  C   UNL A   1      47.500  24.901  25.519  1.00  0.00     0.031 C 
ATOM     56  C   UNL A   1      49.346  30.455  27.120  1.00  0.00     0.029 A 
ATOM     57  C   UNL A   1      48.561  29.332  26.914  1.00  0.00     0.049 A 
ATOM     58  H   UNL A   1      46.499  29.066  27.272  1.00  0.00     0.167 HD
ATOM     59  C   UNL A   1      48.119  27.000  26.202  1.00  0.00     0.074 A 
ATOM     60  C   UNL A   1      48.529  25.725  25.651  1.00  0.00     0.031 C 
ATOM     61  C   UNL A   1      48.954  28.052  26.385  1.00  0.00     0.031 A 
BRANCH  48  62
ATOM     62  C   UNL A   1      46.235  33.048  28.798  1.00  0.00    -0.014 A 
ATOM     63  C   UNL A   1      46.025  34.137  27.932  1.00  0.00     0.010 A 
ATOM     64  C   UNL A   1      46.520  33.296  30.152  1.00  0.00     0.010 A 
ATOM     65  C   UNL A   1      46.127  35.447  28.403  1.00  0.00     0.020 A 
ATOM     66  C   UNL A   1      46.593  34.607  30.635  1.00  0.00     0.020 A 
ATOM     67  C   UNL A   1      46.406  35.674  29.754  1.00  0.00     0.054 A 
BRANCH  67  68
ATOM     68  S   UNL A   1      46.477  37.387  30.346  1.00  0.00     0.124 S 
ATOM     69  O   UNL A   1      46.699  37.201  31.778  1.00  0.00    -0.237 OA
ATOM     70  O   UNL A   1      47.608  37.935  29.602  1.00  0.00    -0.237 OA
ATOM     71  O   UNL A   1      45.171  37.934  29.985  1.00  0.00    -0.744 OA
ENDBRANCH  67  68
ENDBRANCH  48  62
BRANCH  49  72
ATOM     72  C   UNL A   1      44.872  23.630  25.713  1.00  0.00    -0.014 A 
ATOM     73  C   UNL A   1      44.990  22.534  26.586  1.00  0.00     0.010 A 
ATOM     74  C   UNL A   1      44.612  23.389  24.351  1.00  0.00     0.010 A 
ATOM     75  C   UNL A   1      44.904  21.225  26.099  1.00  0.00     0.020 A 
ATOM     76  C   UNL A   1      44.490  22.083  23.867  1.00  0.00     0.020 A 
ATOM     77  C   UNL A   1      44.662  21.009  24.741  1.00  0.00     0.054 A 
BRANCH  77  78
ATOM     78  S   UNL A   1      44.558  19.304  24.127  1.00  0.00     0.124 S 
ATOM     79  O   UNL A   1      45.803  18.729  24.624  1.00  0.00    -0.237 OA
ATOM     80  O   UNL A   1      43.335  18.814  24.760  1.00  0.00    -0.237 OA
ATOM     81  O   UNL A   1      44.478  19.469  22.678  1.00  0.00    -0.744 OA
ENDBRANCH  77  78
ENDBRANCH  49  72
BRANCH  61  82
ATOM     82  C   UNL A   1      50.406  27.855  26.039  1.00  0.00    -0.014 A 
ATOM     83  C   UNL A   1      50.918  28.240  24.788  1.00  0.00     0.010 A 
ATOM     84  C   UNL A   1      51.281  27.327  27.006  1.00  0.00     0.010 A 
ATOM     85  C   UNL A   1      52.274  28.069  24.498  1.00  0.00     0.020 A 
ATOM     86  C   UNL A   1      52.643  27.183  26.732  1.00  0.00     0.020 A 
ATOM     87  C   UNL A   1      53.127  27.542  25.473  1.00  0.00     0.054 A 
BRANCH  87  88
ATOM     88  S   UNL A   1      54.892  27.373  25.086  1.00  0.00     0.124 S 
ATOM     89  O   UNL A   1      55.454  27.018  26.386  1.00  0.00    -0.237 OA
ATOM     90  O   UNL A   1      54.900  26.310  24.085  1.00  0.00    -0.237 OA
ATOM     91  O   UNL A   1      55.264  28.695  24.586  1.00  0.00    -0.744 OA
ENDBRANCH  87  88
ENDBRANCH  61  82
ENDBRANCH  35  36
ENDBRANCH  27  30
ENDBRANCH  25  26
ENDBRANCH  24  25
ENDBRANCH   1  24
TORSDOF 19
ENDMDL
