MODEL 1
REMARK VINA RESULT:     -10.0      0.000      0.000
REMARK SMILES CCN(Cc1ccccn1)C(=O)NC(CC)(CC)C(=O)NCCCNC(=O)c1ccc(-c2c3nc(c(-c4ccc(S(=O)(=O)[O-])cc4)c4ccc([nH]4)c(-c4ccc(S(=O)(=O)[O-])cc4)c4nc(c(-c5ccc(S(=O)(=O)[O-])cc5)c5ccc2[nH]5)C=C4)C=C3)cc1
REMARK SMILES IDX 22 1 21 2 19 3 20 4 14 6 13 7 11 8 12 9 3 11 2 12 1 13 4 14
REMARK SMILES IDX 5 15 6 16 10 17 7 18 9 19 8 20 15 21 16 22 17 23 18 24 23 25
REMARK SMILES IDX 24 26 25 27 26 28 27 30 28 31 29 32 87 33 30 34 86 35 31 36
REMARK SMILES IDX 32 37 33 38 80 39 34 40 85 41 79 42 81 43 35 44 84 45 78 46
REMARK SMILES IDX 77 47 36 49 66 50 47 51 65 52 48 53 51 54 64 55 82 56 49 57
REMARK SMILES IDX 50 58 63 60 83 61 52 62 37 63 38 64 46 65 39 66 45 67 40 68
REMARK SMILES IDX 41 69 42 70 43 71 44 72 67 73 68 74 76 75 69 76 75 77 70 78
REMARK SMILES IDX 71 79 72 80 73 81 74 82 53 83 54 84 62 85 55 86 61 87 56 88
REMARK SMILES IDX 57 89 58 90 59 91 60 92
REMARK H PARENT 21 5 13 10 25 29 81 48 51 59
REMARK Flexibility Score: inf
ROOT
ATOM      1  C   UNL A   1      33.845  27.090  24.817  1.00  0.00     0.117 C 
ENDROOT
BRANCH   1   2
ATOM      2  N   UNL A   1      33.389  26.989  23.447  1.00  0.00    -0.354 N 
ATOM      3  C   UNL A   1      32.726  26.019  22.774  1.00  0.00     0.245 C 
ATOM      4  O   UNL A   1      32.665  26.198  21.548  1.00  0.00    -0.272 OA
ATOM      5  H   UNL A   1      33.601  27.779  22.899  1.00  0.00     0.163 HD
BRANCH   3   6
ATOM      6  C   UNL A   1      32.221  24.701  23.424  1.00  0.00     0.120 C 
BRANCH   6   7
ATOM      7  N   UNL A   1      32.443  24.755  24.896  1.00  0.00    -0.323 N 
ATOM      8  C   UNL A   1      32.287  23.996  25.986  1.00  0.00     0.318 C 
ATOM      9  O   UNL A   1      32.399  24.636  27.042  1.00  0.00    -0.249 OA
ATOM     10  H   UNL A   1      32.825  25.627  25.146  1.00  0.00     0.166 HD
BRANCH   8  11
ATOM     11  N   UNL A   1      32.156  22.638  26.019  1.00  0.00    -0.319 N 
BRANCH  11  12
ATOM     12  C   UNL A   1      30.776  22.177  25.797  1.00  0.00     0.118 C 
ATOM     13  C   UNL A   1      29.842  22.611  26.927  1.00  0.00     0.027 C 
ENDBRANCH  11  12
BRANCH  11  14
ATOM     14  C   UNL A   1      33.102  21.571  26.399  1.00  0.00     0.177 C 
BRANCH  14  15
ATOM     15  C   UNL A   1      34.550  21.771  26.013  1.00  0.00     0.060 A 
ATOM     16  C   UNL A   1      35.228  22.937  26.361  1.00  0.00     0.026 A 
ATOM     17  N   UNL A   1      35.127  20.803  25.247  1.00  0.00    -0.259 NA
ATOM     18  C   UNL A   1      36.545  23.103  25.940  1.00  0.00     0.004 A 
ATOM     19  C   UNL A   1      36.406  20.992  24.856  1.00  0.00     0.111 A 
ATOM     20  C   UNL A   1      37.150  22.111  25.178  1.00  0.00     0.020 A 
ENDBRANCH  14  15
ENDBRANCH  11  14
ENDBRANCH   8  11
ENDBRANCH   6   7
BRANCH   6  21
ATOM     21  C   UNL A   1      32.833  23.354  22.950  1.00  0.00     0.035 C 
ATOM     22  C   UNL A   1      34.354  23.334  22.786  1.00  0.00     0.007 C 
ENDBRANCH   6  21
BRANCH   6  23
ATOM     23  C   UNL A   1      30.670  24.717  23.169  1.00  0.00     0.035 C 
ATOM     24  C   UNL A   1      29.881  25.800  23.909  1.00  0.00     0.007 C 
ENDBRANCH   6  23
ENDBRANCH   3   6
ENDBRANCH   1   2
BRANCH   1  25
ATOM     25  C   UNL A   1      33.632  28.487  25.381  1.00  0.00     0.042 C 
BRANCH  25  26
ATOM     26  C   UNL A   1      33.734  28.581  26.895  1.00  0.00     0.118 C 
BRANCH  26  27
ATOM     27  N   UNL A   1      33.589  29.935  27.408  1.00  0.00    -0.352 N 
ATOM     28  C   UNL A   1      34.519  30.657  28.122  1.00  0.00     0.251 C 
ATOM     29  H   UNL A   1      32.731  30.383  27.227  1.00  0.00     0.163 HD
ATOM     30  O   UNL A   1      34.239  31.750  28.601  1.00  0.00    -0.269 OA
BRANCH  28  31
ATOM     31  C   UNL A   1      35.857  30.061  28.326  1.00  0.00     0.039 A 
ATOM     32  C   UNL A   1      36.777  30.074  27.277  1.00  0.00     0.014 A 
ATOM     33  C   UNL A   1      36.221  29.588  29.590  1.00  0.00     0.014 A 
ATOM     34  C   UNL A   1      38.093  29.668  27.515  1.00  0.00     0.010 A 
ATOM     35  C   UNL A   1      37.548  29.257  29.843  1.00  0.00     0.010 A 
ATOM     36  C   UNL A   1      38.496  29.289  28.807  1.00  0.00    -0.014 A 
BRANCH  36  37
ATOM     37  C   UNL A   1      39.898  28.894  29.096  1.00  0.00     0.031 A 
ATOM     38  C   UNL A   1      40.831  29.880  29.742  1.00  0.00     0.074 A 
ATOM     39  C   UNL A   1      40.351  27.681  28.721  1.00  0.00     0.049 A 
ATOM     40  N   UNL A   1      42.106  29.760  30.009  1.00  0.00    -0.248 NA
ATOM     41  C   UNL A   1      40.261  31.188  30.107  1.00  0.00     0.031 C 
ATOM     42  C   UNL A   1      39.564  26.649  28.042  1.00  0.00     0.029 A 
ATOM     43  N   UNL A   1      41.594  27.112  28.855  1.00  0.00    -0.354 N 
ATOM     44  C   UNL A   1      42.496  30.983  30.541  1.00  0.00     0.074 A 
ATOM     45  C   UNL A   1      41.335  31.846  30.517  1.00  0.00     0.031 C 
ATOM     46  C   UNL A   1      40.333  25.564  27.849  1.00  0.00     0.029 A 
ATOM     47  C   UNL A   1      41.672  25.832  28.362  1.00  0.00     0.049 A 
ATOM     48  H   UNL A   1      42.357  27.579  29.266  1.00  0.00     0.167 HD
ATOM     49  C   UNL A   1      43.704  31.353  31.027  1.00  0.00     0.031 A 
ATOM     50  C   UNL A   1      42.706  24.968  28.334  1.00  0.00     0.031 A 
ATOM     51  C   UNL A   1      44.850  30.488  31.083  1.00  0.00     0.049 A 
ATOM     52  C   UNL A   1      44.027  25.382  28.922  1.00  0.00     0.074 A 
ATOM     53  C   UNL A   1      46.105  30.750  31.602  1.00  0.00     0.029 A 
ATOM     54  N   UNL A   1      44.872  29.183  30.614  1.00  0.00    -0.354 N 
ATOM     55  N   UNL A   1      44.364  26.529  29.461  1.00  0.00    -0.248 NA
ATOM     56  C   UNL A   1      45.101  24.379  28.911  1.00  0.00     0.031 C 
ATOM     57  C   UNL A   1      46.895  29.607  31.429  1.00  0.00     0.029 A 
ATOM     58  C   UNL A   1      46.119  28.625  30.833  1.00  0.00     0.049 A 
ATOM     59  H   UNL A   1      44.114  28.723  30.189  1.00  0.00     0.167 HD
ATOM     60  C   UNL A   1      45.681  26.377  29.879  1.00  0.00     0.074 A 
ATOM     61  C   UNL A   1      46.076  25.025  29.537  1.00  0.00     0.031 C 
ATOM     62  C   UNL A   1      46.490  27.275  30.495  1.00  0.00     0.031 A 
BRANCH  49  63
ATOM     63  C   UNL A   1      43.832  32.763  31.539  1.00  0.00    -0.014 A 
ATOM     64  C   UNL A   1      43.529  33.075  32.876  1.00  0.00     0.010 A 
ATOM     65  C   UNL A   1      44.245  33.789  30.671  1.00  0.00     0.010 A 
ATOM     66  C   UNL A   1      43.580  34.398  33.323  1.00  0.00     0.020 A 
ATOM     67  C   UNL A   1      44.323  35.110  31.121  1.00  0.00     0.020 A 
ATOM     68  C   UNL A   1      43.966  35.409  32.438  1.00  0.00     0.054 A 
BRANCH  68  69
ATOM     69  S   UNL A   1      44.013  37.121  33.034  1.00  0.00     0.124 S 
ATOM     70  O   UNL A   1      43.945  37.875  31.785  1.00  0.00    -0.237 OA
ATOM     71  O   UNL A   1      42.826  37.203  33.881  1.00  0.00    -0.237 OA
ATOM     72  O   UNL A   1      45.287  37.203  33.745  1.00  0.00    -0.744 OA
ENDBRANCH  68  69
ENDBRANCH  49  63
BRANCH  50  73
ATOM     73  C   UNL A   1      42.518  23.605  27.771  1.00  0.00    -0.014 A 
ATOM     74  C   UNL A   1      42.885  23.334  26.441  1.00  0.00     0.010 A 
ATOM     75  C   UNL A   1      41.991  22.568  28.560  1.00  0.00     0.010 A 
ATOM     76  C   UNL A   1      42.718  22.054  25.906  1.00  0.00     0.020 A 
ATOM     77  C   UNL A   1      41.842  21.281  28.035  1.00  0.00     0.020 A 
ATOM     78  C   UNL A   1      42.198  21.035  26.707  1.00  0.00     0.054 A 
BRANCH  78  79
ATOM     79  S   UNL A   1      42.050  19.363  26.014  1.00  0.00     0.124 S 
ATOM     80  O   UNL A   1      40.617  19.269  25.755  1.00  0.00    -0.237 OA
ATOM     81  O   UNL A   1      42.904  19.432  24.831  1.00  0.00    -0.237 OA
ATOM     82  O   UNL A   1      42.554  18.507  27.086  1.00  0.00    -0.744 OA
ENDBRANCH  78  79
ENDBRANCH  50  73
BRANCH  62  83
ATOM     83  C   UNL A   1      47.868  26.814  30.876  1.00  0.00    -0.014 A 
ATOM     84  C   UNL A   1      48.980  27.102  30.067  1.00  0.00     0.010 A 
ATOM     85  C   UNL A   1      48.056  26.130  32.091  1.00  0.00     0.010 A 
ATOM     86  C   UNL A   1      50.258  26.691  30.456  1.00  0.00     0.020 A 
ATOM     87  C   UNL A   1      49.334  25.735  32.491  1.00  0.00     0.020 A 
ATOM     88  C   UNL A   1      50.426  26.008  31.665  1.00  0.00     0.054 A 
BRANCH  88  89
ATOM     89  S   UNL A   1      52.098  25.525  32.176  1.00  0.00     0.124 S 
ATOM     90  O   UNL A   1      52.905  25.990  31.050  1.00  0.00    -0.237 OA
ATOM     91  O   UNL A   1      52.281  26.261  33.424  1.00  0.00    -0.237 OA
ATOM     92  O   UNL A   1      52.009  24.074  32.323  1.00  0.00    -0.744 OA
ENDBRANCH  88  89
ENDBRANCH  62  83
ENDBRANCH  36  37
ENDBRANCH  28  31
ENDBRANCH  26  27
ENDBRANCH  25  26
ENDBRANCH   1  25
TORSDOF 20
ENDMDL
MODEL 2
REMARK VINA RESULT:      -9.9      2.493      9.247
REMARK SMILES CCN(Cc1ccccn1)C(=O)NC(CC)(CC)C(=O)NCCCNC(=O)c1ccc(-c2c3nc(c(-c4ccc(S(=O)(=O)[O-])cc4)c4ccc([nH]4)c(-c4ccc(S(=O)(=O)[O-])cc4)c4nc(c(-c5ccc(S(=O)(=O)[O-])cc5)c5ccc2[nH]5)C=C4)C=C3)cc1
REMARK SMILES IDX 22 1 21 2 19 3 20 4 14 6 13 7 11 8 12 9 3 11 2 12 1 13 4 14
REMARK SMILES IDX 5 15 6 16 10 17 7 18 9 19 8 20 15 21 16 22 17 23 18 24 23 25
REMARK SMILES IDX 24 26 25 27 26 28 27 30 28 31 29 32 87 33 30 34 86 35 31 36
REMARK SMILES IDX 32 37 33 38 80 39 34 40 85 41 79 42 81 43 35 44 84 45 78 46
REMARK SMILES IDX 77 47 36 49 66 50 47 51 65 52 48 53 51 54 64 55 82 56 49 57
REMARK SMILES IDX 50 58 63 60 83 61 52 62 37 63 38 64 46 65 39 66 45 67 40 68
REMARK SMILES IDX 41 69 42 70 43 71 44 72 67 73 68 74 76 75 69 76 75 77 70 78
REMARK SMILES IDX 71 79 72 80 73 81 74 82 53 83 54 84 62 85 55 86 61 87 56 88
REMARK SMILES IDX 57 89 58 90 59 91 60 92
REMARK H PARENT 21 5 13 10 25 29 81 48 51 59
REMARK Flexibility Score: inf
ROOT
ATOM      1  C   UNL A   1      35.012  22.625  25.838  1.00  0.00     0.117 C 
ENDROOT
BRANCH   1   2
ATOM      2  N   UNL A   1      33.834  22.840  26.652  1.00  0.00    -0.354 N 
ATOM      3  C   UNL A   1      32.573  23.229  26.349  1.00  0.00     0.245 C 
ATOM      4  O   UNL A   1      31.868  23.490  27.336  1.00  0.00    -0.272 OA
ATOM      5  H   UNL A   1      33.978  22.670  27.611  1.00  0.00     0.163 HD
BRANCH   3   6
ATOM      6  C   UNL A   1      32.071  23.499  24.904  1.00  0.00     0.120 C 
BRANCH   6   7
ATOM      7  N   UNL A   1      32.944  24.516  24.255  1.00  0.00    -0.323 N 
ATOM      8  C   UNL A   1      33.135  25.839  24.229  1.00  0.00     0.318 C 
ATOM      9  O   UNL A   1      33.859  26.206  23.291  1.00  0.00    -0.249 OA
ATOM     10  H   UNL A   1      33.586  24.072  23.653  1.00  0.00     0.166 HD
BRANCH   8  11
ATOM     11  N   UNL A   1      32.730  26.737  25.173  1.00  0.00    -0.319 N 
BRANCH  11  12
ATOM     12  C   UNL A   1      33.747  27.001  26.204  1.00  0.00     0.118 C 
ATOM     13  C   UNL A   1      34.114  28.483  26.278  1.00  0.00     0.027 C 
ENDBRANCH  11  12
BRANCH  11  14
ATOM     14  C   UNL A   1      31.417  27.354  25.440  1.00  0.00     0.177 C 
BRANCH  14  15
ATOM     15  C   UNL A   1      30.708  27.987  24.265  1.00  0.00     0.060 A 
ATOM     16  C   UNL A   1      31.310  29.007  23.531  1.00  0.00     0.026 A 
ATOM     17  N   UNL A   1      29.435  27.573  24.012  1.00  0.00    -0.259 NA
ATOM     18  C   UNL A   1      30.601  29.599  22.489  1.00  0.00     0.004 A 
ATOM     19  C   UNL A   1      28.773  28.165  22.994  1.00  0.00     0.111 A 
ATOM     20  C   UNL A   1      29.310  29.168  22.208  1.00  0.00     0.020 A 
ENDBRANCH  14  15
ENDBRANCH  11  14
ENDBRANCH   8  11
ENDBRANCH   6   7
BRANCH   6  21
ATOM     21  C   UNL A   1      30.614  23.998  24.701  1.00  0.00     0.035 C 
ATOM     22  C   UNL A   1      30.192  24.255  23.253  1.00  0.00     0.007 C 
ENDBRANCH   6  21
BRANCH   6  23
ATOM     23  C   UNL A   1      32.289  22.131  24.160  1.00  0.00     0.035 C 
ATOM     24  C   UNL A   1      33.005  22.209  22.810  1.00  0.00     0.007 C 
ENDBRANCH   6  23
ENDBRANCH   3   6
ENDBRANCH   1   2
BRANCH   1  25
ATOM     25  C   UNL A   1      35.946  23.825  25.870  1.00  0.00     0.042 C 
BRANCH  25  26
ATOM     26  C   UNL A   1      37.181  23.690  24.993  1.00  0.00     0.118 C 
BRANCH  26  27
ATOM     27  N   UNL A   1      38.103  22.655  25.437  1.00  0.00    -0.352 N 
ATOM     28  C   UNL A   1      39.199  22.814  26.255  1.00  0.00     0.251 C 
ATOM     29  H   UNL A   1      37.924  21.741  25.116  1.00  0.00     0.163 HD
ATOM     30  O   UNL A   1      39.970  21.885  26.468  1.00  0.00    -0.269 OA
BRANCH  28  31
ATOM     31  C   UNL A   1      39.442  24.149  26.843  1.00  0.00     0.039 A 
ATOM     32  C   UNL A   1      39.026  24.405  28.150  1.00  0.00     0.014 A 
ATOM     33  C   UNL A   1      40.174  25.101  26.127  1.00  0.00     0.014 A 
ATOM     34  C   UNL A   1      39.402  25.601  28.767  1.00  0.00     0.010 A 
ATOM     35  C   UNL A   1      40.610  26.256  26.768  1.00  0.00     0.010 A 
ATOM     36  C   UNL A   1      40.225  26.520  28.092  1.00  0.00    -0.014 A 
BRANCH  36  37
ATOM     37  C   UNL A   1      40.672  27.779  28.739  1.00  0.00     0.031 A 
ATOM     38  C   UNL A   1      42.073  27.880  29.278  1.00  0.00     0.074 A 
ATOM     39  C   UNL A   1      39.810  28.801  28.903  1.00  0.00     0.049 A 
ATOM     40  N   UNL A   1      42.635  28.858  29.941  1.00  0.00    -0.248 NA
ATOM     41  C   UNL A   1      42.947  26.714  29.071  1.00  0.00     0.031 C 
ATOM     42  C   UNL A   1      38.410  28.813  28.471  1.00  0.00     0.029 A 
ATOM     43  N   UNL A   1      39.986  30.032  29.486  1.00  0.00    -0.354 N 
ATOM     44  C   UNL A   1      43.913  28.412  30.258  1.00  0.00     0.074 A 
ATOM     45  C   UNL A   1      44.027  27.061  29.755  1.00  0.00     0.031 C 
ATOM     46  C   UNL A   1      37.866  30.005  28.774  1.00  0.00     0.029 A 
ATOM     47  C   UNL A   1      38.865  30.828  29.447  1.00  0.00     0.049 A 
ATOM     48  H   UNL A   1      40.835  30.318  29.893  1.00  0.00     0.167 HD
ATOM     49  C   UNL A   1      44.911  29.072  30.891  1.00  0.00     0.031 A 
ATOM     50  C   UNL A   1      38.669  32.083  29.897  1.00  0.00     0.031 A 
ATOM     51  C   UNL A   1      44.811  30.426  31.362  1.00  0.00     0.049 A 
ATOM     52  C   UNL A   1      39.805  32.815  30.555  1.00  0.00     0.074 A 
ATOM     53  C   UNL A   1      45.781  31.202  31.971  1.00  0.00     0.029 A 
ATOM     54  N   UNL A   1      43.672  31.210  31.261  1.00  0.00    -0.354 N 
ATOM     55  N   UNL A   1      41.021  32.392  30.806  1.00  0.00    -0.248 NA
ATOM     56  C   UNL A   1      39.547  34.199  30.975  1.00  0.00     0.031 C 
ATOM     57  C   UNL A   1      45.221  32.453  32.258  1.00  0.00     0.029 A 
ATOM     58  C   UNL A   1      43.915  32.464  31.795  1.00  0.00     0.049 A 
ATOM     59  H   UNL A   1      42.818  30.919  30.869  1.00  0.00     0.167 HD
ATOM     60  C   UNL A   1      41.682  33.467  31.389  1.00  0.00     0.074 A 
ATOM     61  C   UNL A   1      40.733  34.561  31.446  1.00  0.00     0.031 C 
ATOM     62  C   UNL A   1      42.961  33.542  31.834  1.00  0.00     0.031 A 
BRANCH  49  63
ATOM     63  C   UNL A   1      46.199  28.323  31.101  1.00  0.00    -0.014 A 
ATOM     64  C   UNL A   1      47.232  28.383  30.148  1.00  0.00     0.010 A 
ATOM     65  C   UNL A   1      46.374  27.538  32.255  1.00  0.00     0.010 A 
ATOM     66  C   UNL A   1      48.394  27.626  30.316  1.00  0.00     0.020 A 
ATOM     67  C   UNL A   1      47.546  26.800  32.440  1.00  0.00     0.020 A 
ATOM     68  C   UNL A   1      48.538  26.829  31.457  1.00  0.00     0.054 A 
BRANCH  68  69
ATOM     69  S   UNL A   1      50.049  25.845  31.650  1.00  0.00     0.124 S 
ATOM     70  O   UNL A   1      50.131  25.167  30.358  1.00  0.00    -0.237 OA
ATOM     71  O   UNL A   1      51.071  26.860  31.891  1.00  0.00    -0.237 OA
ATOM     72  O   UNL A   1      49.754  24.981  32.791  1.00  0.00    -0.744 OA
ENDBRANCH  68  69
ENDBRANCH  49  63
BRANCH  50  73
ATOM     73  C   UNL A   1      37.353  32.745  29.693  1.00  0.00    -0.014 A 
ATOM     74  C   UNL A   1      36.444  32.850  30.761  1.00  0.00     0.010 A 
ATOM     75  C   UNL A   1      37.008  33.289  28.444  1.00  0.00     0.010 A 
ATOM     76  C   UNL A   1      35.208  33.477  30.581  1.00  0.00     0.020 A 
ATOM     77  C   UNL A   1      35.782  33.935  28.266  1.00  0.00     0.020 A 
ATOM     78  C   UNL A   1      34.885  34.017  29.334  1.00  0.00     0.054 A 
BRANCH  78  79
ATOM     79  S   UNL A   1      33.303  34.885  29.137  1.00  0.00     0.124 S 
ATOM     80  O   UNL A   1      32.744  34.803  30.483  1.00  0.00    -0.237 OA
ATOM     81  O   UNL A   1      33.721  36.216  28.706  1.00  0.00    -0.237 OA
ATOM     82  O   UNL A   1      32.609  34.100  28.119  1.00  0.00    -0.744 OA
ENDBRANCH  78  79
ENDBRANCH  50  73
BRANCH  62  83
ATOM     83  C   UNL A   1      43.422  34.862  32.383  1.00  0.00    -0.014 A 
ATOM     84  C   UNL A   1      43.308  35.160  33.752  1.00  0.00     0.010 A 
ATOM     85  C   UNL A   1      44.032  35.794  31.523  1.00  0.00     0.010 A 
ATOM     86  C   UNL A   1      43.773  36.381  34.247  1.00  0.00     0.020 A 
ATOM     87  C   UNL A   1      44.515  37.006  32.019  1.00  0.00     0.020 A 
ATOM     88  C   UNL A   1      44.371  37.297  33.377  1.00  0.00     0.054 A 
BRANCH  88  89
ATOM     89  S   UNL A   1      45.012  38.856  34.048  1.00  0.00     0.124 S 
ATOM     90  O   UNL A   1      45.543  39.504  32.852  1.00  0.00    -0.237 OA
ATOM     91  O   UNL A   1      43.821  39.477  34.621  1.00  0.00    -0.237 OA
ATOM     92  O   UNL A   1      46.012  38.426  35.022  1.00  0.00    -0.744 OA
ENDBRANCH  88  89
ENDBRANCH  62  83
ENDBRANCH  36  37
ENDBRANCH  28  31
ENDBRANCH  26  27
ENDBRANCH  25  26
ENDBRANCH   1  25
TORSDOF 20
ENDMDL
MODEL 3
REMARK VINA RESULT:      -9.4      2.445      7.988
REMARK SMILES CCN(Cc1ccccn1)C(=O)NC(CC)(CC)C(=O)NCCCNC(=O)c1ccc(-c2c3nc(c(-c4ccc(S(=O)(=O)[O-])cc4)c4ccc([nH]4)c(-c4ccc(S(=O)(=O)[O-])cc4)c4nc(c(-c5ccc(S(=O)(=O)[O-])cc5)c5ccc2[nH]5)C=C4)C=C3)cc1
REMARK SMILES IDX 22 1 21 2 19 3 20 4 14 6 13 7 11 8 12 9 3 11 2 12 1 13 4 14
REMARK SMILES IDX 5 15 6 16 10 17 7 18 9 19 8 20 15 21 16 22 17 23 18 24 23 25
REMARK SMILES IDX 24 26 25 27 26 28 27 30 28 31 29 32 87 33 30 34 86 35 31 36
REMARK SMILES IDX 32 37 33 38 80 39 34 40 85 41 79 42 81 43 35 44 84 45 78 46
REMARK SMILES IDX 77 47 36 49 66 50 47 51 65 52 48 53 51 54 64 55 82 56 49 57
REMARK SMILES IDX 50 58 63 60 83 61 52 62 37 63 38 64 46 65 39 66 45 67 40 68
REMARK SMILES IDX 41 69 42 70 43 71 44 72 67 73 68 74 76 75 69 76 75 77 70 78
REMARK SMILES IDX 71 79 72 80 73 81 74 82 53 83 54 84 62 85 55 86 61 87 56 88
REMARK SMILES IDX 57 89 58 90 59 91 60 92
REMARK H PARENT 21 5 13 10 25 29 81 48 51 59
REMARK Flexibility Score: inf
ROOT
ATOM      1  C   UNL A   1      35.146  22.784  26.503  1.00  0.00     0.117 C 
ENDROOT
BRANCH   1   2
ATOM      2  N   UNL A   1      33.863  23.069  27.110  1.00  0.00    -0.354 N 
ATOM      3  C   UNL A   1      32.639  23.315  26.585  1.00  0.00     0.245 C 
ATOM      4  O   UNL A   1      31.800  23.707  27.410  1.00  0.00    -0.272 OA
ATOM      5  H   UNL A   1      33.885  23.088  28.094  1.00  0.00     0.163 HD
BRANCH   3   6
ATOM      6  C   UNL A   1      32.324  23.283  25.064  1.00  0.00     0.120 C 
BRANCH   6   7
ATOM      7  N   UNL A   1      33.073  24.372  24.377  1.00  0.00    -0.323 N 
ATOM      8  C   UNL A   1      33.135  25.707  24.336  1.00  0.00     0.318 C 
ATOM      9  O   UNL A   1      33.785  26.132  23.370  1.00  0.00    -0.249 OA
ATOM     10  H   UNL A   1      33.731  23.986  23.755  1.00  0.00     0.166 HD
BRANCH   8  11
ATOM     11  N   UNL A   1      32.680  26.572  25.289  1.00  0.00    -0.319 N 
BRANCH  11  12
ATOM     12  C   UNL A   1      33.730  27.024  26.217  1.00  0.00     0.118 C 
ATOM     13  C   UNL A   1      33.287  28.240  27.031  1.00  0.00     0.027 C 
ENDBRANCH  11  12
BRANCH  11  14
ATOM     14  C   UNL A   1      31.316  26.997  25.657  1.00  0.00     0.177 C 
BRANCH  14  15
ATOM     15  C   UNL A   1      30.490  27.655  24.576  1.00  0.00     0.060 A 
ATOM     16  C   UNL A   1      30.865  28.884  24.039  1.00  0.00     0.026 A 
ATOM     17  N   UNL A   1      29.333  27.034  24.215  1.00  0.00    -0.259 NA
ATOM     18  C   UNL A   1      30.048  29.481  23.082  1.00  0.00     0.004 A 
ATOM     19  C   UNL A   1      28.562  27.636  23.283  1.00  0.00     0.111 A 
ATOM     20  C   UNL A   1      28.877  28.844  22.690  1.00  0.00     0.020 A 
ENDBRANCH  14  15
ENDBRANCH  11  14
ENDBRANCH   8  11
ENDBRANCH   6   7
BRANCH   6  21
ATOM     21  C   UNL A   1      30.847  23.427  24.605  1.00  0.00     0.035 C 
ATOM     22  C   UNL A   1      30.639  23.857  23.152  1.00  0.00     0.007 C 
ENDBRANCH   6  21
BRANCH   6  23
ATOM     23  C   UNL A   1      32.917  21.910  24.579  1.00  0.00     0.035 C 
ATOM     24  C   UNL A   1      32.047  20.677  24.837  1.00  0.00     0.007 C 
ENDBRANCH   6  23
ENDBRANCH   3   6
ENDBRANCH   1   2
BRANCH   1  25
ATOM     25  C   UNL A   1      35.882  24.057  26.114  1.00  0.00     0.042 C 
BRANCH  25  26
ATOM     26  C   UNL A   1      36.932  23.875  25.029  1.00  0.00     0.118 C 
BRANCH  26  27
ATOM     27  N   UNL A   1      37.848  22.772  25.280  1.00  0.00    -0.352 N 
ATOM     28  C   UNL A   1      39.022  22.813  25.999  1.00  0.00     0.251 C 
ATOM     29  H   UNL A   1      37.601  21.901  24.892  1.00  0.00     0.163 HD
ATOM     30  O   UNL A   1      39.769  21.843  26.046  1.00  0.00    -0.269 OA
BRANCH  28  31
ATOM     31  C   UNL A   1      39.375  24.075  26.685  1.00  0.00     0.039 A 
ATOM     32  C   UNL A   1      38.987  24.262  28.012  1.00  0.00     0.014 A 
ATOM     33  C   UNL A   1      40.179  25.017  26.036  1.00  0.00     0.014 A 
ATOM     34  C   UNL A   1      39.462  25.372  28.715  1.00  0.00     0.010 A 
ATOM     35  C   UNL A   1      40.710  26.079  26.759  1.00  0.00     0.010 A 
ATOM     36  C   UNL A   1      40.353  26.271  28.104  1.00  0.00    -0.014 A 
BRANCH  36  37
ATOM     37  C   UNL A   1      40.905  27.435  28.841  1.00  0.00     0.031 A 
ATOM     38  C   UNL A   1      40.046  28.650  29.063  1.00  0.00     0.074 A 
ATOM     39  C   UNL A   1      42.188  27.432  29.252  1.00  0.00     0.049 A 
ATOM     40  N   UNL A   1      40.358  29.794  29.613  1.00  0.00    -0.248 NA
ATOM     41  C   UNL A   1      38.660  28.578  28.569  1.00  0.00     0.031 C 
ATOM     42  C   UNL A   1      43.143  26.338  29.057  1.00  0.00     0.029 A 
ATOM     43  N   UNL A   1      42.915  28.388  29.918  1.00  0.00    -0.354 N 
ATOM     44  C   UNL A   1      39.222  30.587  29.504  1.00  0.00     0.074 A 
ATOM     45  C   UNL A   1      38.230  29.810  28.794  1.00  0.00     0.031 C 
ATOM     46  C   UNL A   1      44.317  26.672  29.620  1.00  0.00     0.029 A 
ATOM     47  C   UNL A   1      44.209  28.012  30.188  1.00  0.00     0.049 A 
ATOM     48  H   UNL A   1      42.542  29.262  30.178  1.00  0.00     0.167 HD
ATOM     49  C   UNL A   1      39.012  31.842  29.969  1.00  0.00     0.031 A 
ATOM     50  C   UNL A   1      45.195  28.670  30.828  1.00  0.00     0.031 A 
ATOM     51  C   UNL A   1      39.985  32.602  30.703  1.00  0.00     0.049 A 
ATOM     52  C   UNL A   1      44.926  30.043  31.378  1.00  0.00     0.074 A 
ATOM     53  C   UNL A   1      39.854  33.861  31.262  1.00  0.00     0.029 A 
ATOM     54  N   UNL A   1      41.268  32.164  30.994  1.00  0.00    -0.354 N 
ATOM     55  N   UNL A   1      43.830  30.760  31.303  1.00  0.00    -0.248 NA
ATOM     56  C   UNL A   1      46.023  30.690  32.114  1.00  0.00     0.031 C 
ATOM     57  C   UNL A   1      41.068  34.195  31.874  1.00  0.00     0.029 A 
ATOM     58  C   UNL A   1      41.941  33.128  31.725  1.00  0.00     0.049 A 
ATOM     59  H   UNL A   1      41.645  31.298  30.720  1.00  0.00     0.167 HD
ATOM     60  C   UNL A   1      44.095  31.931  32.004  1.00  0.00     0.074 A 
ATOM     61  C   UNL A   1      45.452  31.822  32.503  1.00  0.00     0.031 C 
ATOM     62  C   UNL A   1      43.287  32.997  32.220  1.00  0.00     0.031 A 
BRANCH  49  63
ATOM     63  C   UNL A   1      37.667  32.456  29.691  1.00  0.00    -0.014 A 
ATOM     64  C   UNL A   1      37.345  32.937  28.409  1.00  0.00     0.010 A 
ATOM     65  C   UNL A   1      36.720  32.568  30.725  1.00  0.00     0.010 A 
ATOM     66  C   UNL A   1      36.122  33.572  28.179  1.00  0.00     0.020 A 
ATOM     67  C   UNL A   1      35.484  33.178  30.491  1.00  0.00     0.020 A 
ATOM     68  C   UNL A   1      35.204  33.699  29.226  1.00  0.00     0.054 A 
BRANCH  68  69
ATOM     69  S   UNL A   1      33.627  34.537  28.909  1.00  0.00     0.124 S 
ATOM     70  O   UNL A   1      34.074  35.831  28.399  1.00  0.00    -0.237 OA
ATOM     71  O   UNL A   1      32.986  33.665  27.928  1.00  0.00    -0.237 OA
ATOM     72  O   UNL A   1      32.985  34.571  30.220  1.00  0.00    -0.744 OA
ENDBRANCH  68  69
ENDBRANCH  49  63
BRANCH  50  73
ATOM     73  C   UNL A   1      46.516  28.016  31.026  1.00  0.00    -0.014 A 
ATOM     74  C   UNL A   1      46.736  27.198  32.148  1.00  0.00     0.010 A 
ATOM     75  C   UNL A   1      47.550  28.188  30.090  1.00  0.00     0.010 A 
ATOM     76  C   UNL A   1      47.971  26.573  32.338  1.00  0.00     0.020 A 
ATOM     77  C   UNL A   1      48.780  27.549  30.266  1.00  0.00     0.020 A 
ATOM     78  C   UNL A   1      48.986  26.752  31.395  1.00  0.00     0.054 A 
BRANCH  78  79
ATOM     79  S   UNL A   1      50.561  25.880  31.625  1.00  0.00     0.124 S 
ATOM     80  O   UNL A   1      51.451  26.622  30.736  1.00  0.00    -0.237 OA
ATOM     81  O   UNL A   1      50.812  26.046  33.054  1.00  0.00    -0.237 OA
ATOM     82  O   UNL A   1      50.255  24.512  31.211  1.00  0.00    -0.744 OA
ENDBRANCH  78  79
ENDBRANCH  50  73
BRANCH  62  83
ATOM     83  C   UNL A   1      43.831  34.115  33.064  1.00  0.00    -0.014 A 
ATOM     84  C   UNL A   1      43.699  34.101  34.463  1.00  0.00     0.010 A 
ATOM     85  C   UNL A   1      44.533  35.167  32.448  1.00  0.00     0.010 A 
ATOM     86  C   UNL A   1      44.240  35.135  35.231  1.00  0.00     0.020 A 
ATOM     87  C   UNL A   1      45.091  36.191  33.214  1.00  0.00     0.020 A 
ATOM     88  C   UNL A   1      44.931  36.175  34.601  1.00  0.00     0.054 A 
BRANCH  88  89
ATOM     89  S   UNL A   1      45.668  37.483  35.620  1.00  0.00     0.124 S 
ATOM     90  O   UNL A   1      45.637  36.883  36.951  1.00  0.00    -0.237 OA
ATOM     91  O   UNL A   1      46.995  37.642  35.033  1.00  0.00    -0.237 OA
ATOM     92  O   UNL A   1      44.769  38.619  35.426  1.00  0.00    -0.744 OA
ENDBRANCH  88  89
ENDBRANCH  62  83
ENDBRANCH  36  37
ENDBRANCH  28  31
ENDBRANCH  26  27
ENDBRANCH  25  26
ENDBRANCH   1  25
TORSDOF 20
ENDMDL
