MODEL 1
REMARK VINA RESULT:     -11.8      0.000      0.000
REMARK SMILES Cc1ccc([C@H]2CC(c3cccs3)=NN2C(=O)CCC(=O)NCCCNC(=O)c2ccc(-c3c4nc(c(-c5ccc(S(=O)(=O)[O-])cc5)c5ccc([nH]5)c(-c5ccc(S(=O)(=O)[O-])cc5)c5nc(c(-c6ccc(S(=O)(=O)[O-])cc6)c6ccc3[nH]6)C=C5)C=C4)cc2)o1
REMARK SMILES IDX 23 1 22 2 20 3 21 4 19 6 18 7 16 8 17 9 15 10 6 11 7 12 8 13
REMARK SMILES IDX 14 14 5 15 1 16 2 17 3 18 89 19 4 20 9 21 10 22 13 23 11 24
REMARK SMILES IDX 12 25 24 26 25 27 26 28 27 29 28 31 29 32 30 33 88 34 31 35
REMARK SMILES IDX 87 36 32 37 33 38 34 39 81 40 35 41 86 42 80 43 82 44 36 45
REMARK SMILES IDX 85 46 79 47 78 48 37 50 67 51 48 52 66 53 49 54 52 55 65 56
REMARK SMILES IDX 83 57 50 58 51 59 64 61 84 62 53 63 38 64 39 65 47 66 40 67
REMARK SMILES IDX 46 68 41 69 42 70 43 71 44 72 45 73 68 74 69 75 77 76 70 77
REMARK SMILES IDX 76 78 71 79 72 80 73 81 74 82 75 83 54 84 55 85 63 86 56 87
REMARK SMILES IDX 62 88 57 89 58 90 59 91 60 92 61 93
REMARK H PARENT 22 5 26 30 82 49 52 60
REMARK Flexibility Score: inf
ROOT
ATOM      1  C   UNL A   1      33.975  28.931  25.263  1.00  0.00     0.117 C 
ENDROOT
BRANCH   1   2
ATOM      2  N   UNL A   1      33.264  29.568  24.168  1.00  0.00    -0.356 N 
ATOM      3  C   UNL A   1      32.673  28.934  23.108  1.00  0.00     0.220 C 
ATOM      4  O   UNL A   1      31.548  29.286  22.753  1.00  0.00    -0.275 OA
ATOM      5  H   UNL A   1      33.202  30.549  24.190  1.00  0.00     0.163 HD
BRANCH   3   6
ATOM      6  C   UNL A   1      33.415  27.849  22.356  1.00  0.00     0.110 C 
BRANCH   6   7
ATOM      7  C   UNL A   1      32.534  26.656  21.965  1.00  0.00     0.112 C 
BRANCH   7   8
ATOM      8  C   UNL A   1      33.271  25.342  22.044  1.00  0.00     0.243 C 
ATOM      9  O   UNL A   1      33.271  24.612  21.047  1.00  0.00    -0.273 OA
BRANCH   8  10
ATOM     10  N   UNL A   1      33.784  24.944  23.266  1.00  0.00    -0.222 N 
ATOM     11  C   UNL A   1      33.588  25.517  24.606  1.00  0.00     0.183 C 
ATOM     12  C   UNL A   1      34.780  24.987  25.411  1.00  0.00     0.095 C 
ATOM     13  C   UNL A   1      35.374  24.053  24.411  1.00  0.00     0.081 C 
ATOM     14  N   UNL A   1      34.883  24.133  23.224  1.00  0.00    -0.173 NA
BRANCH  11  15
ATOM     15  C   UNL A   1      32.297  25.154  25.249  1.00  0.00     0.129 A 
ATOM     16  C   UNL A   1      30.423  22.282  26.243  1.00  0.00     0.087 C 
ATOM     17  C   UNL A   1      30.842  23.667  25.959  1.00  0.00     0.101 A 
ATOM     18  C   UNL A   1      30.264  24.899  26.165  1.00  0.00     0.045 A 
ATOM     19  O   UNL A   1      32.065  23.815  25.383  1.00  0.00    -0.464 OA
ATOM     20  C   UNL A   1      31.196  25.858  25.699  1.00  0.00     0.048 A 
ENDBRANCH  11  15
BRANCH  13  21
ATOM     21  C   UNL A   1      36.427  23.133  24.736  1.00  0.00     0.050 A 
ATOM     22  C   UNL A   1      36.657  21.498  24.358  1.00  0.00     0.022 A 
ATOM     23  S   UNL A   1      38.032  24.000  26.139  1.00  0.00    -0.142 S 
ATOM     24  C   UNL A   1      38.128  20.638  25.132  1.00  0.00     0.012 A 
ATOM     25  C   UNL A   1      39.068  21.704  26.177  1.00  0.00     0.065 A 
ENDBRANCH  13  21
ENDBRANCH   8  10
ENDBRANCH   7   8
ENDBRANCH   6   7
ENDBRANCH   3   6
ENDBRANCH   1   2
BRANCH   1  26
ATOM     26  C   UNL A   1      33.361  28.944  26.659  1.00  0.00     0.042 C 
BRANCH  26  27
ATOM     27  C   UNL A   1      34.202  29.208  27.921  1.00  0.00     0.118 C 
BRANCH  27  28
ATOM     28  N   UNL A   1      34.408  30.585  28.364  1.00  0.00    -0.352 N 
ATOM     29  C   UNL A   1      35.496  31.182  29.005  1.00  0.00     0.251 C 
ATOM     30  H   UNL A   1      33.655  31.191  28.180  1.00  0.00     0.163 HD
ATOM     31  O   UNL A   1      35.348  32.327  29.433  1.00  0.00    -0.269 OA
BRANCH  29  32
ATOM     32  C   UNL A   1      36.819  30.358  29.304  1.00  0.00     0.039 A 
ATOM     33  C   UNL A   1      37.497  30.155  27.691  1.00  0.00     0.014 A 
ATOM     34  C   UNL A   1      37.936  29.618  30.867  1.00  0.00     0.014 A 
ATOM     35  C   UNL A   1      39.023  29.459  27.554  1.00  0.00     0.010 A 
ATOM     36  C   UNL A   1      39.512  28.925  30.497  1.00  0.00     0.010 A 
ATOM     37  C   UNL A   1      40.018  28.921  28.864  1.00  0.00    -0.014 A 
BRANCH  37  38
ATOM     38  C   UNL A   1      41.436  28.543  28.530  1.00  0.00     0.031 A 
ATOM     39  C   UNL A   1      42.531  29.576  28.582  1.00  0.00     0.074 A 
ATOM     40  C   UNL A   1      41.736  27.281  28.141  1.00  0.00     0.049 A 
ATOM     41  N   UNL A   1      43.777  29.476  28.197  1.00  0.00    -0.248 NA
ATOM     42  C   UNL A   1      42.174  30.910  29.089  1.00  0.00     0.031 C 
ATOM     43  C   UNL A   1      40.783  26.177  27.981  1.00  0.00     0.029 A 
ATOM     44  N   UNL A   1      42.941  26.692  27.821  1.00  0.00    -0.354 N 
ATOM     45  C   UNL A   1      44.327  30.743  28.357  1.00  0.00     0.074 A 
ATOM     46  C   UNL A   1      43.262  31.609  28.806  1.00  0.00     0.031 C 
ATOM     47  C   UNL A   1      41.439  25.040  27.714  1.00  0.00     0.029 A 
ATOM     48  C   UNL A   1      42.851  25.342  27.541  1.00  0.00     0.049 A 
ATOM     49  H   UNL A   1      43.790  27.189  27.796  1.00  0.00     0.167 HD
ATOM     50  C   UNL A   1      45.607  31.147  28.184  1.00  0.00     0.031 A 
ATOM     51  C   UNL A   1      43.778  24.445  27.150  1.00  0.00     0.031 A 
ATOM     52  C   UNL A   1      46.678  30.268  27.797  1.00  0.00     0.049 A 
ATOM     53  C   UNL A   1      45.189  24.925  26.944  1.00  0.00     0.074 A 
ATOM     54  C   UNL A   1      48.020  30.567  27.643  1.00  0.00     0.029 A 
ATOM     55  N   UNL A   1      46.533  28.918  27.518  1.00  0.00    -0.354 N 
ATOM     56  N   UNL A   1      45.685  26.125  27.132  1.00  0.00    -0.248 NA
ATOM     57  C   UNL A   1      46.164  23.936  26.466  1.00  0.00     0.031 C 
ATOM     58  C   UNL A   1      48.673  29.414  27.202  1.00  0.00     0.029 A 
ATOM     59  C   UNL A   1      47.756  28.376  27.164  1.00  0.00     0.049 A 
ATOM     60  H   UNL A   1      45.685  28.419  27.565  1.00  0.00     0.167 HD
ATOM     61  C   UNL A   1      47.035  26.026  26.821  1.00  0.00     0.074 A 
ATOM     62  C   UNL A   1      47.284  24.645  26.463  1.00  0.00     0.031 C 
ATOM     63  C   UNL A   1      47.985  26.994  26.823  1.00  0.00     0.031 A 
BRANCH  50  64
ATOM     64  C   UNL A   1      45.919  32.604  28.411  1.00  0.00    -0.014 A 
ATOM     65  C   UNL A   1      46.505  33.052  29.609  1.00  0.00     0.010 A 
ATOM     66  C   UNL A   1      45.652  33.539  27.393  1.00  0.00     0.010 A 
ATOM     67  C   UNL A   1      46.775  34.409  29.804  1.00  0.00     0.020 A 
ATOM     68  C   UNL A   1      45.958  34.891  27.567  1.00  0.00     0.020 A 
ATOM     69  C   UNL A   1      46.504  35.319  28.778  1.00  0.00     0.054 A 
BRANCH  69  70
ATOM     70  S   UNL A   1      46.914  37.065  29.043  1.00  0.00     0.124 S 
ATOM     71  O   UNL A   1      46.189  37.360  30.277  1.00  0.00    -0.237 OA
ATOM     72  O   UNL A   1      48.368  37.034  29.163  1.00  0.00    -0.237 OA
ATOM     73  O   UNL A   1      46.401  37.728  27.848  1.00  0.00    -0.744 OA
ENDBRANCH  69  70
ENDBRANCH  50  64
BRANCH  51  74
ATOM     74  C   UNL A   1      43.412  23.018  26.888  1.00  0.00    -0.014 A 
ATOM     75  C   UNL A   1      42.828  22.225  27.894  1.00  0.00     0.010 A 
ATOM     76  C   UNL A   1      43.671  22.429  25.636  1.00  0.00     0.010 A 
ATOM     77  C   UNL A   1      42.542  20.874  27.665  1.00  0.00     0.020 A 
ATOM     78  C   UNL A   1      43.348  21.090  25.387  1.00  0.00     0.020 A 
ATOM     79  C   UNL A   1      42.802  20.315  26.411  1.00  0.00     0.054 A 
BRANCH  79  80
ATOM     80  S   UNL A   1      42.395  18.569  26.129  1.00  0.00     0.124 S 
ATOM     81  O   UNL A   1      42.674  17.976  27.433  1.00  0.00    -0.237 OA
ATOM     82  O   UNL A   1      40.986  18.632  25.750  1.00  0.00    -0.237 OA
ATOM     83  O   UNL A   1      43.305  18.172  25.056  1.00  0.00    -0.744 OA
ENDBRANCH  79  80
ENDBRANCH  51  74
BRANCH  63  84
ATOM     84  C   UNL A   1      49.391  26.586  26.475  1.00  0.00    -0.014 A 
ATOM     85  C   UNL A   1      50.236  25.984  27.422  1.00  0.00     0.010 A 
ATOM     86  C   UNL A   1      49.847  26.756  25.155  1.00  0.00     0.010 A 
ATOM     87  C   UNL A   1      51.526  25.588  27.063  1.00  0.00     0.020 A 
ATOM     88  C   UNL A   1      51.121  26.324  24.782  1.00  0.00     0.020 A 
ATOM     89  C   UNL A   1      51.957  25.755  25.744  1.00  0.00     0.054 A 
BRANCH  89  90
ATOM     90  S   UNL A   1      53.616  25.180  25.293  1.00  0.00     0.124 S 
ATOM     91  O   UNL A   1      53.485  23.733  25.431  1.00  0.00    -0.237 OA
ATOM     92  O   UNL A   1      53.761  25.673  23.926  1.00  0.00    -0.237 OA
ATOM     93  O   UNL A   1      54.485  25.823  26.276  1.00  0.00    -0.744 OA
ENDBRANCH  89  90
ENDBRANCH  63  84
ENDBRANCH  37  38
ENDBRANCH  29  32
ENDBRANCH  27  28
ENDBRANCH  26  27
ENDBRANCH   1  26
TORSDOF 18
ENDMDL
MODEL 2
REMARK VINA RESULT:     -11.2      1.409      8.395
REMARK SMILES Cc1ccc([C@H]2CC(c3cccs3)=NN2C(=O)CCC(=O)NCCCNC(=O)c2ccc(-c3c4nc(c(-c5ccc(S(=O)(=O)[O-])cc5)c5ccc([nH]5)c(-c5ccc(S(=O)(=O)[O-])cc5)c5nc(c(-c6ccc(S(=O)(=O)[O-])cc6)c6ccc3[nH]6)C=C5)C=C4)cc2)o1
REMARK SMILES IDX 23 1 22 2 20 3 21 4 19 6 18 7 16 8 17 9 15 10 6 11 7 12 8 13
REMARK SMILES IDX 14 14 5 15 1 16 2 17 3 18 89 19 4 20 9 21 10 22 13 23 11 24
REMARK SMILES IDX 12 25 24 26 25 27 26 28 27 29 28 31 29 32 30 33 88 34 31 35
REMARK SMILES IDX 87 36 32 37 33 38 34 39 81 40 35 41 86 42 80 43 82 44 36 45
REMARK SMILES IDX 85 46 79 47 78 48 37 50 67 51 48 52 66 53 49 54 52 55 65 56
REMARK SMILES IDX 83 57 50 58 51 59 64 61 84 62 53 63 38 64 39 65 47 66 40 67
REMARK SMILES IDX 46 68 41 69 42 70 43 71 44 72 45 73 68 74 69 75 77 76 70 77
REMARK SMILES IDX 76 78 71 79 72 80 73 81 74 82 75 83 54 84 55 85 63 86 56 87
REMARK SMILES IDX 62 88 57 89 58 90 59 91 60 92 61 93
REMARK H PARENT 22 5 26 30 82 49 52 60
REMARK Flexibility Score: inf
ROOT
ATOM      1  C   UNL A   1      34.373  30.064  27.710  1.00  0.00     0.117 C 
ENDROOT
BRANCH   1   2
ATOM      2  N   UNL A   1      34.056  29.835  26.311  1.00  0.00    -0.356 N 
ATOM      3  C   UNL A   1      33.211  28.876  25.819  1.00  0.00     0.220 C 
ATOM      4  O   UNL A   1      32.404  29.184  24.942  1.00  0.00    -0.275 OA
ATOM      5  H   UNL A   1      34.489  30.424  25.654  1.00  0.00     0.163 HD
BRANCH   3   6
ATOM      6  C   UNL A   1      33.304  27.448  26.315  1.00  0.00     0.110 C 
BRANCH   6   7
ATOM      7  C   UNL A   1      31.964  26.702  26.299  1.00  0.00     0.112 C 
BRANCH   7   8
ATOM      8  C   UNL A   1      32.137  25.203  26.299  1.00  0.00     0.243 C 
ATOM      9  O   UNL A   1      31.442  24.535  27.072  1.00  0.00    -0.273 OA
BRANCH   8  10
ATOM     10  N   UNL A   1      33.162  24.656  25.548  1.00  0.00    -0.222 N 
ATOM     11  C   UNL A   1      33.130  24.025  24.221  1.00  0.00     0.183 C 
ATOM     12  C   UNL A   1      34.416  23.191  24.178  1.00  0.00     0.095 C 
ATOM     13  C   UNL A   1      35.052  23.629  25.455  1.00  0.00     0.081 C 
ATOM     14  N   UNL A   1      34.303  24.335  26.228  1.00  0.00    -0.173 NA
BRANCH  11  15
ATOM     15  C   UNL A   1      33.069  24.982  23.083  1.00  0.00     0.129 A 
ATOM     16  C   UNL A   1      34.067  28.296  22.212  1.00  0.00     0.087 C 
ATOM     17  C   UNL A   1      33.468  26.949  22.189  1.00  0.00     0.101 A 
ATOM     18  C   UNL A   1      32.761  26.236  21.248  1.00  0.00     0.045 A 
ATOM     19  O   UNL A   1      33.638  26.201  23.312  1.00  0.00    -0.464 OA
ATOM     20  C   UNL A   1      32.493  24.971  21.827  1.00  0.00     0.048 A 
ENDBRANCH  11  15
BRANCH  13  21
ATOM     21  C   UNL A   1      36.399  23.285  25.810  1.00  0.00     0.050 A 
ATOM     22  C   UNL A   1      37.647  24.185  26.518  1.00  0.00     0.022 A 
ATOM     23  S   UNL A   1      37.024  21.162  25.182  1.00  0.00    -0.142 S 
ATOM     24  C   UNL A   1      39.321  23.362  26.665  1.00  0.00     0.012 A 
ATOM     25  C   UNL A   1      39.335  21.725  26.009  1.00  0.00     0.065 A 
ENDBRANCH  13  21
ENDBRANCH   8  10
ENDBRANCH   7   8
ENDBRANCH   6   7
ENDBRANCH   3   6
ENDBRANCH   1   2
BRANCH   1  26
ATOM     26  C   UNL A   1      34.289  31.480  28.271  1.00  0.00     0.042 C 
BRANCH  26  27
ATOM     27  C   UNL A   1      35.190  31.957  29.425  1.00  0.00     0.118 C 
BRANCH  27  28
ATOM     28  N   UNL A   1      35.448  31.057  30.546  1.00  0.00    -0.352 N 
ATOM     29  C   UNL A   1      36.468  30.125  30.748  1.00  0.00     0.251 C 
ATOM     30  H   UNL A   1      34.795  31.118  31.280  1.00  0.00     0.163 HD
ATOM     31  O   UNL A   1      36.361  29.359  31.706  1.00  0.00    -0.269 OA
BRANCH  29  32
ATOM     32  C   UNL A   1      37.643  29.959  29.693  1.00  0.00     0.039 A 
ATOM     33  C   UNL A   1      39.072  30.204  30.694  1.00  0.00     0.014 A 
ATOM     34  C   UNL A   1      37.978  29.482  27.719  1.00  0.00     0.014 A 
ATOM     35  C   UNL A   1      40.581  29.950  29.996  1.00  0.00     0.010 A 
ATOM     36  C   UNL A   1      39.646  29.265  27.196  1.00  0.00     0.010 A 
ATOM     37  C   UNL A   1      40.879  29.454  28.365  1.00  0.00    -0.014 A 
BRANCH  37  38
ATOM     38  C   UNL A   1      42.291  29.066  28.020  1.00  0.00     0.031 A 
ATOM     39  C   UNL A   1      42.619  27.646  27.642  1.00  0.00     0.074 A 
ATOM     40  C   UNL A   1      43.289  29.980  28.083  1.00  0.00     0.049 A 
ATOM     41  N   UNL A   1      43.790  27.093  27.450  1.00  0.00    -0.248 NA
ATOM     42  C   UNL A   1      41.494  26.708  27.505  1.00  0.00     0.031 C 
ATOM     43  C   UNL A   1      43.150  31.383  28.489  1.00  0.00     0.029 A 
ATOM     44  N   UNL A   1      44.632  29.881  27.788  1.00  0.00    -0.354 N 
ATOM     45  C   UNL A   1      43.541  25.742  27.235  1.00  0.00     0.074 A 
ATOM     46  C   UNL A   1      42.119  25.547  27.390  1.00  0.00     0.031 C 
ATOM     47  C   UNL A   1      44.309  32.030  28.308  1.00  0.00     0.029 A 
ATOM     48  C   UNL A   1      45.324  31.069  27.907  1.00  0.00     0.049 A 
ATOM     49  H   UNL A   1      45.060  29.036  27.516  1.00  0.00     0.167 HD
ATOM     50  C   UNL A   1      44.407  24.756  26.902  1.00  0.00     0.031 A 
ATOM     51  C   UNL A   1      46.631  31.363  27.754  1.00  0.00     0.031 A 
ATOM     52  C   UNL A   1      45.814  24.966  26.686  1.00  0.00     0.049 A 
ATOM     53  C   UNL A   1      47.575  30.246  27.405  1.00  0.00     0.074 A 
ATOM     54  C   UNL A   1      46.769  24.045  26.297  1.00  0.00     0.029 A 
ATOM     55  N   UNL A   1      46.464  26.183  26.828  1.00  0.00    -0.354 N 
ATOM     56  N   UNL A   1      47.305  28.982  27.179  1.00  0.00    -0.248 NA
ATOM     57  C   UNL A   1      49.000  30.589  27.298  1.00  0.00     0.031 C 
ATOM     58  C   UNL A   1      48.008  24.688  26.272  1.00  0.00     0.029 A 
ATOM     59  C   UNL A   1      47.813  26.029  26.562  1.00  0.00     0.049 A 
ATOM     60  H   UNL A   1      46.029  27.030  27.080  1.00  0.00     0.167 HD
ATOM     61  C   UNL A   1      48.523  28.386  26.877  1.00  0.00     0.074 A 
ATOM     62  C   UNL A   1      49.525  29.432  26.919  1.00  0.00     0.031 C 
ATOM     63  C   UNL A   1      48.792  27.087  26.597  1.00  0.00     0.031 A 
BRANCH  50  64
ATOM     64  C   UNL A   1      43.857  23.361  26.751  1.00  0.00    -0.014 A 
ATOM     65  C   UNL A   1      43.979  22.650  25.543  1.00  0.00     0.010 A 
ATOM     66  C   UNL A   1      43.235  22.737  27.848  1.00  0.00     0.010 A 
ATOM     67  C   UNL A   1      43.451  21.363  25.421  1.00  0.00     0.020 A 
ATOM     68  C   UNL A   1      42.742  21.433  27.744  1.00  0.00     0.020 A 
ATOM     69  C   UNL A   1      42.841  20.761  26.525  1.00  0.00     0.054 A 
BRANCH  69  70
ATOM     70  S   UNL A   1      42.212  19.070  26.348  1.00  0.00     0.124 S 
ATOM     71  O   UNL A   1      40.850  19.303  25.874  1.00  0.00    -0.237 OA
ATOM     72  O   UNL A   1      43.126  18.493  25.367  1.00  0.00    -0.237 OA
ATOM     73  O   UNL A   1      42.314  18.517  27.695  1.00  0.00    -0.744 OA
ENDBRANCH  69  70
ENDBRANCH  50  64
BRANCH  51  74
ATOM     74  C   UNL A   1      47.140  32.755  27.963  1.00  0.00    -0.014 A 
ATOM     75  C   UNL A   1      47.225  33.664  26.891  1.00  0.00     0.010 A 
ATOM     76  C   UNL A   1      47.574  33.178  29.235  1.00  0.00     0.010 A 
ATOM     77  C   UNL A   1      47.758  34.944  27.078  1.00  0.00     0.020 A 
ATOM     78  C   UNL A   1      48.068  34.471  29.436  1.00  0.00     0.020 A 
ATOM     79  C   UNL A   1      48.174  35.341  28.351  1.00  0.00     0.054 A 
BRANCH  79  80
ATOM     80  S   UNL A   1      48.835  37.017  28.573  1.00  0.00     0.124 S 
ATOM     81  O   UNL A   1      48.471  37.658  27.313  1.00  0.00    -0.237 OA
ATOM     82  O   UNL A   1      48.112  37.485  29.753  1.00  0.00    -0.237 OA
ATOM     83  O   UNL A   1      50.266  36.799  28.773  1.00  0.00    -0.744 OA
ENDBRANCH  79  80
ENDBRANCH  51  74
BRANCH  63  84
ATOM     84  C   UNL A   1      50.216  26.730  26.265  1.00  0.00    -0.014 A 
ATOM     85  C   UNL A   1      51.141  26.388  27.267  1.00  0.00     0.010 A 
ATOM     86  C   UNL A   1      50.613  26.678  24.916  1.00  0.00     0.010 A 
ATOM     87  C   UNL A   1      52.447  26.033  26.926  1.00  0.00     0.020 A 
ATOM     88  C   UNL A   1      51.905  26.282  24.570  1.00  0.00     0.020 A 
ATOM     89  C   UNL A   1      52.818  25.975  25.580  1.00  0.00     0.054 A 
BRANCH  89  90
ATOM     90  S   UNL A   1      54.505  25.456  25.166  1.00  0.00     0.124 S 
ATOM     91  O   UNL A   1      55.236  25.796  26.383  1.00  0.00    -0.237 OA
ATOM     92  O   UNL A   1      54.341  24.028  24.907  1.00  0.00    -0.237 OA
ATOM     93  O   UNL A   1      54.839  26.262  23.993  1.00  0.00    -0.744 OA
ENDBRANCH  89  90
ENDBRANCH  63  84
ENDBRANCH  37  38
ENDBRANCH  29  32
ENDBRANCH  27  28
ENDBRANCH  26  27
ENDBRANCH   1  26
TORSDOF 18
ENDMDL
MODEL 3
REMARK VINA RESULT:     -11.1      2.008      2.489
REMARK SMILES Cc1ccc([C@H]2CC(c3cccs3)=NN2C(=O)CCC(=O)NCCCNC(=O)c2ccc(-c3c4nc(c(-c5ccc(S(=O)(=O)[O-])cc5)c5ccc([nH]5)c(-c5ccc(S(=O)(=O)[O-])cc5)c5nc(c(-c6ccc(S(=O)(=O)[O-])cc6)c6ccc3[nH]6)C=C5)C=C4)cc2)o1
REMARK SMILES IDX 23 1 22 2 20 3 21 4 19 6 18 7 16 8 17 9 15 10 6 11 7 12 8 13
REMARK SMILES IDX 14 14 5 15 1 16 2 17 3 18 89 19 4 20 9 21 10 22 13 23 11 24
REMARK SMILES IDX 12 25 24 26 25 27 26 28 27 29 28 31 29 32 30 33 88 34 31 35
REMARK SMILES IDX 87 36 32 37 33 38 34 39 81 40 35 41 86 42 80 43 82 44 36 45
REMARK SMILES IDX 85 46 79 47 78 48 37 50 67 51 48 52 66 53 49 54 52 55 65 56
REMARK SMILES IDX 83 57 50 58 51 59 64 61 84 62 53 63 38 64 39 65 47 66 40 67
REMARK SMILES IDX 46 68 41 69 42 70 43 71 44 72 45 73 68 74 69 75 77 76 70 77
REMARK SMILES IDX 76 78 71 79 72 80 73 81 74 82 75 83 54 84 55 85 63 86 56 87
REMARK SMILES IDX 62 88 57 89 58 90 59 91 60 92 61 93
REMARK H PARENT 22 5 26 30 82 49 52 60
REMARK Flexibility Score: inf
ROOT
ATOM      1  C   UNL A   1      31.813  28.897  25.216  1.00  0.00     0.117 C 
ENDROOT
BRANCH   1   2
ATOM      2  N   UNL A   1      30.835  28.196  24.403  1.00  0.00    -0.356 N 
ATOM      3  C   UNL A   1      30.598  26.847  24.404  1.00  0.00     0.220 C 
ATOM      4  O   UNL A   1      29.434  26.444  24.414  1.00  0.00    -0.275 OA
ATOM      5  H   UNL A   1      30.290  28.742  23.793  1.00  0.00     0.163 HD
BRANCH   3   6
ATOM      6  C   UNL A   1      31.752  25.869  24.344  1.00  0.00     0.110 C 
BRANCH   6   7
ATOM      7  C   UNL A   1      32.696  26.100  23.157  1.00  0.00     0.112 C 
BRANCH   7   8
ATOM      8  C   UNL A   1      33.154  24.810  22.522  1.00  0.00     0.243 C 
ATOM      9  O   UNL A   1      32.960  24.654  21.312  1.00  0.00    -0.273 OA
BRANCH   8  10
ATOM     10  N   UNL A   1      33.631  23.803  23.342  1.00  0.00    -0.222 N 
ATOM     11  C   UNL A   1      32.903  22.756  24.075  1.00  0.00     0.183 C 
ATOM     12  C   UNL A   1      33.890  22.316  25.163  1.00  0.00     0.095 C 
ATOM     13  C   UNL A   1      35.095  23.093  24.751  1.00  0.00     0.081 C 
ATOM     14  N   UNL A   1      34.895  23.972  23.833  1.00  0.00    -0.173 NA
BRANCH  11  15
ATOM     15  C   UNL A   1      32.471  21.604  23.239  1.00  0.00     0.129 A 
ATOM     16  C   UNL A   1      32.525  18.035  23.223  1.00  0.00     0.087 C 
ATOM     17  C   UNL A   1      32.338  19.447  22.841  1.00  0.00     0.101 A 
ATOM     18  C   UNL A   1      31.784  20.073  21.749  1.00  0.00     0.045 A 
ATOM     19  O   UNL A   1      32.777  20.370  23.738  1.00  0.00    -0.464 OA
ATOM     20  C   UNL A   1      31.878  21.465  21.999  1.00  0.00     0.048 A 
ENDBRANCH  11  15
BRANCH  13  21
ATOM     21  C   UNL A   1      36.389  22.889  25.338  1.00  0.00     0.050 A 
ATOM     22  C   UNL A   1      37.444  23.941  26.145  1.00  0.00     0.022 A 
ATOM     23  S   UNL A   1      37.250  20.781  25.008  1.00  0.00    -0.142 S 
ATOM     24  C   UNL A   1      39.125  23.272  26.620  1.00  0.00     0.012 A 
ATOM     25  C   UNL A   1      39.356  21.595  26.125  1.00  0.00     0.065 A 
ENDBRANCH  13  21
ENDBRANCH   8  10
ENDBRANCH   7   8
ENDBRANCH   6   7
ENDBRANCH   3   6
ENDBRANCH   1   2
BRANCH   1  26
ATOM     26  C   UNL A   1      31.994  28.497  26.676  1.00  0.00     0.042 C 
BRANCH  26  27
ATOM     27  C   UNL A   1      33.199  28.969  27.511  1.00  0.00     0.118 C 
BRANCH  27  28
ATOM     28  N   UNL A   1      33.371  30.396  27.769  1.00  0.00    -0.352 N 
ATOM     29  C   UNL A   1      34.408  31.088  28.399  1.00  0.00     0.251 C 
ATOM     30  H   UNL A   1      32.635  30.963  27.445  1.00  0.00     0.163 HD
ATOM     31  O   UNL A   1      34.229  32.281  28.648  1.00  0.00    -0.269 OA
BRANCH  29  32
ATOM     32  C   UNL A   1      35.704  30.329  28.910  1.00  0.00     0.039 A 
ATOM     33  C   UNL A   1      36.696  30.275  27.455  1.00  0.00     0.014 A 
ATOM     34  C   UNL A   1      36.547  29.556  30.621  1.00  0.00     0.014 A 
ATOM     35  C   UNL A   1      38.265  29.684  27.586  1.00  0.00     0.010 A 
ATOM     36  C   UNL A   1      38.211  28.986  30.535  1.00  0.00     0.010 A 
ATOM     37  C   UNL A   1      39.023  29.121  29.037  1.00  0.00    -0.014 A 
BRANCH  37  38
ATOM     38  C   UNL A   1      40.503  28.853  28.971  1.00  0.00     0.031 A 
ATOM     39  C   UNL A   1      41.488  29.933  29.332  1.00  0.00     0.074 A 
ATOM     40  C   UNL A   1      40.965  27.652  28.548  1.00  0.00     0.049 A 
ATOM     41  N   UNL A   1      42.791  29.937  29.204  1.00  0.00    -0.248 NA
ATOM     42  C   UNL A   1      40.943  31.192  29.864  1.00  0.00     0.031 C 
ATOM     43  C   UNL A   1      40.144  26.519  28.105  1.00  0.00     0.029 A 
ATOM     44  N   UNL A   1      42.247  27.161  28.435  1.00  0.00    -0.354 N 
ATOM     45  C   UNL A   1      43.205  31.211  29.577  1.00  0.00     0.074 A 
ATOM     46  C   UNL A   1      42.013  31.972  29.869  1.00  0.00     0.031 C 
ATOM     47  C   UNL A   1      40.920  25.449  27.885  1.00  0.00     0.029 A 
ATOM     48  C   UNL A   1      42.312  25.842  28.031  1.00  0.00     0.049 A 
ATOM     49  H   UNL A   1      43.047  27.703  28.625  1.00  0.00     0.167 HD
ATOM     50  C   UNL A   1      44.462  31.697  29.705  1.00  0.00     0.031 A 
ATOM     51  C   UNL A   1      43.361  25.037  27.766  1.00  0.00     0.031 A 
ATOM     52  C   UNL A   1      45.649  30.917  29.475  1.00  0.00     0.049 A 
ATOM     53  C   UNL A   1      44.746  25.609  27.894  1.00  0.00     0.074 A 
ATOM     54  C   UNL A   1      46.969  31.300  29.625  1.00  0.00     0.029 A 
ATOM     55  N   UNL A   1      45.659  29.594  29.061  1.00  0.00    -0.354 N 
ATOM     56  N   UNL A   1      45.107  26.810  28.279  1.00  0.00    -0.248 NA
ATOM     57  C   UNL A   1      45.865  24.723  27.547  1.00  0.00     0.031 C 
ATOM     58  C   UNL A   1      47.778  30.232  29.234  1.00  0.00     0.029 A 
ATOM     59  C   UNL A   1      46.964  29.155  28.922  1.00  0.00     0.049 A 
ATOM     60  H   UNL A   1      44.857  29.049  28.891  1.00  0.00     0.167 HD
ATOM     61  C   UNL A   1      46.496  26.814  28.244  1.00  0.00     0.074 A 
ATOM     62  C   UNL A   1      46.909  25.488  27.832  1.00  0.00     0.031 C 
ATOM     63  C   UNL A   1      47.354  27.826  28.521  1.00  0.00     0.031 A 
BRANCH  50  64
ATOM     64  C   UNL A   1      44.617  33.140  30.111  1.00  0.00    -0.014 A 
ATOM     65  C   UNL A   1      44.738  33.514  31.463  1.00  0.00     0.010 A 
ATOM     66  C   UNL A   1      44.676  34.139  29.121  1.00  0.00     0.010 A 
ATOM     67  C   UNL A   1      44.869  34.858  31.818  1.00  0.00     0.020 A 
ATOM     68  C   UNL A   1      44.848  35.481  29.470  1.00  0.00     0.020 A 
ATOM     69  C   UNL A   1      44.929  35.833  30.818  1.00  0.00     0.054 A 
BRANCH  69  70
ATOM     70  S   UNL A   1      45.150  37.563  31.311  1.00  0.00     0.124 S 
ATOM     71  O   UNL A   1      46.300  37.962  30.502  1.00  0.00    -0.237 OA
ATOM     72  O   UNL A   1      43.877  38.166  30.929  1.00  0.00    -0.237 OA
ATOM     73  O   UNL A   1      45.398  37.487  32.747  1.00  0.00    -0.744 OA
ENDBRANCH  69  70
ENDBRANCH  50  64
BRANCH  51  74
ATOM     74  C   UNL A   1      43.158  23.624  27.317  1.00  0.00    -0.014 A 
ATOM     75  C   UNL A   1      42.807  22.616  28.236  1.00  0.00     0.010 A 
ATOM     76  C   UNL A   1      43.341  23.266  25.967  1.00  0.00     0.010 A 
ATOM     77  C   UNL A   1      42.677  21.285  27.823  1.00  0.00     0.020 A 
ATOM     78  C   UNL A   1      43.170  21.944  25.542  1.00  0.00     0.020 A 
ATOM     79  C   UNL A   1      42.856  20.958  26.477  1.00  0.00     0.054 A 
BRANCH  79  80
ATOM     80  S   UNL A   1      42.653  19.229  25.961  1.00  0.00     0.124 S 
ATOM     81  O   UNL A   1      43.747  19.064  25.009  1.00  0.00    -0.237 OA
ATOM     82  O   UNL A   1      42.798  18.507  27.222  1.00  0.00    -0.237 OA
ATOM     83  O   UNL A   1      41.311  19.198  25.383  1.00  0.00    -0.744 OA
ENDBRANCH  79  80
ENDBRANCH  51  74
BRANCH  63  84
ATOM     84  C   UNL A   1      48.827  27.529  28.437  1.00  0.00    -0.014 A 
ATOM     85  C   UNL A   1      49.554  27.093  29.558  1.00  0.00     0.010 A 
ATOM     86  C   UNL A   1      49.477  27.631  27.193  1.00  0.00     0.010 A 
ATOM     87  C   UNL A   1      50.913  26.796  29.443  1.00  0.00     0.020 A 
ATOM     88  C   UNL A   1      50.825  27.294  27.066  1.00  0.00     0.020 A 
ATOM     89  C   UNL A   1      51.538  26.892  28.196  1.00  0.00     0.054 A 
BRANCH  89  90
ATOM     90  S   UNL A   1      53.290  26.446  28.066  1.00  0.00     0.124 S 
ATOM     91  O   UNL A   1      53.581  25.959  29.412  1.00  0.00    -0.237 OA
ATOM     92  O   UNL A   1      53.280  25.429  27.017  1.00  0.00    -0.237 OA
ATOM     93  O   UNL A   1      53.943  27.701  27.703  1.00  0.00    -0.744 OA
ENDBRANCH  89  90
ENDBRANCH  63  84
ENDBRANCH  37  38
ENDBRANCH  29  32
ENDBRANCH  27  28
ENDBRANCH  26  27
ENDBRANCH   1  26
TORSDOF 18
ENDMDL
