MODEL 1
REMARK VINA RESULT:     -12.7      0.000      0.000
REMARK SMILES CCCn1nc(C(=O)NCCCNC(=O)c2ccc(-c3c4nc(c(-c5ccc(S(=O)(=O)[O-])cc5)c5ccc([nH]5)c(-c5ccc(S(=O)(=O)[O-])cc5)c5nc(c(-c6ccc(S(=O)(=O)[O-])cc6)c6ccc3[nH]6)C=C5)C=C4)cc2)c2c1CC[C@@H]([NH+]1CC[NH+](Cc3ccccn3)CC1)C2
REMARK SMILES IDX 11 1 10 2 9 3 7 4 8 5 6 7 4 8 5 9 77 10 76 11 78 12 94 13
REMARK SMILES IDX 79 14 80 15 3 16 2 17 1 18 81 19 82 20 93 21 83 23 92 24
REMARK SMILES IDX 84 25 85 27 86 28 87 29 91 30 88 31 90 32 89 33 12 34 13 35
REMARK SMILES IDX 14 36 15 38 16 39 17 40 75 41 18 42 74 43 19 44 20 45 21 46
REMARK SMILES IDX 68 47 22 48 73 49 67 50 69 51 23 52 72 53 66 54 65 55 24 57
REMARK SMILES IDX 54 58 35 59 53 60 36 61 39 62 52 63 70 64 37 65 38 66 51 68
REMARK SMILES IDX 71 69 40 70 25 71 26 72 34 73 27 74 33 75 28 76 29 77 30 78
REMARK SMILES IDX 31 79 32 80 55 81 56 82 64 83 57 84 63 85 58 86 59 87 60 88
REMARK SMILES IDX 61 89 62 90 41 91 42 92 50 93 43 94 49 95 44 96 45 97 46 98
REMARK SMILES IDX 47 99 48 100
REMARK H PARENT 9 6 81 22 84 26 13 37 69 56 39 67
REMARK Flexibility Score: inf
ROOT
ATOM      1  C   UNL A   1      35.076  30.412  27.640  1.00  0.00     0.042 C 
ENDROOT
BRANCH   1   2
ATOM      2  C   UNL A   1      33.707  30.397  26.909  1.00  0.00     0.118 C 
BRANCH   2   3
ATOM      3  N   UNL A   1      32.655  29.593  27.577  1.00  0.00    -0.351 N 
ATOM      4  C   UNL A   1      31.776  28.539  27.315  1.00  0.00     0.272 C 
ATOM      5  O   UNL A   1      31.300  28.052  28.349  1.00  0.00    -0.267 OA
ATOM      6  H   UNL A   1      32.539  29.901  28.506  1.00  0.00     0.163 HD
BRANCH   4   7
ATOM      7  C   UNL A   1      31.347  28.013  25.972  1.00  0.00     0.153 A 
ATOM      8  N   UNL A   1      30.963  28.125  23.784  1.00  0.00    -0.269 N 
ATOM      9  N   UNL A   1      31.060  28.849  24.943  1.00  0.00    -0.167 NA
ATOM     10  C   UNL A   1      30.896  26.772  24.003  1.00  0.00     0.043 A 
ATOM     11  C   UNL A   1      31.323  26.701  25.467  1.00  0.00     0.012 A 
ATOM     12  C   UNL A   1      30.979  25.248  22.770  1.00  0.00     0.062 C 
ATOM     13  C   UNL A   1      31.958  25.344  26.303  1.00  0.00     0.105 C 
ATOM     14  C   UNL A   1      31.880  23.456  23.730  1.00  0.00     0.072 C 
ATOM     15  C   UNL A   1      32.609  23.835  25.508  1.00  0.00     0.189 C 
BRANCH   8  16
ATOM     16  C   UNL A   1      30.888  28.880  22.545  1.00  0.00     0.144 C 
BRANCH  16  17
ATOM     17  C   UNL A   1      29.512  29.421  22.131  1.00  0.00     0.020 C 
ATOM     18  C   UNL A   1      29.171  30.780  22.709  1.00  0.00     0.006 C 
ENDBRANCH  16  17
ENDBRANCH   8  16
BRANCH  15  19
ATOM     19  N   UNL A   1      34.104  23.787  25.670  1.00  0.00    -0.323 N 
ATOM     20  C   UNL A   1      35.028  23.769  24.509  1.00  0.00     0.324 C 
ATOM     21  C   UNL A   1      34.561  22.871  26.713  1.00  0.00     0.324 C 
ATOM     22  H   UNL A   1      34.197  24.763  25.954  1.00  0.00     0.348 HD
ATOM     23  C   UNL A   1      35.562  22.400  23.991  1.00  0.00     0.324 C 
ATOM     24  C   UNL A   1      35.300  21.588  26.238  1.00  0.00     0.324 C 
ATOM     25  N   UNL A   1      35.243  21.242  24.816  1.00  0.00    -0.321 N 
ATOM     26  H   UNL A   1      35.990  20.561  24.687  1.00  0.00     0.348 HD
BRANCH  25  27
ATOM     27  C   UNL A   1      34.153  20.372  24.345  1.00  0.00     0.319 C 
BRANCH  27  28
ATOM     28  C   UNL A   1      34.031  18.960  24.872  1.00  0.00     0.095 A 
ATOM     29  C   UNL A   1      35.271  17.797  24.631  1.00  0.00     0.030 A 
ATOM     30  N   UNL A   1      32.530  18.407  25.381  1.00  0.00    -0.255 NA
ATOM     31  C   UNL A   1      34.809  15.889  24.817  1.00  0.00     0.004 A 
ATOM     32  C   UNL A   1      32.169  16.769  25.578  1.00  0.00     0.111 A 
ATOM     33  C   UNL A   1      33.201  15.463  25.328  1.00  0.00     0.020 A 
ENDBRANCH  27  28
ENDBRANCH  25  27
ENDBRANCH  15  19
ENDBRANCH   4   7
ENDBRANCH   2   3
ENDBRANCH   1   2
BRANCH   1  34
ATOM     34  C   UNL A   1      35.728  31.726  27.985  1.00  0.00     0.118 C 
BRANCH  34  35
ATOM     35  N   UNL A   1      35.088  32.427  29.102  1.00  0.00    -0.352 N 
ATOM     36  C   UNL A   1      35.250  32.144  30.450  1.00  0.00     0.251 C 
ATOM     37  H   UNL A   1      34.486  33.172  28.873  1.00  0.00     0.163 HD
ATOM     38  O   UNL A   1      34.389  32.447  31.266  1.00  0.00    -0.269 OA
BRANCH  36  39
ATOM     39  C   UNL A   1      36.476  31.433  30.854  1.00  0.00     0.039 A 
ATOM     40  C   UNL A   1      36.539  30.041  30.899  1.00  0.00     0.014 A 
ATOM     41  C   UNL A   1      37.616  32.206  31.039  1.00  0.00     0.014 A 
ATOM     42  C   UNL A   1      37.793  29.440  31.002  1.00  0.00     0.010 A 
ATOM     43  C   UNL A   1      38.844  31.616  30.901  1.00  0.00     0.010 A 
ATOM     44  C   UNL A   1      38.952  30.235  30.945  1.00  0.00    -0.014 A 
BRANCH  44  45
ATOM     45  C   UNL A   1      40.275  29.629  30.803  1.00  0.00     0.031 A 
ATOM     46  C   UNL A   1      40.952  29.323  32.089  1.00  0.00     0.074 A 
ATOM     47  C   UNL A   1      40.802  29.206  29.631  1.00  0.00     0.049 A 
ATOM     48  N   UNL A   1      41.884  30.017  32.652  1.00  0.00    -0.248 NA
ATOM     49  C   UNL A   1      40.419  28.241  32.934  1.00  0.00     0.031 C 
ATOM     50  C   UNL A   1      40.165  29.161  28.307  1.00  0.00     0.029 A 
ATOM     51  N   UNL A   1      42.008  28.621  29.394  1.00  0.00    -0.354 N 
ATOM     52  C   UNL A   1      42.253  29.298  33.780  1.00  0.00     0.074 A 
ATOM     53  C   UNL A   1      41.177  28.370  34.027  1.00  0.00     0.031 C 
ATOM     54  C   UNL A   1      40.881  28.365  27.483  1.00  0.00     0.029 A 
ATOM     55  C   UNL A   1      42.119  28.015  28.147  1.00  0.00     0.049 A 
ATOM     56  H   UNL A   1      42.742  28.627  30.051  1.00  0.00     0.167 HD
ATOM     57  C   UNL A   1      43.542  29.305  34.222  1.00  0.00     0.031 A 
ATOM     58  C   UNL A   1      43.157  27.276  27.682  1.00  0.00     0.031 A 
ATOM     59  C   UNL A   1      44.312  30.352  33.590  1.00  0.00     0.049 A 
ATOM     60  C   UNL A   1      44.346  27.668  28.471  1.00  0.00     0.074 A 
ATOM     61  C   UNL A   1      44.178  31.721  33.460  1.00  0.00     0.029 A 
ATOM     62  N   UNL A   1      45.191  29.962  32.607  1.00  0.00    -0.354 N 
ATOM     63  N   UNL A   1      44.887  28.853  28.406  1.00  0.00    -0.248 NA
ATOM     64  C   UNL A   1      44.679  26.896  29.654  1.00  0.00     0.031 C 
ATOM     65  C   UNL A   1      44.604  32.009  32.129  1.00  0.00     0.029 A 
ATOM     66  C   UNL A   1      45.057  30.823  31.549  1.00  0.00     0.049 A 
ATOM     67  H   UNL A   1      45.809  29.197  32.653  1.00  0.00     0.167 HD
ATOM     68  C   UNL A   1      45.238  29.150  29.715  1.00  0.00     0.074 A 
ATOM     69  C   UNL A   1      45.197  27.866  30.412  1.00  0.00     0.031 C 
ATOM     70  C   UNL A   1      45.251  30.440  30.165  1.00  0.00     0.031 A 
BRANCH  57  71
ATOM     71  C   UNL A   1      44.213  28.101  34.845  1.00  0.00    -0.014 A 
ATOM     72  C   UNL A   1      44.645  27.055  34.002  1.00  0.00     0.010 A 
ATOM     73  C   UNL A   1      44.173  27.826  36.228  1.00  0.00     0.010 A 
ATOM     74  C   UNL A   1      44.936  25.782  34.510  1.00  0.00     0.020 A 
ATOM     75  C   UNL A   1      44.507  26.576  36.750  1.00  0.00     0.020 A 
ATOM     76  C   UNL A   1      44.852  25.550  35.883  1.00  0.00     0.054 A 
BRANCH  76  77
ATOM     77  S   UNL A   1      45.142  23.885  36.522  1.00  0.00     0.124 S 
ATOM     78  O   UNL A   1      44.141  23.109  35.797  1.00  0.00    -0.237 OA
ATOM     79  O   UNL A   1      46.532  23.647  36.140  1.00  0.00    -0.237 OA
ATOM     80  O   UNL A   1      44.912  24.027  37.957  1.00  0.00    -0.744 OA
ENDBRANCH  76  77
ENDBRANCH  57  71
BRANCH  58  81
ATOM     81  C   UNL A   1      43.129  26.088  26.795  1.00  0.00    -0.014 A 
ATOM     82  C   UNL A   1      43.930  26.041  25.637  1.00  0.00     0.010 A 
ATOM     83  C   UNL A   1      42.553  24.881  27.240  1.00  0.00     0.010 A 
ATOM     84  C   UNL A   1      44.220  24.820  25.007  1.00  0.00     0.020 A 
ATOM     85  C   UNL A   1      42.829  23.662  26.610  1.00  0.00     0.020 A 
ATOM     86  C   UNL A   1      43.689  23.632  25.515  1.00  0.00     0.054 A 
BRANCH  86  87
ATOM     87  S   UNL A   1      44.242  22.042  24.831  1.00  0.00     0.124 S 
ATOM     88  O   UNL A   1      44.363  22.340  23.407  1.00  0.00    -0.237 OA
ATOM     89  O   UNL A   1      45.499  21.811  25.537  1.00  0.00    -0.237 OA
ATOM     90  O   UNL A   1      43.161  21.122  25.183  1.00  0.00    -0.744 OA
ENDBRANCH  86  87
ENDBRANCH  58  81
BRANCH  70  91
ATOM     91  C   UNL A   1      45.261  31.562  29.150  1.00  0.00    -0.014 A 
ATOM     92  C   UNL A   1      46.422  32.090  28.551  1.00  0.00     0.010 A 
ATOM     93  C   UNL A   1      44.011  32.019  28.696  1.00  0.00     0.010 A 
ATOM     94  C   UNL A   1      46.329  33.075  27.553  1.00  0.00     0.020 A 
ATOM     95  C   UNL A   1      43.911  32.981  27.690  1.00  0.00     0.020 A 
ATOM     96  C   UNL A   1      45.071  33.516  27.132  1.00  0.00     0.054 A 
BRANCH  96  97
ATOM     97  S   UNL A   1      44.949  34.770  25.826  1.00  0.00     0.124 S 
ATOM     98  O   UNL A   1      43.533  34.726  25.475  1.00  0.00    -0.237 OA
ATOM     99  O   UNL A   1      45.392  35.988  26.502  1.00  0.00    -0.237 OA
ATOM    100  O   UNL A   1      45.857  34.284  24.788  1.00  0.00    -0.744 OA
ENDBRANCH  96  97
ENDBRANCH  70  91
ENDBRANCH  44  45
ENDBRANCH  36  39
ENDBRANCH  34  35
ENDBRANCH   1  34
TORSDOF 18
ENDMDL
MODEL 2
REMARK VINA RESULT:     -12.3      1.905      3.289
REMARK SMILES CCCn1nc(C(=O)NCCCNC(=O)c2ccc(-c3c4nc(c(-c5ccc(S(=O)(=O)[O-])cc5)c5ccc([nH]5)c(-c5ccc(S(=O)(=O)[O-])cc5)c5nc(c(-c6ccc(S(=O)(=O)[O-])cc6)c6ccc3[nH]6)C=C5)C=C4)cc2)c2c1CC[C@@H]([NH+]1CC[NH+](Cc3ccccn3)CC1)C2
REMARK SMILES IDX 11 1 10 2 9 3 7 4 8 5 6 7 4 8 5 9 77 10 76 11 78 12 94 13
REMARK SMILES IDX 79 14 80 15 3 16 2 17 1 18 81 19 82 20 93 21 83 23 92 24
REMARK SMILES IDX 84 25 85 27 86 28 87 29 91 30 88 31 90 32 89 33 12 34 13 35
REMARK SMILES IDX 14 36 15 38 16 39 17 40 75 41 18 42 74 43 19 44 20 45 21 46
REMARK SMILES IDX 68 47 22 48 73 49 67 50 69 51 23 52 72 53 66 54 65 55 24 57
REMARK SMILES IDX 54 58 35 59 53 60 36 61 39 62 52 63 70 64 37 65 38 66 51 68
REMARK SMILES IDX 71 69 40 70 25 71 26 72 34 73 27 74 33 75 28 76 29 77 30 78
REMARK SMILES IDX 31 79 32 80 55 81 56 82 64 83 57 84 63 85 58 86 59 87 60 88
REMARK SMILES IDX 61 89 62 90 41 91 42 92 50 93 43 94 49 95 44 96 45 97 46 98
REMARK SMILES IDX 47 99 48 100
REMARK H PARENT 9 6 81 22 84 26 13 37 69 56 39 67
REMARK Flexibility Score: inf
ROOT
ATOM      1  C   UNL A   1      33.904  30.409  27.360  1.00  0.00     0.042 C 
ENDROOT
BRANCH   1   2
ATOM      2  C   UNL A   1      33.171  30.246  26.002  1.00  0.00     0.118 C 
BRANCH   2   3
ATOM      3  N   UNL A   1      33.748  29.215  25.105  1.00  0.00    -0.351 N 
ATOM      4  C   UNL A   1      33.405  28.008  24.492  1.00  0.00     0.272 C 
ATOM      5  O   UNL A   1      34.187  27.700  23.583  1.00  0.00    -0.267 OA
ATOM      6  H   UNL A   1      34.671  29.461  24.865  1.00  0.00     0.163 HD
BRANCH   4   7
ATOM      7  C   UNL A   1      32.271  27.085  24.850  1.00  0.00     0.153 A 
ATOM      8  N   UNL A   1      30.221  26.238  24.681  1.00  0.00    -0.269 N 
ATOM      9  N   UNL A   1      30.997  27.347  24.465  1.00  0.00    -0.167 NA
ATOM     10  C   UNL A   1      30.842  25.295  25.462  1.00  0.00     0.043 A 
ATOM     11  C   UNL A   1      32.281  25.804  25.430  1.00  0.00     0.012 A 
ATOM     12  C   UNL A   1      30.349  23.450  25.913  1.00  0.00     0.062 C 
ATOM     13  C   UNL A   1      33.710  24.909  25.747  1.00  0.00     0.105 C 
ATOM     14  C   UNL A   1      32.140  22.175  26.249  1.00  0.00     0.072 C 
ATOM     15  C   UNL A   1      33.815  23.087  25.800  1.00  0.00     0.189 C 
BRANCH   8  16
ATOM     16  C   UNL A   1      28.883  26.256  24.117  1.00  0.00     0.144 C 
BRANCH  16  17
ATOM     17  C   UNL A   1      28.462  27.514  23.343  1.00  0.00     0.020 C 
ATOM     18  C   UNL A   1      27.066  28.012  23.667  1.00  0.00     0.006 C 
ENDBRANCH  16  17
ENDBRANCH   8  16
BRANCH  15  19
ATOM     19  N   UNL A   1      34.574  22.592  24.599  1.00  0.00    -0.323 N 
ATOM     20  C   UNL A   1      35.439  21.387  24.649  1.00  0.00     0.324 C 
ATOM     21  C   UNL A   1      35.202  23.651  23.814  1.00  0.00     0.324 C 
ATOM     22  H   UNL A   1      33.757  22.203  24.128  1.00  0.00     0.348 HD
ATOM     23  C   UNL A   1      36.967  21.565  24.893  1.00  0.00     0.324 C 
ATOM     24  C   UNL A   1      36.755  23.724  23.858  1.00  0.00     0.324 C 
ATOM     25  N   UNL A   1      37.456  22.938  24.876  1.00  0.00    -0.321 N 
ATOM     26  H   UNL A   1      38.424  22.912  24.558  1.00  0.00     0.348 HD
BRANCH  25  27
ATOM     27  C   UNL A   1      37.734  23.559  26.180  1.00  0.00     0.319 C 
BRANCH  27  28
ATOM     28  C   UNL A   1      39.149  23.598  26.713  1.00  0.00     0.095 A 
ATOM     29  C   UNL A   1      40.081  22.168  26.901  1.00  0.00     0.030 A 
ATOM     30  N   UNL A   1      39.698  24.992  27.470  1.00  0.00    -0.255 NA
ATOM     31  C   UNL A   1      41.638  22.222  28.110  1.00  0.00     0.004 A 
ATOM     32  C   UNL A   1      41.061  25.026  28.466  1.00  0.00     0.111 A 
ATOM     33  C   UNL A   1      42.073  23.737  28.848  1.00  0.00     0.020 A 
ENDBRANCH  27  28
ENDBRANCH  25  27
ENDBRANCH  15  19
ENDBRANCH   4   7
ENDBRANCH   2   3
ENDBRANCH   1   2
BRANCH   1  34
ATOM     34  C   UNL A   1      34.578  31.714  27.697  1.00  0.00     0.118 C 
BRANCH  34  35
ATOM     35  N   UNL A   1      34.604  32.012  29.131  1.00  0.00    -0.352 N 
ATOM     36  C   UNL A   1      35.512  31.520  30.056  1.00  0.00     0.251 C 
ATOM     37  H   UNL A   1      33.910  32.622  29.471  1.00  0.00     0.163 HD
ATOM     38  O   UNL A   1      35.226  31.445  31.244  1.00  0.00    -0.269 OA
BRANCH  36  39
ATOM     39  C   UNL A   1      36.816  31.056  29.550  1.00  0.00     0.039 A 
ATOM     40  C   UNL A   1      37.897  31.924  29.395  1.00  0.00     0.014 A 
ATOM     41  C   UNL A   1      36.972  29.686  29.380  1.00  0.00     0.014 A 
ATOM     42  C   UNL A   1      39.162  31.374  29.197  1.00  0.00     0.010 A 
ATOM     43  C   UNL A   1      38.232  29.153  29.424  1.00  0.00     0.010 A 
ATOM     44  C   UNL A   1      39.334  29.980  29.269  1.00  0.00    -0.014 A 
BRANCH  44  45
ATOM     45  C   UNL A   1      40.670  29.386  29.311  1.00  0.00     0.031 A 
ATOM     46  C   UNL A   1      41.178  29.114  30.680  1.00  0.00     0.074 A 
ATOM     47  C   UNL A   1      41.346  28.944  28.227  1.00  0.00     0.049 A 
ATOM     48  N   UNL A   1      42.023  29.829  31.344  1.00  0.00    -0.248 NA
ATOM     49  C   UNL A   1      40.549  28.044  31.474  1.00  0.00     0.031 C 
ATOM     50  C   UNL A   1      40.886  28.865  26.833  1.00  0.00     0.029 A 
ATOM     51  N   UNL A   1      42.578  28.368  28.160  1.00  0.00    -0.354 N 
ATOM     52  C   UNL A   1      42.250  29.137  32.526  1.00  0.00     0.074 A 
ATOM     53  C   UNL A   1      41.158  28.203  32.652  1.00  0.00     0.031 C 
ATOM     54  C   UNL A   1      41.708  28.060  26.125  1.00  0.00     0.029 A 
ATOM     55  C   UNL A   1      42.853  27.737  26.951  1.00  0.00     0.049 A 
ATOM     56  H   UNL A   1      43.220  28.395  28.905  1.00  0.00     0.167 HD
ATOM     57  C   UNL A   1      43.471  29.168  33.129  1.00  0.00     0.031 A 
ATOM     58  C   UNL A   1      43.948  27.000  26.640  1.00  0.00     0.031 A 
ATOM     59  C   UNL A   1      44.307  30.209  32.579  1.00  0.00     0.049 A 
ATOM     60  C   UNL A   1      45.023  27.421  27.566  1.00  0.00     0.074 A 
ATOM     61  C   UNL A   1      44.180  31.574  32.403  1.00  0.00     0.029 A 
ATOM     62  N   UNL A   1      45.309  29.808  31.725  1.00  0.00    -0.354 N 
ATOM     63  N   UNL A   1      45.558  28.610  27.546  1.00  0.00    -0.248 NA
ATOM     64  C   UNL A   1      45.206  26.677  28.799  1.00  0.00     0.031 C 
ATOM     65  C   UNL A   1      44.772  31.839  31.132  1.00  0.00     0.029 A 
ATOM     66  C   UNL A   1      45.305  30.646  30.640  1.00  0.00     0.049 A 
ATOM     67  H   UNL A   1      45.921  29.052  31.868  1.00  0.00     0.167 HD
ATOM     68  C   UNL A   1      45.735  28.938  28.882  1.00  0.00     0.074 A 
ATOM     69  C   UNL A   1      45.615  27.668  29.597  1.00  0.00     0.031 C 
ATOM     70  C   UNL A   1      45.679  30.236  29.302  1.00  0.00     0.031 A 
BRANCH  57  71
ATOM     71  C   UNL A   1      44.066  27.984  33.859  1.00  0.00    -0.014 A 
ATOM     72  C   UNL A   1      44.602  26.921  33.102  1.00  0.00     0.010 A 
ATOM     73  C   UNL A   1      43.857  27.742  35.233  1.00  0.00     0.010 A 
ATOM     74  C   UNL A   1      44.834  25.663  33.674  1.00  0.00     0.020 A 
ATOM     75  C   UNL A   1      44.130  26.507  35.823  1.00  0.00     0.020 A 
ATOM     76  C   UNL A   1      44.584  25.464  35.031  1.00  0.00     0.054 A 
BRANCH  76  77
ATOM     77  S   UNL A   1      44.800  23.817  35.742  1.00  0.00     0.124 S 
ATOM     78  O   UNL A   1      46.238  23.615  35.594  1.00  0.00    -0.237 OA
ATOM     79  O   UNL A   1      44.322  24.008  37.109  1.00  0.00    -0.237 OA
ATOM     80  O   UNL A   1      43.955  22.971  34.905  1.00  0.00    -0.744 OA
ENDBRANCH  76  77
ENDBRANCH  57  71
BRANCH  58  81
ATOM     81  C   UNL A   1      44.045  25.793  25.783  1.00  0.00    -0.014 A 
ATOM     82  C   UNL A   1      45.301  25.310  25.367  1.00  0.00     0.010 A 
ATOM     83  C   UNL A   1      42.932  24.943  25.624  1.00  0.00     0.010 A 
ATOM     84  C   UNL A   1      45.452  23.994  24.901  1.00  0.00     0.020 A 
ATOM     85  C   UNL A   1      43.073  23.633  25.150  1.00  0.00     0.020 A 
ATOM     86  C   UNL A   1      44.339  23.153  24.821  1.00  0.00     0.054 A 
BRANCH  86  87
ATOM     87  S   UNL A   1      44.575  21.394  24.429  1.00  0.00     0.124 S 
ATOM     88  O   UNL A   1      43.430  20.772  25.087  1.00  0.00    -0.237 OA
ATOM     89  O   UNL A   1      44.546  21.386  22.969  1.00  0.00    -0.237 OA
ATOM     90  O   UNL A   1      45.875  21.082  25.020  1.00  0.00    -0.744 OA
ENDBRANCH  86  87
ENDBRANCH  58  81
BRANCH  70  91
ATOM     91  C   UNL A   1      45.812  31.338  28.273  1.00  0.00    -0.014 A 
ATOM     92  C   UNL A   1      44.729  31.954  27.615  1.00  0.00     0.010 A 
ATOM     93  C   UNL A   1      47.103  31.853  28.056  1.00  0.00     0.010 A 
ATOM     94  C   UNL A   1      44.942  33.030  26.737  1.00  0.00     0.020 A 
ATOM     95  C   UNL A   1      47.319  32.934  27.202  1.00  0.00     0.020 A 
ATOM     96  C   UNL A   1      46.240  33.511  26.534  1.00  0.00     0.054 A 
BRANCH  96  97
ATOM     97  S   UNL A   1      46.514  34.915  25.419  1.00  0.00     0.124 S 
ATOM     98  O   UNL A   1      47.936  34.803  25.110  1.00  0.00    -0.237 OA
ATOM     99  O   UNL A   1      45.605  34.633  24.310  1.00  0.00    -0.237 OA
ATOM    100  O   UNL A   1      46.148  36.080  26.226  1.00  0.00    -0.744 OA
ENDBRANCH  96  97
ENDBRANCH  70  91
ENDBRANCH  44  45
ENDBRANCH  36  39
ENDBRANCH  34  35
ENDBRANCH   1  34
TORSDOF 18
ENDMDL
MODEL 3
REMARK VINA RESULT:     -11.9      1.551      2.181
REMARK SMILES CCCn1nc(C(=O)NCCCNC(=O)c2ccc(-c3c4nc(c(-c5ccc(S(=O)(=O)[O-])cc5)c5ccc([nH]5)c(-c5ccc(S(=O)(=O)[O-])cc5)c5nc(c(-c6ccc(S(=O)(=O)[O-])cc6)c6ccc3[nH]6)C=C5)C=C4)cc2)c2c1CC[C@@H]([NH+]1CC[NH+](Cc3ccccn3)CC1)C2
REMARK SMILES IDX 11 1 10 2 9 3 7 4 8 5 6 7 4 8 5 9 77 10 76 11 78 12 94 13
REMARK SMILES IDX 79 14 80 15 3 16 2 17 1 18 81 19 82 20 93 21 83 23 92 24
REMARK SMILES IDX 84 25 85 27 86 28 87 29 91 30 88 31 90 32 89 33 12 34 13 35
REMARK SMILES IDX 14 36 15 38 16 39 17 40 75 41 18 42 74 43 19 44 20 45 21 46
REMARK SMILES IDX 68 47 22 48 73 49 67 50 69 51 23 52 72 53 66 54 65 55 24 57
REMARK SMILES IDX 54 58 35 59 53 60 36 61 39 62 52 63 70 64 37 65 38 66 51 68
REMARK SMILES IDX 71 69 40 70 25 71 26 72 34 73 27 74 33 75 28 76 29 77 30 78
REMARK SMILES IDX 31 79 32 80 55 81 56 82 64 83 57 84 63 85 58 86 59 87 60 88
REMARK SMILES IDX 61 89 62 90 41 91 42 92 50 93 43 94 49 95 44 96 45 97 46 98
REMARK SMILES IDX 47 99 48 100
REMARK H PARENT 9 6 81 22 84 26 13 37 69 56 39 67
REMARK Flexibility Score: inf
ROOT
ATOM      1  C   UNL A   1      32.230  30.042  27.187  1.00  0.00     0.042 C 
ENDROOT
BRANCH   1   2
ATOM      2  C   UNL A   1      32.013  30.149  25.653  1.00  0.00     0.118 C 
BRANCH   2   3
ATOM      3  N   UNL A   1      33.159  29.688  24.831  1.00  0.00    -0.351 N 
ATOM      4  C   UNL A   1      33.456  28.777  23.814  1.00  0.00     0.272 C 
ATOM      5  O   UNL A   1      34.546  29.011  23.275  1.00  0.00    -0.267 OA
ATOM      6  H   UNL A   1      33.971  30.184  25.083  1.00  0.00     0.163 HD
BRANCH   4   7
ATOM      7  C   UNL A   1      32.646  27.586  23.381  1.00  0.00     0.153 A 
ATOM      8  N   UNL A   1      31.673  26.225  21.915  1.00  0.00    -0.269 N 
ATOM      9  N   UNL A   1      32.125  27.501  22.132  1.00  0.00    -0.167 NA
ATOM     10  C   UNL A   1      31.605  25.479  23.065  1.00  0.00     0.043 A 
ATOM     11  C   UNL A   1      32.419  26.352  24.017  1.00  0.00     0.012 A 
ATOM     12  C   UNL A   1      31.267  23.569  23.359  1.00  0.00     0.062 C 
ATOM     13  C   UNL A   1      33.194  25.868  25.469  1.00  0.00     0.105 C 
ATOM     14  C   UNL A   1      32.312  22.815  25.172  1.00  0.00     0.072 C 
ATOM     15  C   UNL A   1      33.525  24.140  25.954  1.00  0.00     0.189 C 
BRANCH   8  16
ATOM     16  C   UNL A   1      31.294  25.888  20.554  1.00  0.00     0.144 C 
BRANCH  16  17
ATOM     17  C   UNL A   1      32.422  25.523  19.578  1.00  0.00     0.020 C 
ATOM     18  C   UNL A   1      31.972  25.331  18.142  1.00  0.00     0.006 C 
ENDBRANCH  16  17
ENDBRANCH   8  16
BRANCH  15  19
ATOM     19  N   UNL A   1      35.001  23.867  25.866  1.00  0.00    -0.323 N 
ATOM     20  C   UNL A   1      35.718  23.792  24.568  1.00  0.00     0.324 C 
ATOM     21  C   UNL A   1      35.471  22.829  26.780  1.00  0.00     0.324 C 
ATOM     22  H   UNL A   1      35.286  24.798  26.170  1.00  0.00     0.348 HD
ATOM     23  C   UNL A   1      35.950  22.397  23.913  1.00  0.00     0.324 C 
ATOM     24  C   UNL A   1      35.922  21.487  26.138  1.00  0.00     0.324 C 
ATOM     25  N   UNL A   1      35.590  21.246  24.732  1.00  0.00    -0.321 N 
ATOM     26  H   UNL A   1      36.196  20.474  24.453  1.00  0.00     0.348 HD
BRANCH  25  27
ATOM     27  C   UNL A   1      34.321  20.575  24.410  1.00  0.00     0.319 C 
BRANCH  27  28
ATOM     28  C   UNL A   1      34.089  19.146  24.850  1.00  0.00     0.095 A 
ATOM     29  C   UNL A   1      35.248  17.913  24.560  1.00  0.00     0.030 A 
ATOM     30  N   UNL A   1      32.542  18.672  25.299  1.00  0.00    -0.255 NA
ATOM     31  C   UNL A   1      34.650  16.036  24.624  1.00  0.00     0.004 A 
ATOM     32  C   UNL A   1      32.063  17.056  25.391  1.00  0.00     0.111 A 
ATOM     33  C   UNL A   1      33.005  15.696  25.081  1.00  0.00     0.020 A 
ENDBRANCH  27  28
ENDBRANCH  25  27
ENDBRANCH  15  19
ENDBRANCH   4   7
ENDBRANCH   2   3
ENDBRANCH   1   2
BRANCH   1  34
ATOM     34  C   UNL A   1      33.579  30.360  27.777  1.00  0.00     0.118 C 
BRANCH  34  35
ATOM     35  N   UNL A   1      34.151  31.621  27.296  1.00  0.00    -0.352 N 
ATOM     36  C   UNL A   1      35.346  32.191  27.710  1.00  0.00     0.251 C 
ATOM     37  H   UNL A   1      33.639  32.109  26.612  1.00  0.00     0.163 HD
ATOM     38  O   UNL A   1      35.536  33.396  27.614  1.00  0.00    -0.269 OA
BRANCH  36  39
ATOM     39  C   UNL A   1      36.358  31.298  28.301  1.00  0.00     0.039 A 
ATOM     40  C   UNL A   1      36.492  29.969  27.901  1.00  0.00     0.014 A 
ATOM     41  C   UNL A   1      37.279  31.880  29.165  1.00  0.00     0.014 A 
ATOM     42  C   UNL A   1      37.641  29.278  28.282  1.00  0.00     0.010 A 
ATOM     43  C   UNL A   1      38.498  31.281  29.332  1.00  0.00     0.010 A 
ATOM     44  C   UNL A   1      38.673  29.958  28.953  1.00  0.00    -0.014 A 
BRANCH  44  45
ATOM     45  C   UNL A   1      39.982  29.339  29.149  1.00  0.00     0.031 A 
ATOM     46  C   UNL A   1      40.350  29.115  30.571  1.00  0.00     0.074 A 
ATOM     47  C   UNL A   1      40.749  28.836  28.154  1.00  0.00     0.049 A 
ATOM     48  N   UNL A   1      41.146  29.841  31.283  1.00  0.00    -0.248 NA
ATOM     49  C   UNL A   1      39.621  28.095  31.343  1.00  0.00     0.031 C 
ATOM     50  C   UNL A   1      40.423  28.706  26.727  1.00  0.00     0.029 A 
ATOM     51  N   UNL A   1      41.966  28.231  28.231  1.00  0.00    -0.354 N 
ATOM     52  C   UNL A   1      41.240  29.196  32.509  1.00  0.00     0.074 A 
ATOM     53  C   UNL A   1      40.118  28.292  32.567  1.00  0.00     0.031 C 
ATOM     54  C   UNL A   1      41.288  27.854  26.136  1.00  0.00     0.029 A 
ATOM     55  C   UNL A   1      42.340  27.543  27.081  1.00  0.00     0.049 A 
ATOM     56  H   UNL A   1      42.535  28.278  29.033  1.00  0.00     0.167 HD
ATOM     57  C   UNL A   1      42.398  29.227  33.226  1.00  0.00     0.031 A 
ATOM     58  C   UNL A   1      43.441  26.770  26.909  1.00  0.00     0.031 A 
ATOM     59  C   UNL A   1      43.309  30.226  32.717  1.00  0.00     0.049 A 
ATOM     60  C   UNL A   1      44.432  27.209  27.917  1.00  0.00     0.074 A 
ATOM     61  C   UNL A   1      43.234  31.584  32.474  1.00  0.00     0.029 A 
ATOM     62  N   UNL A   1      44.378  29.767  31.982  1.00  0.00    -0.354 N 
ATOM     63  N   UNL A   1      44.996  28.384  27.899  1.00  0.00    -0.248 NA
ATOM     64  C   UNL A   1      44.478  26.514  29.192  1.00  0.00     0.031 C 
ATOM     65  C   UNL A   1      43.952  31.781  31.257  1.00  0.00     0.029 A 
ATOM     66  C   UNL A   1      44.499  30.557  30.869  1.00  0.00     0.049 A 
ATOM     67  H   UNL A   1      44.954  29.005  32.215  1.00  0.00     0.167 HD
ATOM     68  C   UNL A   1      45.053  28.765  29.232  1.00  0.00     0.074 A 
ATOM     69  C   UNL A   1      44.832  27.531  29.983  1.00  0.00     0.031 C 
ATOM     70  C   UNL A   1      44.990  30.082  29.591  1.00  0.00     0.031 A 
BRANCH  57  71
ATOM     71  C   UNL A   1      42.890  28.063  34.059  1.00  0.00    -0.014 A 
ATOM     72  C   UNL A   1      43.215  28.290  35.413  1.00  0.00     0.010 A 
ATOM     73  C   UNL A   1      43.318  26.842  33.498  1.00  0.00     0.010 A 
ATOM     74  C   UNL A   1      43.999  27.380  36.135  1.00  0.00     0.020 A 
ATOM     75  C   UNL A   1      44.058  25.907  34.223  1.00  0.00     0.020 A 
ATOM     76  C   UNL A   1      44.425  26.199  35.528  1.00  0.00     0.054 A 
BRANCH  76  77
ATOM     77  S   UNL A   1      45.509  25.073  36.435  1.00  0.00     0.124 S 
ATOM     78  O   UNL A   1      44.671  24.705  37.572  1.00  0.00    -0.237 OA
ATOM     79  O   UNL A   1      45.748  24.019  35.453  1.00  0.00    -0.237 OA
ATOM     80  O   UNL A   1      46.671  25.900  36.750  1.00  0.00    -0.744 OA
ENDBRANCH  76  77
ENDBRANCH  57  71
BRANCH  58  81
ATOM     81  C   UNL A   1      43.589  25.526  26.115  1.00  0.00    -0.014 A 
ATOM     82  C   UNL A   1      44.771  25.276  25.391  1.00  0.00     0.010 A 
ATOM     83  C   UNL A   1      42.702  24.449  26.310  1.00  0.00     0.010 A 
ATOM     84  C   UNL A   1      45.097  23.979  24.963  1.00  0.00     0.020 A 
ATOM     85  C   UNL A   1      43.015  23.155  25.877  1.00  0.00     0.020 A 
ATOM     86  C   UNL A   1      44.227  22.919  25.234  1.00  0.00     0.054 A 
BRANCH  86  87
ATOM     87  S   UNL A   1      44.754  21.217  24.873  1.00  0.00     0.124 S 
ATOM     88  O   UNL A   1      46.130  21.208  25.360  1.00  0.00    -0.237 OA
ATOM     89  O   UNL A   1      43.805  20.419  25.645  1.00  0.00    -0.237 OA
ATOM     90  O   UNL A   1      44.609  21.113  23.423  1.00  0.00    -0.744 OA
ENDBRANCH  86  87
ENDBRANCH  58  81
BRANCH  70  91
ATOM     91  C   UNL A   1      45.248  31.135  28.535  1.00  0.00    -0.014 A 
ATOM     92  C   UNL A   1      44.300  31.569  27.588  1.00  0.00     0.010 A 
ATOM     93  C   UNL A   1      46.486  31.800  28.591  1.00  0.00     0.010 A 
ATOM     94  C   UNL A   1      44.601  32.615  26.700  1.00  0.00     0.020 A 
ATOM     95  C   UNL A   1      46.784  32.854  27.727  1.00  0.00     0.020 A 
ATOM     96  C   UNL A   1      45.846  33.249  26.774  1.00  0.00     0.054 A 
BRANCH  96  97
ATOM     97  S   UNL A   1      46.228  34.616  25.643  1.00  0.00     0.124 S 
ATOM     98  O   UNL A   1      45.915  35.792  26.449  1.00  0.00    -0.237 OA
ATOM     99  O   UNL A   1      47.645  34.411  25.352  1.00  0.00    -0.237 OA
ATOM    100  O   UNL A   1      45.333  34.391  24.508  1.00  0.00    -0.744 OA
ENDBRANCH  96  97
ENDBRANCH  70  91
ENDBRANCH  44  45
ENDBRANCH  36  39
ENDBRANCH  34  35
ENDBRANCH   1  34
TORSDOF 18
ENDMDL
