MODEL 1
REMARK VINA RESULT:     -11.2      0.000      0.000
REMARK SMILES CC[C@](C)(NC(=O)c1cccc2ncccc12)C(=O)NCCCNC(=O)c1ccc(-c2c3nc(c(-c4ccc(S(=O)(=O)[O-])cc4)c4ccc([nH]4)c(-c4ccc(S(=O)(=O)[O-])cc4)c4nc(c(-c5ccc(S(=O)(=O)[O-])cc5)c5ccc2[nH]5)C=C4)C=C3)cc1
REMARK SMILES IDX 22 1 21 2 20 3 18 4 19 5 3 7 4 8 2 9 1 10 5 11 6 12 7 14
REMARK SMILES IDX 8 15 9 16 17 17 10 18 12 19 16 20 11 21 13 22 15 23 14 24
REMARK SMILES IDX 23 25 24 26 25 27 26 29 27 30 28 31 86 32 29 33 85 34 30 35
REMARK SMILES IDX 31 36 32 37 79 38 33 39 84 40 78 41 80 42 34 43 83 44 77 45
REMARK SMILES IDX 76 46 35 48 65 49 46 50 64 51 47 52 50 53 63 54 81 55 48 56
REMARK SMILES IDX 49 57 62 59 82 60 51 61 36 62 37 63 45 64 38 65 44 66 39 67
REMARK SMILES IDX 40 68 41 69 42 70 43 71 66 72 67 73 75 74 68 75 74 76 69 77
REMARK SMILES IDX 70 78 71 79 72 80 73 81 52 82 53 83 61 84 54 85 60 86 55 87
REMARK SMILES IDX 56 88 57 89 58 90 59 91
REMARK H PARENT 20 6 5 13 24 28 80 47 50 58
REMARK Flexibility Score: inf
ROOT
ATOM      1  C   UNL A   1      32.113  27.703  27.491  1.00  0.00     0.042 C 
ENDROOT
BRANCH   1   2
ATOM      2  C   UNL A   1      31.119  27.538  26.336  1.00  0.00     0.117 C 
BRANCH   2   3
ATOM      3  N   UNL A   1      31.564  27.838  24.978  1.00  0.00    -0.354 N 
ATOM      4  C   UNL A   1      32.131  27.096  23.968  1.00  0.00     0.245 C 
ATOM      5  O   UNL A   1      32.285  27.683  22.890  1.00  0.00    -0.272 OA
ATOM      6  H   UNL A   1      31.429  28.781  24.730  1.00  0.00     0.163 HD
BRANCH   4   7
ATOM      7  C   UNL A   1      32.493  25.588  24.122  1.00  0.00     0.116 C 
ATOM      8  C   UNL A   1      31.515  24.825  25.046  1.00  0.00     0.045 C 
BRANCH   7   9
ATOM      9  C   UNL A   1      33.884  25.592  24.860  1.00  0.00     0.035 C 
ATOM     10  C   UNL A   1      33.923  24.759  26.151  1.00  0.00     0.007 C 
ENDBRANCH   7   9
BRANCH   7  11
ATOM     11  N   UNL A   1      32.577  24.823  22.832  1.00  0.00    -0.338 N 
ATOM     12  C   UNL A   1      33.197  23.628  22.441  1.00  0.00     0.252 C 
ATOM     13  H   UNL A   1      32.087  25.258  22.097  1.00  0.00     0.164 HD
ATOM     14  O   UNL A   1      33.498  23.570  21.248  1.00  0.00    -0.269 OA
BRANCH  12  15
ATOM     15  C   UNL A   1      33.431  22.415  23.323  1.00  0.00     0.049 A 
ATOM     16  C   UNL A   1      32.409  21.483  23.426  1.00  0.00     0.014 A 
ATOM     17  C   UNL A   1      34.685  22.020  23.885  1.00  0.00     0.013 A 
ATOM     18  C   UNL A   1      32.468  20.313  24.166  1.00  0.00     0.003 A 
ATOM     19  C   UNL A   1      34.765  20.788  24.610  1.00  0.00     0.071 A 
ATOM     20  C   UNL A   1      35.918  22.697  23.746  1.00  0.00     0.013 A 
ATOM     21  C   UNL A   1      33.654  19.990  24.775  1.00  0.00     0.029 A 
ATOM     22  N   UNL A   1      35.888  20.281  25.125  1.00  0.00    -0.256 NA
ATOM     23  C   UNL A   1      37.101  22.144  24.241  1.00  0.00     0.021 A 
ATOM     24  C   UNL A   1      37.036  20.942  24.910  1.00  0.00     0.112 A 
ENDBRANCH  12  15
ENDBRANCH   7  11
ENDBRANCH   4   7
ENDBRANCH   2   3
ENDBRANCH   1   2
BRANCH   1  25
ATOM     25  C   UNL A   1      33.418  28.458  27.247  1.00  0.00     0.118 C 
BRANCH  25  26
ATOM     26  N   UNL A   1      33.340  29.887  27.456  1.00  0.00    -0.352 N 
ATOM     27  C   UNL A   1      34.318  30.749  27.889  1.00  0.00     0.251 C 
ATOM     28  H   UNL A   1      32.467  30.298  27.262  1.00  0.00     0.163 HD
ATOM     29  O   UNL A   1      34.053  31.943  28.026  1.00  0.00    -0.269 OA
BRANCH  27  30
ATOM     30  C   UNL A   1      35.668  30.250  28.236  1.00  0.00     0.039 A 
ATOM     31  C   UNL A   1      36.656  30.290  27.248  1.00  0.00     0.014 A 
ATOM     32  C   UNL A   1      35.967  29.737  29.502  1.00  0.00     0.014 A 
ATOM     33  C   UNL A   1      37.956  29.869  27.543  1.00  0.00     0.010 A 
ATOM     34  C   UNL A   1      37.279  29.358  29.808  1.00  0.00     0.010 A 
ATOM     35  C   UNL A   1      38.288  29.427  28.834  1.00  0.00    -0.014 A 
BRANCH  35  36
ATOM     36  C   UNL A   1      39.695  29.071  29.173  1.00  0.00     0.031 A 
ATOM     37  C   UNL A   1      40.607  30.072  29.829  1.00  0.00     0.074 A 
ATOM     38  C   UNL A   1      40.164  27.846  28.861  1.00  0.00     0.049 A 
ATOM     39  N   UNL A   1      41.863  29.939  30.175  1.00  0.00    -0.248 NA
ATOM     40  C   UNL A   1      40.040  31.396  30.125  1.00  0.00     0.031 C 
ATOM     41  C   UNL A   1      39.391  26.787  28.209  1.00  0.00     0.029 A 
ATOM     42  N   UNL A   1      41.404  27.283  29.045  1.00  0.00    -0.354 N 
ATOM     43  C   UNL A   1      42.240  31.161  30.723  1.00  0.00     0.074 A 
ATOM     44  C   UNL A   1      41.090  32.035  30.624  1.00  0.00     0.031 C 
ATOM     45  C   UNL A   1      40.164  25.699  28.067  1.00  0.00     0.029 A 
ATOM     46  C   UNL A   1      41.502  25.994  28.575  1.00  0.00     0.049 A 
ATOM     47  H   UNL A   1      42.152  27.757  29.475  1.00  0.00     0.167 HD
ATOM     48  C   UNL A   1      43.429  31.520  31.267  1.00  0.00     0.031 A 
ATOM     49  C   UNL A   1      42.550  25.146  28.537  1.00  0.00     0.031 A 
ATOM     50  C   UNL A   1      44.575  30.651  31.355  1.00  0.00     0.049 A 
ATOM     51  C   UNL A   1      43.874  25.585  29.102  1.00  0.00     0.074 A 
ATOM     52  C   UNL A   1      45.808  30.913  31.930  1.00  0.00     0.029 A 
ATOM     53  N   UNL A   1      44.640  29.363  30.846  1.00  0.00    -0.354 N 
ATOM     54  N   UNL A   1      44.188  26.721  29.676  1.00  0.00    -0.248 NA
ATOM     55  C   UNL A   1      44.983  24.624  29.020  1.00  0.00     0.031 C 
ATOM     56  C   UNL A   1      46.637  29.809  31.710  1.00  0.00     0.029 A 
ATOM     57  C   UNL A   1      45.901  28.831  31.060  1.00  0.00     0.049 A 
ATOM     58  H   UNL A   1      43.898  28.895  30.398  1.00  0.00     0.167 HD
ATOM     59  C   UNL A   1      45.524  26.603  30.044  1.00  0.00     0.074 A 
ATOM     60  C   UNL A   1      45.953  25.278  29.646  1.00  0.00     0.031 C 
ATOM     61  C   UNL A   1      46.323  27.511  30.658  1.00  0.00     0.031 A 
BRANCH  48  62
ATOM     62  C   UNL A   1      43.561  32.925  31.797  1.00  0.00    -0.014 A 
ATOM     63  C   UNL A   1      43.372  33.209  33.163  1.00  0.00     0.010 A 
ATOM     64  C   UNL A   1      43.933  33.968  30.930  1.00  0.00     0.010 A 
ATOM     65  C   UNL A   1      43.512  34.516  33.640  1.00  0.00     0.020 A 
ATOM     66  C   UNL A   1      44.104  35.271  31.408  1.00  0.00     0.020 A 
ATOM     67  C   UNL A   1      43.875  35.539  32.759  1.00  0.00     0.054 A 
BRANCH  67  68
ATOM     68  S   UNL A   1      44.068  37.220  33.413  1.00  0.00     0.124 S 
ATOM     69  O   UNL A   1      45.150  37.045  34.378  1.00  0.00    -0.237 OA
ATOM     70  O   UNL A   1      44.408  37.990  32.220  1.00  0.00    -0.237 OA
ATOM     71  O   UNL A   1      42.760  37.519  33.993  1.00  0.00    -0.744 OA
ENDBRANCH  67  68
ENDBRANCH  48  62
BRANCH  49  72
ATOM     72  C   UNL A   1      42.390  23.792  27.935  1.00  0.00    -0.014 A 
ATOM     73  C   UNL A   1      42.682  23.570  26.578  1.00  0.00     0.010 A 
ATOM     74  C   UNL A   1      41.946  22.713  28.723  1.00  0.00     0.010 A 
ATOM     75  C   UNL A   1      42.519  22.300  26.017  1.00  0.00     0.020 A 
ATOM     76  C   UNL A   1      41.813  21.434  28.173  1.00  0.00     0.020 A 
ATOM     77  C   UNL A   1      42.089  21.239  26.819  1.00  0.00     0.054 A 
BRANCH  77  78
ATOM     78  S   UNL A   1      41.936  19.589  26.080  1.00  0.00     0.124 S 
ATOM     79  O   UNL A   1      42.446  18.731  27.145  1.00  0.00    -0.237 OA
ATOM     80  O   UNL A   1      40.502  19.492  25.820  1.00  0.00    -0.237 OA
ATOM     81  O   UNL A   1      42.774  19.670  24.885  1.00  0.00    -0.744 OA
ENDBRANCH  77  78
ENDBRANCH  49  72
BRANCH  61  82
ATOM     82  C   UNL A   1      47.740  27.102  30.966  1.00  0.00    -0.014 A 
ATOM     83  C   UNL A   1      48.039  26.268  32.057  1.00  0.00     0.010 A 
ATOM     84  C   UNL A   1      48.782  27.505  30.109  1.00  0.00     0.010 A 
ATOM     85  C   UNL A   1      49.355  25.864  32.300  1.00  0.00     0.020 A 
ATOM     86  C   UNL A   1      50.094  27.079  30.330  1.00  0.00     0.020 A 
ATOM     87  C   UNL A   1      50.374  26.269  31.432  1.00  0.00     0.054 A 
BRANCH  87  88
ATOM     88  S   UNL A   1      52.063  25.680  31.735  1.00  0.00     0.124 S 
ATOM     89  O   UNL A   1      52.519  26.588  32.783  1.00  0.00    -0.237 OA
ATOM     90  O   UNL A   1      51.848  24.296  32.153  1.00  0.00    -0.237 OA
ATOM     91  O   UNL A   1      52.725  25.839  30.442  1.00  0.00    -0.744 OA
ENDBRANCH  87  88
ENDBRANCH  61  82
ENDBRANCH  35  36
ENDBRANCH  27  30
ENDBRANCH  25  26
ENDBRANCH   1  25
TORSDOF 16
ENDMDL
MODEL 2
REMARK VINA RESULT:     -11.1      0.905      8.339
REMARK SMILES CC[C@](C)(NC(=O)c1cccc2ncccc12)C(=O)NCCCNC(=O)c1ccc(-c2c3nc(c(-c4ccc(S(=O)(=O)[O-])cc4)c4ccc([nH]4)c(-c4ccc(S(=O)(=O)[O-])cc4)c4nc(c(-c5ccc(S(=O)(=O)[O-])cc5)c5ccc2[nH]5)C=C4)C=C3)cc1
REMARK SMILES IDX 22 1 21 2 20 3 18 4 19 5 3 7 4 8 2 9 1 10 5 11 6 12 7 14
REMARK SMILES IDX 8 15 9 16 17 17 10 18 12 19 16 20 11 21 13 22 15 23 14 24
REMARK SMILES IDX 23 25 24 26 25 27 26 29 27 30 28 31 86 32 29 33 85 34 30 35
REMARK SMILES IDX 31 36 32 37 79 38 33 39 84 40 78 41 80 42 34 43 83 44 77 45
REMARK SMILES IDX 76 46 35 48 65 49 46 50 64 51 47 52 50 53 63 54 81 55 48 56
REMARK SMILES IDX 49 57 62 59 82 60 51 61 36 62 37 63 45 64 38 65 44 66 39 67
REMARK SMILES IDX 40 68 41 69 42 70 43 71 66 72 67 73 75 74 68 75 74 76 69 77
REMARK SMILES IDX 70 78 71 79 72 80 73 81 52 82 53 83 61 84 54 85 60 86 55 87
REMARK SMILES IDX 56 88 57 89 58 90 59 91
REMARK H PARENT 20 6 5 13 24 28 80 47 50 58
REMARK Flexibility Score: inf
ROOT
ATOM      1  C   UNL A   1      33.857  27.998  25.607  1.00  0.00     0.042 C 
ENDROOT
BRANCH   1   2
ATOM      2  C   UNL A   1      32.611  27.672  24.775  1.00  0.00     0.117 C 
BRANCH   2   3
ATOM      3  N   UNL A   1      31.431  27.144  25.453  1.00  0.00    -0.354 N 
ATOM      4  C   UNL A   1      30.984  25.879  25.755  1.00  0.00     0.245 C 
ATOM      5  O   UNL A   1      29.959  25.821  26.446  1.00  0.00    -0.272 OA
ATOM      6  H   UNL A   1      30.819  27.851  25.762  1.00  0.00     0.163 HD
BRANCH   4   7
ATOM      7  C   UNL A   1      31.745  24.586  25.334  1.00  0.00     0.116 C 
ATOM      8  C   UNL A   1      30.860  23.319  25.397  1.00  0.00     0.045 C 
BRANCH   7   9
ATOM      9  C   UNL A   1      32.853  24.406  26.437  1.00  0.00     0.035 C 
ATOM     10  C   UNL A   1      32.795  23.066  27.186  1.00  0.00     0.007 C 
ENDBRANCH   7   9
BRANCH   7  11
ATOM     11  N   UNL A   1      32.360  24.632  23.964  1.00  0.00    -0.338 N 
ATOM     12  C   UNL A   1      33.619  24.305  23.444  1.00  0.00     0.252 C 
ATOM     13  H   UNL A   1      31.738  24.968  23.277  1.00  0.00     0.164 HD
ATOM     14  O   UNL A   1      33.941  24.935  22.435  1.00  0.00    -0.269 OA
BRANCH  12  15
ATOM     15  C   UNL A   1      34.539  23.212  23.959  1.00  0.00     0.049 A 
ATOM     16  C   UNL A   1      35.724  23.596  24.568  1.00  0.00     0.014 A 
ATOM     17  C   UNL A   1      34.204  21.827  24.079  1.00  0.00     0.013 A 
ATOM     18  C   UNL A   1      36.659  22.730  25.110  1.00  0.00     0.003 A 
ATOM     19  C   UNL A   1      35.146  20.934  24.682  1.00  0.00     0.071 A 
ATOM     20  C   UNL A   1      32.977  21.225  23.718  1.00  0.00     0.013 A 
ATOM     21  C   UNL A   1      36.363  21.391  25.139  1.00  0.00     0.029 A 
ATOM     22  N   UNL A   1      34.926  19.636  24.910  1.00  0.00    -0.256 NA
ATOM     23  C   UNL A   1      32.727  19.880  24.000  1.00  0.00     0.021 A 
ATOM     24  C   UNL A   1      33.720  19.137  24.597  1.00  0.00     0.112 A 
ENDBRANCH  12  15
ENDBRANCH   7  11
ENDBRANCH   4   7
ENDBRANCH   2   3
ENDBRANCH   1   2
BRANCH   1  25
ATOM     25  C   UNL A   1      33.708  28.218  27.111  1.00  0.00     0.118 C 
BRANCH  25  26
ATOM     26  N   UNL A   1      33.516  29.596  27.507  1.00  0.00    -0.352 N 
ATOM     27  C   UNL A   1      34.423  30.470  28.055  1.00  0.00     0.251 C 
ATOM     28  H   UNL A   1      32.611  29.956  27.365  1.00  0.00     0.163 HD
ATOM     29  O   UNL A   1      34.062  31.610  28.347  1.00  0.00    -0.269 OA
BRANCH  27  30
ATOM     30  C   UNL A   1      35.811  30.041  28.339  1.00  0.00     0.039 A 
ATOM     31  C   UNL A   1      36.745  30.114  27.301  1.00  0.00     0.014 A 
ATOM     32  C   UNL A   1      36.198  29.562  29.594  1.00  0.00     0.014 A 
ATOM     33  C   UNL A   1      38.077  29.760  27.535  1.00  0.00     0.010 A 
ATOM     34  C   UNL A   1      37.540  29.251  29.838  1.00  0.00     0.010 A 
ATOM     35  C   UNL A   1      38.495  29.354  28.813  1.00  0.00    -0.014 A 
BRANCH  35  36
ATOM     36  C   UNL A   1      39.932  29.070  29.084  1.00  0.00     0.031 A 
ATOM     37  C   UNL A   1      40.532  27.733  28.741  1.00  0.00     0.074 A 
ATOM     38  C   UNL A   1      40.697  30.013  29.671  1.00  0.00     0.049 A 
ATOM     39  N   UNL A   1      41.757  27.308  28.924  1.00  0.00    -0.248 NA
ATOM     40  C   UNL A   1      39.640  26.743  28.120  1.00  0.00     0.031 C 
ATOM     41  C   UNL A   1      40.237  31.345  30.072  1.00  0.00     0.029 A 
ATOM     42  N   UNL A   1      42.021  29.998  30.039  1.00  0.00    -0.354 N 
ATOM     43  C   UNL A   1      41.784  26.001  28.450  1.00  0.00     0.074 A 
ATOM     44  C   UNL A   1      40.440  25.690  28.009  1.00  0.00     0.031 C 
ATOM     45  C   UNL A   1      41.263  32.024  30.607  1.00  0.00     0.029 A 
ATOM     46  C   UNL A   1      42.444  31.164  30.634  1.00  0.00     0.049 A 
ATOM     47  H   UNL A   1      42.612  29.225  29.889  1.00  0.00     0.167 HD
ATOM     48  C   UNL A   1      42.830  25.142  28.379  1.00  0.00     0.031 A 
ATOM     49  C   UNL A   1      43.639  31.504  31.157  1.00  0.00     0.031 A 
ATOM     50  C   UNL A   1      44.164  25.450  28.828  1.00  0.00     0.049 A 
ATOM     51  C   UNL A   1      44.772  30.514  31.112  1.00  0.00     0.074 A 
ATOM     52  C   UNL A   1      45.298  24.659  28.755  1.00  0.00     0.029 A 
ATOM     53  N   UNL A   1      44.544  26.633  29.445  1.00  0.00    -0.354 N 
ATOM     54  N   UNL A   1      44.792  29.309  30.598  1.00  0.00    -0.248 NA
ATOM     55  C   UNL A   1      46.047  30.935  31.711  1.00  0.00     0.031 C 
ATOM     56  C   UNL A   1      46.347  25.336  29.386  1.00  0.00     0.029 A 
ATOM     57  C   UNL A   1      45.884  26.578  29.790  1.00  0.00     0.049 A 
ATOM     58  H   UNL A   1      43.948  27.399  29.612  1.00  0.00     0.167 HD
ATOM     59  C   UNL A   1      46.086  28.835  30.791  1.00  0.00     0.074 A 
ATOM     60  C   UNL A   1      46.824  29.892  31.451  1.00  0.00     0.031 C 
ATOM     61  C   UNL A   1      46.613  27.634  30.451  1.00  0.00     0.031 A 
BRANCH  48  62
ATOM     62  C   UNL A   1      42.573  23.771  27.808  1.00  0.00    -0.014 A 
ATOM     63  C   UNL A   1      42.694  23.522  26.428  1.00  0.00     0.010 A 
ATOM     64  C   UNL A   1      42.259  22.703  28.668  1.00  0.00     0.010 A 
ATOM     65  C   UNL A   1      42.465  22.240  25.917  1.00  0.00     0.020 A 
ATOM     66  C   UNL A   1      42.059  21.413  28.165  1.00  0.00     0.020 A 
ATOM     67  C   UNL A   1      42.146  21.194  26.789  1.00  0.00     0.054 A 
BRANCH  67  68
ATOM     68  S   UNL A   1      41.875  19.540  26.097  1.00  0.00     0.124 S 
ATOM     69  O   UNL A   1      42.704  19.577  24.894  1.00  0.00    -0.237 OA
ATOM     70  O   UNL A   1      42.355  18.665  27.163  1.00  0.00    -0.237 OA
ATOM     71  O   UNL A   1      40.434  19.495  25.858  1.00  0.00    -0.744 OA
ENDBRANCH  67  68
ENDBRANCH  48  62
BRANCH  49  72
ATOM     72  C   UNL A   1      43.824  32.846  31.778  1.00  0.00    -0.014 A 
ATOM     73  C   UNL A   1      43.486  33.068  33.125  1.00  0.00     0.010 A 
ATOM     74  C   UNL A   1      44.346  33.912  31.021  1.00  0.00     0.010 A 
ATOM     75  C   UNL A   1      43.652  34.333  33.698  1.00  0.00     0.020 A 
ATOM     76  C   UNL A   1      44.544  35.170  31.600  1.00  0.00     0.020 A 
ATOM     77  C   UNL A   1      44.183  35.374  32.932  1.00  0.00     0.054 A 
BRANCH  77  78
ATOM     78  S   UNL A   1      44.438  36.992  33.714  1.00  0.00     0.124 S 
ATOM     79  O   UNL A   1      45.793  36.864  34.242  1.00  0.00    -0.237 OA
ATOM     80  O   UNL A   1      44.280  37.913  32.592  1.00  0.00    -0.237 OA
ATOM     81  O   UNL A   1      43.379  37.058  34.719  1.00  0.00    -0.744 OA
ENDBRANCH  77  78
ENDBRANCH  49  72
BRANCH  61  82
ATOM     82  C   UNL A   1      48.069  27.395  30.759  1.00  0.00    -0.014 A 
ATOM     83  C   UNL A   1      49.078  27.768  29.853  1.00  0.00     0.010 A 
ATOM     84  C   UNL A   1      48.436  26.851  32.004  1.00  0.00     0.010 A 
ATOM     85  C   UNL A   1      50.425  27.579  30.177  1.00  0.00     0.020 A 
ATOM     86  C   UNL A   1      49.782  26.690  32.344  1.00  0.00     0.020 A 
ATOM     87  C   UNL A   1      50.768  27.045  31.423  1.00  0.00     0.054 A 
BRANCH  87  88
ATOM     88  S   UNL A   1      52.525  26.867  31.841  1.00  0.00     0.124 S 
ATOM     89  O   UNL A   1      53.151  27.839  30.949  1.00  0.00    -0.237 OA
ATOM     90  O   UNL A   1      52.551  27.211  33.261  1.00  0.00    -0.237 OA
ATOM     91  O   UNL A   1      52.815  25.467  31.539  1.00  0.00    -0.744 OA
ENDBRANCH  87  88
ENDBRANCH  61  82
ENDBRANCH  35  36
ENDBRANCH  27  30
ENDBRANCH  25  26
ENDBRANCH   1  25
TORSDOF 16
ENDMDL
MODEL 3
REMARK VINA RESULT:     -11.0      2.492      9.266
REMARK SMILES CC[C@](C)(NC(=O)c1cccc2ncccc12)C(=O)NCCCNC(=O)c1ccc(-c2c3nc(c(-c4ccc(S(=O)(=O)[O-])cc4)c4ccc([nH]4)c(-c4ccc(S(=O)(=O)[O-])cc4)c4nc(c(-c5ccc(S(=O)(=O)[O-])cc5)c5ccc2[nH]5)C=C4)C=C3)cc1
REMARK SMILES IDX 22 1 21 2 20 3 18 4 19 5 3 7 4 8 2 9 1 10 5 11 6 12 7 14
REMARK SMILES IDX 8 15 9 16 17 17 10 18 12 19 16 20 11 21 13 22 15 23 14 24
REMARK SMILES IDX 23 25 24 26 25 27 26 29 27 30 28 31 86 32 29 33 85 34 30 35
REMARK SMILES IDX 31 36 32 37 79 38 33 39 84 40 78 41 80 42 34 43 83 44 77 45
REMARK SMILES IDX 76 46 35 48 65 49 46 50 64 51 47 52 50 53 63 54 81 55 48 56
REMARK SMILES IDX 49 57 62 59 82 60 51 61 36 62 37 63 45 64 38 65 44 66 39 67
REMARK SMILES IDX 40 68 41 69 42 70 43 71 66 72 67 73 75 74 68 75 74 76 69 77
REMARK SMILES IDX 70 78 71 79 72 80 73 81 52 82 53 83 61 84 54 85 60 86 55 87
REMARK SMILES IDX 56 88 57 89 58 90 59 91
REMARK H PARENT 20 6 5 13 24 28 80 47 50 58
REMARK Flexibility Score: inf
ROOT
ATOM      1  C   UNL A   1      36.009  23.533  23.891  1.00  0.00     0.042 C 
ENDROOT
BRANCH   1   2
ATOM      2  C   UNL A   1      34.928  22.447  23.927  1.00  0.00     0.117 C 
BRANCH   2   3
ATOM      3  N   UNL A   1      33.605  22.754  23.391  1.00  0.00    -0.354 N 
ATOM      4  C   UNL A   1      32.431  23.214  23.940  1.00  0.00     0.245 C 
ATOM      5  O   UNL A   1      31.520  23.457  23.138  1.00  0.00    -0.272 OA
ATOM      6  H   UNL A   1      33.538  22.597  22.421  1.00  0.00     0.163 HD
BRANCH   4   7
ATOM      7  C   UNL A   1      32.258  23.496  25.464  1.00  0.00     0.116 C 
ATOM      8  C   UNL A   1      33.224  24.583  25.989  1.00  0.00     0.045 C 
BRANCH   7   9
ATOM      9  C   UNL A   1      32.687  22.151  26.162  1.00  0.00     0.035 C 
ATOM     10  C   UNL A   1      33.110  22.303  27.631  1.00  0.00     0.007 C 
ENDBRANCH   7   9
BRANCH   7  11
ATOM     11  N   UNL A   1      30.871  23.893  25.880  1.00  0.00    -0.338 N 
ATOM     12  C   UNL A   1      30.203  25.117  26.018  1.00  0.00     0.252 C 
ATOM     13  H   UNL A   1      30.304  23.120  26.107  1.00  0.00     0.164 HD
ATOM     14  O   UNL A   1      29.292  25.118  26.848  1.00  0.00    -0.269 OA
BRANCH  12  15
ATOM     15  C   UNL A   1      30.448  26.365  25.189  1.00  0.00     0.049 A 
ATOM     16  C   UNL A   1      29.823  26.455  23.954  1.00  0.00     0.014 A 
ATOM     17  C   UNL A   1      31.082  27.562  25.648  1.00  0.00     0.013 A 
ATOM     18  C   UNL A   1      29.921  27.530  23.087  1.00  0.00     0.003 A 
ATOM     19  C   UNL A   1      31.144  28.694  24.774  1.00  0.00     0.071 A 
ATOM     20  C   UNL A   1      31.616  27.788  26.936  1.00  0.00     0.013 A 
ATOM     21  C   UNL A   1      30.610  28.640  23.506  1.00  0.00     0.029 A 
ATOM     22  N   UNL A   1      31.651  29.884  25.108  1.00  0.00    -0.256 NA
ATOM     23  C   UNL A   1      32.101  29.046  27.303  1.00  0.00     0.021 A 
ATOM     24  C   UNL A   1      32.090  30.054  26.364  1.00  0.00     0.112 A 
ENDBRANCH  12  15
ENDBRANCH   7  11
ENDBRANCH   4   7
ENDBRANCH   2   3
ENDBRANCH   1   2
BRANCH   1  25
ATOM     25  C   UNL A   1      36.872  23.763  25.130  1.00  0.00     0.118 C 
BRANCH  25  26
ATOM     26  N   UNL A   1      37.894  22.764  25.352  1.00  0.00    -0.352 N 
ATOM     27  C   UNL A   1      39.065  22.872  26.062  1.00  0.00     0.251 C 
ATOM     28  H   UNL A   1      37.728  21.887  24.937  1.00  0.00     0.163 HD
ATOM     29  O   UNL A   1      39.826  21.906  26.121  1.00  0.00    -0.269 OA
BRANCH  27  30
ATOM     30  C   UNL A   1      39.441  24.147  26.714  1.00  0.00     0.039 A 
ATOM     31  C   UNL A   1      39.040  24.350  28.038  1.00  0.00     0.014 A 
ATOM     32  C   UNL A   1      40.162  25.139  26.042  1.00  0.00     0.014 A 
ATOM     33  C   UNL A   1      39.409  25.520  28.706  1.00  0.00     0.010 A 
ATOM     34  C   UNL A   1      40.568  26.290  26.728  1.00  0.00     0.010 A 
ATOM     35  C   UNL A   1      40.202  26.489  28.069  1.00  0.00    -0.014 A 
BRANCH  35  36
ATOM     36  C   UNL A   1      40.675  27.689  28.814  1.00  0.00     0.031 A 
ATOM     37  C   UNL A   1      42.039  27.715  29.450  1.00  0.00     0.074 A 
ATOM     38  C   UNL A   1      39.858  28.754  28.945  1.00  0.00     0.049 A 
ATOM     39  N   UNL A   1      42.604  28.666  30.150  1.00  0.00    -0.248 NA
ATOM     40  C   UNL A   1      42.872  26.514  29.286  1.00  0.00     0.031 C 
ATOM     41  C   UNL A   1      38.505  28.854  28.393  1.00  0.00     0.029 A 
ATOM     42  N   UNL A   1      40.042  29.956  29.586  1.00  0.00    -0.354 N 
ATOM     43  C   UNL A   1      43.854  28.180  30.518  1.00  0.00     0.074 A 
ATOM     44  C   UNL A   1      43.947  26.832  29.996  1.00  0.00     0.031 C 
ATOM     45  C   UNL A   1      37.991  30.055  28.700  1.00  0.00     0.029 A 
ATOM     46  C   UNL A   1      38.955  30.796  29.509  1.00  0.00     0.049 A 
ATOM     47  H   UNL A   1      40.874  30.194  30.055  1.00  0.00     0.167 HD
ATOM     48  C   UNL A   1      44.838  28.800  31.214  1.00  0.00     0.031 A 
ATOM     49  C   UNL A   1      38.745  32.018  30.040  1.00  0.00     0.031 A 
ATOM     50  C   UNL A   1      44.739  30.138  31.741  1.00  0.00     0.049 A 
ATOM     51  C   UNL A   1      39.834  32.665  30.854  1.00  0.00     0.074 A 
ATOM     52  C   UNL A   1      45.701  30.865  32.421  1.00  0.00     0.029 A 
ATOM     53  N   UNL A   1      43.613  30.944  31.661  1.00  0.00    -0.354 N 
ATOM     54  N   UNL A   1      41.033  32.213  31.131  1.00  0.00    -0.248 NA
ATOM     55  C   UNL A   1      39.543  33.990  31.419  1.00  0.00     0.031 C 
ATOM     56  C   UNL A   1      45.136  32.084  32.810  1.00  0.00     0.029 A 
ATOM     57  C   UNL A   1      43.844  32.146  32.310  1.00  0.00     0.049 A 
ATOM     58  H   UNL A   1      42.774  30.699  31.208  1.00  0.00     0.167 HD
ATOM     59  C   UNL A   1      41.648  33.209  31.884  1.00  0.00     0.074 A 
ATOM     60  C   UNL A   1      40.696  34.293  32.001  1.00  0.00     0.031 C 
ATOM     61  C   UNL A   1      42.890  33.221  32.427  1.00  0.00     0.031 A 
BRANCH  48  62
ATOM     62  C   UNL A   1      46.108  28.029  31.468  1.00  0.00    -0.014 A 
ATOM     63  C   UNL A   1      46.245  27.203  32.600  1.00  0.00     0.010 A 
ATOM     64  C   UNL A   1      47.160  28.088  30.536  1.00  0.00     0.010 A 
ATOM     65  C   UNL A   1      47.425  26.484  32.813  1.00  0.00     0.020 A 
ATOM     66  C   UNL A   1      48.330  27.347  30.730  1.00  0.00     0.020 A 
ATOM     67  C   UNL A   1      48.462  26.563  31.877  1.00  0.00     0.054 A 
BRANCH  67  68
ATOM     68  S   UNL A   1      49.972  25.602  32.173  1.00  0.00     0.124 S 
ATOM     69  O   UNL A   1      50.924  26.645  32.546  1.00  0.00    -0.237 OA
ATOM     70  O   UNL A   1      49.572  24.702  33.252  1.00  0.00    -0.237 OA
ATOM     71  O   UNL A   1      50.229  24.955  30.888  1.00  0.00    -0.744 OA
ENDBRANCH  67  68
ENDBRANCH  48  62
BRANCH  49  72
ATOM     72  C   UNL A   1      37.444  32.709  29.823  1.00  0.00    -0.014 A 
ATOM     73  C   UNL A   1      37.146  33.313  28.589  1.00  0.00     0.010 A 
ATOM     74  C   UNL A   1      36.488  32.763  30.856  1.00  0.00     0.010 A 
ATOM     75  C   UNL A   1      35.927  33.970  28.396  1.00  0.00     0.020 A 
ATOM     76  C   UNL A   1      35.254  33.391  30.656  1.00  0.00     0.020 A 
ATOM     77  C   UNL A   1      34.988  34.001  29.430  1.00  0.00     0.054 A 
BRANCH  77  78
ATOM     78  S   UNL A   1      33.392  34.814  29.137  1.00  0.00     0.124 S 
ATOM     79  O   UNL A   1      33.804  36.126  28.648  1.00  0.00    -0.237 OA
ATOM     80  O   UNL A   1      32.769  33.937  28.148  1.00  0.00    -0.237 OA
ATOM     81  O   UNL A   1      32.756  34.806  30.453  1.00  0.00    -0.744 OA
ENDBRANCH  77  78
ENDBRANCH  49  72
BRANCH  61  82
ATOM     82  C   UNL A   1      43.312  34.456  33.181  1.00  0.00    -0.014 A 
ATOM     83  C   UNL A   1      43.789  35.595  32.508  1.00  0.00     0.010 A 
ATOM     84  C   UNL A   1      43.165  34.501  34.580  1.00  0.00     0.010 A 
ATOM     85  C   UNL A   1      44.133  36.746  33.222  1.00  0.00     0.020 A 
ATOM     86  C   UNL A   1      43.479  35.660  35.294  1.00  0.00     0.020 A 
ATOM     87  C   UNL A   1      43.972  36.773  34.611  1.00  0.00     0.054 A 
BRANCH  87  88
ATOM     88  S   UNL A   1      44.369  38.301  35.506  1.00  0.00     0.124 S 
ATOM     89  O   UNL A   1      43.717  38.078  36.794  1.00  0.00    -0.237 OA
ATOM     90  O   UNL A   1      45.829  38.285  35.531  1.00  0.00    -0.237 OA
ATOM     91  O   UNL A   1      43.775  39.351  34.682  1.00  0.00    -0.744 OA
ENDBRANCH  87  88
ENDBRANCH  61  82
ENDBRANCH  35  36
ENDBRANCH  27  30
ENDBRANCH  25  26
ENDBRANCH   1  25
TORSDOF 16
ENDMDL
