MODEL 1
REMARK VINA RESULT:     -10.8      0.000      0.000
REMARK SMILES Cn1ccnc1[C@@H]1[C@@H](C(=O)NCCCNC(=O)c2ccc(-c3c4nc(c(-c5ccc(S(=O)(=O)[O-])cc5)c5ccc([nH]5)c(-c5ccc(S(=O)(=O)[O-])cc5)c5nc(c(-c6ccc(S(=O)(=O)[O-])cc6)c6ccc3[nH]6)C=C5)C=C4)cc2)CC(=O)N1CCCOC1CCCCC1
REMARK SMILES IDX 12 1 11 2 9 3 10 4 8 6 7 7 81 8 78 9 79 10 80 11 6 12 1 13
REMARK SMILES IDX 2 14 3 15 4 16 5 17 82 18 83 19 84 20 85 21 86 22 87 23
REMARK SMILES IDX 91 24 88 25 90 26 89 27 13 28 14 29 15 30 16 31 17 33 18 34
REMARK SMILES IDX 19 35 77 36 20 37 76 38 21 39 22 40 23 41 70 42 24 43 75 44
REMARK SMILES IDX 69 45 71 46 25 47 74 48 68 49 67 50 26 52 56 53 37 54 55 55
REMARK SMILES IDX 38 56 41 57 54 58 72 59 39 60 40 61 53 63 73 64 42 65 27 66
REMARK SMILES IDX 28 67 36 68 29 69 35 70 30 71 31 72 32 73 33 74 34 75 57 76
REMARK SMILES IDX 58 77 66 78 59 79 65 80 60 81 61 82 62 83 63 84 64 85 43 86
REMARK SMILES IDX 44 87 52 88 45 89 51 90 46 91 47 92 48 93 49 94 50 95
REMARK H PARENT 11 5 15 32 71 51 41 62
REMARK Flexibility Score: inf
ROOT
ATOM      1  C   UNL A   1      34.106  24.522  25.542  1.00  0.00     0.117 C 
ENDROOT
BRANCH   1   2
ATOM      2  N   UNL A   1      33.780  23.775  26.749  1.00  0.00    -0.356 N 
ATOM      3  C   UNL A   1      32.839  22.829  26.977  1.00  0.00     0.226 C 
ATOM      4  O   UNL A   1      32.755  22.343  28.106  1.00  0.00    -0.275 OA
ATOM      5  H   UNL A   1      34.338  23.994  27.530  1.00  0.00     0.163 HD
BRANCH   3   6
ATOM      6  C   UNL A   1      31.900  22.380  25.894  1.00  0.00     0.118 C 
ATOM      7  C   UNL A   1      32.659  21.870  24.673  1.00  0.00     0.164 C 
ATOM      8  N   UNL A   1      31.951  22.400  23.516  1.00  0.00    -0.332 N 
ATOM      9  C   UNL A   1      30.956  23.461  25.409  1.00  0.00     0.116 C 
ATOM     10  C   UNL A   1      30.927  23.285  23.916  1.00  0.00     0.224 C 
ATOM     11  O   UNL A   1      30.200  23.917  23.182  1.00  0.00    -0.275 OA
BRANCH   7  12
ATOM     12  C   UNL A   1      32.985  20.400  24.759  1.00  0.00     0.132 A 
ATOM     13  C   UNL A   1      35.548  20.252  24.971  1.00  0.00     0.151 C 
ATOM     14  N   UNL A   1      34.202  19.750  24.856  1.00  0.00    -0.336 N 
ATOM     15  C   UNL A   1      33.962  18.396  24.775  1.00  0.00     0.107 A 
ATOM     16  C   UNL A   1      32.616  18.270  24.572  1.00  0.00     0.131 A 
ATOM     17  N   UNL A   1      32.033  19.500  24.539  1.00  0.00    -0.239 NA
ENDBRANCH   7  12
BRANCH   8  18
ATOM     18  C   UNL A   1      32.499  22.711  22.177  1.00  0.00     0.122 C 
BRANCH  18  19
ATOM     19  C   UNL A   1      33.365  23.920  21.809  1.00  0.00     0.050 C 
BRANCH  19  20
ATOM     20  C   UNL A   1      32.837  25.304  21.431  1.00  0.00     0.162 C 
BRANCH  20  21
ATOM     21  O   UNL A   1      33.689  26.432  21.642  1.00  0.00    -0.378 OA
BRANCH  21  22
ATOM     22  C   UNL A   1      33.087  27.503  22.379  1.00  0.00     0.118 C 
ATOM     23  C   UNL A   1      31.705  27.052  22.803  1.00  0.00     0.032 C 
ATOM     24  C   UNL A   1      33.927  27.862  23.604  1.00  0.00     0.032 C 
ATOM     25  C   UNL A   1      30.966  27.900  23.805  1.00  0.00     0.003 C 
ATOM     26  C   UNL A   1      33.177  28.847  24.507  1.00  0.00     0.003 C 
ATOM     27  C   UNL A   1      31.841  28.276  24.976  1.00  0.00     0.000 C 
ENDBRANCH  21  22
ENDBRANCH  20  21
ENDBRANCH  19  20
ENDBRANCH  18  19
ENDBRANCH   8  18
ENDBRANCH   3   6
ENDBRANCH   1   2
BRANCH   1  28
ATOM     28  C   UNL A   1      35.485  24.213  25.026  1.00  0.00     0.042 C 
BRANCH  28  29
ATOM     29  C   UNL A   1      36.520  24.213  26.125  1.00  0.00     0.118 C 
BRANCH  29  30
ATOM     30  N   UNL A   1      37.467  23.111  26.001  1.00  0.00    -0.352 N 
ATOM     31  C   UNL A   1      38.815  23.097  26.266  1.00  0.00     0.251 C 
ATOM     32  H   UNL A   1      37.088  22.260  25.683  1.00  0.00     0.163 HD
ATOM     33  O   UNL A   1      39.506  22.147  25.914  1.00  0.00    -0.269 OA
BRANCH  31  34
ATOM     34  C   UNL A   1      39.417  24.260  26.948  1.00  0.00     0.039 A 
ATOM     35  C   UNL A   1      40.101  25.217  26.201  1.00  0.00     0.014 A 
ATOM     36  C   UNL A   1      39.235  24.429  28.322  1.00  0.00     0.014 A 
ATOM     37  C   UNL A   1      40.537  26.385  26.828  1.00  0.00     0.010 A 
ATOM     38  C   UNL A   1      39.535  25.649  28.906  1.00  0.00     0.010 A 
ATOM     39  C   UNL A   1      40.217  26.630  28.174  1.00  0.00    -0.014 A 
BRANCH  39  40
ATOM     40  C   UNL A   1      40.623  27.878  28.862  1.00  0.00     0.031 A 
ATOM     41  C   UNL A   1      41.994  27.969  29.481  1.00  0.00     0.074 A 
ATOM     42  C   UNL A   1      39.746  28.894  28.987  1.00  0.00     0.049 A 
ATOM     43  N   UNL A   1      42.516  28.939  30.186  1.00  0.00    -0.248 NA
ATOM     44  C   UNL A   1      42.883  26.804  29.318  1.00  0.00     0.031 C 
ATOM     45  C   UNL A   1      38.372  28.903  28.477  1.00  0.00     0.029 A 
ATOM     46  N   UNL A   1      39.882  30.120  29.587  1.00  0.00    -0.354 N 
ATOM     47  C   UNL A   1      43.775  28.489  30.567  1.00  0.00     0.074 A 
ATOM     48  C   UNL A   1      43.914  27.138  30.077  1.00  0.00     0.031 C 
ATOM     49  C   UNL A   1      37.808  30.090  28.751  1.00  0.00     0.029 A 
ATOM     50  C   UNL A   1      38.760  30.909  29.494  1.00  0.00     0.049 A 
ATOM     51  H   UNL A   1      40.707  30.408  30.041  1.00  0.00     0.167 HD
ATOM     52  C   UNL A   1      44.746  29.153  31.236  1.00  0.00     0.031 A 
ATOM     53  C   UNL A   1      38.523  32.150  29.959  1.00  0.00     0.031 A 
ATOM     54  C   UNL A   1      44.613  30.509  31.694  1.00  0.00     0.049 A 
ATOM     55  C   UNL A   1      39.618  32.870  30.701  1.00  0.00     0.074 A 
ATOM     56  C   UNL A   1      45.558  31.297  32.327  1.00  0.00     0.029 A 
ATOM     57  N   UNL A   1      43.468  31.278  31.564  1.00  0.00    -0.354 N 
ATOM     58  N   UNL A   1      40.830  32.453  30.989  1.00  0.00    -0.248 NA
ATOM     59  C   UNL A   1      39.320  34.230  31.169  1.00  0.00     0.031 C 
ATOM     60  C   UNL A   1      44.965  32.526  32.628  1.00  0.00     0.029 A 
ATOM     61  C   UNL A   1      43.672  32.526  32.125  1.00  0.00     0.049 A 
ATOM     62  H   UNL A   1      42.633  30.980  31.136  1.00  0.00     0.167 HD
ATOM     63  C   UNL A   1      41.447  33.513  31.646  1.00  0.00     0.074 A 
ATOM     64  C   UNL A   1      40.481  34.592  31.697  1.00  0.00     0.031 C 
ATOM     65  C   UNL A   1      42.699  33.587  32.160  1.00  0.00     0.031 A 
BRANCH  52  66
ATOM     66  C   UNL A   1      46.035  28.423  31.503  1.00  0.00    -0.014 A 
ATOM     67  C   UNL A   1      46.194  27.624  32.652  1.00  0.00     0.010 A 
ATOM     68  C   UNL A   1      47.091  28.506  30.578  1.00  0.00     0.010 A 
ATOM     69  C   UNL A   1      47.396  26.953  32.887  1.00  0.00     0.020 A 
ATOM     70  C   UNL A   1      48.283  27.811  30.793  1.00  0.00     0.020 A 
ATOM     71  C   UNL A   1      48.433  27.050  31.956  1.00  0.00     0.054 A 
BRANCH  71  72
ATOM     72  S   UNL A   1      49.969  26.138  32.271  1.00  0.00     0.124 S 
ATOM     73  O   UNL A   1      49.778  24.939  31.460  1.00  0.00    -0.237 OA
ATOM     74  O   UNL A   1      50.993  27.064  31.792  1.00  0.00    -0.237 OA
ATOM     75  O   UNL A   1      49.955  25.921  33.716  1.00  0.00    -0.744 OA
ENDBRANCH  71  72
ENDBRANCH  52  66
BRANCH  53  76
ATOM     76  C   UNL A   1      37.205  32.801  29.722  1.00  0.00    -0.014 A 
ATOM     77  C   UNL A   1      36.944  33.470  28.513  1.00  0.00     0.010 A 
ATOM     78  C   UNL A   1      36.200  32.755  30.707  1.00  0.00     0.010 A 
ATOM     79  C   UNL A   1      35.715  34.103  28.303  1.00  0.00     0.020 A 
ATOM     80  C   UNL A   1      34.959  33.360  30.488  1.00  0.00     0.020 A 
ATOM     81  C   UNL A   1      34.731  34.045  29.293  1.00  0.00     0.054 A 
BRANCH  81  82
ATOM     82  S   UNL A   1      33.132  34.845  28.984  1.00  0.00     0.124 S 
ATOM     83  O   UNL A   1      32.528  33.949  28.004  1.00  0.00    -0.237 OA
ATOM     84  O   UNL A   1      32.518  34.841  30.310  1.00  0.00    -0.237 OA
ATOM     85  O   UNL A   1      33.503  36.166  28.483  1.00  0.00    -0.744 OA
ENDBRANCH  81  82
ENDBRANCH  53  76
BRANCH  65  86
ATOM     86  C   UNL A   1      43.116  34.891  32.786  1.00  0.00    -0.014 A 
ATOM     87  C   UNL A   1      42.938  35.131  34.159  1.00  0.00     0.010 A 
ATOM     88  C   UNL A   1      43.757  35.862  31.996  1.00  0.00     0.010 A 
ATOM     89  C   UNL A   1      43.367  36.333  34.726  1.00  0.00     0.020 A 
ATOM     90  C   UNL A   1      44.216  37.052  32.564  1.00  0.00     0.020 A 
ATOM     91  C   UNL A   1      44.005  37.286  33.924  1.00  0.00     0.054 A 
BRANCH  91  92
ATOM     92  S   UNL A   1      44.597  38.817  34.693  1.00  0.00     0.124 S 
ATOM     93  O   UNL A   1      43.786  39.828  34.020  1.00  0.00    -0.237 OA
ATOM     94  O   UNL A   1      44.290  38.604  36.106  1.00  0.00    -0.237 OA
ATOM     95  O   UNL A   1      46.021  38.842  34.369  1.00  0.00    -0.744 OA
ENDBRANCH  91  92
ENDBRANCH  65  86
ENDBRANCH  39  40
ENDBRANCH  31  34
ENDBRANCH  29  30
ENDBRANCH  28  29
ENDBRANCH   1  28
TORSDOF 19
ENDMDL
MODEL 2
REMARK VINA RESULT:     -10.7      4.237     10.145
REMARK SMILES Cn1ccnc1[C@@H]1[C@@H](C(=O)NCCCNC(=O)c2ccc(-c3c4nc(c(-c5ccc(S(=O)(=O)[O-])cc5)c5ccc([nH]5)c(-c5ccc(S(=O)(=O)[O-])cc5)c5nc(c(-c6ccc(S(=O)(=O)[O-])cc6)c6ccc3[nH]6)C=C5)C=C4)cc2)CC(=O)N1CCCOC1CCCCC1
REMARK SMILES IDX 12 1 11 2 9 3 10 4 8 6 7 7 81 8 78 9 79 10 80 11 6 12 1 13
REMARK SMILES IDX 2 14 3 15 4 16 5 17 82 18 83 19 84 20 85 21 86 22 87 23
REMARK SMILES IDX 91 24 88 25 90 26 89 27 13 28 14 29 15 30 16 31 17 33 18 34
REMARK SMILES IDX 19 35 77 36 20 37 76 38 21 39 22 40 23 41 70 42 24 43 75 44
REMARK SMILES IDX 69 45 71 46 25 47 74 48 68 49 67 50 26 52 56 53 37 54 55 55
REMARK SMILES IDX 38 56 41 57 54 58 72 59 39 60 40 61 53 63 73 64 42 65 27 66
REMARK SMILES IDX 28 67 36 68 29 69 35 70 30 71 31 72 32 73 33 74 34 75 57 76
REMARK SMILES IDX 58 77 66 78 59 79 65 80 60 81 61 82 62 83 63 84 64 85 43 86
REMARK SMILES IDX 44 87 52 88 45 89 51 90 46 91 47 92 48 93 49 94 50 95
REMARK H PARENT 11 5 15 32 71 51 41 62
REMARK Flexibility Score: inf
ROOT
ATOM      1  C   UNL A   1      34.339  28.628  27.083  1.00  0.00     0.117 C 
ENDROOT
BRANCH   1   2
ATOM      2  N   UNL A   1      34.130  28.279  25.685  1.00  0.00    -0.356 N 
ATOM      3  C   UNL A   1      33.611  27.164  25.118  1.00  0.00     0.226 C 
ATOM      4  O   UNL A   1      33.546  27.105  23.890  1.00  0.00    -0.275 OA
ATOM      5  H   UNL A   1      34.414  28.971  25.043  1.00  0.00     0.163 HD
BRANCH   3   6
ATOM      6  C   UNL A   1      33.133  26.010  25.954  1.00  0.00     0.118 C 
ATOM      7  C   UNL A   1      33.224  24.694  25.189  1.00  0.00     0.164 C 
ATOM      8  N   UNL A   1      32.000  23.969  25.501  1.00  0.00    -0.332 N 
ATOM      9  C   UNL A   1      31.703  26.147  26.433  1.00  0.00     0.116 C 
ATOM     10  C   UNL A   1      31.123  24.770  26.263  1.00  0.00     0.224 C 
ATOM     11  O   UNL A   1      30.011  24.463  26.632  1.00  0.00    -0.275 OA
BRANCH   7  12
ATOM     12  C   UNL A   1      34.566  24.022  25.340  1.00  0.00     0.132 A 
ATOM     13  C   UNL A   1      34.436  22.658  27.522  1.00  0.00     0.151 C 
ATOM     14  N   UNL A   1      35.055  23.198  26.338  1.00  0.00    -0.336 N 
ATOM     15  C   UNL A   1      36.384  22.954  26.067  1.00  0.00     0.107 A 
ATOM     16  C   UNL A   1      36.673  23.684  24.948  1.00  0.00     0.131 A 
ATOM     17  N   UNL A   1      35.564  24.351  24.528  1.00  0.00    -0.239 NA
ENDBRANCH   7  12
BRANCH   8  18
ATOM     18  C   UNL A   1      31.298  22.967  24.669  1.00  0.00     0.122 C 
BRANCH  18  19
ATOM     19  C   UNL A   1      31.908  22.152  23.523  1.00  0.00     0.050 C 
BRANCH  19  20
ATOM     20  C   UNL A   1      32.060  20.631  23.502  1.00  0.00     0.162 C 
BRANCH  20  21
ATOM     21  O   UNL A   1      32.195  19.949  24.751  1.00  0.00    -0.378 OA
BRANCH  21  22
ATOM     22  C   UNL A   1      33.105  18.843  24.731  1.00  0.00     0.118 C 
ATOM     23  C   UNL A   1      32.624  17.832  25.752  1.00  0.00     0.032 C 
ATOM     24  C   UNL A   1      33.161  18.207  23.343  1.00  0.00     0.032 C 
ATOM     25  C   UNL A   1      33.264  16.468  25.744  1.00  0.00     0.003 C 
ATOM     26  C   UNL A   1      33.956  16.897  23.376  1.00  0.00     0.003 C 
ATOM     27  C   UNL A   1      33.347  15.894  24.351  1.00  0.00     0.000 C 
ENDBRANCH  21  22
ENDBRANCH  20  21
ENDBRANCH  19  20
ENDBRANCH  18  19
ENDBRANCH   8  18
ENDBRANCH   3   6
ENDBRANCH   1   2
BRANCH   1  28
ATOM     28  C   UNL A   1      34.398  30.115  27.305  1.00  0.00     0.042 C 
BRANCH  28  29
ATOM     29  C   UNL A   1      35.690  30.543  27.959  1.00  0.00     0.118 C 
BRANCH  29  30
ATOM     30  N   UNL A   1      35.623  30.494  29.415  1.00  0.00    -0.352 N 
ATOM     31  C   UNL A   1      36.485  29.892  30.299  1.00  0.00     0.251 C 
ATOM     32  H   UNL A   1      34.854  30.956  29.820  1.00  0.00     0.163 HD
ATOM     33  O   UNL A   1      36.176  29.768  31.479  1.00  0.00    -0.269 OA
BRANCH  31  34
ATOM     34  C   UNL A   1      37.770  29.368  29.794  1.00  0.00     0.039 A 
ATOM     35  C   UNL A   1      38.136  29.606  28.470  1.00  0.00     0.014 A 
ATOM     36  C   UNL A   1      38.639  28.703  30.662  1.00  0.00     0.014 A 
ATOM     37  C   UNL A   1      39.412  29.240  28.041  1.00  0.00     0.010 A 
ATOM     38  C   UNL A   1      39.950  28.478  30.276  1.00  0.00     0.010 A 
ATOM     39  C   UNL A   1      40.344  28.715  28.953  1.00  0.00    -0.014 A 
BRANCH  39  40
ATOM     40  C   UNL A   1      41.723  28.357  28.545  1.00  0.00     0.031 A 
ATOM     41  C   UNL A   1      42.782  29.429  28.498  1.00  0.00     0.074 A 
ATOM     42  C   UNL A   1      42.006  27.098  28.159  1.00  0.00     0.049 A 
ATOM     43  N   UNL A   1      44.024  29.341  28.101  1.00  0.00    -0.248 NA
ATOM     44  C   UNL A   1      42.383  30.786  28.915  1.00  0.00     0.031 C 
ATOM     45  C   UNL A   1      41.052  25.986  28.110  1.00  0.00     0.029 A 
ATOM     46  N   UNL A   1      43.183  26.540  27.728  1.00  0.00    -0.354 N 
ATOM     47  C   UNL A   1      44.541  30.628  28.199  1.00  0.00     0.074 A 
ATOM     48  C   UNL A   1      43.464  31.491  28.624  1.00  0.00     0.031 C 
ATOM     49  C   UNL A   1      41.692  24.874  27.715  1.00  0.00     0.029 A 
ATOM     50  C   UNL A   1      43.086  25.200  27.437  1.00  0.00     0.049 A 
ATOM     51  H   UNL A   1      44.019  27.052  27.638  1.00  0.00     0.167 HD
ATOM     52  C   UNL A   1      45.809  31.051  27.988  1.00  0.00     0.031 A 
ATOM     53  C   UNL A   1      44.016  24.334  26.991  1.00  0.00     0.031 A 
ATOM     54  C   UNL A   1      46.884  30.182  27.595  1.00  0.00     0.049 A 
ATOM     55  C   UNL A   1      45.420  24.827  26.763  1.00  0.00     0.074 A 
ATOM     56  C   UNL A   1      48.219  30.496  27.414  1.00  0.00     0.029 A 
ATOM     57  N   UNL A   1      46.748  28.830  27.328  1.00  0.00    -0.354 N 
ATOM     58  N   UNL A   1      45.906  26.035  26.930  1.00  0.00    -0.248 NA
ATOM     59  C   UNL A   1      46.404  23.839  26.299  1.00  0.00     0.031 C 
ATOM     60  C   UNL A   1      48.880  29.343  26.985  1.00  0.00     0.029 A 
ATOM     61  C   UNL A   1      47.971  28.297  26.961  1.00  0.00     0.049 A 
ATOM     62  H   UNL A   1      45.906  28.323  27.389  1.00  0.00     0.167 HD
ATOM     63  C   UNL A   1      47.259  25.944  26.620  1.00  0.00     0.074 A 
ATOM     64  C   UNL A   1      47.516  24.561  26.272  1.00  0.00     0.031 C 
ATOM     65  C   UNL A   1      48.204  26.916  26.624  1.00  0.00     0.031 A 
BRANCH  52  66
ATOM     66  C   UNL A   1      46.099  32.515  28.185  1.00  0.00    -0.014 A 
ATOM     67  C   UNL A   1      45.968  33.432  27.124  1.00  0.00     0.010 A 
ATOM     68  C   UNL A   1      46.472  32.989  29.455  1.00  0.00     0.010 A 
ATOM     69  C   UNL A   1      46.241  34.787  27.322  1.00  0.00     0.020 A 
ATOM     70  C   UNL A   1      46.715  34.349  29.665  1.00  0.00     0.020 A 
ATOM     71  C   UNL A   1      46.612  35.238  28.591  1.00  0.00     0.054 A 
BRANCH  71  72
ATOM     72  S   UNL A   1      46.926  37.009  28.826  1.00  0.00     0.124 S 
ATOM     73  O   UNL A   1      46.825  37.142  30.277  1.00  0.00    -0.237 OA
ATOM     74  O   UNL A   1      48.268  37.171  28.272  1.00  0.00    -0.237 OA
ATOM     75  O   UNL A   1      45.858  37.655  28.066  1.00  0.00    -0.744 OA
ENDBRANCH  71  72
ENDBRANCH  52  66
BRANCH  53  76
ATOM     76  C   UNL A   1      43.658  22.908  26.750  1.00  0.00    -0.014 A 
ATOM     77  C   UNL A   1      42.815  22.222  27.642  1.00  0.00     0.010 A 
ATOM     78  C   UNL A   1      44.158  22.228  25.624  1.00  0.00     0.010 A 
ATOM     79  C   UNL A   1      42.501  20.876  27.429  1.00  0.00     0.020 A 
ATOM     80  C   UNL A   1      43.822  20.892  25.391  1.00  0.00     0.020 A 
ATOM     81  C   UNL A   1      43.008  20.219  26.304  1.00  0.00     0.054 A 
BRANCH  81  82
ATOM     82  S   UNL A   1      42.560  18.482  26.030  1.00  0.00     0.124 S 
ATOM     83  O   UNL A   1      41.127  18.576  25.772  1.00  0.00    -0.237 OA
ATOM     84  O   UNL A   1      43.389  18.122  24.881  1.00  0.00    -0.237 OA
ATOM     85  O   UNL A   1      42.931  17.832  27.284  1.00  0.00    -0.744 OA
ENDBRANCH  81  82
ENDBRANCH  53  76
BRANCH  65  86
ATOM     86  C   UNL A   1      49.614  26.514  26.280  1.00  0.00    -0.014 A 
ATOM     87  C   UNL A   1      50.163  26.788  25.016  1.00  0.00     0.010 A 
ATOM     88  C   UNL A   1      50.419  25.914  27.265  1.00  0.00     0.010 A 
ATOM     89  C   UNL A   1      51.486  26.440  24.732  1.00  0.00     0.020 A 
ATOM     90  C   UNL A   1      51.751  25.592  26.996  1.00  0.00     0.020 A 
ATOM     91  C   UNL A   1      52.272  25.845  25.725  1.00  0.00     0.054 A 
BRANCH  91  92
ATOM     92  S   UNL A   1      54.000  25.448  25.348  1.00  0.00     0.124 S 
ATOM     93  O   UNL A   1      54.139  25.959  23.987  1.00  0.00    -0.237 OA
ATOM     94  O   UNL A   1      54.730  26.189  26.374  1.00  0.00    -0.237 OA
ATOM     95  O   UNL A   1      54.060  23.994  25.477  1.00  0.00    -0.744 OA
ENDBRANCH  91  92
ENDBRANCH  65  86
ENDBRANCH  39  40
ENDBRANCH  31  34
ENDBRANCH  29  30
ENDBRANCH  28  29
ENDBRANCH   1  28
TORSDOF 19
ENDMDL
MODEL 3
REMARK VINA RESULT:     -10.4      4.183     10.182
REMARK SMILES Cn1ccnc1[C@@H]1[C@@H](C(=O)NCCCNC(=O)c2ccc(-c3c4nc(c(-c5ccc(S(=O)(=O)[O-])cc5)c5ccc([nH]5)c(-c5ccc(S(=O)(=O)[O-])cc5)c5nc(c(-c6ccc(S(=O)(=O)[O-])cc6)c6ccc3[nH]6)C=C5)C=C4)cc2)CC(=O)N1CCCOC1CCCCC1
REMARK SMILES IDX 12 1 11 2 9 3 10 4 8 6 7 7 81 8 78 9 79 10 80 11 6 12 1 13
REMARK SMILES IDX 2 14 3 15 4 16 5 17 82 18 83 19 84 20 85 21 86 22 87 23
REMARK SMILES IDX 91 24 88 25 90 26 89 27 13 28 14 29 15 30 16 31 17 33 18 34
REMARK SMILES IDX 19 35 77 36 20 37 76 38 21 39 22 40 23 41 70 42 24 43 75 44
REMARK SMILES IDX 69 45 71 46 25 47 74 48 68 49 67 50 26 52 56 53 37 54 55 55
REMARK SMILES IDX 38 56 41 57 54 58 72 59 39 60 40 61 53 63 73 64 42 65 27 66
REMARK SMILES IDX 28 67 36 68 29 69 35 70 30 71 31 72 32 73 33 74 34 75 57 76
REMARK SMILES IDX 58 77 66 78 59 79 65 80 60 81 61 82 62 83 63 84 64 85 43 86
REMARK SMILES IDX 44 87 52 88 45 89 51 90 46 91 47 92 48 93 49 94 50 95
REMARK H PARENT 11 5 15 32 71 51 41 62
REMARK Flexibility Score: inf
ROOT
ATOM      1  C   UNL A   1      33.672  28.887  26.437  1.00  0.00     0.117 C 
ENDROOT
BRANCH   1   2
ATOM      2  N   UNL A   1      32.715  27.804  26.614  1.00  0.00    -0.356 N 
ATOM      3  C   UNL A   1      32.710  26.539  26.129  1.00  0.00     0.226 C 
ATOM      4  O   UNL A   1      31.767  25.802  26.420  1.00  0.00    -0.275 OA
ATOM      5  H   UNL A   1      31.942  28.029  27.180  1.00  0.00     0.163 HD
BRANCH   3   6
ATOM      6  C   UNL A   1      33.814  26.034  25.244  1.00  0.00     0.118 C 
ATOM      7  C   UNL A   1      33.329  24.910  24.334  1.00  0.00     0.164 C 
ATOM      8  N   UNL A   1      34.393  23.916  24.330  1.00  0.00    -0.332 N 
ATOM      9  C   UNL A   1      35.016  25.506  25.998  1.00  0.00     0.116 C 
ATOM     10  C   UNL A   1      35.407  24.264  25.248  1.00  0.00     0.224 C 
ATOM     11  O   UNL A   1      36.396  23.611  25.503  1.00  0.00    -0.275 OA
BRANCH   7  12
ATOM     12  C   UNL A   1      32.754  25.416  23.035  1.00  0.00     0.132 A 
ATOM     13  C   UNL A   1      30.200  25.482  23.365  1.00  0.00     0.151 C 
ATOM     14  N   UNL A   1      31.442  25.620  22.647  1.00  0.00    -0.336 N 
ATOM     15  C   UNL A   1      31.448  25.973  21.316  1.00  0.00     0.107 A 
ATOM     16  C   UNL A   1      32.756  25.913  20.923  1.00  0.00     0.131 A 
ATOM     17  N   UNL A   1      33.542  25.548  21.973  1.00  0.00    -0.239 NA
ENDBRANCH   7  12
BRANCH   8  18
ATOM     18  C   UNL A   1      34.276  22.457  24.116  1.00  0.00     0.122 C 
BRANCH  18  19
ATOM     19  C   UNL A   1      33.516  21.468  25.006  1.00  0.00     0.050 C 
BRANCH  19  20
ATOM     20  C   UNL A   1      32.159  20.845  24.678  1.00  0.00     0.162 C 
BRANCH  20  21
ATOM     21  O   UNL A   1      32.128  19.715  23.805  1.00  0.00    -0.378 OA
BRANCH  21  22
ATOM     22  C   UNL A   1      33.048  18.672  24.148  1.00  0.00     0.118 C 
ATOM     23  C   UNL A   1      32.533  17.996  25.402  1.00  0.00     0.032 C 
ATOM     24  C   UNL A   1      33.172  17.657  23.012  1.00  0.00     0.032 C 
ATOM     25  C   UNL A   1      33.186  16.705  25.823  1.00  0.00     0.003 C 
ATOM     26  C   UNL A   1      33.978  16.433  23.461  1.00  0.00     0.003 C 
ATOM     27  C   UNL A   1      33.337  15.748  24.665  1.00  0.00     0.000 C 
ENDBRANCH  21  22
ENDBRANCH  20  21
ENDBRANCH  19  20
ENDBRANCH  18  19
ENDBRANCH   8  18
ENDBRANCH   3   6
ENDBRANCH   1   2
BRANCH   1  28
ATOM     28  C   UNL A   1      34.785  28.846  27.449  1.00  0.00     0.042 C 
BRANCH  28  29
ATOM     29  C   UNL A   1      35.417  30.201  27.657  1.00  0.00     0.118 C 
BRANCH  29  30
ATOM     30  N   UNL A   1      35.459  30.589  29.062  1.00  0.00    -0.352 N 
ATOM     31  C   UNL A   1      36.436  30.347  29.996  1.00  0.00     0.251 C 
ATOM     32  H   UNL A   1      34.678  31.095  29.385  1.00  0.00     0.163 HD
ATOM     33  O   UNL A   1      36.225  30.563  31.185  1.00  0.00    -0.269 OA
BRANCH  31  34
ATOM     34  C   UNL A   1      37.727  29.790  29.546  1.00  0.00     0.039 A 
ATOM     35  C   UNL A   1      38.153  30.013  28.238  1.00  0.00     0.014 A 
ATOM     36  C   UNL A   1      38.543  29.108  30.451  1.00  0.00     0.014 A 
ATOM     37  C   UNL A   1      39.436  29.614  27.862  1.00  0.00     0.010 A 
ATOM     38  C   UNL A   1      39.863  28.849  30.120  1.00  0.00     0.010 A 
ATOM     39  C   UNL A   1      40.316  29.071  28.813  1.00  0.00    -0.014 A 
BRANCH  39  40
ATOM     40  C   UNL A   1      41.702  28.677  28.464  1.00  0.00     0.031 A 
ATOM     41  C   UNL A   1      42.785  29.725  28.444  1.00  0.00     0.074 A 
ATOM     42  C   UNL A   1      41.972  27.407  28.104  1.00  0.00     0.049 A 
ATOM     43  N   UNL A   1      44.040  29.605  28.097  1.00  0.00    -0.248 NA
ATOM     44  C   UNL A   1      42.401  31.095  28.829  1.00  0.00     0.031 C 
ATOM     45  C   UNL A   1      40.996  26.316  28.032  1.00  0.00     0.029 A 
ATOM     46  N   UNL A   1      43.151  26.818  27.726  1.00  0.00    -0.354 N 
ATOM     47  C   UNL A   1      44.582  30.881  28.199  1.00  0.00     0.074 A 
ATOM     48  C   UNL A   1      43.509  31.773  28.571  1.00  0.00     0.031 C 
ATOM     49  C   UNL A   1      41.625  25.185  27.675  1.00  0.00     0.029 A 
ATOM     50  C   UNL A   1      43.036  25.477  27.447  1.00  0.00     0.049 A 
ATOM     51  H   UNL A   1      44.002  27.311  27.662  1.00  0.00     0.167 HD
ATOM     52  C   UNL A   1      45.865  31.274  28.032  1.00  0.00     0.031 A 
ATOM     53  C   UNL A   1      43.963  24.585  27.049  1.00  0.00     0.031 A 
ATOM     54  C   UNL A   1      46.935  30.377  27.691  1.00  0.00     0.049 A 
ATOM     55  C   UNL A   1      45.385  25.044  26.869  1.00  0.00     0.074 A 
ATOM     56  C   UNL A   1      48.283  30.659  27.559  1.00  0.00     0.029 A 
ATOM     57  N   UNL A   1      46.779  29.024  27.436  1.00  0.00    -0.354 N 
ATOM     58  N   UNL A   1      45.891  26.244  27.040  1.00  0.00    -0.248 NA
ATOM     59  C   UNL A   1      46.363  24.029  26.455  1.00  0.00     0.031 C 
ATOM     60  C   UNL A   1      48.934  29.486  27.170  1.00  0.00     0.029 A 
ATOM     61  C   UNL A   1      48.003  28.459  27.123  1.00  0.00     0.049 A 
ATOM     62  H   UNL A   1      45.924  28.536  27.471  1.00  0.00     0.167 HD
ATOM     63  C   UNL A   1      47.253  26.119  26.783  1.00  0.00     0.074 A 
ATOM     64  C   UNL A   1      47.491  24.726  26.462  1.00  0.00     0.031 C 
ATOM     65  C   UNL A   1      48.218  27.070  26.812  1.00  0.00     0.031 A 
BRANCH  52  66
ATOM     66  C   UNL A   1      46.180  32.734  28.222  1.00  0.00    -0.014 A 
ATOM     67  C   UNL A   1      46.051  33.650  27.161  1.00  0.00     0.010 A 
ATOM     68  C   UNL A   1      46.576  33.204  29.487  1.00  0.00     0.010 A 
ATOM     69  C   UNL A   1      46.348  35.001  27.353  1.00  0.00     0.020 A 
ATOM     70  C   UNL A   1      46.842  34.561  29.691  1.00  0.00     0.020 A 
ATOM     71  C   UNL A   1      46.741  35.449  28.616  1.00  0.00     0.054 A 
BRANCH  71  72
ATOM     72  S   UNL A   1      47.084  37.215  28.843  1.00  0.00     0.124 S 
ATOM     73  O   UNL A   1      48.468  37.195  29.309  1.00  0.00    -0.237 OA
ATOM     74  O   UNL A   1      46.882  37.754  27.501  1.00  0.00    -0.237 OA
ATOM     75  O   UNL A   1      46.099  37.636  29.837  1.00  0.00    -0.744 OA
ENDBRANCH  71  72
ENDBRANCH  52  66
BRANCH  53  76
ATOM     76  C   UNL A   1      43.582  23.164  26.811  1.00  0.00    -0.014 A 
ATOM     77  C   UNL A   1      43.769  22.575  25.548  1.00  0.00     0.010 A 
ATOM     78  C   UNL A   1      43.029  22.391  27.849  1.00  0.00     0.010 A 
ATOM     79  C   UNL A   1      43.387  21.250  25.320  1.00  0.00     0.020 A 
ATOM     80  C   UNL A   1      42.673  21.057  27.633  1.00  0.00     0.020 A 
ATOM     81  C   UNL A   1      42.840  20.500  26.364  1.00  0.00     0.054 A 
BRANCH  81  82
ATOM     82  S   UNL A   1      42.382  18.771  26.053  1.00  0.00     0.124 S 
ATOM     83  O   UNL A   1      40.980  18.895  25.667  1.00  0.00    -0.237 OA
ATOM     84  O   UNL A   1      43.303  18.390  24.985  1.00  0.00    -0.237 OA
ATOM     85  O   UNL A   1      42.624  18.118  27.337  1.00  0.00    -0.744 OA
ENDBRANCH  81  82
ENDBRANCH  53  76
BRANCH  65  86
ATOM     86  C   UNL A   1      49.631  26.633  26.528  1.00  0.00    -0.014 A 
ATOM     87  C   UNL A   1      50.449  26.104  27.541  1.00  0.00     0.010 A 
ATOM     88  C   UNL A   1      50.120  26.693  25.210  1.00  0.00     0.010 A 
ATOM     89  C   UNL A   1      51.743  25.670  27.246  1.00  0.00     0.020 A 
ATOM     90  C   UNL A   1      51.401  26.231  24.906  1.00  0.00     0.020 A 
ATOM     91  C   UNL A   1      52.211  25.735  25.929  1.00  0.00     0.054 A 
BRANCH  91  92
ATOM     92  S   UNL A   1      53.876  25.119  25.564  1.00  0.00     0.124 S 
ATOM     93  O   UNL A   1      54.409  24.873  26.901  1.00  0.00    -0.237 OA
ATOM     94  O   UNL A   1      53.608  23.927  24.764  1.00  0.00    -0.237 OA
ATOM     95  O   UNL A   1      54.503  26.221  24.837  1.00  0.00    -0.744 OA
ENDBRANCH  91  92
ENDBRANCH  65  86
ENDBRANCH  39  40
ENDBRANCH  31  34
ENDBRANCH  29  30
ENDBRANCH  28  29
ENDBRANCH   1  28
TORSDOF 19
ENDMDL
