MODEL 1
REMARK VINA RESULT:     -14.0      0.000      0.000
REMARK SMILES Cc1ccc(C(=O)NCCCNC(=O)c2ccc(-c3c4nc(c(-c5ccc(S(=O)(=O)[O-])cc5)c5ccc([nH]5)c(-c5ccc(S(=O)(=O)[O-])cc5)c5nc(c(-c6ccc(S(=O)(=O)[O-])cc6)c6ccc3[nH]6)C=C5)C=C4)cc2)cc1NC(=O)Cc1ccc2ccccc2c1
REMARK SMILES IDX 10 1 9 2 8 3 6 4 7 5 5 7 1 8 2 9 3 10 76 11 4 12 75 13 77 14
REMARK SMILES IDX 78 15 79 17 80 18 81 19 82 20 90 21 83 22 89 23 84 24 88 25
REMARK SMILES IDX 85 26 87 27 86 28 11 29 12 30 13 31 14 33 15 34 16 35 74 36
REMARK SMILES IDX 17 37 73 38 18 39 19 40 20 41 67 42 21 43 72 44 66 45 68 46
REMARK SMILES IDX 22 47 71 48 65 49 64 50 23 52 53 53 34 54 52 55 35 56 38 57
REMARK SMILES IDX 51 58 69 59 36 60 37 61 50 63 70 64 39 65 24 66 25 67 33 68
REMARK SMILES IDX 26 69 32 70 27 71 28 72 29 73 30 74 31 75 54 76 55 77 63 78
REMARK SMILES IDX 56 79 62 80 57 81 58 82 59 83 60 84 61 85 40 86 41 87 49 88
REMARK SMILES IDX 42 89 48 90 43 91 44 92 45 93 46 94 47 95
REMARK H PARENT 8 6 77 16 12 32 68 51 38 62
REMARK Flexibility Score: inf
ROOT
ATOM      1  C   UNL A   1      34.691  31.882  27.641  1.00  0.00     0.042 C 
ENDROOT
BRANCH   1   2
ATOM      2  C   UNL A   1      33.686  30.720  27.895  1.00  0.00     0.118 C 
BRANCH   2   3
ATOM      3  N   UNL A   1      32.520  30.902  27.043  1.00  0.00    -0.352 N 
ATOM      4  C   UNL A   1      32.116  30.118  26.002  1.00  0.00     0.251 C 
ATOM      5  O   UNL A   1      31.133  30.471  25.317  1.00  0.00    -0.269 OA
ATOM      6  H   UNL A   1      31.956  31.684  27.241  1.00  0.00     0.163 HD
BRANCH   4   7
ATOM      7  C   UNL A   1      32.723  28.778  25.785  1.00  0.00     0.041 A 
ATOM      8  C   UNL A   1      34.316  25.045  24.430  1.00  0.00     0.046 C 
ATOM      9  C   UNL A   1      33.674  26.287  24.982  1.00  0.00    -0.027 A 
ATOM     10  C   UNL A   1      34.197  27.490  24.434  1.00  0.00     0.006 A 
ATOM     11  C   UNL A   1      32.657  26.314  25.972  1.00  0.00     0.044 A 
ATOM     12  C   UNL A   1      33.704  28.725  24.806  1.00  0.00     0.014 A 
ATOM     13  C   UNL A   1      32.294  27.583  26.422  1.00  0.00     0.040 A 
BRANCH  11  14
ATOM     14  N   UNL A   1      32.053  25.089  26.427  1.00  0.00    -0.326 N 
ATOM     15  C   UNL A   1      31.161  24.121  25.956  1.00  0.00     0.228 C 
ATOM     16  H   UNL A   1      32.357  24.869  27.337  1.00  0.00     0.169 HD
ATOM     17  O   UNL A   1      30.950  23.153  26.693  1.00  0.00    -0.274 OA
BRANCH  15  18
ATOM     18  C   UNL A   1      30.526  24.232  24.601  1.00  0.00     0.135 C 
BRANCH  18  19
ATOM     19  C   UNL A   1      30.058  25.493  23.853  1.00  0.00    -0.038 A 
ATOM     20  C   UNL A   1      30.864  25.819  22.764  1.00  0.00     0.005 A 
ATOM     21  C   UNL A   1      29.080  26.449  24.097  1.00  0.00     0.013 A 
ATOM     22  C   UNL A   1      31.190  27.121  22.452  1.00  0.00     0.009 A 
ATOM     23  C   UNL A   1      29.097  27.699  23.353  1.00  0.00    -0.018 A 
ATOM     24  C   UNL A   1      30.296  28.092  22.743  1.00  0.00    -0.018 A 
ATOM     25  C   UNL A   1      28.013  28.544  23.043  1.00  0.00     0.009 A 
ATOM     26  C   UNL A   1      30.539  29.330  22.152  1.00  0.00     0.009 A 
ATOM     27  C   UNL A   1      28.183  29.668  22.199  1.00  0.00     0.001 A 
ATOM     28  C   UNL A   1      29.453  30.101  21.815  1.00  0.00     0.001 A 
ENDBRANCH  18  19
ENDBRANCH  15  18
ENDBRANCH  11  14
ENDBRANCH   4   7
ENDBRANCH   2   3
ENDBRANCH   1   2
BRANCH   1  29
ATOM     29  C   UNL A   1      36.053  31.516  28.252  1.00  0.00     0.118 C 
BRANCH  29  30
ATOM     30  N   UNL A   1      37.368  30.420  28.074  1.00  0.00    -0.352 N 
ATOM     31  C   UNL A   1      38.333  29.284  28.678  1.00  0.00     0.251 C 
ATOM     32  H   UNL A   1      37.684  30.555  27.152  1.00  0.00     0.163 HD
ATOM     33  O   UNL A   1      38.748  28.572  27.732  1.00  0.00    -0.269 OA
BRANCH  31  34
ATOM     34  C   UNL A   1      38.872  28.640  30.241  1.00  0.00     0.039 A 
ATOM     35  C   UNL A   1      37.965  28.535  31.351  1.00  0.00     0.014 A 
ATOM     36  C   UNL A   1      40.179  28.424  30.748  1.00  0.00     0.014 A 
ATOM     37  C   UNL A   1      38.392  28.932  32.720  1.00  0.00     0.010 A 
ATOM     38  C   UNL A   1      40.598  28.726  32.085  1.00  0.00     0.010 A 
ATOM     39  C   UNL A   1      39.729  29.340  32.956  1.00  0.00    -0.014 A 
BRANCH  39  40
ATOM     40  C   UNL A   1      40.304  30.637  33.614  1.00  0.00     0.031 A 
ATOM     41  C   UNL A   1      41.314  30.383  34.623  1.00  0.00     0.074 A 
ATOM     42  C   UNL A   1      40.297  31.986  33.302  1.00  0.00     0.049 A 
ATOM     43  N   UNL A   1      41.099  30.277  35.891  1.00  0.00    -0.248 NA
ATOM     44  C   UNL A   1      42.691  30.147  34.181  1.00  0.00     0.031 C 
ATOM     45  C   UNL A   1      40.817  33.182  34.003  1.00  0.00     0.029 A 
ATOM     46  N   UNL A   1      39.664  32.664  32.285  1.00  0.00    -0.354 N 
ATOM     47  C   UNL A   1      42.370  30.301  36.417  1.00  0.00     0.074 A 
ATOM     48  C   UNL A   1      43.241  29.829  35.350  1.00  0.00     0.031 C 
ATOM     49  C   UNL A   1      40.054  34.264  33.684  1.00  0.00     0.029 A 
ATOM     50  C   UNL A   1      39.040  33.822  32.750  1.00  0.00     0.049 A 
ATOM     51  H   UNL A   1      39.652  32.369  31.345  1.00  0.00     0.167 HD
ATOM     52  C   UNL A   1      42.733  31.243  37.341  1.00  0.00     0.031 A 
ATOM     53  C   UNL A   1      37.667  33.856  32.867  1.00  0.00     0.031 A 
ATOM     54  C   UNL A   1      41.754  32.337  37.460  1.00  0.00     0.049 A 
ATOM     55  C   UNL A   1      37.235  33.815  34.294  1.00  0.00     0.074 A 
ATOM     56  C   UNL A   1      41.833  33.696  37.180  1.00  0.00     0.029 A 
ATOM     57  N   UNL A   1      40.399  32.065  37.623  1.00  0.00    -0.354 N 
ATOM     58  N   UNL A   1      38.084  33.534  35.229  1.00  0.00    -0.248 NA
ATOM     59  C   UNL A   1      35.878  33.997  34.800  1.00  0.00     0.031 C 
ATOM     60  C   UNL A   1      40.512  34.219  37.121  1.00  0.00     0.029 A 
ATOM     61  C   UNL A   1      39.629  33.190  37.398  1.00  0.00     0.049 A 
ATOM     62  H   UNL A   1      40.036  31.184  37.869  1.00  0.00     0.167 HD
ATOM     63  C   UNL A   1      37.457  33.469  36.422  1.00  0.00     0.074 A 
ATOM     64  C   UNL A   1      36.073  33.788  36.117  1.00  0.00     0.031 C 
ATOM     65  C   UNL A   1      38.172  33.130  37.526  1.00  0.00     0.031 A 
BRANCH  52  66
ATOM     66  C   UNL A   1      44.153  31.320  37.862  1.00  0.00    -0.014 A 
ATOM     67  C   UNL A   1      44.620  30.392  38.808  1.00  0.00     0.010 A 
ATOM     68  C   UNL A   1      45.104  32.245  37.377  1.00  0.00     0.010 A 
ATOM     69  C   UNL A   1      45.940  30.422  39.281  1.00  0.00     0.020 A 
ATOM     70  C   UNL A   1      46.404  32.329  37.882  1.00  0.00     0.020 A 
ATOM     71  C   UNL A   1      46.822  31.399  38.821  1.00  0.00     0.054 A 
BRANCH  71  72
ATOM     72  S   UNL A   1      48.539  31.382  39.387  1.00  0.00     0.124 S 
ATOM     73  O   UNL A   1      49.247  30.827  38.237  1.00  0.00    -0.237 OA
ATOM     74  O   UNL A   1      48.788  32.794  39.661  1.00  0.00    -0.237 OA
ATOM     75  O   UNL A   1      48.509  30.520  40.568  1.00  0.00    -0.744 OA
ENDBRANCH  71  72
ENDBRANCH  52  66
BRANCH  53  76
ATOM     76  C   UNL A   1      36.908  33.087  31.807  1.00  0.00    -0.014 A 
ATOM     77  C   UNL A   1      35.762  32.489  32.289  1.00  0.00     0.010 A 
ATOM     78  C   UNL A   1      36.722  33.801  30.636  1.00  0.00     0.010 A 
ATOM     79  C   UNL A   1      34.522  33.066  31.957  1.00  0.00     0.020 A 
ATOM     80  C   UNL A   1      35.497  34.519  30.579  1.00  0.00     0.020 A 
ATOM     81  C   UNL A   1      34.376  34.317  31.320  1.00  0.00     0.054 A 
BRANCH  81  82
ATOM     82  S   UNL A   1      32.802  35.854  31.344  1.00  0.00     0.124 S 
ATOM     83  O   UNL A   1      31.762  35.411  32.275  1.00  0.00    -0.237 OA
ATOM     84  O   UNL A   1      33.331  37.130  31.808  1.00  0.00    -0.237 OA
ATOM     85  O   UNL A   1      32.439  35.918  29.938  1.00  0.00    -0.744 OA
ENDBRANCH  81  82
ENDBRANCH  53  76
BRANCH  65  86
ATOM     86  C   UNL A   1      37.578  32.803  38.853  1.00  0.00    -0.014 A 
ATOM     87  C   UNL A   1      36.787  31.675  39.103  1.00  0.00     0.010 A 
ATOM     88  C   UNL A   1      37.906  33.631  39.949  1.00  0.00     0.010 A 
ATOM     89  C   UNL A   1      36.255  31.445  40.372  1.00  0.00     0.020 A 
ATOM     90  C   UNL A   1      37.440  33.374  41.231  1.00  0.00     0.020 A 
ATOM     91  C   UNL A   1      36.578  32.304  41.423  1.00  0.00     0.054 A 
BRANCH  91  92
ATOM     92  S   UNL A   1      35.867  32.001  43.051  1.00  0.00     0.124 S 
ATOM     93  O   UNL A   1      35.921  33.333  43.649  1.00  0.00    -0.237 OA
ATOM     94  O   UNL A   1      34.529  31.510  42.731  1.00  0.00    -0.237 OA
ATOM     95  O   UNL A   1      36.764  31.012  43.642  1.00  0.00    -0.744 OA
ENDBRANCH  91  92
ENDBRANCH  65  86
ENDBRANCH  39  40
ENDBRANCH  31  34
ENDBRANCH  29  30
ENDBRANCH   1  29
TORSDOF 16
ENDMDL
MODEL 2
REMARK VINA RESULT:     -13.7      4.410      8.841
REMARK SMILES Cc1ccc(C(=O)NCCCNC(=O)c2ccc(-c3c4nc(c(-c5ccc(S(=O)(=O)[O-])cc5)c5ccc([nH]5)c(-c5ccc(S(=O)(=O)[O-])cc5)c5nc(c(-c6ccc(S(=O)(=O)[O-])cc6)c6ccc3[nH]6)C=C5)C=C4)cc2)cc1NC(=O)Cc1ccc2ccccc2c1
REMARK SMILES IDX 10 1 9 2 8 3 6 4 7 5 5 7 1 8 2 9 3 10 76 11 4 12 75 13 77 14
REMARK SMILES IDX 78 15 79 17 80 18 81 19 82 20 90 21 83 22 89 23 84 24 88 25
REMARK SMILES IDX 85 26 87 27 86 28 11 29 12 30 13 31 14 33 15 34 16 35 74 36
REMARK SMILES IDX 17 37 73 38 18 39 19 40 20 41 67 42 21 43 72 44 66 45 68 46
REMARK SMILES IDX 22 47 71 48 65 49 64 50 23 52 53 53 34 54 52 55 35 56 38 57
REMARK SMILES IDX 51 58 69 59 36 60 37 61 50 63 70 64 39 65 24 66 25 67 33 68
REMARK SMILES IDX 26 69 32 70 27 71 28 72 29 73 30 74 31 75 54 76 55 77 63 78
REMARK SMILES IDX 56 79 62 80 57 81 58 82 59 83 60 84 61 85 40 86 41 87 49 88
REMARK SMILES IDX 42 89 48 90 43 91 44 92 45 93 46 94 47 95
REMARK H PARENT 8 6 77 16 12 32 68 51 38 62
REMARK Flexibility Score: inf
ROOT
ATOM      1  C   UNL A   1      32.831  29.081  23.353  1.00  0.00     0.042 C 
ENDROOT
BRANCH   1   2
ATOM      2  C   UNL A   1      31.389  28.501  23.270  1.00  0.00     0.118 C 
BRANCH   2   3
ATOM      3  N   UNL A   1      31.249  27.743  22.035  1.00  0.00    -0.352 N 
ATOM      4  C   UNL A   1      31.613  26.449  21.803  1.00  0.00     0.251 C 
ATOM      5  O   UNL A   1      31.501  25.979  20.651  1.00  0.00    -0.269 OA
ATOM      6  H   UNL A   1      30.843  28.221  21.276  1.00  0.00     0.163 HD
BRANCH   4   7
ATOM      7  C   UNL A   1      31.978  25.553  22.933  1.00  0.00     0.041 A 
ATOM      8  C   UNL A   1      32.577  23.423  26.594  1.00  0.00     0.046 C 
ATOM      9  C   UNL A   1      32.497  24.191  25.305  1.00  0.00    -0.027 A 
ATOM     10  C   UNL A   1      31.170  24.351  24.820  1.00  0.00     0.006 A 
ATOM     11  C   UNL A   1      33.608  24.706  24.587  1.00  0.00     0.044 A 
ATOM     12  C   UNL A   1      30.908  25.056  23.661  1.00  0.00     0.014 A 
ATOM     13  C   UNL A   1      33.307  25.281  23.353  1.00  0.00     0.040 A 
BRANCH  11  14
ATOM     14  N   UNL A   1      34.930  24.643  25.151  1.00  0.00    -0.326 N 
ATOM     15  C   UNL A   1      36.041  23.795  25.128  1.00  0.00     0.228 C 
ATOM     16  H   UNL A   1      35.103  25.427  25.720  1.00  0.00     0.169 HD
ATOM     17  O   UNL A   1      37.042  24.172  25.745  1.00  0.00    -0.274 OA
BRANCH  15  18
ATOM     18  C   UNL A   1      36.031  22.510  24.354  1.00  0.00     0.135 C 
BRANCH  18  19
ATOM     19  C   UNL A   1      35.344  21.177  24.700  1.00  0.00    -0.038 A 
ATOM     20  C   UNL A   1      36.240  20.168  25.047  1.00  0.00     0.005 A 
ATOM     21  C   UNL A   1      34.033  20.723  24.624  1.00  0.00     0.013 A 
ATOM     22  C   UNL A   1      36.068  18.861  24.647  1.00  0.00     0.009 A 
ATOM     23  C   UNL A   1      33.759  19.298  24.735  1.00  0.00    -0.018 A 
ATOM     24  C   UNL A   1      34.807  18.400  24.487  1.00  0.00    -0.018 A 
ATOM     25  C   UNL A   1      32.584  18.669  25.189  1.00  0.00     0.009 A 
ATOM     26  C   UNL A   1      34.681  17.018  24.373  1.00  0.00     0.009 A 
ATOM     27  C   UNL A   1      32.525  17.264  25.352  1.00  0.00     0.001 A 
ATOM     28  C   UNL A   1      33.543  16.435  24.877  1.00  0.00     0.001 A 
ENDBRANCH  18  19
ENDBRANCH  15  18
ENDBRANCH  11  14
ENDBRANCH   4   7
ENDBRANCH   2   3
ENDBRANCH   1   2
BRANCH   1  29
ATOM     29  C   UNL A   1      33.158  29.415  24.817  1.00  0.00     0.118 C 
BRANCH  29  30
ATOM     30  N   UNL A   1      34.427  29.329  25.976  1.00  0.00    -0.352 N 
ATOM     31  C   UNL A   1      35.157  29.889  27.295  1.00  0.00     0.251 C 
ATOM     32  H   UNL A   1      34.975  28.561  25.692  1.00  0.00     0.163 HD
ATOM     33  O   UNL A   1      35.770  28.941  27.842  1.00  0.00    -0.269 OA
BRANCH  31  34
ATOM     34  C   UNL A   1      35.251  31.359  28.284  1.00  0.00     0.039 A 
ATOM     35  C   UNL A   1      36.216  32.385  27.995  1.00  0.00     0.014 A 
ATOM     36  C   UNL A   1      34.702  31.650  29.558  1.00  0.00     0.014 A 
ATOM     37  C   UNL A   1      36.982  33.036  29.092  1.00  0.00     0.010 A 
ATOM     38  C   UNL A   1      35.390  32.343  30.607  1.00  0.00     0.010 A 
ATOM     39  C   UNL A   1      36.706  32.708  30.442  1.00  0.00    -0.014 A 
BRANCH  39  40
ATOM     40  C   UNL A   1      37.647  32.217  31.591  1.00  0.00     0.031 A 
ATOM     41  C   UNL A   1      37.856  33.200  32.637  1.00  0.00     0.074 A 
ATOM     42  C   UNL A   1      38.128  30.989  32.014  1.00  0.00     0.049 A 
ATOM     43  N   UNL A   1      38.835  34.040  32.693  1.00  0.00    -0.248 NA
ATOM     44  C   UNL A   1      36.842  33.320  33.688  1.00  0.00     0.031 C 
ATOM     45  C   UNL A   1      39.069  30.593  33.086  1.00  0.00     0.029 A 
ATOM     46  N   UNL A   1      37.983  29.735  31.464  1.00  0.00    -0.354 N 
ATOM     47  C   UNL A   1      38.723  34.549  33.966  1.00  0.00     0.074 A 
ATOM     48  C   UNL A   1      37.324  34.380  34.332  1.00  0.00     0.031 C 
ATOM     49  C   UNL A   1      39.711  29.447  32.727  1.00  0.00     0.029 A 
ATOM     50  C   UNL A   1      39.193  29.043  31.438  1.00  0.00     0.049 A 
ATOM     51  H   UNL A   1      37.130  29.373  31.129  1.00  0.00     0.167 HD
ATOM     52  C   UNL A   1      39.762  34.463  34.853  1.00  0.00     0.031 A 
ATOM     53  C   UNL A   1      39.856  28.875  30.241  1.00  0.00     0.031 A 
ATOM     54  C   UNL A   1      40.825  33.547  34.405  1.00  0.00     0.049 A 
ATOM     55  C   UNL A   1      41.075  29.730  30.162  1.00  0.00     0.074 A 
ATOM     56  C   UNL A   1      41.300  32.345  34.916  1.00  0.00     0.029 A 
ATOM     57  N   UNL A   1      41.354  33.645  33.121  1.00  0.00    -0.354 N 
ATOM     58  N   UNL A   1      41.281  30.663  31.036  1.00  0.00    -0.248 NA
ATOM     59  C   UNL A   1      42.101  29.695  29.123  1.00  0.00     0.031 C 
ATOM     60  C   UNL A   1      42.068  31.701  33.907  1.00  0.00     0.029 A 
ATOM     61  C   UNL A   1      42.091  32.523  32.794  1.00  0.00     0.049 A 
ATOM     62  H   UNL A   1      41.221  34.416  32.524  1.00  0.00     0.167 HD
ATOM     63  C   UNL A   1      42.392  31.360  30.719  1.00  0.00     0.074 A 
ATOM     64  C   UNL A   1      42.895  30.708  29.522  1.00  0.00     0.031 C 
ATOM     65  C   UNL A   1      42.747  32.421  31.489  1.00  0.00     0.031 A 
BRANCH  52  66
ATOM     66  C   UNL A   1      39.615  34.952  36.279  1.00  0.00    -0.014 A 
ATOM     67  C   UNL A   1      40.091  36.220  36.654  1.00  0.00     0.010 A 
ATOM     68  C   UNL A   1      38.926  34.226  37.277  1.00  0.00     0.010 A 
ATOM     69  C   UNL A   1      39.936  36.709  37.959  1.00  0.00     0.020 A 
ATOM     70  C   UNL A   1      38.818  34.671  38.597  1.00  0.00     0.020 A 
ATOM     71  C   UNL A   1      39.309  35.925  38.926  1.00  0.00     0.054 A 
BRANCH  71  72
ATOM     72  S   UNL A   1      39.056  36.596  40.586  1.00  0.00     0.124 S 
ATOM     73  O   UNL A   1      38.340  37.840  40.320  1.00  0.00    -0.237 OA
ATOM     74  O   UNL A   1      38.277  35.543  41.230  1.00  0.00    -0.237 OA
ATOM     75  O   UNL A   1      40.414  36.765  41.105  1.00  0.00    -0.744 OA
ENDBRANCH  71  72
ENDBRANCH  52  66
BRANCH  53  76
ATOM     76  C   UNL A   1      38.968  28.682  29.031  1.00  0.00    -0.014 A 
ATOM     77  C   UNL A   1      39.201  29.608  28.035  1.00  0.00     0.010 A 
ATOM     78  C   UNL A   1      38.924  27.373  28.582  1.00  0.00     0.010 A 
ATOM     79  C   UNL A   1      39.899  29.189  26.888  1.00  0.00     0.020 A 
ATOM     80  C   UNL A   1      39.875  27.070  27.572  1.00  0.00     0.020 A 
ATOM     81  C   UNL A   1      40.539  27.938  26.763  1.00  0.00     0.054 A 
BRANCH  81  82
ATOM     82  S   UNL A   1      42.275  27.232  25.612  1.00  0.00     0.124 S 
ATOM     83  O   UNL A   1      42.591  28.254  24.612  1.00  0.00    -0.237 OA
ATOM     84  O   UNL A   1      43.433  27.053  26.478  1.00  0.00    -0.237 OA
ATOM     85  O   UNL A   1      41.792  25.954  25.114  1.00  0.00    -0.744 OA
ENDBRANCH  81  82
ENDBRANCH  53  76
BRANCH  65  86
ATOM     86  C   UNL A   1      43.807  33.407  31.136  1.00  0.00    -0.014 A 
ATOM     87  C   UNL A   1      44.939  33.659  31.921  1.00  0.00     0.010 A 
ATOM     88  C   UNL A   1      43.713  34.063  29.888  1.00  0.00     0.010 A 
ATOM     89  C   UNL A   1      45.882  34.609  31.527  1.00  0.00     0.020 A 
ATOM     90  C   UNL A   1      44.681  34.959  29.454  1.00  0.00     0.020 A 
ATOM     91  C   UNL A   1      45.738  35.259  30.301  1.00  0.00     0.054 A 
BRANCH  91  92
ATOM     92  S   UNL A   1      46.956  36.495  29.818  1.00  0.00     0.124 S 
ATOM     93  O   UNL A   1      46.170  37.353  28.933  1.00  0.00    -0.237 OA
ATOM     94  O   UNL A   1      47.333  37.091  31.097  1.00  0.00    -0.237 OA
ATOM     95  O   UNL A   1      48.003  35.714  29.166  1.00  0.00    -0.744 OA
ENDBRANCH  91  92
ENDBRANCH  65  86
ENDBRANCH  39  40
ENDBRANCH  31  34
ENDBRANCH  29  30
ENDBRANCH   1  29
TORSDOF 16
ENDMDL
MODEL 3
REMARK VINA RESULT:     -13.6      1.340      3.212
REMARK SMILES Cc1ccc(C(=O)NCCCNC(=O)c2ccc(-c3c4nc(c(-c5ccc(S(=O)(=O)[O-])cc5)c5ccc([nH]5)c(-c5ccc(S(=O)(=O)[O-])cc5)c5nc(c(-c6ccc(S(=O)(=O)[O-])cc6)c6ccc3[nH]6)C=C5)C=C4)cc2)cc1NC(=O)Cc1ccc2ccccc2c1
REMARK SMILES IDX 10 1 9 2 8 3 6 4 7 5 5 7 1 8 2 9 3 10 76 11 4 12 75 13 77 14
REMARK SMILES IDX 78 15 79 17 80 18 81 19 82 20 90 21 83 22 89 23 84 24 88 25
REMARK SMILES IDX 85 26 87 27 86 28 11 29 12 30 13 31 14 33 15 34 16 35 74 36
REMARK SMILES IDX 17 37 73 38 18 39 19 40 20 41 67 42 21 43 72 44 66 45 68 46
REMARK SMILES IDX 22 47 71 48 65 49 64 50 23 52 53 53 34 54 52 55 35 56 38 57
REMARK SMILES IDX 51 58 69 59 36 60 37 61 50 63 70 64 39 65 24 66 25 67 33 68
REMARK SMILES IDX 26 69 32 70 27 71 28 72 29 73 30 74 31 75 54 76 55 77 63 78
REMARK SMILES IDX 56 79 62 80 57 81 58 82 59 83 60 84 61 85 40 86 41 87 49 88
REMARK SMILES IDX 42 89 48 90 43 91 44 92 45 93 46 94 47 95
REMARK H PARENT 8 6 77 16 12 32 68 51 38 62
REMARK Flexibility Score: inf
ROOT
ATOM      1  C   UNL A   1      33.901  30.325  26.928  1.00  0.00     0.042 C 
ENDROOT
BRANCH   1   2
ATOM      2  C   UNL A   1      33.310  29.344  25.875  1.00  0.00     0.118 C 
BRANCH   2   3
ATOM      3  N   UNL A   1      32.097  29.919  25.312  1.00  0.00    -0.352 N 
ATOM      4  C   UNL A   1      31.178  29.311  24.509  1.00  0.00     0.251 C 
ATOM      5  O   UNL A   1      30.234  29.982  24.041  1.00  0.00    -0.269 OA
ATOM      6  H   UNL A   1      31.920  30.861  25.538  1.00  0.00     0.163 HD
BRANCH   4   7
ATOM      7  C   UNL A   1      31.193  27.834  24.327  1.00  0.00     0.041 A 
ATOM      8  C   UNL A   1      30.792  23.725  23.206  1.00  0.00     0.046 C 
ATOM      9  C   UNL A   1      30.881  25.136  23.717  1.00  0.00    -0.027 A 
ATOM     10  C   UNL A   1      31.393  26.056  22.761  1.00  0.00     0.006 A 
ATOM     11  C   UNL A   1      30.525  25.559  25.024  1.00  0.00     0.044 A 
ATOM     12  C   UNL A   1      31.517  27.400  23.051  1.00  0.00     0.014 A 
ATOM     13  C   UNL A   1      30.804  26.893  25.317  1.00  0.00     0.040 A 
BRANCH  11  14
ATOM     14  N   UNL A   1      29.895  24.643  25.938  1.00  0.00    -0.326 N 
ATOM     15  C   UNL A   1      30.265  23.718  26.919  1.00  0.00     0.228 C 
ATOM     16  H   UNL A   1      28.916  24.678  25.845  1.00  0.00     0.169 HD
ATOM     17  O   UNL A   1      29.350  23.160  27.532  1.00  0.00    -0.274 OA
BRANCH  15  18
ATOM     18  C   UNL A   1      31.706  23.451  27.241  1.00  0.00     0.135 C 
BRANCH  18  19
ATOM     19  C   UNL A   1      32.861  23.097  26.287  1.00  0.00    -0.038 A 
ATOM     20  C   UNL A   1      33.147  21.733  26.249  1.00  0.00     0.005 A 
ATOM     21  C   UNL A   1      33.763  23.851  25.548  1.00  0.00     0.013 A 
ATOM     22  C   UNL A   1      34.437  21.253  26.184  1.00  0.00     0.009 A 
ATOM     23  C   UNL A   1      34.942  23.211  24.985  1.00  0.00    -0.018 A 
ATOM     24  C   UNL A   1      35.364  21.994  25.538  1.00  0.00    -0.018 A 
ATOM     25  C   UNL A   1      35.679  23.588  23.846  1.00  0.00     0.009 A 
ATOM     26  C   UNL A   1      36.560  21.341  25.248  1.00  0.00     0.009 A 
ATOM     27  C   UNL A   1      36.735  22.780  23.359  1.00  0.00     0.001 A 
ATOM     28  C   UNL A   1      37.222  21.701  24.097  1.00  0.00     0.001 A 
ENDBRANCH  18  19
ENDBRANCH  15  18
ENDBRANCH  11  14
ENDBRANCH   4   7
ENDBRANCH   2   3
ENDBRANCH   1   2
BRANCH   1  29
ATOM     29  C   UNL A   1      35.029  29.622  27.699  1.00  0.00     0.118 C 
BRANCH  29  30
ATOM     30  N   UNL A   1      36.744  29.515  27.794  1.00  0.00    -0.352 N 
ATOM     31  C   UNL A   1      38.074  28.986  28.526  1.00  0.00     0.251 C 
ATOM     32  H   UNL A   1      37.071  30.033  27.022  1.00  0.00     0.163 HD
ATOM     33  O   UNL A   1      38.987  28.888  27.671  1.00  0.00    -0.269 OA
BRANCH  31  34
ATOM     34  C   UNL A   1      38.612  28.368  30.101  1.00  0.00     0.039 A 
ATOM     35  C   UNL A   1      37.728  28.361  31.235  1.00  0.00     0.014 A 
ATOM     36  C   UNL A   1      39.915  28.092  30.586  1.00  0.00     0.014 A 
ATOM     37  C   UNL A   1      38.212  28.782  32.577  1.00  0.00     0.010 A 
ATOM     38  C   UNL A   1      40.385  28.417  31.900  1.00  0.00     0.010 A 
ATOM     39  C   UNL A   1      39.576  29.115  32.766  1.00  0.00    -0.014 A 
BRANCH  39  40
ATOM     40  C   UNL A   1      40.245  30.398  33.361  1.00  0.00     0.031 A 
ATOM     41  C   UNL A   1      41.284  30.120  34.334  1.00  0.00     0.074 A 
ATOM     42  C   UNL A   1      40.294  31.737  33.009  1.00  0.00     0.049 A 
ATOM     43  N   UNL A   1      41.119  30.060  35.613  1.00  0.00    -0.248 NA
ATOM     44  C   UNL A   1      42.626  29.800  33.841  1.00  0.00     0.031 C 
ATOM     45  C   UNL A   1      40.905  32.923  33.651  1.00  0.00     0.029 A 
ATOM     46  N   UNL A   1      39.653  32.419  31.999  1.00  0.00    -0.354 N 
ATOM     47  C   UNL A   1      42.411  30.033  36.083  1.00  0.00     0.074 A 
ATOM     48  C   UNL A   1      43.210  29.486  34.996  1.00  0.00     0.031 C 
ATOM     49  C   UNL A   1      40.184  34.034  33.332  1.00  0.00     0.029 A 
ATOM     50  C   UNL A   1      39.110  33.620  32.455  1.00  0.00     0.049 A 
ATOM     51  H   UNL A   1      39.585  32.098  31.070  1.00  0.00     0.167 HD
ATOM     52  C   UNL A   1      42.862  30.980  36.963  1.00  0.00     0.031 A 
ATOM     53  C   UNL A   1      37.747  33.729  32.628  1.00  0.00     0.031 A 
ATOM     54  C   UNL A   1      41.946  32.127  37.089  1.00  0.00     0.049 A 
ATOM     55  C   UNL A   1      37.376  33.750  34.073  1.00  0.00     0.074 A 
ATOM     56  C   UNL A   1      42.082  33.471  36.766  1.00  0.00     0.029 A 
ATOM     57  N   UNL A   1      40.588  31.931  37.317  1.00  0.00    -0.354 N 
ATOM     58  N   UNL A   1      38.249  33.451  34.980  1.00  0.00    -0.248 NA
ATOM     59  C   UNL A   1      36.052  34.018  34.630  1.00  0.00     0.031 C 
ATOM     60  C   UNL A   1      40.788  34.060  36.747  1.00  0.00     0.029 A 
ATOM     61  C   UNL A   1      39.867  33.088  37.091  1.00  0.00     0.049 A 
ATOM     62  H   UNL A   1      40.191  31.076  37.605  1.00  0.00     0.167 HD
ATOM     63  C   UNL A   1      37.671  33.453  36.199  1.00  0.00     0.074 A 
ATOM     64  C   UNL A   1      36.294  33.836  35.943  1.00  0.00     0.031 C 
ATOM     65  C   UNL A   1      38.416  33.108  37.282  1.00  0.00     0.031 A 
BRANCH  52  66
ATOM     66  C   UNL A   1      44.305  30.996  37.421  1.00  0.00    -0.014 A 
ATOM     67  C   UNL A   1      45.267  31.751  36.729  1.00  0.00     0.010 A 
ATOM     68  C   UNL A   1      44.750  30.349  38.596  1.00  0.00     0.010 A 
ATOM     69  C   UNL A   1      46.603  31.810  37.154  1.00  0.00     0.020 A 
ATOM     70  C   UNL A   1      46.087  30.346  38.998  1.00  0.00     0.020 A 
ATOM     71  C   UNL A   1      47.007  31.097  38.281  1.00  0.00     0.054 A 
BRANCH  71  72
ATOM     72  S   UNL A   1      48.715  31.237  38.855  1.00  0.00     0.124 S 
ATOM     73  O   UNL A   1      49.314  32.120  37.858  1.00  0.00    -0.237 OA
ATOM     74  O   UNL A   1      48.548  31.809  40.188  1.00  0.00    -0.237 OA
ATOM     75  O   UNL A   1      49.205  29.859  38.832  1.00  0.00    -0.744 OA
ENDBRANCH  71  72
ENDBRANCH  52  66
BRANCH  53  76
ATOM     76  C   UNL A   1      36.904  32.972  31.625  1.00  0.00    -0.014 A 
ATOM     77  C   UNL A   1      35.767  32.422  32.179  1.00  0.00     0.010 A 
ATOM     78  C   UNL A   1      36.677  33.675  30.454  1.00  0.00     0.010 A 
ATOM     79  C   UNL A   1      34.531  33.037  31.906  1.00  0.00     0.020 A 
ATOM     80  C   UNL A   1      35.477  34.434  30.453  1.00  0.00     0.020 A 
ATOM     81  C   UNL A   1      34.392  34.283  31.258  1.00  0.00     0.054 A 
BRANCH  81  82
ATOM     82  S   UNL A   1      32.876  35.874  31.342  1.00  0.00     0.124 S 
ATOM     83  O   UNL A   1      33.535  37.091  31.824  1.00  0.00    -0.237 OA
ATOM     84  O   UNL A   1      32.325  36.136  30.019  1.00  0.00    -0.237 OA
ATOM     85  O   UNL A   1      31.879  35.278  32.216  1.00  0.00    -0.744 OA
ENDBRANCH  81  82
ENDBRANCH  53  76
BRANCH  65  86
ATOM     86  C   UNL A   1      37.864  32.849  38.642  1.00  0.00    -0.014 A 
ATOM     87  C   UNL A   1      38.045  33.701  39.739  1.00  0.00     0.010 A 
ATOM     88  C   UNL A   1      37.028  31.723  38.816  1.00  0.00     0.010 A 
ATOM     89  C   UNL A   1      37.506  33.382  40.985  1.00  0.00     0.020 A 
ATOM     90  C   UNL A   1      36.430  31.434  40.034  1.00  0.00     0.020 A 
ATOM     91  C   UNL A   1      36.712  32.244  41.124  1.00  0.00     0.054 A 
BRANCH  91  92
ATOM     92  S   UNL A   1      36.039  31.839  42.746  1.00  0.00     0.124 S 
ATOM     93  O   UNL A   1      34.675  31.438  42.407  1.00  0.00    -0.237 OA
ATOM     94  O   UNL A   1      36.917  30.763  43.198  1.00  0.00    -0.237 OA
ATOM     95  O   UNL A   1      36.158  33.089  43.492  1.00  0.00    -0.744 OA
ENDBRANCH  91  92
ENDBRANCH  65  86
ENDBRANCH  39  40
ENDBRANCH  31  34
ENDBRANCH  29  30
ENDBRANCH   1  29
TORSDOF 16
ENDMDL
