MODEL 1
REMARK VINA RESULT:     -12.2      0.000      0.000
REMARK SMILES CC(C)(C)c1cc2c(cc1Cl)C=C(C(=O)NCCCNC(=O)c1ccc(-c3c4nc(c(-c5ccc(S(=O)(=O)[O-])cc5)c5ccc([nH]5)c(-c5ccc(S(=O)(=O)[O-])cc5)c5nc(c(-c6ccc(S(=O)(=O)[O-])cc6)c6ccc3[nH]6)C=C5)C=C4)cc1)[C@H](C(F)(F)F)O2
REMARK SMILES IDX 19 1 18 2 17 3 16 4 14 5 15 6 13 8 5 9 6 10 10 11 7 12 9 13
REMARK SMILES IDX 11 14 8 15 88 16 12 17 83 18 2 19 1 20 3 21 4 22 84 23 85 24
REMARK SMILES IDX 86 25 87 26 20 27 21 28 22 30 23 31 24 32 82 33 25 34 81 35
REMARK SMILES IDX 26 36 27 37 28 38 75 39 29 40 80 41 74 42 76 43 30 44 79 45
REMARK SMILES IDX 73 46 72 47 31 49 61 50 42 51 60 52 43 53 46 54 59 55 77 56
REMARK SMILES IDX 44 57 45 58 58 60 78 61 47 62 32 63 33 64 41 65 34 66 40 67
REMARK SMILES IDX 35 68 36 69 37 70 38 71 39 72 62 73 63 74 71 75 64 76 70 77
REMARK SMILES IDX 65 78 66 79 67 80 68 81 69 82 48 83 49 84 57 85 50 86 56 87
REMARK SMILES IDX 51 88 52 89 53 90 54 91 55 92
REMARK H PARENT 16 7 20 29 76 48 46 59
REMARK Flexibility Score: inf
ROOT
ATOM      1  C   UNL A   1      33.297  28.530  27.248  1.00  0.00     0.118 C 
ENDROOT
BRANCH   1   2
ATOM      2  C   UNL A   1      33.758  28.137  25.852  1.00  0.00     0.042 C 
BRANCH   2   3
ATOM      3  C   UNL A   1      32.722  28.460  24.786  1.00  0.00     0.118 C 
BRANCH   3   4
ATOM      4  N   UNL A   1      33.271  28.311  23.449  1.00  0.00    -0.352 N 
ATOM      5  C   UNL A   1      33.506  27.301  22.581  1.00  0.00     0.251 C 
ATOM      6  O   UNL A   1      33.956  27.646  21.483  1.00  0.00    -0.270 OA
ATOM      7  H   UNL A   1      33.546  29.179  23.073  1.00  0.00     0.163 HD
BRANCH   5   8
ATOM      8  C   UNL A   1      33.249  25.857  22.851  1.00  0.00     0.067 C 
ATOM      9  C   UNL A   1      33.722  21.004  24.311  1.00  0.00    -0.020 A 
ATOM     10  C   UNL A   1      32.817  21.758  23.530  1.00  0.00     0.053 A 
ATOM     11  C   UNL A   1      34.787  21.732  24.887  1.00  0.00     0.045 A 
ATOM     12  C   UNL A   1      32.987  23.118  23.283  1.00  0.00     0.128 A 
ATOM     13  C   UNL A   1      34.957  23.109  24.627  1.00  0.00     0.032 A 
ATOM     14  Cl  UNL A   1      35.956  21.077  25.978  1.00  0.00    -0.084 Cl
ATOM     15  C   UNL A   1      34.063  23.803  23.816  1.00  0.00     0.019 A 
ATOM     16  O   UNL A   1      32.067  23.693  22.460  1.00  0.00    -0.475 OA
ATOM     17  C   UNL A   1      34.242  25.211  23.492  1.00  0.00     0.025 C 
ATOM     18  C   UNL A   1      31.967  25.139  22.521  1.00  0.00     0.314 C 
BRANCH   9  19
ATOM     19  C   UNL A   1      33.407  19.497  24.482  1.00  0.00    -0.012 C 
ATOM     20  C   UNL A   1      32.470  19.077  23.332  1.00  0.00     0.016 C 
ATOM     21  C   UNL A   1      32.756  19.082  25.816  1.00  0.00     0.016 C 
ATOM     22  C   UNL A   1      34.705  18.640  24.395  1.00  0.00     0.016 C 
ENDBRANCH   9  19
BRANCH  18  23
ATOM     23  C   UNL A   1      30.775  25.541  23.406  1.00  0.00     0.429 C 
ATOM     24  F   UNL A   1      31.164  25.601  24.705  1.00  0.00    -0.167 F 
ATOM     25  F   UNL A   1      30.269  26.753  23.083  1.00  0.00    -0.167 F 
ATOM     26  F   UNL A   1      29.754  24.656  23.340  1.00  0.00    -0.167 F 
ENDBRANCH  18  23
ENDBRANCH   5   8
ENDBRANCH   3   4
ENDBRANCH   2   3
ENDBRANCH   1   2
BRANCH   1  27
ATOM     27  N   UNL A   1      33.335  29.975  27.446  1.00  0.00    -0.352 N 
ATOM     28  C   UNL A   1      34.310  30.770  28.003  1.00  0.00     0.251 C 
ATOM     29  H   UNL A   1      32.537  30.459  27.131  1.00  0.00     0.163 HD
ATOM     30  O   UNL A   1      34.047  31.930  28.296  1.00  0.00    -0.269 OA
BRANCH  28  31
ATOM     31  C   UNL A   1      35.657  30.217  28.264  1.00  0.00     0.039 A 
ATOM     32  C   UNL A   1      35.961  29.647  29.499  1.00  0.00     0.014 A 
ATOM     33  C   UNL A   1      36.633  30.270  27.264  1.00  0.00     0.014 A 
ATOM     34  C   UNL A   1      37.275  29.335  29.809  1.00  0.00     0.010 A 
ATOM     35  C   UNL A   1      37.930  29.824  27.537  1.00  0.00     0.010 A 
ATOM     36  C   UNL A   1      38.276  29.403  28.828  1.00  0.00    -0.014 A 
BRANCH  36  37
ATOM     37  C   UNL A   1      39.663  28.999  29.185  1.00  0.00     0.031 A 
ATOM     38  C   UNL A   1      40.537  29.886  30.033  1.00  0.00     0.074 A 
ATOM     39  C   UNL A   1      40.111  27.791  28.787  1.00  0.00     0.049 A 
ATOM     40  N   UNL A   1      41.750  29.659  30.469  1.00  0.00    -0.248 NA
ATOM     41  C   UNL A   1      39.993  31.191  30.437  1.00  0.00     0.031 C 
ATOM     42  C   UNL A   1      39.348  26.843  27.970  1.00  0.00     0.029 A 
ATOM     43  N   UNL A   1      41.288  27.132  29.040  1.00  0.00    -0.354 N 
ATOM     44  C   UNL A   1      42.122  30.801  31.170  1.00  0.00     0.074 A 
ATOM     45  C   UNL A   1      41.021  31.732  31.077  1.00  0.00     0.031 C 
ATOM     46  C   UNL A   1      40.039  25.703  27.857  1.00  0.00     0.029 A 
ATOM     47  C   UNL A   1      41.334  25.864  28.508  1.00  0.00     0.049 A 
ATOM     48  H   UNL A   1      42.029  27.529  29.553  1.00  0.00     0.167 HD
ATOM     49  C   UNL A   1      43.275  31.040  31.838  1.00  0.00     0.031 A 
ATOM     50  C   UNL A   1      42.307  24.932  28.522  1.00  0.00     0.031 A 
ATOM     51  C   UNL A   1      44.352  30.089  31.946  1.00  0.00     0.049 A 
ATOM     52  C   UNL A   1      43.583  25.228  29.252  1.00  0.00     0.074 A 
ATOM     53  C   UNL A   1      45.540  30.221  32.644  1.00  0.00     0.029 A 
ATOM     54  N   UNL A   1      44.380  28.836  31.347  1.00  0.00    -0.354 N 
ATOM     55  N   UNL A   1      43.902  26.300  29.936  1.00  0.00    -0.248 NA
ATOM     56  C   UNL A   1      44.627  24.197  29.220  1.00  0.00     0.031 C 
ATOM     57  C   UNL A   1      46.320  29.092  32.394  1.00  0.00     0.029 A 
ATOM     58  C   UNL A   1      45.583  28.207  31.623  1.00  0.00     0.049 A 
ATOM     59  H   UNL A   1      43.652  28.453  30.806  1.00  0.00     0.167 HD
ATOM     60  C   UNL A   1      45.182  26.071  30.425  1.00  0.00     0.074 A 
ATOM     61  C   UNL A   1      45.567  24.747  29.979  1.00  0.00     0.031 C 
ATOM     62  C   UNL A   1      45.965  26.890  31.170  1.00  0.00     0.031 A 
BRANCH  49  63
ATOM     63  C   UNL A   1      43.460  32.382  32.506  1.00  0.00    -0.014 A 
ATOM     64  C   UNL A   1      43.014  32.563  33.830  1.00  0.00     0.010 A 
ATOM     65  C   UNL A   1      43.952  33.494  31.798  1.00  0.00     0.010 A 
ATOM     66  C   UNL A   1      43.018  33.830  34.418  1.00  0.00     0.020 A 
ATOM     67  C   UNL A   1      43.992  34.758  32.396  1.00  0.00     0.020 A 
ATOM     68  C   UNL A   1      43.500  34.923  33.693  1.00  0.00     0.054 A 
BRANCH  68  69
ATOM     69  S   UNL A   1      43.464  36.565  34.463  1.00  0.00     0.124 S 
ATOM     70  O   UNL A   1      43.889  37.429  33.367  1.00  0.00    -0.237 OA
ATOM     71  O   UNL A   1      42.067  36.697  34.868  1.00  0.00    -0.237 OA
ATOM     72  O   UNL A   1      44.413  36.445  35.569  1.00  0.00    -0.744 OA
ENDBRANCH  68  69
ENDBRANCH  49  63
BRANCH  50  73
ATOM     73  C   UNL A   1      42.062  23.635  27.828  1.00  0.00    -0.014 A 
ATOM     74  C   UNL A   1      41.526  22.543  28.540  1.00  0.00     0.010 A 
ATOM     75  C   UNL A   1      42.495  23.439  26.506  1.00  0.00     0.010 A 
ATOM     76  C   UNL A   1      41.516  21.265  27.979  1.00  0.00     0.020 A 
ATOM     77  C   UNL A   1      42.449  22.166  25.926  1.00  0.00     0.020 A 
ATOM     78  C   UNL A   1      41.999  21.081  26.682  1.00  0.00     0.054 A 
BRANCH  78  79
ATOM     79  S   UNL A   1      42.081  19.394  26.020  1.00  0.00     0.124 S 
ATOM     80  O   UNL A   1      40.679  19.128  25.707  1.00  0.00    -0.237 OA
ATOM     81  O   UNL A   1      42.965  19.548  24.867  1.00  0.00    -0.237 OA
ATOM     82  O   UNL A   1      42.633  18.617  27.126  1.00  0.00    -0.744 OA
ENDBRANCH  78  79
ENDBRANCH  50  73
BRANCH  62  83
ATOM     83  C   UNL A   1      47.337  26.403  31.563  1.00  0.00    -0.014 A 
ATOM     84  C   UNL A   1      48.380  26.425  30.619  1.00  0.00     0.010 A 
ATOM     85  C   UNL A   1      47.555  25.788  32.809  1.00  0.00     0.010 A 
ATOM     86  C   UNL A   1      49.599  25.800  30.891  1.00  0.00     0.020 A 
ATOM     87  C   UNL A   1      48.787  25.195  33.100  1.00  0.00     0.020 A 
ATOM     88  C   UNL A   1      49.789  25.177  32.128  1.00  0.00     0.054 A 
BRANCH  88  89
ATOM     89  S   UNL A   1      51.360  24.328  32.443  1.00  0.00     0.124 S 
ATOM     90  O   UNL A   1      52.287  25.072  31.593  1.00  0.00    -0.237 OA
ATOM     91  O   UNL A   1      51.540  24.510  33.881  1.00  0.00    -0.237 OA
ATOM     92  O   UNL A   1      51.098  22.953  32.025  1.00  0.00    -0.744 OA
ENDBRANCH  88  89
ENDBRANCH  62  83
ENDBRANCH  36  37
ENDBRANCH  28  31
ENDBRANCH   1  27
TORSDOF 15
ENDMDL
MODEL 2
REMARK VINA RESULT:     -12.1      4.625      7.368
REMARK SMILES CC(C)(C)c1cc2c(cc1Cl)C=C(C(=O)NCCCNC(=O)c1ccc(-c3c4nc(c(-c5ccc(S(=O)(=O)[O-])cc5)c5ccc([nH]5)c(-c5ccc(S(=O)(=O)[O-])cc5)c5nc(c(-c6ccc(S(=O)(=O)[O-])cc6)c6ccc3[nH]6)C=C5)C=C4)cc1)[C@H](C(F)(F)F)O2
REMARK SMILES IDX 19 1 18 2 17 3 16 4 14 5 15 6 13 8 5 9 6 10 10 11 7 12 9 13
REMARK SMILES IDX 11 14 8 15 88 16 12 17 83 18 2 19 1 20 3 21 4 22 84 23 85 24
REMARK SMILES IDX 86 25 87 26 20 27 21 28 22 30 23 31 24 32 82 33 25 34 81 35
REMARK SMILES IDX 26 36 27 37 28 38 75 39 29 40 80 41 74 42 76 43 30 44 79 45
REMARK SMILES IDX 73 46 72 47 31 49 61 50 42 51 60 52 43 53 46 54 59 55 77 56
REMARK SMILES IDX 44 57 45 58 58 60 78 61 47 62 32 63 33 64 41 65 34 66 40 67
REMARK SMILES IDX 35 68 36 69 37 70 38 71 39 72 62 73 63 74 71 75 64 76 70 77
REMARK SMILES IDX 65 78 66 79 67 80 68 81 69 82 48 83 49 84 57 85 50 86 56 87
REMARK SMILES IDX 51 88 52 89 53 90 54 91 55 92
REMARK H PARENT 16 7 20 29 76 48 46 59
REMARK Flexibility Score: inf
ROOT
ATOM      1  C   UNL A   1      34.410  32.510  27.734  1.00  0.00     0.118 C 
ENDROOT
BRANCH   1   2
ATOM      2  C   UNL A   1      34.111  33.355  28.964  1.00  0.00     0.042 C 
BRANCH   2   3
ATOM      3  C   UNL A   1      35.041  33.038  30.125  1.00  0.00     0.118 C 
BRANCH   3   4
ATOM      4  N   UNL A   1      34.332  33.057  31.394  1.00  0.00    -0.352 N 
ATOM      5  C   UNL A   1      34.632  32.871  32.699  1.00  0.00     0.251 C 
ATOM      6  O   UNL A   1      33.693  33.042  33.483  1.00  0.00    -0.270 OA
ATOM      7  H   UNL A   1      33.377  33.261  31.270  1.00  0.00     0.163 HD
BRANCH   5   8
ATOM      8  C   UNL A   1      35.977  32.503  33.229  1.00  0.00     0.067 C 
ATOM      9  C   UNL A   1      40.260  29.997  34.361  1.00  0.00    -0.020 A 
ATOM     10  C   UNL A   1      39.632  31.196  34.769  1.00  0.00     0.053 A 
ATOM     11  C   UNL A   1      39.584  29.264  33.360  1.00  0.00     0.045 A 
ATOM     12  C   UNL A   1      38.399  31.607  34.273  1.00  0.00     0.128 A 
ATOM     13  C   UNL A   1      38.330  29.683  32.866  1.00  0.00     0.032 A 
ATOM     14  Cl  UNL A   1      40.192  27.835  32.600  1.00  0.00    -0.084 Cl
ATOM     15  C   UNL A   1      37.729  30.851  33.329  1.00  0.00     0.019 A 
ATOM     16  O   UNL A   1      37.893  32.752  34.810  1.00  0.00    -0.475 OA
ATOM     17  C   UNL A   1      36.415  31.280  32.874  1.00  0.00     0.025 C 
ATOM     18  C   UNL A   1      36.854  33.416  34.044  1.00  0.00     0.314 C 
BRANCH   9  19
ATOM     19  C   UNL A   1      41.624  29.666  35.015  1.00  0.00    -0.012 C 
ATOM     20  C   UNL A   1      42.051  30.884  35.859  1.00  0.00     0.016 C 
ATOM     21  C   UNL A   1      42.776  29.314  34.053  1.00  0.00     0.016 C 
ATOM     22  C   UNL A   1      41.509  28.431  35.958  1.00  0.00     0.016 C 
ENDBRANCH   9  19
BRANCH  18  23
ATOM     23  C   UNL A   1      37.462  34.582  33.246  1.00  0.00     0.429 C 
ATOM     24  F   UNL A   1      36.484  35.448  32.876  1.00  0.00    -0.167 F 
ATOM     25  F   UNL A   1      38.371  35.285  33.958  1.00  0.00    -0.167 F 
ATOM     26  F   UNL A   1      38.076  34.174  32.113  1.00  0.00    -0.167 F 
ENDBRANCH  18  23
ENDBRANCH   5   8
ENDBRANCH   3   4
ENDBRANCH   2   3
ENDBRANCH   1   2
BRANCH   1  27
ATOM     27  N   UNL A   1      33.756  31.207  27.797  1.00  0.00    -0.352 N 
ATOM     28  C   UNL A   1      34.298  29.945  27.881  1.00  0.00     0.251 C 
ATOM     29  H   UNL A   1      32.772  31.235  27.779  1.00  0.00     0.163 HD
ATOM     30  O   UNL A   1      33.585  28.969  27.680  1.00  0.00    -0.269 OA
BRANCH  28  31
ATOM     31  C   UNL A   1      35.735  29.774  28.189  1.00  0.00     0.039 A 
ATOM     32  C   UNL A   1      36.700  29.992  27.207  1.00  0.00     0.014 A 
ATOM     33  C   UNL A   1      36.125  29.389  29.475  1.00  0.00     0.014 A 
ATOM     34  C   UNL A   1      38.014  29.619  27.439  1.00  0.00     0.010 A 
ATOM     35  C   UNL A   1      37.476  29.146  29.745  1.00  0.00     0.010 A 
ATOM     36  C   UNL A   1      38.426  29.206  28.716  1.00  0.00    -0.014 A 
BRANCH  36  37
ATOM     37  C   UNL A   1      39.859  28.874  28.938  1.00  0.00     0.031 A 
ATOM     38  C   UNL A   1      40.775  29.829  29.658  1.00  0.00     0.074 A 
ATOM     39  C   UNL A   1      40.317  27.671  28.537  1.00  0.00     0.049 A 
ATOM     40  N   UNL A   1      42.036  29.670  29.971  1.00  0.00    -0.248 NA
ATOM     41  C   UNL A   1      40.217  31.126  30.071  1.00  0.00     0.031 C 
ATOM     42  C   UNL A   1      39.517  26.661  27.838  1.00  0.00     0.029 A 
ATOM     43  N   UNL A   1      41.543  27.072  28.687  1.00  0.00    -0.354 N 
ATOM     44  C   UNL A   1      42.427  30.853  30.589  1.00  0.00     0.074 A 
ATOM     45  C   UNL A   1      41.281  31.733  30.581  1.00  0.00     0.031 C 
ATOM     46  C   UNL A   1      40.243  25.547  27.693  1.00  0.00     0.029 A 
ATOM     47  C   UNL A   1      41.590  25.786  28.198  1.00  0.00     0.049 A 
ATOM     48  H   UNL A   1      42.314  27.519  29.105  1.00  0.00     0.167 HD
ATOM     49  C   UNL A   1      43.630  31.165  31.123  1.00  0.00     0.031 A 
ATOM     50  C   UNL A   1      42.601  24.897  28.142  1.00  0.00     0.031 A 
ATOM     51  C   UNL A   1      44.755  30.264  31.150  1.00  0.00     0.049 A 
ATOM     52  C   UNL A   1      43.930  25.274  28.722  1.00  0.00     0.074 A 
ATOM     53  C   UNL A   1      46.001  30.473  31.714  1.00  0.00     0.029 A 
ATOM     54  N   UNL A   1      44.777  28.991  30.595  1.00  0.00    -0.354 N 
ATOM     55  N   UNL A   1      44.270  26.384  29.331  1.00  0.00    -0.248 NA
ATOM     56  C   UNL A   1      45.011  24.286  28.616  1.00  0.00     0.031 C 
ATOM     57  C   UNL A   1      46.802  29.368  31.422  1.00  0.00     0.029 A 
ATOM     58  C   UNL A   1      46.030  28.424  30.765  1.00  0.00     0.049 A 
ATOM     59  H   UNL A   1      44.015  28.557  30.148  1.00  0.00     0.167 HD
ATOM     60  C   UNL A   1      45.603  26.227  29.691  1.00  0.00     0.074 A 
ATOM     61  C   UNL A   1      45.999  24.904  29.252  1.00  0.00     0.031 C 
ATOM     62  C   UNL A   1      46.421  27.107  30.320  1.00  0.00     0.031 A 
BRANCH  49  63
ATOM     63  C   UNL A   1      43.823  32.539  31.721  1.00  0.00    -0.014 A 
ATOM     64  C   UNL A   1      43.482  32.760  33.070  1.00  0.00     0.010 A 
ATOM     65  C   UNL A   1      44.215  33.635  30.931  1.00  0.00     0.010 A 
ATOM     66  C   UNL A   1      43.491  34.050  33.607  1.00  0.00     0.020 A 
ATOM     67  C   UNL A   1      44.260  34.924  31.475  1.00  0.00     0.020 A 
ATOM     68  C   UNL A   1      43.872  35.126  32.802  1.00  0.00     0.054 A 
BRANCH  68  69
ATOM     69  S   UNL A   1      43.843  36.797  33.508  1.00  0.00     0.124 S 
ATOM     70  O   UNL A   1      43.991  37.636  32.323  1.00  0.00    -0.237 OA
ATOM     71  O   UNL A   1      42.536  36.845  34.158  1.00  0.00    -0.237 OA
ATOM     72  O   UNL A   1      44.983  36.801  34.424  1.00  0.00    -0.744 OA
ENDBRANCH  68  69
ENDBRANCH  49  63
BRANCH  50  73
ATOM     73  C   UNL A   1      42.344  23.564  27.523  1.00  0.00    -0.014 A 
ATOM     74  C   UNL A   1      41.814  22.514  28.300  1.00  0.00     0.010 A 
ATOM     75  C   UNL A   1      42.759  23.295  26.208  1.00  0.00     0.010 A 
ATOM     76  C   UNL A   1      41.794  21.208  27.810  1.00  0.00     0.020 A 
ATOM     77  C   UNL A   1      42.703  21.992  25.699  1.00  0.00     0.020 A 
ATOM     78  C   UNL A   1      42.260  20.952  26.519  1.00  0.00     0.054 A 
BRANCH  78  79
ATOM     79  S   UNL A   1      42.330  19.231  25.949  1.00  0.00     0.124 S 
ATOM     80  O   UNL A   1      40.921  18.945  25.692  1.00  0.00    -0.237 OA
ATOM     81  O   UNL A   1      43.180  19.323  24.765  1.00  0.00    -0.237 OA
ATOM     82  O   UNL A   1      42.916  18.518  27.080  1.00  0.00    -0.744 OA
ENDBRANCH  78  79
ENDBRANCH  50  73
BRANCH  62  83
ATOM     83  C   UNL A   1      47.847  26.692  30.582  1.00  0.00    -0.014 A 
ATOM     84  C   UNL A   1      48.162  25.992  31.762  1.00  0.00     0.010 A 
ATOM     85  C   UNL A   1      48.890  27.121  29.742  1.00  0.00     0.010 A 
ATOM     86  C   UNL A   1      49.494  25.772  32.123  1.00  0.00     0.020 A 
ATOM     87  C   UNL A   1      50.222  26.869  30.081  1.00  0.00     0.020 A 
ATOM     88  C   UNL A   1      50.516  26.224  31.285  1.00  0.00     0.054 A 
BRANCH  88  89
ATOM     89  S   UNL A   1      52.237  25.973  31.797  1.00  0.00     0.124 S 
ATOM     90  O   UNL A   1      52.484  27.145  32.631  1.00  0.00    -0.237 OA
ATOM     91  O   UNL A   1      52.178  24.697  32.506  1.00  0.00    -0.237 OA
ATOM     92  O   UNL A   1      52.971  25.940  30.533  1.00  0.00    -0.744 OA
ENDBRANCH  88  89
ENDBRANCH  62  83
ENDBRANCH  36  37
ENDBRANCH  28  31
ENDBRANCH   1  27
TORSDOF 15
ENDMDL
MODEL 3
REMARK VINA RESULT:     -12.0      1.445      1.996
REMARK SMILES CC(C)(C)c1cc2c(cc1Cl)C=C(C(=O)NCCCNC(=O)c1ccc(-c3c4nc(c(-c5ccc(S(=O)(=O)[O-])cc5)c5ccc([nH]5)c(-c5ccc(S(=O)(=O)[O-])cc5)c5nc(c(-c6ccc(S(=O)(=O)[O-])cc6)c6ccc3[nH]6)C=C5)C=C4)cc1)[C@H](C(F)(F)F)O2
REMARK SMILES IDX 19 1 18 2 17 3 16 4 14 5 15 6 13 8 5 9 6 10 10 11 7 12 9 13
REMARK SMILES IDX 11 14 8 15 88 16 12 17 83 18 2 19 1 20 3 21 4 22 84 23 85 24
REMARK SMILES IDX 86 25 87 26 20 27 21 28 22 30 23 31 24 32 82 33 25 34 81 35
REMARK SMILES IDX 26 36 27 37 28 38 75 39 29 40 80 41 74 42 76 43 30 44 79 45
REMARK SMILES IDX 73 46 72 47 31 49 61 50 42 51 60 52 43 53 46 54 59 55 77 56
REMARK SMILES IDX 44 57 45 58 58 60 78 61 47 62 32 63 33 64 41 65 34 66 40 67
REMARK SMILES IDX 35 68 36 69 37 70 38 71 39 72 62 73 63 74 71 75 64 76 70 77
REMARK SMILES IDX 65 78 66 79 67 80 68 81 69 82 48 83 49 84 57 85 50 86 56 87
REMARK SMILES IDX 51 88 52 89 53 90 54 91 55 92
REMARK H PARENT 16 7 20 29 76 48 46 59
REMARK Flexibility Score: inf
ROOT
ATOM      1  C   UNL A   1      33.364  28.540  27.177  1.00  0.00     0.118 C 
ENDROOT
BRANCH   1   2
ATOM      2  C   UNL A   1      31.951  28.037  26.918  1.00  0.00     0.042 C 
BRANCH   2   3
ATOM      3  C   UNL A   1      31.923  26.571  26.510  1.00  0.00     0.118 C 
BRANCH   3   4
ATOM      4  N   UNL A   1      31.563  26.415  25.111  1.00  0.00    -0.352 N 
ATOM      5  C   UNL A   1      31.637  25.446  24.171  1.00  0.00     0.251 C 
ATOM      6  O   UNL A   1      31.141  25.737  23.077  1.00  0.00    -0.270 OA
ATOM      7  H   UNL A   1      31.155  27.235  24.750  1.00  0.00     0.163 HD
BRANCH   5   8
ATOM      8  C   UNL A   1      32.240  24.097  24.371  1.00  0.00     0.067 C 
ATOM      9  C   UNL A   1      33.338  19.139  24.021  1.00  0.00    -0.020 A 
ATOM     10  C   UNL A   1      33.652  20.202  24.899  1.00  0.00     0.053 A 
ATOM     11  C   UNL A   1      32.528  19.480  22.915  1.00  0.00     0.045 A 
ATOM     12  C   UNL A   1      33.151  21.490  24.733  1.00  0.00     0.128 A 
ATOM     13  C   UNL A   1      32.018  20.786  22.755  1.00  0.00     0.032 A 
ATOM     14  Cl  UNL A   1      32.102  18.402  21.633  1.00  0.00    -0.084 Cl
ATOM     15  C   UNL A   1      32.320  21.792  23.670  1.00  0.00     0.019 A 
ATOM     16  O   UNL A   1      33.491  22.391  25.695  1.00  0.00    -0.475 OA
ATOM     17  C   UNL A   1      31.767  23.134  23.557  1.00  0.00     0.025 C 
ATOM     18  C   UNL A   1      33.348  23.791  25.345  1.00  0.00     0.314 C 
BRANCH   9  19
ATOM     19  C   UNL A   1      33.960  17.759  24.348  1.00  0.00    -0.012 C 
ATOM     20  C   UNL A   1      35.422  17.989  24.780  1.00  0.00     0.016 C 
ATOM     21  C   UNL A   1      33.947  16.718  23.211  1.00  0.00     0.016 C 
ATOM     22  C   UNL A   1      33.204  17.068  25.522  1.00  0.00     0.016 C 
ENDBRANCH   9  19
BRANCH  18  23
ATOM     23  C   UNL A   1      34.716  24.369  24.943  1.00  0.00     0.429 C 
ATOM     24  F   UNL A   1      34.753  25.699  25.212  1.00  0.00    -0.167 F 
ATOM     25  F   UNL A   1      35.742  23.796  25.611  1.00  0.00    -0.167 F 
ATOM     26  F   UNL A   1      34.975  24.227  23.623  1.00  0.00    -0.167 F 
ENDBRANCH  18  23
ENDBRANCH   5   8
ENDBRANCH   3   4
ENDBRANCH   2   3
ENDBRANCH   1   2
BRANCH   1  27
ATOM     27  N   UNL A   1      33.391  29.974  27.441  1.00  0.00    -0.352 N 
ATOM     28  C   UNL A   1      34.350  30.746  28.057  1.00  0.00     0.251 C 
ATOM     29  H   UNL A   1      32.599  30.469  27.129  1.00  0.00     0.163 HD
ATOM     30  O   UNL A   1      34.075  31.891  28.395  1.00  0.00    -0.269 OA
BRANCH  28  31
ATOM     31  C   UNL A   1      35.692  30.185  28.326  1.00  0.00     0.039 A 
ATOM     32  C   UNL A   1      35.974  29.581  29.550  1.00  0.00     0.014 A 
ATOM     33  C   UNL A   1      36.684  30.265  27.345  1.00  0.00     0.014 A 
ATOM     34  C   UNL A   1      37.283  29.259  29.874  1.00  0.00     0.010 A 
ATOM     35  C   UNL A   1      37.977  29.811  27.627  1.00  0.00     0.010 A 
ATOM     36  C   UNL A   1      38.301  29.354  28.913  1.00  0.00    -0.014 A 
BRANCH  36  37
ATOM     37  C   UNL A   1      39.681  28.940  29.283  1.00  0.00     0.031 A 
ATOM     38  C   UNL A   1      40.542  29.805  30.164  1.00  0.00     0.074 A 
ATOM     39  C   UNL A   1      40.134  27.741  28.863  1.00  0.00     0.049 A 
ATOM     40  N   UNL A   1      41.748  29.566  30.614  1.00  0.00    -0.248 NA
ATOM     41  C   UNL A   1      39.993  31.101  30.590  1.00  0.00     0.031 C 
ATOM     42  C   UNL A   1      39.383  26.814  28.012  1.00  0.00     0.029 A 
ATOM     43  N   UNL A   1      41.306  27.074  29.119  1.00  0.00    -0.354 N 
ATOM     44  C   UNL A   1      42.110  30.691  31.349  1.00  0.00     0.074 A 
ATOM     45  C   UNL A   1      41.012  31.625  31.260  1.00  0.00     0.031 C 
ATOM     46  C   UNL A   1      40.074  25.675  27.883  1.00  0.00     0.029 A 
ATOM     47  C   UNL A   1      41.359  25.819  28.559  1.00  0.00     0.049 A 
ATOM     48  H   UNL A   1      42.039  27.458  29.653  1.00  0.00     0.167 HD
ATOM     49  C   UNL A   1      43.252  30.912  32.040  1.00  0.00     0.031 A 
ATOM     50  C   UNL A   1      42.331  24.885  28.566  1.00  0.00     0.031 A 
ATOM     51  C   UNL A   1      44.326  29.957  32.143  1.00  0.00     0.049 A 
ATOM     52  C   UNL A   1      43.595  25.162  29.323  1.00  0.00     0.074 A 
ATOM     53  C   UNL A   1      45.503  30.071  32.863  1.00  0.00     0.029 A 
ATOM     54  N   UNL A   1      44.362  28.719  31.516  1.00  0.00    -0.354 N 
ATOM     55  N   UNL A   1      43.904  26.217  30.037  1.00  0.00    -0.248 NA
ATOM     56  C   UNL A   1      44.638  24.130  29.283  1.00  0.00     0.031 C 
ATOM     57  C   UNL A   1      46.286  28.947  32.599  1.00  0.00     0.029 A 
ATOM     58  C   UNL A   1      45.560  28.081  31.796  1.00  0.00     0.049 A 
ATOM     59  H   UNL A   1      43.643  28.349  30.954  1.00  0.00     0.167 HD
ATOM     60  C   UNL A   1      45.176  25.975  30.542  1.00  0.00     0.074 A 
ATOM     61  C   UNL A   1      45.567  24.660  30.071  1.00  0.00     0.031 C 
ATOM     62  C   UNL A   1      45.947  26.775  31.318  1.00  0.00     0.031 A 
BRANCH  49  63
ATOM     63  C   UNL A   1      43.428  32.238  32.743  1.00  0.00    -0.014 A 
ATOM     64  C   UNL A   1      42.864  32.424  34.020  1.00  0.00     0.010 A 
ATOM     65  C   UNL A   1      44.032  33.334  32.102  1.00  0.00     0.010 A 
ATOM     66  C   UNL A   1      42.865  33.683  34.625  1.00  0.00     0.020 A 
ATOM     67  C   UNL A   1      44.067  34.589  32.719  1.00  0.00     0.020 A 
ATOM     68  C   UNL A   1      43.459  34.762  33.966  1.00  0.00     0.054 A 
BRANCH  68  69
ATOM     69  S   UNL A   1      43.419  36.395  34.752  1.00  0.00     0.124 S 
ATOM     70  O   UNL A   1      44.825  36.621  35.069  1.00  0.00    -0.237 OA
ATOM     71  O   UNL A   1      42.862  37.242  33.700  1.00  0.00    -0.237 OA
ATOM     72  O   UNL A   1      42.543  36.197  35.906  1.00  0.00    -0.744 OA
ENDBRANCH  68  69
ENDBRANCH  49  63
BRANCH  50  73
ATOM     73  C   UNL A   1      42.095  23.605  27.838  1.00  0.00    -0.014 A 
ATOM     74  C   UNL A   1      41.449  22.533  28.485  1.00  0.00     0.010 A 
ATOM     75  C   UNL A   1      42.640  23.400  26.559  1.00  0.00     0.010 A 
ATOM     76  C   UNL A   1      41.436  21.260  27.912  1.00  0.00     0.020 A 
ATOM     77  C   UNL A   1      42.593  22.134  25.963  1.00  0.00     0.020 A 
ATOM     78  C   UNL A   1      42.029  21.065  26.662  1.00  0.00     0.054 A 
BRANCH  78  79
ATOM     79  S   UNL A   1      42.099  19.381  25.991  1.00  0.00     0.124 S 
ATOM     80  O   UNL A   1      42.951  19.562  24.819  1.00  0.00    -0.237 OA
ATOM     81  O   UNL A   1      42.693  18.625  27.091  1.00  0.00    -0.237 OA
ATOM     82  O   UNL A   1      40.702  19.067  25.705  1.00  0.00    -0.744 OA
ENDBRANCH  78  79
ENDBRANCH  50  73
BRANCH  62  83
ATOM     83  C   UNL A   1      47.312  26.276  31.721  1.00  0.00    -0.014 A 
ATOM     84  C   UNL A   1      48.390  26.395  30.824  1.00  0.00     0.010 A 
ATOM     85  C   UNL A   1      47.494  25.561  32.918  1.00  0.00     0.010 A 
ATOM     86  C   UNL A   1      49.609  25.767  31.090  1.00  0.00     0.020 A 
ATOM     87  C   UNL A   1      48.725  24.962  33.205  1.00  0.00     0.020 A 
ATOM     88  C   UNL A   1      49.764  25.043  32.275  1.00  0.00     0.054 A 
BRANCH  88  89
ATOM     89  S   UNL A   1      51.337  24.194  32.578  1.00  0.00     0.124 S 
ATOM     90  O   UNL A   1      52.255  24.929  31.711  1.00  0.00    -0.237 OA
ATOM     91  O   UNL A   1      51.535  24.388  34.012  1.00  0.00    -0.237 OA
ATOM     92  O   UNL A   1      51.067  22.816  32.174  1.00  0.00    -0.744 OA
ENDBRANCH  88  89
ENDBRANCH  62  83
ENDBRANCH  36  37
ENDBRANCH  28  31
ENDBRANCH   1  27
TORSDOF 15
ENDMDL
