MODEL 1
REMARK VINA RESULT:     -12.5      0.000      0.000
REMARK SMILES COc1ccc([C@@H]2[NH2+][C@H](C(=O)NCCCNC(=O)c3ccc(-c4c5nc(c(-c6ccc(S(=O)(=O)[O-])cc6)c6ccc([nH]6)c(-c6ccc(S(=O)(=O)[O-])cc6)c6nc(c(-c7ccc(S(=O)(=O)[O-])cc7)c7ccc4[nH]7)C=C6)C=C5)cc3)Cc3c2[nH]c2ccccc32)cc1COc1ccccc1C
REMARK SMILES IDX 13 1 12 2 10 3 11 4 9 6 7 7 8 8 81 9 80 12 82 13 79 14 88 15
REMARK SMILES IDX 83 16 87 18 84 19 86 20 85 21 6 22 3 23 4 24 90 25 5 26
REMARK SMILES IDX 89 27 2 28 1 29 91 30 92 31 93 32 94 33 98 34 95 35 97 36
REMARK SMILES IDX 99 37 96 38 14 39 15 40 16 41 17 42 18 44 19 45 20 46 78 47
REMARK SMILES IDX 21 48 77 49 22 50 23 51 24 52 71 53 25 54 76 55 70 56 72 57
REMARK SMILES IDX 26 58 75 59 69 60 68 61 27 63 57 64 38 65 56 66 39 67 42 68
REMARK SMILES IDX 55 69 73 70 40 71 41 72 54 74 74 75 43 76 28 77 29 78 37 79
REMARK SMILES IDX 30 80 36 81 31 82 32 83 33 84 34 85 35 86 58 87 59 88 67 89
REMARK SMILES IDX 60 90 66 91 61 92 62 93 63 94 64 95 65 96 44 97 45 98 53 99
REMARK SMILES IDX 46 100 52 101 47 102 48 103 49 104 50 105 51 106
REMARK H PARENT 12 5 8 10 8 11 82 17 16 43 72 62 42 73
REMARK Flexibility Score: inf
ROOT
ATOM      1  C   UNL A   1      38.344  24.035  26.717  1.00  0.00     0.118 C 
ENDROOT
BRANCH   1   2
ATOM      2  N   UNL A   1      37.497  24.055  25.537  1.00  0.00    -0.351 N 
ATOM      3  C   UNL A   1      36.484  23.203  25.181  1.00  0.00     0.278 C 
ATOM      4  O   UNL A   1      35.841  23.486  24.167  1.00  0.00    -0.268 OA
ATOM      5  H   UNL A   1      37.677  24.785  24.902  1.00  0.00     0.163 HD
BRANCH   3   6
ATOM      6  C   UNL A   1      36.102  22.035  26.116  1.00  0.00     0.277 C 
ATOM      7  C   UNL A   1      33.631  22.028  26.752  1.00  0.00     0.262 C 
ATOM      8  N   UNL A   1      35.013  22.453  27.076  1.00  0.00    -0.325 N 
ATOM      9  C   UNL A   1      33.701  20.691  26.139  1.00  0.00     0.083 A 
ATOM     10  H   UNL A   1      35.246  22.071  27.992  1.00  0.00     0.347 HD
ATOM     11  H   UNL A   1      34.994  23.472  27.028  1.00  0.00     0.347 HD
ATOM     12  C   UNL A   1      34.514  20.411  25.075  1.00  0.00    -0.006 A 
ATOM     13  N   UNL A   1      33.308  19.436  26.536  1.00  0.00    -0.353 N 
ATOM     14  C   UNL A   1      35.932  20.681  25.367  1.00  0.00     0.114 C 
ATOM     15  C   UNL A   1      33.734  19.486  24.356  1.00  0.00     0.003 A 
ATOM     16  C   UNL A   1      33.127  18.720  25.358  1.00  0.00     0.046 A 
ATOM     17  H   UNL A   1      33.180  19.114  27.458  1.00  0.00     0.166 HD
ATOM     18  C   UNL A   1      33.094  19.498  23.096  1.00  0.00     0.010 A 
ATOM     19  C   UNL A   1      32.323  17.619  25.088  1.00  0.00     0.026 A 
ATOM     20  C   UNL A   1      32.047  18.593  22.870  1.00  0.00     0.001 A 
ATOM     21  C   UNL A   1      31.741  17.611  23.816  1.00  0.00     0.002 A 
BRANCH   7  22
ATOM     22  C   UNL A   1      32.852  22.995  25.821  1.00  0.00     0.016 A 
ATOM     23  C   UNL A   1      31.214  24.781  24.324  1.00  0.00     0.125 A 
ATOM     24  C   UNL A   1      31.046  23.416  24.185  1.00  0.00     0.047 A 
ATOM     25  C   UNL A   1      32.101  25.265  25.289  1.00  0.00     0.032 A 
ATOM     26  C   UNL A   1      31.805  22.551  24.976  1.00  0.00     0.014 A 
ATOM     27  C   UNL A   1      33.003  24.382  25.931  1.00  0.00     0.021 A 
BRANCH  23  28
ATOM     28  O   UNL A   1      30.348  25.600  23.652  1.00  0.00    -0.496 OA
ATOM     29  C   UNL A   1      31.016  26.204  22.543  1.00  0.00     0.278 C 
ENDBRANCH  23  28
BRANCH  25  30
ATOM     30  C   UNL A   1      31.934  26.645  25.870  1.00  0.00     0.269 C 
BRANCH  30  31
ATOM     31  O   UNL A   1      32.824  27.527  25.151  1.00  0.00    -0.488 OA
BRANCH  31  32
ATOM     32  C   UNL A   1      33.279  28.597  25.878  1.00  0.00     0.122 A 
ATOM     33  C   UNL A   1      34.389  28.347  26.687  1.00  0.00     0.047 A 
ATOM     34  C   UNL A   1      32.584  29.813  26.000  1.00  0.00    -0.009 A 
ATOM     35  C   UNL A   1      34.836  29.311  27.589  1.00  0.00     0.004 A 
ATOM     36  C   UNL A   1      33.080  30.793  26.875  1.00  0.00     0.007 A 
ATOM     37  C   UNL A   1      31.329  30.157  25.260  1.00  0.00     0.048 C 
ATOM     38  C   UNL A   1      34.187  30.539  27.677  1.00  0.00     0.001 A 
ENDBRANCH  31  32
ENDBRANCH  30  31
ENDBRANCH  25  30
ENDBRANCH   7  22
ENDBRANCH   3   6
ENDBRANCH   1   2
BRANCH   1  39
ATOM     39  C   UNL A   1      39.544  23.116  26.536  1.00  0.00     0.042 C 
BRANCH  39  40
ATOM     40  C   UNL A   1      40.845  23.722  27.008  1.00  0.00     0.118 C 
BRANCH  40  41
ATOM     41  N   UNL A   1      41.457  24.546  25.985  1.00  0.00    -0.352 N 
ATOM     42  C   UNL A   1      41.562  25.919  25.918  1.00  0.00     0.251 C 
ATOM     43  H   UNL A   1      41.855  24.055  25.231  1.00  0.00     0.163 HD
ATOM     44  O   UNL A   1      41.864  26.449  24.860  1.00  0.00    -0.269 OA
BRANCH  42  45
ATOM     45  C   UNL A   1      41.276  26.741  27.119  1.00  0.00     0.039 A 
ATOM     46  C   UNL A   1      40.291  26.323  28.016  1.00  0.00     0.014 A 
ATOM     47  C   UNL A   1      41.977  27.924  27.360  1.00  0.00     0.014 A 
ATOM     48  C   UNL A   1      40.063  27.055  29.185  1.00  0.00     0.010 A 
ATOM     49  C   UNL A   1      41.841  28.577  28.578  1.00  0.00     0.010 A 
ATOM     50  C   UNL A   1      40.866  28.165  29.496  1.00  0.00    -0.014 A 
BRANCH  50  51
ATOM     51  C   UNL A   1      40.693  28.944  30.748  1.00  0.00     0.031 A 
ATOM     52  C   UNL A   1      39.630  30.010  30.818  1.00  0.00     0.074 A 
ATOM     53  C   UNL A   1      41.538  28.759  31.782  1.00  0.00     0.049 A 
ATOM     54  N   UNL A   1      39.399  30.887  31.760  1.00  0.00    -0.248 NA
ATOM     55  C   UNL A   1      38.729  30.131  29.657  1.00  0.00     0.031 C 
ATOM     56  C   UNL A   1      42.630  27.783  31.822  1.00  0.00     0.029 A 
ATOM     57  N   UNL A   1      41.623  29.399  32.994  1.00  0.00    -0.354 N 
ATOM     58  C   UNL A   1      38.353  31.675  31.295  1.00  0.00     0.074 A 
ATOM     59  C   UNL A   1      38.031  31.212  29.964  1.00  0.00     0.031 C 
ATOM     60  C   UNL A   1      43.255  27.871  33.007  1.00  0.00     0.029 A 
ATOM     61  C   UNL A   1      42.650  28.945  33.788  1.00  0.00     0.049 A 
ATOM     62  H   UNL A   1      41.006  30.115  33.268  1.00  0.00     0.167 HD
ATOM     63  C   UNL A   1      37.703  32.681  31.925  1.00  0.00     0.031 A 
ATOM     64  C   UNL A   1      43.071  29.360  34.999  1.00  0.00     0.031 A 
ATOM     65  C   UNL A   1      38.018  33.124  33.257  1.00  0.00     0.049 A 
ATOM     66  C   UNL A   1      42.346  30.492  35.675  1.00  0.00     0.074 A 
ATOM     67  C   UNL A   1      37.385  34.096  34.010  1.00  0.00     0.029 A 
ATOM     68  N   UNL A   1      39.053  32.624  34.032  1.00  0.00    -0.354 N 
ATOM     69  N   UNL A   1      41.320  31.187  35.242  1.00  0.00    -0.248 NA
ATOM     70  C   UNL A   1      42.826  30.892  37.004  1.00  0.00     0.031 C 
ATOM     71  C   UNL A   1      38.075  34.226  35.218  1.00  0.00     0.029 A 
ATOM     72  C   UNL A   1      39.092  33.284  35.247  1.00  0.00     0.049 A 
ATOM     73  H   UNL A   1      39.669  31.905  33.758  1.00  0.00     0.167 HD
ATOM     74  C   UNL A   1      41.009  32.080  36.263  1.00  0.00     0.074 A 
ATOM     75  C   UNL A   1      41.952  31.834  37.335  1.00  0.00     0.031 C 
ATOM     76  C   UNL A   1      40.028  33.014  36.309  1.00  0.00     0.031 A 
BRANCH  63  77
ATOM     77  C   UNL A   1      36.592  33.374  31.179  1.00  0.00    -0.014 A 
ATOM     78  C   UNL A   1      36.818  33.976  29.928  1.00  0.00     0.010 A 
ATOM     79  C   UNL A   1      35.293  33.388  31.719  1.00  0.00     0.010 A 
ATOM     80  C   UNL A   1      35.776  34.619  29.252  1.00  0.00     0.020 A 
ATOM     81  C   UNL A   1      34.240  34.000  31.030  1.00  0.00     0.020 A 
ATOM     82  C   UNL A   1      34.494  34.626  29.809  1.00  0.00     0.054 A 
BRANCH  82  83
ATOM     83  S   UNL A   1      33.157  35.444  28.896  1.00  0.00     0.124 S 
ATOM     84  O   UNL A   1      33.894  36.407  28.081  1.00  0.00    -0.237 OA
ATOM     85  O   UNL A   1      32.549  34.337  28.162  1.00  0.00    -0.237 OA
ATOM     86  O   UNL A   1      32.325  36.026  29.945  1.00  0.00    -0.744 OA
ENDBRANCH  82  83
ENDBRANCH  63  77
BRANCH  64  87
ATOM     87  C   UNL A   1      44.229  28.690  35.655  1.00  0.00    -0.014 A 
ATOM     88  C   UNL A   1      45.545  29.092  35.366  1.00  0.00     0.010 A 
ATOM     89  C   UNL A   1      44.022  27.654  36.585  1.00  0.00     0.010 A 
ATOM     90  C   UNL A   1      46.631  28.460  35.979  1.00  0.00     0.020 A 
ATOM     91  C   UNL A   1      45.105  27.042  37.223  1.00  0.00     0.020 A 
ATOM     92  C   UNL A   1      46.403  27.441  36.907  1.00  0.00     0.054 A 
BRANCH  92  93
ATOM     93  S   UNL A   1      47.829  26.668  37.723  1.00  0.00     0.124 S 
ATOM     94  O   UNL A   1      47.185  25.767  38.672  1.00  0.00    -0.237 OA
ATOM     95  O   UNL A   1      48.519  26.027  36.607  1.00  0.00    -0.237 OA
ATOM     96  O   UNL A   1      48.538  27.800  38.316  1.00  0.00    -0.744 OA
ENDBRANCH  92  93
ENDBRANCH  64  87
BRANCH  76  97
ATOM     97  C   UNL A   1      39.873  33.807  37.579  1.00  0.00    -0.014 A 
ATOM     98  C   UNL A   1      40.607  34.985  37.805  1.00  0.00     0.010 A 
ATOM     99  C   UNL A   1      38.900  33.414  38.518  1.00  0.00     0.010 A 
ATOM    100  C   UNL A   1      40.379  35.747  38.954  1.00  0.00     0.020 A 
ATOM    101  C   UNL A   1      38.648  34.189  39.651  1.00  0.00     0.020 A 
ATOM    102  C   UNL A   1      39.394  35.348  39.866  1.00  0.00     0.054 A 
BRANCH 102 103
ATOM    103  S   UNL A   1      39.064  36.398  41.306  1.00  0.00     0.124 S 
ATOM    104  O   UNL A   1      38.662  37.655  40.682  1.00  0.00    -0.237 OA
ATOM    105  O   UNL A   1      38.002  35.670  41.996  1.00  0.00    -0.237 OA
ATOM    106  O   UNL A   1      40.344  36.435  42.010  1.00  0.00    -0.744 OA
ENDBRANCH 102 103
ENDBRANCH  76  97
ENDBRANCH  50  51
ENDBRANCH  42  45
ENDBRANCH  40  41
ENDBRANCH  39  40
ENDBRANCH   1  39
TORSDOF 18
ENDMDL
MODEL 2
REMARK VINA RESULT:     -12.4      0.659      7.684
REMARK SMILES COc1ccc([C@@H]2[NH2+][C@H](C(=O)NCCCNC(=O)c3ccc(-c4c5nc(c(-c6ccc(S(=O)(=O)[O-])cc6)c6ccc([nH]6)c(-c6ccc(S(=O)(=O)[O-])cc6)c6nc(c(-c7ccc(S(=O)(=O)[O-])cc7)c7ccc4[nH]7)C=C6)C=C5)cc3)Cc3c2[nH]c2ccccc32)cc1COc1ccccc1C
REMARK SMILES IDX 13 1 12 2 10 3 11 4 9 6 7 7 8 8 81 9 80 12 82 13 79 14 88 15
REMARK SMILES IDX 83 16 87 18 84 19 86 20 85 21 6 22 3 23 4 24 90 25 5 26
REMARK SMILES IDX 89 27 2 28 1 29 91 30 92 31 93 32 94 33 98 34 95 35 97 36
REMARK SMILES IDX 99 37 96 38 14 39 15 40 16 41 17 42 18 44 19 45 20 46 78 47
REMARK SMILES IDX 21 48 77 49 22 50 23 51 24 52 71 53 25 54 76 55 70 56 72 57
REMARK SMILES IDX 26 58 75 59 69 60 68 61 27 63 57 64 38 65 56 66 39 67 42 68
REMARK SMILES IDX 55 69 73 70 40 71 41 72 54 74 74 75 43 76 28 77 29 78 37 79
REMARK SMILES IDX 30 80 36 81 31 82 32 83 33 84 34 85 35 86 58 87 59 88 67 89
REMARK SMILES IDX 60 90 66 91 61 92 62 93 63 94 64 95 65 96 44 97 45 98 53 99
REMARK SMILES IDX 46 100 52 101 47 102 48 103 49 104 50 105 51 106
REMARK H PARENT 12 5 8 10 8 11 82 17 16 43 72 62 42 73
REMARK Flexibility Score: inf
ROOT
ATOM      1  C   UNL A   1      38.626  23.748  26.555  1.00  0.00     0.118 C 
ENDROOT
BRANCH   1   2
ATOM      2  N   UNL A   1      37.751  23.831  25.398  1.00  0.00    -0.351 N 
ATOM      3  C   UNL A   1      36.655  23.073  25.082  1.00  0.00     0.278 C 
ATOM      4  O   UNL A   1      36.013  23.401  24.081  1.00  0.00    -0.268 OA
ATOM      5  H   UNL A   1      37.980  24.534  24.747  1.00  0.00     0.163 HD
BRANCH   3   6
ATOM      6  C   UNL A   1      36.193  21.957  26.044  1.00  0.00     0.277 C 
ATOM      7  C   UNL A   1      33.705  22.077  26.598  1.00  0.00     0.262 C 
ATOM      8  N   UNL A   1      35.094  22.456  26.952  1.00  0.00    -0.325 N 
ATOM      9  C   UNL A   1      33.737  20.717  26.036  1.00  0.00     0.083 A 
ATOM     10  H   UNL A   1      35.281  22.098  27.889  1.00  0.00     0.347 HD
ATOM     11  H   UNL A   1      35.120  23.472  26.868  1.00  0.00     0.347 HD
ATOM     12  C   UNL A   1      34.570  20.364  25.010  1.00  0.00    -0.006 A 
ATOM     13  N   UNL A   1      33.277  19.496  26.464  1.00  0.00    -0.353 N 
ATOM     14  C   UNL A   1      35.989  20.585  25.339  1.00  0.00     0.114 C 
ATOM     15  C   UNL A   1      33.773  19.447  24.299  1.00  0.00     0.003 A 
ATOM     16  C   UNL A   1      33.103  18.745  25.307  1.00  0.00     0.046 A 
ATOM     17  H   UNL A   1      33.106  19.213  27.392  1.00  0.00     0.166 HD
ATOM     18  C   UNL A   1      33.175  19.440  23.018  1.00  0.00     0.010 A 
ATOM     19  C   UNL A   1      32.261  17.669  25.049  1.00  0.00     0.026 A 
ATOM     20  C   UNL A   1      32.098  18.571  22.791  1.00  0.00     0.001 A 
ATOM     21  C   UNL A   1      31.719  17.639  23.760  1.00  0.00     0.002 A 
BRANCH   7  22
ATOM     22  C   UNL A   1      32.998  23.042  25.608  1.00  0.00     0.016 A 
ATOM     23  C   UNL A   1      31.474  24.814  23.981  1.00  0.00     0.125 A 
ATOM     24  C   UNL A   1      31.354  23.448  23.806  1.00  0.00     0.047 A 
ATOM     25  C   UNL A   1      32.248  25.302  25.036  1.00  0.00     0.032 A 
ATOM     26  C   UNL A   1      32.052  22.587  24.657  1.00  0.00     0.014 A 
ATOM     27  C   UNL A   1      33.103  24.429  25.752  1.00  0.00     0.021 A 
BRANCH  23  28
ATOM     28  O   UNL A   1      30.659  25.623  23.238  1.00  0.00    -0.496 OA
ATOM     29  C   UNL A   1      31.378  26.132  22.112  1.00  0.00     0.278 C 
ENDBRANCH  23  28
BRANCH  25  30
ATOM     30  C   UNL A   1      31.990  26.668  25.617  1.00  0.00     0.269 C 
BRANCH  30  31
ATOM     31  O   UNL A   1      32.903  27.589  24.980  1.00  0.00    -0.488 OA
BRANCH  31  32
ATOM     32  C   UNL A   1      33.291  28.644  25.764  1.00  0.00     0.122 A 
ATOM     33  C   UNL A   1      34.401  28.414  26.579  1.00  0.00     0.047 A 
ATOM     34  C   UNL A   1      32.531  29.815  25.932  1.00  0.00    -0.009 A 
ATOM     35  C   UNL A   1      34.783  29.356  27.533  1.00  0.00     0.004 A 
ATOM     36  C   UNL A   1      32.961  30.776  26.861  1.00  0.00     0.007 A 
ATOM     37  C   UNL A   1      31.269  30.128  25.189  1.00  0.00     0.048 C 
ATOM     38  C   UNL A   1      34.069  30.542  27.668  1.00  0.00     0.001 A 
ENDBRANCH  31  32
ENDBRANCH  30  31
ENDBRANCH  25  30
ENDBRANCH   7  22
ENDBRANCH   3   6
ENDBRANCH   1   2
BRANCH   1  39
ATOM     39  C   UNL A   1      39.738  22.729  26.351  1.00  0.00     0.042 C 
BRANCH  39  40
ATOM     40  C   UNL A   1      41.068  23.166  26.919  1.00  0.00     0.118 C 
BRANCH  40  41
ATOM     41  N   UNL A   1      41.884  23.832  25.924  1.00  0.00    -0.352 N 
ATOM     42  C   UNL A   1      42.163  25.174  25.781  1.00  0.00     0.251 C 
ATOM     43  H   UNL A   1      42.300  23.242  25.255  1.00  0.00     0.163 HD
ATOM     44  O   UNL A   1      42.641  25.583  24.734  1.00  0.00    -0.269 OA
BRANCH  42  45
ATOM     45  C   UNL A   1      41.850  26.115  26.884  1.00  0.00     0.039 A 
ATOM     46  C   UNL A   1      40.940  25.733  27.871  1.00  0.00     0.014 A 
ATOM     47  C   UNL A   1      42.452  27.374  26.945  1.00  0.00     0.014 A 
ATOM     48  C   UNL A   1      40.691  26.586  28.952  1.00  0.00     0.010 A 
ATOM     49  C   UNL A   1      42.304  28.161  28.079  1.00  0.00     0.010 A 
ATOM     50  C   UNL A   1      41.403  27.788  29.086  1.00  0.00    -0.014 A 
BRANCH  50  51
ATOM     51  C   UNL A   1      41.208  28.702  30.240  1.00  0.00     0.031 A 
ATOM     52  C   UNL A   1      42.072  28.544  31.465  1.00  0.00     0.074 A 
ATOM     53  C   UNL A   1      40.210  29.607  30.225  1.00  0.00     0.049 A 
ATOM     54  N   UNL A   1      41.981  29.145  32.623  1.00  0.00    -0.248 NA
ATOM     55  C   UNL A   1      43.160  27.551  31.391  1.00  0.00     0.031 C 
ATOM     56  C   UNL A   1      39.284  29.833  29.112  1.00  0.00     0.029 A 
ATOM     57  N   UNL A   1      39.794  30.497  31.185  1.00  0.00    -0.354 N 
ATOM     58  C   UNL A   1      42.975  28.585  33.418  1.00  0.00     0.074 A 
ATOM     59  C   UNL A   1      43.619  27.557  32.632  1.00  0.00     0.031 C 
ATOM     60  C   UNL A   1      38.429  30.814  29.443  1.00  0.00     0.029 A 
ATOM     61  C   UNL A   1      38.705  31.248  30.808  1.00  0.00     0.049 A 
ATOM     62  H   UNL A   1      40.234  30.588  32.060  1.00  0.00     0.167 HD
ATOM     63  C   UNL A   1      43.335  28.910  34.682  1.00  0.00     0.031 A 
ATOM     64  C   UNL A   1      37.996  32.168  31.492  1.00  0.00     0.031 A 
ATOM     65  C   UNL A   1      42.701  29.947  35.450  1.00  0.00     0.049 A 
ATOM     66  C   UNL A   1      38.401  32.501  32.902  1.00  0.00     0.074 A 
ATOM     67  C   UNL A   1      43.023  30.395  36.718  1.00  0.00     0.029 A 
ATOM     68  N   UNL A   1      41.615  30.695  35.023  1.00  0.00    -0.354 N 
ATOM     69  N   UNL A   1      39.382  32.002  33.616  1.00  0.00    -0.248 NA
ATOM     70  C   UNL A   1      37.613  33.528  33.596  1.00  0.00     0.031 C 
ATOM     71  C   UNL A   1      42.095  31.373  37.082  1.00  0.00     0.029 A 
ATOM     72  C   UNL A   1      41.240  31.587  36.012  1.00  0.00     0.049 A 
ATOM     73  H   UNL A   1      41.176  30.605  34.146  1.00  0.00     0.167 HD
ATOM     74  C   UNL A   1      39.351  32.680  34.830  1.00  0.00     0.074 A 
ATOM     75  C   UNL A   1      38.259  33.629  34.751  1.00  0.00     0.031 C 
ATOM     76  C   UNL A   1      40.159  32.535  35.909  1.00  0.00     0.031 A 
BRANCH  63  77
ATOM     77  C   UNL A   1      44.461  28.132  35.312  1.00  0.00    -0.014 A 
ATOM     78  C   UNL A   1      45.796  28.562  35.204  1.00  0.00     0.010 A 
ATOM     79  C   UNL A   1      44.176  26.975  36.061  1.00  0.00     0.010 A 
ATOM     80  C   UNL A   1      46.829  27.826  35.791  1.00  0.00     0.020 A 
ATOM     81  C   UNL A   1      45.202  26.254  36.679  1.00  0.00     0.020 A 
ATOM     82  C   UNL A   1      46.524  26.675  36.526  1.00  0.00     0.054 A 
BRANCH  82  83
ATOM     83  S   UNL A   1      47.881  25.756  37.299  1.00  0.00     0.124 S 
ATOM     84  O   UNL A   1      47.355  24.393  37.308  1.00  0.00    -0.237 OA
ATOM     85  O   UNL A   1      48.991  25.993  36.379  1.00  0.00    -0.237 OA
ATOM     86  O   UNL A   1      48.019  26.377  38.613  1.00  0.00    -0.744 OA
ENDBRANCH  82  83
ENDBRANCH  63  77
BRANCH  64  87
ATOM     87  C   UNL A   1      36.839  32.848  30.844  1.00  0.00    -0.014 A 
ATOM     88  C   UNL A   1      35.526  32.409  31.087  1.00  0.00     0.010 A 
ATOM     89  C   UNL A   1      37.043  33.949  29.992  1.00  0.00     0.010 A 
ATOM     90  C   UNL A   1      34.441  33.046  30.475  1.00  0.00     0.020 A 
ATOM     91  C   UNL A   1      35.959  34.607  29.404  1.00  0.00     0.020 A 
ATOM     92  C   UNL A   1      34.665  34.143  29.640  1.00  0.00     0.054 A 
BRANCH  92  93
ATOM     93  S   UNL A   1      33.236  34.980  28.896  1.00  0.00     0.124 S 
ATOM     94  O   UNL A   1      33.855  36.149  28.281  1.00  0.00    -0.237 OA
ATOM     95  O   UNL A   1      32.728  33.971  27.970  1.00  0.00    -0.237 OA
ATOM     96  O   UNL A   1      32.369  35.258  30.039  1.00  0.00    -0.744 OA
ENDBRANCH  92  93
ENDBRANCH  64  87
BRANCH  76  97
ATOM     97  C   UNL A   1      39.942  33.459  37.078  1.00  0.00    -0.014 A 
ATOM     98  C   UNL A   1      39.159  33.076  38.182  1.00  0.00     0.010 A 
ATOM     99  C   UNL A   1      40.617  34.693  37.110  1.00  0.00     0.010 A 
ATOM    100  C   UNL A   1      39.047  33.919  39.290  1.00  0.00     0.020 A 
ATOM    101  C   UNL A   1      40.532  35.524  38.229  1.00  0.00     0.020 A 
ATOM    102  C   UNL A   1      39.741  35.135  39.310  1.00  0.00     0.054 A 
BRANCH 102 103
ATOM    103  S   UNL A   1      39.641  36.171  40.794  1.00  0.00     0.124 S 
ATOM    104  O   UNL A   1      40.699  35.610  41.630  1.00  0.00    -0.237 OA
ATOM    105  O   UNL A   1      39.899  37.509  40.267  1.00  0.00    -0.237 OA
ATOM    106  O   UNL A   1      38.281  35.951  41.281  1.00  0.00    -0.744 OA
ENDBRANCH 102 103
ENDBRANCH  76  97
ENDBRANCH  50  51
ENDBRANCH  42  45
ENDBRANCH  40  41
ENDBRANCH  39  40
ENDBRANCH   1  39
TORSDOF 18
ENDMDL
MODEL 3
REMARK VINA RESULT:     -12.3      6.003     11.818
REMARK SMILES COc1ccc([C@@H]2[NH2+][C@H](C(=O)NCCCNC(=O)c3ccc(-c4c5nc(c(-c6ccc(S(=O)(=O)[O-])cc6)c6ccc([nH]6)c(-c6ccc(S(=O)(=O)[O-])cc6)c6nc(c(-c7ccc(S(=O)(=O)[O-])cc7)c7ccc4[nH]7)C=C6)C=C5)cc3)Cc3c2[nH]c2ccccc32)cc1COc1ccccc1C
REMARK SMILES IDX 13 1 12 2 10 3 11 4 9 6 7 7 8 8 81 9 80 12 82 13 79 14 88 15
REMARK SMILES IDX 83 16 87 18 84 19 86 20 85 21 6 22 3 23 4 24 90 25 5 26
REMARK SMILES IDX 89 27 2 28 1 29 91 30 92 31 93 32 94 33 98 34 95 35 97 36
REMARK SMILES IDX 99 37 96 38 14 39 15 40 16 41 17 42 18 44 19 45 20 46 78 47
REMARK SMILES IDX 21 48 77 49 22 50 23 51 24 52 71 53 25 54 76 55 70 56 72 57
REMARK SMILES IDX 26 58 75 59 69 60 68 61 27 63 57 64 38 65 56 66 39 67 42 68
REMARK SMILES IDX 55 69 73 70 40 71 41 72 54 74 74 75 43 76 28 77 29 78 37 79
REMARK SMILES IDX 30 80 36 81 31 82 32 83 33 84 34 85 35 86 58 87 59 88 67 89
REMARK SMILES IDX 60 90 66 91 61 92 62 93 63 94 64 95 65 96 44 97 45 98 53 99
REMARK SMILES IDX 46 100 52 101 47 102 48 103 49 104 50 105 51 106
REMARK H PARENT 12 5 8 10 8 11 82 17 16 43 72 62 42 73
REMARK Flexibility Score: inf
ROOT
ATOM      1  C   UNL A   1      35.229  29.783  27.977  1.00  0.00     0.118 C 
ENDROOT
BRANCH   1   2
ATOM      2  N   UNL A   1      34.050  28.935  27.981  1.00  0.00    -0.351 N 
ATOM      3  C   UNL A   1      33.048  28.836  27.051  1.00  0.00     0.278 C 
ATOM      4  O   UNL A   1      32.194  27.965  27.234  1.00  0.00    -0.268 OA
ATOM      5  H   UNL A   1      33.957  28.346  28.765  1.00  0.00     0.163 HD
BRANCH   3   6
ATOM      6  C   UNL A   1      33.106  29.697  25.770  1.00  0.00     0.277 C 
ATOM      7  C   UNL A   1      33.108  28.309  23.629  1.00  0.00     0.262 C 
ATOM      8  N   UNL A   1      33.889  28.992  24.687  1.00  0.00    -0.325 N 
ATOM      9  C   UNL A   1      31.904  29.114  23.365  1.00  0.00     0.083 A 
ATOM     10  H   UNL A   1      34.481  29.686  24.233  1.00  0.00     0.347 HD
ATOM     11  H   UNL A   1      34.393  28.245  25.167  1.00  0.00     0.347 HD
ATOM     12  C   UNL A   1      31.053  29.514  24.359  1.00  0.00    -0.006 A 
ATOM     13  N   UNL A   1      31.473  29.867  22.300  1.00  0.00    -0.353 N 
ATOM     14  C   UNL A   1      31.732  30.320  25.387  1.00  0.00     0.114 C 
ATOM     15  C   UNL A   1      29.806  29.450  23.709  1.00  0.00     0.003 A 
ATOM     16  C   UNL A   1      30.088  29.904  22.415  1.00  0.00     0.046 A 
ATOM     17  H   UNL A   1      32.027  30.290  21.604  1.00  0.00     0.166 HD
ATOM     18  C   UNL A   1      28.649  28.653  23.861  1.00  0.00     0.010 A 
ATOM     19  C   UNL A   1      29.108  30.085  21.445  1.00  0.00     0.026 A 
ATOM     20  C   UNL A   1      27.760  28.554  22.780  1.00  0.00     0.001 A 
ATOM     21  C   UNL A   1      27.943  29.335  21.636  1.00  0.00     0.002 A 
BRANCH   7  22
ATOM     22  C   UNL A   1      32.704  26.846  23.957  1.00  0.00     0.016 A 
ATOM     23  C   UNL A   1      32.172  24.079  24.370  1.00  0.00     0.125 A 
ATOM     24  C   UNL A   1      31.506  24.764  23.371  1.00  0.00     0.047 A 
ATOM     25  C   UNL A   1      33.187  24.725  25.080  1.00  0.00     0.032 A 
ATOM     26  C   UNL A   1      31.826  26.102  23.131  1.00  0.00     0.014 A 
ATOM     27  C   UNL A   1      33.353  26.126  24.965  1.00  0.00     0.021 A 
BRANCH  23  28
ATOM     28  O   UNL A   1      31.950  22.733  24.474  1.00  0.00    -0.496 OA
ATOM     29  C   UNL A   1      31.918  22.146  23.172  1.00  0.00     0.278 C 
ENDBRANCH  23  28
BRANCH  25  30
ATOM     30  C   UNL A   1      34.286  23.938  25.747  1.00  0.00     0.269 C 
BRANCH  30  31
ATOM     31  O   UNL A   1      35.538  24.370  25.171  1.00  0.00    -0.488 OA
BRANCH  31  32
ATOM     32  C   UNL A   1      36.637  23.677  25.608  1.00  0.00     0.122 A 
ATOM     33  C   UNL A   1      37.604  24.436  26.272  1.00  0.00     0.047 A 
ATOM     34  C   UNL A   1      36.917  22.347  25.250  1.00  0.00    -0.009 A 
ATOM     35  C   UNL A   1      38.831  23.871  26.614  1.00  0.00     0.004 A 
ATOM     36  C   UNL A   1      38.137  21.778  25.650  1.00  0.00     0.007 A 
ATOM     37  C   UNL A   1      36.003  21.466  24.456  1.00  0.00     0.048 C 
ATOM     38  C   UNL A   1      39.095  22.539  26.312  1.00  0.00     0.001 A 
ENDBRANCH  31  32
ENDBRANCH  30  31
ENDBRANCH  25  30
ENDBRANCH   7  22
ENDBRANCH   3   6
ENDBRANCH   1   2
BRANCH   1  39
ATOM     39  C   UNL A   1      34.937  31.161  28.553  1.00  0.00     0.042 C 
BRANCH  39  40
ATOM     40  C   UNL A   1      36.047  31.699  29.425  1.00  0.00     0.118 C 
BRANCH  40  41
ATOM     41  N   UNL A   1      36.004  31.135  30.759  1.00  0.00    -0.352 N 
ATOM     42  C   UNL A   1      36.827  30.190  31.334  1.00  0.00     0.251 C 
ATOM     43  H   UNL A   1      35.285  31.476  31.338  1.00  0.00     0.163 HD
ATOM     44  O   UNL A   1      36.481  29.637  32.365  1.00  0.00    -0.269 OA
BRANCH  42  45
ATOM     45  C   UNL A   1      38.108  29.830  30.678  1.00  0.00     0.039 A 
ATOM     46  C   UNL A   1      38.250  30.019  29.303  1.00  0.00     0.014 A 
ATOM     47  C   UNL A   1      39.169  29.305  31.420  1.00  0.00     0.014 A 
ATOM     48  C   UNL A   1      39.476  29.747  28.688  1.00  0.00     0.010 A 
ATOM     49  C   UNL A   1      40.419  29.158  30.835  1.00  0.00     0.010 A 
ATOM     50  C   UNL A   1      40.584  29.354  29.457  1.00  0.00    -0.014 A 
BRANCH  50  51
ATOM     51  C   UNL A   1      41.918  29.101  28.857  1.00  0.00     0.031 A 
ATOM     52  C   UNL A   1      42.247  27.727  28.334  1.00  0.00     0.074 A 
ATOM     53  C   UNL A   1      42.856  30.069  28.860  1.00  0.00     0.049 A 
ATOM     54  N   UNL A   1      43.388  27.261  27.895  1.00  0.00    -0.248 NA
ATOM     55  C   UNL A   1      41.159  26.732  28.340  1.00  0.00     0.031 C 
ATOM     56  C   UNL A   1      42.670  31.431  29.370  1.00  0.00     0.029 A 
ATOM     57  N   UNL A   1      44.162  30.052  28.436  1.00  0.00    -0.354 N 
ATOM     58  C   UNL A   1      43.161  25.921  27.602  1.00  0.00     0.074 A 
ATOM     59  C   UNL A   1      41.792  25.632  27.967  1.00  0.00     0.031 C 
ATOM     60  C   UNL A   1      43.810  32.122  29.204  1.00  0.00     0.029 A 
ATOM     61  C   UNL A   1      44.823  31.242  28.632  1.00  0.00     0.049 A 
ATOM     62  H   UNL A   1      44.585  29.261  28.030  1.00  0.00     0.167 HD
ATOM     63  C   UNL A   1      44.008  25.016  27.059  1.00  0.00     0.031 A 
ATOM     64  C   UNL A   1      46.105  31.582  28.395  1.00  0.00     0.031 A 
ATOM     65  C   UNL A   1      45.363  25.316  26.682  1.00  0.00     0.049 A 
ATOM     66  C   UNL A   1      47.035  30.555  27.808  1.00  0.00     0.074 A 
ATOM     67  C   UNL A   1      46.288  24.489  26.072  1.00  0.00     0.029 A 
ATOM     68  N   UNL A   1      45.985  26.539  26.880  1.00  0.00    -0.354 N 
ATOM     69  N   UNL A   1      46.786  29.308  27.483  1.00  0.00    -0.248 NA
ATOM     70  C   UNL A   1      48.417  30.980  27.545  1.00  0.00     0.031 C 
ATOM     71  C   UNL A   1      47.490  25.192  25.956  1.00  0.00     0.029 A 
ATOM     72  C   UNL A   1      47.290  26.482  26.425  1.00  0.00     0.049 A 
ATOM     73  H   UNL A   1      45.561  27.331  27.284  1.00  0.00     0.167 HD
ATOM     74  C   UNL A   1      47.968  28.812  26.944  1.00  0.00     0.074 A 
ATOM     75  C   UNL A   1      48.930  29.894  26.981  1.00  0.00     0.031 C 
ATOM     76  C   UNL A   1      48.230  27.575  26.455  1.00  0.00     0.031 A 
BRANCH  63  77
ATOM     77  C   UNL A   1      43.495  23.615  26.846  1.00  0.00    -0.014 A 
ATOM     78  C   UNL A   1      43.345  23.081  25.553  1.00  0.00     0.010 A 
ATOM     79  C   UNL A   1      43.199  22.805  27.957  1.00  0.00     0.010 A 
ATOM     80  C   UNL A   1      42.863  21.781  25.374  1.00  0.00     0.020 A 
ATOM     81  C   UNL A   1      42.749  21.492  27.784  1.00  0.00     0.020 A 
ATOM     82  C   UNL A   1      42.569  20.995  26.492  1.00  0.00     0.054 A 
BRANCH  82  83
ATOM     83  S   UNL A   1      41.971  19.303  26.230  1.00  0.00     0.124 S 
ATOM     84  O   UNL A   1      42.692  18.913  25.020  1.00  0.00    -0.237 OA
ATOM     85  O   UNL A   1      42.389  18.624  27.454  1.00  0.00    -0.237 OA
ATOM     86  O   UNL A   1      40.529  19.463  26.069  1.00  0.00    -0.744 OA
ENDBRANCH  82  83
ENDBRANCH  63  77
BRANCH  64  87
ATOM     87  C   UNL A   1      46.579  32.960  28.702  1.00  0.00    -0.014 A 
ATOM     88  C   UNL A   1      47.137  33.262  29.957  1.00  0.00     0.010 A 
ATOM     89  C   UNL A   1      46.490  33.979  27.734  1.00  0.00     0.010 A 
ATOM     90  C   UNL A   1      47.577  34.557  30.245  1.00  0.00     0.020 A 
ATOM     91  C   UNL A   1      46.958  35.267  28.008  1.00  0.00     0.020 A 
ATOM     92  C   UNL A   1      47.488  35.551  29.267  1.00  0.00     0.054 A 
BRANCH  92  93
ATOM     93  S   UNL A   1      48.111  37.212  29.650  1.00  0.00     0.124 S 
ATOM     94  O   UNL A   1      48.920  37.513  28.475  1.00  0.00    -0.237 OA
ATOM     95  O   UNL A   1      46.878  37.985  29.786  1.00  0.00    -0.237 OA
ATOM     96  O   UNL A   1      48.856  37.020  30.892  1.00  0.00    -0.744 OA
ENDBRANCH  92  93
ENDBRANCH  64  87
BRANCH  76  97
ATOM     97  C   UNL A   1      49.591  27.328  25.863  1.00  0.00    -0.014 A 
ATOM     98  C   UNL A   1      50.655  26.840  26.642  1.00  0.00     0.010 A 
ATOM     99  C   UNL A   1      49.776  27.495  24.477  1.00  0.00     0.010 A 
ATOM    100  C   UNL A   1      51.882  26.537  26.046  1.00  0.00     0.020 A 
ATOM    101  C   UNL A   1      50.990  27.165  23.874  1.00  0.00     0.020 A 
ATOM    102  C   UNL A   1      52.039  26.694  24.664  1.00  0.00     0.054 A 
BRANCH 102 103
ATOM    103  S   UNL A   1      53.616  26.218  23.906  1.00  0.00     0.124 S 
ATOM    104  O   UNL A   1      54.455  27.378  24.195  1.00  0.00    -0.237 OA
ATOM    105  O   UNL A   1      53.961  24.996  24.629  1.00  0.00    -0.237 OA
ATOM    106  O   UNL A   1      53.281  26.027  22.497  1.00  0.00    -0.744 OA
ENDBRANCH 102 103
ENDBRANCH  76  97
ENDBRANCH  50  51
ENDBRANCH  42  45
ENDBRANCH  40  41
ENDBRANCH  39  40
ENDBRANCH   1  39
TORSDOF 18
ENDMDL
