MODEL 1
REMARK VINA RESULT:     -12.6      0.000      0.000
REMARK SMILES Nc1nc(SCc2c(C(=O)NCCCNC(=O)c3ccc(-c4c5nc(c(-c6ccc(S(=O)(=O)[O-])cc6)c6ccc([nH]6)c(-c6ccc(S(=O)(=O)[O-])cc6)c6nc(c(-c7ccc(S(=O)(=O)[O-])cc7)c7ccc4[nH]7)C=C6)C=C5)cc3)sc3cccc(F)c23)n[nH]1
REMARK SMILES IDX 12 1 11 2 9 3 10 4 8 6 7 7 85 8 78 9 79 10 83 11 80 12 82 13
REMARK SMILES IDX 84 14 81 15 6 16 5 17 4 18 2 19 3 20 87 21 86 22 1 24 13 27
REMARK SMILES IDX 14 28 15 29 16 30 17 32 18 33 19 34 77 35 20 36 76 37 21 38
REMARK SMILES IDX 22 39 23 40 70 41 24 42 75 43 69 44 71 45 25 46 74 47 68 48
REMARK SMILES IDX 67 49 26 51 56 52 37 53 55 54 38 55 41 56 54 57 72 58 39 59
REMARK SMILES IDX 40 60 53 62 73 63 42 64 27 65 28 66 36 67 29 68 35 69 30 70
REMARK SMILES IDX 31 71 32 72 33 73 34 74 57 75 58 76 66 77 59 78 65 79 60 80
REMARK SMILES IDX 61 81 62 82 63 83 64 84 43 85 44 86 52 87 45 88 51 89 46 90
REMARK SMILES IDX 47 91 48 92 49 93 50 94
REMARK H PARENT 11 5 87 23 1 25 1 26 15 31 71 50 41 61
REMARK Flexibility Score: inf
ROOT
ATOM      1  C   UNL A   1      35.155  23.639  25.720  1.00  0.00     0.118 C 
ENDROOT
BRANCH   1   2
ATOM      2  N   UNL A   1      34.111  23.349  26.685  1.00  0.00    -0.351 N 
ATOM      3  C   UNL A   1      32.760  23.630  26.650  1.00  0.00     0.261 C 
ATOM      4  O   UNL A   1      32.078  23.149  27.569  1.00  0.00    -0.268 OA
ATOM      5  H   UNL A   1      34.415  22.877  27.494  1.00  0.00     0.163 HD
BRANCH   3   6
ATOM      6  C   UNL A   1      32.233  24.560  25.678  1.00  0.00     0.097 A 
ATOM      7  C   UNL A   1      31.854  24.495  24.341  1.00  0.00    -0.003 A 
ATOM      8  C   UNL A   1      32.400  25.720  23.749  1.00  0.00     0.033 A 
ATOM      9  S   UNL A   1      31.929  26.175  26.215  1.00  0.00    -0.130 S 
ATOM     10  C   UNL A   1      32.418  26.763  24.681  1.00  0.00     0.038 A 
ATOM     11  C   UNL A   1      32.914  26.018  22.465  1.00  0.00     0.132 A 
ATOM     12  C   UNL A   1      32.826  28.071  24.362  1.00  0.00     0.020 A 
ATOM     13  C   UNL A   1      33.450  27.277  22.171  1.00  0.00     0.040 A 
ATOM     14  F   UNL A   1      33.018  25.049  21.543  1.00  0.00    -0.206 F 
ATOM     15  C   UNL A   1      33.385  28.302  23.106  1.00  0.00     0.005 A 
BRANCH   7  16
ATOM     16  C   UNL A   1      31.315  23.331  23.549  1.00  0.00     0.116 C 
BRANCH  16  17
ATOM     17  S   UNL A   1      32.500  22.177  22.820  1.00  0.00    -0.080 SA
BRANCH  17  18
ATOM     18  C   UNL A   1      32.662  20.736  23.789  1.00  0.00     0.210 A 
ATOM     19  C   UNL A   1      32.833  19.398  25.413  1.00  0.00     0.216 A 
ATOM     20  N   UNL A   1      33.082  20.647  25.086  1.00  0.00    -0.186 NA
ATOM     21  N   UNL A   1      32.457  18.725  24.289  1.00  0.00    -0.245 N 
ATOM     22  N   UNL A   1      32.343  19.557  23.241  1.00  0.00    -0.145 NA
ATOM     23  H   UNL A   1      32.292  17.755  24.251  1.00  0.00     0.193 HD
BRANCH  19  24
ATOM     24  N   UNL A   1      32.880  18.800  26.614  1.00  0.00    -0.368 N 
ATOM     25  H   UNL A   1      32.418  19.206  27.383  1.00  0.00     0.159 HD
ATOM     26  H   UNL A   1      33.376  17.958  26.726  1.00  0.00     0.159 HD
ENDBRANCH  19  24
ENDBRANCH  17  18
ENDBRANCH  16  17
ENDBRANCH   7  16
ENDBRANCH   3   6
ENDBRANCH   1   2
BRANCH   1  27
ATOM     27  C   UNL A   1      36.157  22.504  25.510  1.00  0.00     0.042 C 
BRANCH  27  28
ATOM     28  C   UNL A   1      37.618  22.966  25.589  1.00  0.00     0.118 C 
BRANCH  28  29
ATOM     29  N   UNL A   1      38.529  21.984  26.184  1.00  0.00    -0.352 N 
ATOM     30  C   UNL A   1      39.726  22.239  26.823  1.00  0.00     0.251 C 
ATOM     31  H   UNL A   1      38.257  21.040  26.121  1.00  0.00     0.163 HD
ATOM     32  O   UNL A   1      40.532  21.331  27.040  1.00  0.00    -0.269 OA
BRANCH  30  33
ATOM     33  C   UNL A   1      40.033  23.621  27.238  1.00  0.00     0.039 A 
ATOM     34  C   UNL A   1      39.088  24.643  27.130  1.00  0.00     0.014 A 
ATOM     35  C   UNL A   1      41.288  23.874  27.785  1.00  0.00     0.014 A 
ATOM     36  C   UNL A   1      39.376  25.893  27.682  1.00  0.00     0.010 A 
ATOM     37  C   UNL A   1      41.549  25.088  28.390  1.00  0.00     0.010 A 
ATOM     38  C   UNL A   1      40.595  26.107  28.343  1.00  0.00    -0.014 A 
BRANCH  38  39
ATOM     39  C   UNL A   1      40.817  27.342  29.100  1.00  0.00     0.031 A 
ATOM     40  C   UNL A   1      41.856  28.276  28.560  1.00  0.00     0.074 A 
ATOM     41  C   UNL A   1      39.983  27.794  30.060  1.00  0.00     0.049 A 
ATOM     42  N   UNL A   1      42.931  28.707  29.137  1.00  0.00    -0.248 NA
ATOM     43  C   UNL A   1      41.684  28.767  27.183  1.00  0.00     0.031 C 
ATOM     44  C   UNL A   1      38.704  27.223  30.495  1.00  0.00     0.029 A 
ATOM     45  N   UNL A   1      40.053  28.959  30.764  1.00  0.00    -0.354 N 
ATOM     46  C   UNL A   1      43.501  29.637  28.266  1.00  0.00     0.074 A 
ATOM     47  C   UNL A   1      42.751  29.555  27.037  1.00  0.00     0.031 C 
ATOM     48  C   UNL A   1      38.018  28.151  31.199  1.00  0.00     0.029 A 
ATOM     49  C   UNL A   1      38.871  29.309  31.402  1.00  0.00     0.049 A 
ATOM     50  H   UNL A   1      40.870  29.505  30.815  1.00  0.00     0.167 HD
ATOM     51  C   UNL A   1      44.449  30.538  28.655  1.00  0.00     0.031 A 
ATOM     52  C   UNL A   1      38.599  30.489  32.010  1.00  0.00     0.031 A 
ATOM     53  C   UNL A   1      44.994  30.242  29.950  1.00  0.00     0.049 A 
ATOM     54  C   UNL A   1      39.900  31.122  32.333  1.00  0.00     0.074 A 
ATOM     55  C   UNL A   1      45.697  29.188  30.498  1.00  0.00     0.029 A 
ATOM     56  N   UNL A   1      44.521  30.972  31.014  1.00  0.00    -0.354 N 
ATOM     57  N   UNL A   1      40.760  30.619  33.175  1.00  0.00    -0.248 NA
ATOM     58  C   UNL A   1      40.431  32.135  31.435  1.00  0.00     0.031 C 
ATOM     59  C   UNL A   1      45.192  29.065  31.827  1.00  0.00     0.029 A 
ATOM     60  C   UNL A   1      44.244  30.075  32.014  1.00  0.00     0.049 A 
ATOM     61  H   UNL A   1      44.404  31.948  31.051  1.00  0.00     0.167 HD
ATOM     62  C   UNL A   1      42.003  30.942  32.655  1.00  0.00     0.074 A 
ATOM     63  C   UNL A   1      41.738  31.971  31.654  1.00  0.00     0.031 C 
ATOM     64  C   UNL A   1      43.096  30.156  32.891  1.00  0.00     0.031 A 
BRANCH  51  65
ATOM     65  C   UNL A   1      44.660  31.882  28.003  1.00  0.00    -0.014 A 
ATOM     66  C   UNL A   1      45.949  32.253  27.568  1.00  0.00     0.010 A 
ATOM     67  C   UNL A   1      43.680  32.894  28.051  1.00  0.00     0.010 A 
ATOM     68  C   UNL A   1      46.249  33.583  27.235  1.00  0.00     0.020 A 
ATOM     69  C   UNL A   1      43.959  34.213  27.683  1.00  0.00     0.020 A 
ATOM     70  C   UNL A   1      45.251  34.556  27.305  1.00  0.00     0.054 A 
BRANCH  70  71
ATOM     71  S   UNL A   1      45.681  36.290  26.998  1.00  0.00     0.124 S 
ATOM     72  O   UNL A   1      46.422  36.204  25.743  1.00  0.00    -0.237 OA
ATOM     73  O   UNL A   1      44.368  36.923  26.918  1.00  0.00    -0.237 OA
ATOM     74  O   UNL A   1      46.476  36.658  28.168  1.00  0.00    -0.744 OA
ENDBRANCH  70  71
ENDBRANCH  51  65
BRANCH  52  75
ATOM     75  C   UNL A   1      37.312  31.227  32.046  1.00  0.00    -0.014 A 
ATOM     76  C   UNL A   1      36.799  31.716  33.263  1.00  0.00     0.010 A 
ATOM     77  C   UNL A   1      36.728  31.704  30.853  1.00  0.00     0.010 A 
ATOM     78  C   UNL A   1      35.806  32.709  33.283  1.00  0.00     0.020 A 
ATOM     79  C   UNL A   1      35.729  32.684  30.866  1.00  0.00     0.020 A 
ATOM     80  C   UNL A   1      35.301  33.209  32.081  1.00  0.00     0.054 A 
BRANCH  80  81
ATOM     81  S   UNL A   1      34.169  34.630  32.114  1.00  0.00     0.124 S 
ATOM     82  O   UNL A   1      35.024  35.702  32.613  1.00  0.00    -0.237 OA
ATOM     83  O   UNL A   1      33.768  34.737  30.714  1.00  0.00    -0.237 OA
ATOM     84  O   UNL A   1      33.111  34.204  33.029  1.00  0.00    -0.744 OA
ENDBRANCH  80  81
ENDBRANCH  52  75
BRANCH  64  85
ATOM     85  C   UNL A   1      42.999  29.092  33.958  1.00  0.00    -0.014 A 
ATOM     86  C   UNL A   1      43.433  29.291  35.284  1.00  0.00     0.010 A 
ATOM     87  C   UNL A   1      42.277  27.925  33.656  1.00  0.00     0.010 A 
ATOM     88  C   UNL A   1      43.150  28.345  36.280  1.00  0.00     0.020 A 
ATOM     89  C   UNL A   1      41.980  26.985  34.647  1.00  0.00     0.020 A 
ATOM     90  C   UNL A   1      42.412  27.202  35.956  1.00  0.00     0.054 A 
BRANCH  90  91
ATOM     91  S   UNL A   1      41.983  26.020  37.266  1.00  0.00     0.124 S 
ATOM     92  O   UNL A   1      42.932  26.354  38.325  1.00  0.00    -0.237 OA
ATOM     93  O   UNL A   1      40.588  26.348  37.546  1.00  0.00    -0.237 OA
ATOM     94  O   UNL A   1      42.192  24.715  36.641  1.00  0.00    -0.744 OA
ENDBRANCH  90  91
ENDBRANCH  64  85
ENDBRANCH  38  39
ENDBRANCH  30  33
ENDBRANCH  28  29
ENDBRANCH  27  28
ENDBRANCH   1  27
TORSDOF 17
ENDMDL
MODEL 2
REMARK VINA RESULT:     -12.4      3.997      9.759
REMARK SMILES Nc1nc(SCc2c(C(=O)NCCCNC(=O)c3ccc(-c4c5nc(c(-c6ccc(S(=O)(=O)[O-])cc6)c6ccc([nH]6)c(-c6ccc(S(=O)(=O)[O-])cc6)c6nc(c(-c7ccc(S(=O)(=O)[O-])cc7)c7ccc4[nH]7)C=C6)C=C5)cc3)sc3cccc(F)c23)n[nH]1
REMARK SMILES IDX 12 1 11 2 9 3 10 4 8 6 7 7 85 8 78 9 79 10 83 11 80 12 82 13
REMARK SMILES IDX 84 14 81 15 6 16 5 17 4 18 2 19 3 20 87 21 86 22 1 24 13 27
REMARK SMILES IDX 14 28 15 29 16 30 17 32 18 33 19 34 77 35 20 36 76 37 21 38
REMARK SMILES IDX 22 39 23 40 70 41 24 42 75 43 69 44 71 45 25 46 74 47 68 48
REMARK SMILES IDX 67 49 26 51 56 52 37 53 55 54 38 55 41 56 54 57 72 58 39 59
REMARK SMILES IDX 40 60 53 62 73 63 42 64 27 65 28 66 36 67 29 68 35 69 30 70
REMARK SMILES IDX 31 71 32 72 33 73 34 74 57 75 58 76 66 77 59 78 65 79 60 80
REMARK SMILES IDX 61 81 62 82 63 83 64 84 43 85 44 86 52 87 45 88 51 89 46 90
REMARK SMILES IDX 47 91 48 92 49 93 50 94
REMARK H PARENT 11 5 87 23 1 25 1 26 15 31 71 50 41 61
REMARK Flexibility Score: inf
ROOT
ATOM      1  C   UNL A   1      33.209  29.337  24.863  1.00  0.00     0.118 C 
ENDROOT
BRANCH   1   2
ATOM      2  N   UNL A   1      33.900  28.993  23.634  1.00  0.00    -0.351 N 
ATOM      3  C   UNL A   1      33.532  28.140  22.613  1.00  0.00     0.261 C 
ATOM      4  O   UNL A   1      34.269  28.134  21.614  1.00  0.00    -0.268 OA
ATOM      5  H   UNL A   1      34.769  29.439  23.510  1.00  0.00     0.163 HD
BRANCH   3   6
ATOM      6  C   UNL A   1      32.440  27.212  22.794  1.00  0.00     0.097 A 
ATOM      7  C   UNL A   1      31.223  27.225  23.467  1.00  0.00    -0.003 A 
ATOM      8  C   UNL A   1      31.143  25.905  24.100  1.00  0.00     0.033 A 
ATOM      9  S   UNL A   1      32.561  25.686  21.990  1.00  0.00    -0.130 S 
ATOM     10  C   UNL A   1      31.789  24.937  23.324  1.00  0.00     0.038 A 
ATOM     11  C   UNL A   1      30.576  25.458  25.317  1.00  0.00     0.132 A 
ATOM     12  C   UNL A   1      31.805  23.570  23.659  1.00  0.00     0.020 A 
ATOM     13  C   UNL A   1      30.702  24.126  25.731  1.00  0.00     0.040 A 
ATOM     14  F   UNL A   1      30.021  26.340  26.162  1.00  0.00    -0.206 F 
ATOM     15  C   UNL A   1      31.292  23.186  24.897  1.00  0.00     0.005 A 
BRANCH   7  16
ATOM     16  C   UNL A   1      30.317  28.385  23.795  1.00  0.00     0.116 C 
BRANCH  16  17
ATOM     17  S   UNL A   1      28.808  28.586  22.821  1.00  0.00    -0.080 SA
BRANCH  17  18
ATOM     18  C   UNL A   1      28.767  30.137  22.026  1.00  0.00     0.210 A 
ATOM     19  C   UNL A   1      28.208  31.785  20.829  1.00  0.00     0.216 A 
ATOM     20  N   UNL A   1      28.076  30.479  20.898  1.00  0.00    -0.186 NA
ATOM     21  N   UNL A   1      29.105  32.178  21.778  1.00  0.00    -0.245 N 
ATOM     22  N   UNL A   1      29.477  31.145  22.551  1.00  0.00    -0.145 NA
ATOM     23  H   UNL A   1      29.438  33.098  21.881  1.00  0.00     0.193 HD
BRANCH  19  24
ATOM     24  N   UNL A   1      27.591  32.668  20.028  1.00  0.00    -0.368 N 
ATOM     25  H   UNL A   1      26.713  32.450  19.640  1.00  0.00     0.159 HD
ATOM     26  H   UNL A   1      28.017  33.533  19.828  1.00  0.00     0.159 HD
ENDBRANCH  19  24
ENDBRANCH  17  18
ENDBRANCH  16  17
ENDBRANCH   7  16
ENDBRANCH   3   6
ENDBRANCH   1   2
BRANCH   1  27
ATOM     27  C   UNL A   1      33.601  28.484  26.070  1.00  0.00     0.042 C 
BRANCH  27  28
ATOM     28  C   UNL A   1      33.778  29.303  27.355  1.00  0.00     0.118 C 
BRANCH  28  29
ATOM     29  N   UNL A   1      33.947  30.741  27.135  1.00  0.00    -0.352 N 
ATOM     30  C   UNL A   1      34.975  31.540  27.596  1.00  0.00     0.251 C 
ATOM     31  H   UNL A   1      33.251  31.187  26.601  1.00  0.00     0.163 HD
ATOM     32  O   UNL A   1      34.874  32.769  27.583  1.00  0.00    -0.269 OA
BRANCH  30  33
ATOM     33  C   UNL A   1      36.198  30.899  28.112  1.00  0.00     0.039 A 
ATOM     34  C   UNL A   1      36.451  29.540  27.916  1.00  0.00     0.014 A 
ATOM     35  C   UNL A   1      37.126  31.701  28.773  1.00  0.00     0.014 A 
ATOM     36  C   UNL A   1      37.693  29.020  28.286  1.00  0.00     0.010 A 
ATOM     37  C   UNL A   1      38.378  31.205  29.079  1.00  0.00     0.010 A 
ATOM     38  C   UNL A   1      38.672  29.862  28.838  1.00  0.00    -0.014 A 
BRANCH  38  39
ATOM     39  C   UNL A   1      40.039  29.373  29.036  1.00  0.00     0.031 A 
ATOM     40  C   UNL A   1      40.456  29.115  30.451  1.00  0.00     0.074 A 
ATOM     41  C   UNL A   1      40.818  28.900  28.040  1.00  0.00     0.049 A 
ATOM     42  N   UNL A   1      41.433  29.646  31.113  1.00  0.00    -0.248 NA
ATOM     43  C   UNL A   1      39.655  28.163  31.237  1.00  0.00     0.031 C 
ATOM     44  C   UNL A   1      40.473  28.715  26.627  1.00  0.00     0.029 A 
ATOM     45  N   UNL A   1      42.063  28.352  28.125  1.00  0.00    -0.354 N 
ATOM     46  C   UNL A   1      41.473  28.996  32.348  1.00  0.00     0.074 A 
ATOM     47  C   UNL A   1      40.292  28.170  32.410  1.00  0.00     0.031 C 
ATOM     48  C   UNL A   1      41.379  27.893  26.051  1.00  0.00     0.029 A 
ATOM     49  C   UNL A   1      42.445  27.632  27.002  1.00  0.00     0.049 A 
ATOM     50  H   UNL A   1      42.641  28.459  28.915  1.00  0.00     0.167 HD
ATOM     51  C   UNL A   1      42.553  29.044  33.180  1.00  0.00     0.031 A 
ATOM     52  C   UNL A   1      43.537  26.838  26.884  1.00  0.00     0.031 A 
ATOM     53  C   UNL A   1      43.505  30.046  32.792  1.00  0.00     0.049 A 
ATOM     54  C   UNL A   1      44.500  27.264  27.927  1.00  0.00     0.074 A 
ATOM     55  C   UNL A   1      43.482  31.420  32.660  1.00  0.00     0.029 A 
ATOM     56  N   UNL A   1      44.624  29.623  32.114  1.00  0.00    -0.354 N 
ATOM     57  N   UNL A   1      45.069  28.438  27.950  1.00  0.00    -0.248 NA
ATOM     58  C   UNL A   1      44.559  26.522  29.176  1.00  0.00     0.031 C 
ATOM     59  C   UNL A   1      44.286  31.690  31.513  1.00  0.00     0.029 A 
ATOM     60  C   UNL A   1      44.779  30.468  31.045  1.00  0.00     0.049 A 
ATOM     61  H   UNL A   1      45.201  28.861  32.350  1.00  0.00     0.167 HD
ATOM     62  C   UNL A   1      45.191  28.751  29.295  1.00  0.00     0.074 A 
ATOM     63  C   UNL A   1      44.972  27.490  29.997  1.00  0.00     0.031 C 
ATOM     64  C   UNL A   1      45.192  30.048  29.724  1.00  0.00     0.031 A 
BRANCH  51  65
ATOM     65  C   UNL A   1      42.910  27.962  34.168  1.00  0.00    -0.014 A 
ATOM     66  C   UNL A   1      43.099  28.291  35.527  1.00  0.00     0.010 A 
ATOM     67  C   UNL A   1      43.328  26.682  33.752  1.00  0.00     0.010 A 
ATOM     68  C   UNL A   1      43.713  27.394  36.414  1.00  0.00     0.020 A 
ATOM     69  C   UNL A   1      43.903  25.766  34.637  1.00  0.00     0.020 A 
ATOM     70  C   UNL A   1      44.120  26.139  35.958  1.00  0.00     0.054 A 
BRANCH  70  71
ATOM     71  S   UNL A   1      45.026  25.040  37.078  1.00  0.00     0.124 S 
ATOM     72  O   UNL A   1      44.418  25.350  38.369  1.00  0.00    -0.237 OA
ATOM     73  O   UNL A   1      44.719  23.721  36.532  1.00  0.00    -0.237 OA
ATOM     74  O   UNL A   1      46.416  25.465  36.925  1.00  0.00    -0.744 OA
ENDBRANCH  70  71
ENDBRANCH  51  65
BRANCH  52  75
ATOM     75  C   UNL A   1      43.663  25.558  26.142  1.00  0.00    -0.014 A 
ATOM     76  C   UNL A   1      44.812  25.285  25.374  1.00  0.00     0.010 A 
ATOM     77  C   UNL A   1      42.791  24.484  26.418  1.00  0.00     0.010 A 
ATOM     78  C   UNL A   1      45.121  23.974  24.975  1.00  0.00     0.020 A 
ATOM     79  C   UNL A   1      43.086  23.177  26.013  1.00  0.00     0.020 A 
ATOM     80  C   UNL A   1      44.271  22.924  25.327  1.00  0.00     0.054 A 
BRANCH  80  81
ATOM     81  S   UNL A   1      44.780  21.213  24.984  1.00  0.00     0.124 S 
ATOM     82  O   UNL A   1      44.682  21.142  23.531  1.00  0.00    -0.237 OA
ATOM     83  O   UNL A   1      46.132  21.180  25.533  1.00  0.00    -0.237 OA
ATOM     84  O   UNL A   1      43.798  20.411  25.713  1.00  0.00    -0.744 OA
ENDBRANCH  80  81
ENDBRANCH  52  75
BRANCH  64  85
ATOM     85  C   UNL A   1      45.346  31.145  28.697  1.00  0.00    -0.014 A 
ATOM     86  C   UNL A   1      44.267  31.651  27.945  1.00  0.00     0.010 A 
ATOM     87  C   UNL A   1      46.583  31.809  28.628  1.00  0.00     0.010 A 
ATOM     88  C   UNL A   1      44.424  32.793  27.146  1.00  0.00     0.020 A 
ATOM     89  C   UNL A   1      46.742  32.955  27.844  1.00  0.00     0.020 A 
ATOM     90  C   UNL A   1      45.660  33.446  27.112  1.00  0.00     0.054 A 
BRANCH  90  91
ATOM     91  S   UNL A   1      45.834  34.968  26.136  1.00  0.00     0.124 S 
ATOM     92  O   UNL A   1      47.161  35.445  26.517  1.00  0.00    -0.237 OA
ATOM     93  O   UNL A   1      45.711  34.481  24.764  1.00  0.00    -0.237 OA
ATOM     94  O   UNL A   1      44.725  35.804  26.592  1.00  0.00    -0.744 OA
ENDBRANCH  90  91
ENDBRANCH  64  85
ENDBRANCH  38  39
ENDBRANCH  30  33
ENDBRANCH  28  29
ENDBRANCH  27  28
ENDBRANCH   1  27
TORSDOF 17
ENDMDL
MODEL 3
REMARK VINA RESULT:     -11.6      4.748      8.226
REMARK SMILES Nc1nc(SCc2c(C(=O)NCCCNC(=O)c3ccc(-c4c5nc(c(-c6ccc(S(=O)(=O)[O-])cc6)c6ccc([nH]6)c(-c6ccc(S(=O)(=O)[O-])cc6)c6nc(c(-c7ccc(S(=O)(=O)[O-])cc7)c7ccc4[nH]7)C=C6)C=C5)cc3)sc3cccc(F)c23)n[nH]1
REMARK SMILES IDX 12 1 11 2 9 3 10 4 8 6 7 7 85 8 78 9 79 10 83 11 80 12 82 13
REMARK SMILES IDX 84 14 81 15 6 16 5 17 4 18 2 19 3 20 87 21 86 22 1 24 13 27
REMARK SMILES IDX 14 28 15 29 16 30 17 32 18 33 19 34 77 35 20 36 76 37 21 38
REMARK SMILES IDX 22 39 23 40 70 41 24 42 75 43 69 44 71 45 25 46 74 47 68 48
REMARK SMILES IDX 67 49 26 51 56 52 37 53 55 54 38 55 41 56 54 57 72 58 39 59
REMARK SMILES IDX 40 60 53 62 73 63 42 64 27 65 28 66 36 67 29 68 35 69 30 70
REMARK SMILES IDX 31 71 32 72 33 73 34 74 57 75 58 76 66 77 59 78 65 79 60 80
REMARK SMILES IDX 61 81 62 82 63 83 64 84 43 85 44 86 52 87 45 88 51 89 46 90
REMARK SMILES IDX 47 91 48 92 49 93 50 94
REMARK H PARENT 11 5 87 23 1 25 1 26 15 31 71 50 41 61
REMARK Flexibility Score: inf
ROOT
ATOM      1  C   UNL A   1      44.917  22.640  26.476  1.00  0.00     0.118 C 
ENDROOT
BRANCH   1   2
ATOM      2  N   UNL A   1      45.545  23.109  25.255  1.00  0.00    -0.351 N 
ATOM      3  C   UNL A   1      46.386  24.182  25.039  1.00  0.00     0.261 C 
ATOM      4  O   UNL A   1      46.876  24.272  23.902  1.00  0.00    -0.268 OA
ATOM      5  H   UNL A   1      45.338  22.577  24.453  1.00  0.00     0.163 HD
BRANCH   3   6
ATOM      6  C   UNL A   1      46.540  25.204  26.049  1.00  0.00     0.097 A 
ATOM      7  C   UNL A   1      47.612  25.818  26.688  1.00  0.00    -0.003 A 
ATOM      8  C   UNL A   1      47.206  25.886  28.095  1.00  0.00     0.033 A 
ATOM      9  S   UNL A   1      45.096  25.932  26.659  1.00  0.00    -0.130 S 
ATOM     10  C   UNL A   1      45.819  26.033  28.211  1.00  0.00     0.038 A 
ATOM     11  C   UNL A   1      47.931  25.806  29.307  1.00  0.00     0.132 A 
ATOM     12  C   UNL A   1      45.164  26.194  29.445  1.00  0.00     0.020 A 
ATOM     13  C   UNL A   1      47.279  25.828  30.546  1.00  0.00     0.040 A 
ATOM     14  F   UNL A   1      49.251  25.571  29.284  1.00  0.00    -0.206 F 
ATOM     15  C   UNL A   1      45.909  26.044  30.614  1.00  0.00     0.005 A 
BRANCH   7  16
ATOM     16  C   UNL A   1      49.012  26.071  26.191  1.00  0.00     0.116 C 
BRANCH  16  17
ATOM     17  S   UNL A   1      49.311  27.557  25.208  1.00  0.00    -0.080 SA
BRANCH  17  18
ATOM     18  C   UNL A   1      49.562  27.167  23.527  1.00  0.00     0.210 A 
ATOM     19  C   UNL A   1      49.281  26.850  21.458  1.00  0.00     0.216 A 
ATOM     20  N   UNL A   1      48.616  26.857  22.592  1.00  0.00    -0.186 NA
ATOM     21  N   UNL A   1      50.610  26.965  21.738  1.00  0.00    -0.245 N 
ATOM     22  N   UNL A   1      50.814  27.166  23.050  1.00  0.00    -0.145 NA
ATOM     23  H   UNL A   1      51.327  26.906  21.066  1.00  0.00     0.193 HD
BRANCH  19  24
ATOM     24  N   UNL A   1      48.826  26.780  20.197  1.00  0.00    -0.368 N 
ATOM     25  H   UNL A   1      48.149  26.108  19.956  1.00  0.00     0.159 HD
ATOM     26  H   UNL A   1      49.169  27.401  19.515  1.00  0.00     0.159 HD
ENDBRANCH  19  24
ENDBRANCH  17  18
ENDBRANCH  16  17
ENDBRANCH   7  16
ENDBRANCH   3   6
ENDBRANCH   1   2
BRANCH   1  27
ATOM     27  C   UNL A   1      43.689  21.756  26.258  1.00  0.00     0.042 C 
BRANCH  27  28
ATOM     28  C   UNL A   1      42.660  22.378  25.304  1.00  0.00     0.118 C 
BRANCH  28  29
ATOM     29  N   UNL A   1      41.273  22.002  25.587  1.00  0.00    -0.352 N 
ATOM     30  C   UNL A   1      40.400  22.629  26.454  1.00  0.00     0.251 C 
ATOM     31  H   UNL A   1      40.925  21.216  25.107  1.00  0.00     0.163 HD
ATOM     32  O   UNL A   1      39.360  22.073  26.815  1.00  0.00    -0.269 OA
BRANCH  30  33
ATOM     33  C   UNL A   1      40.734  23.977  26.950  1.00  0.00     0.039 A 
ATOM     34  C   UNL A   1      40.085  25.115  26.469  1.00  0.00     0.014 A 
ATOM     35  C   UNL A   1      41.695  24.084  27.953  1.00  0.00     0.014 A 
ATOM     36  C   UNL A   1      40.327  26.346  27.084  1.00  0.00     0.010 A 
ATOM     37  C   UNL A   1      41.886  25.285  28.605  1.00  0.00     0.010 A 
ATOM     38  C   UNL A   1      41.203  26.425  28.177  1.00  0.00    -0.014 A 
BRANCH  38  39
ATOM     39  C   UNL A   1      41.303  27.664  28.953  1.00  0.00     0.031 A 
ATOM     40  C   UNL A   1      42.322  28.660  28.491  1.00  0.00     0.074 A 
ATOM     41  C   UNL A   1      40.381  28.061  29.855  1.00  0.00     0.049 A 
ATOM     42  N   UNL A   1      43.330  29.145  29.143  1.00  0.00    -0.248 NA
ATOM     43  C   UNL A   1      42.219  29.152  27.108  1.00  0.00     0.031 C 
ATOM     44  C   UNL A   1      39.109  27.416  30.197  1.00  0.00     0.029 A 
ATOM     45  N   UNL A   1      40.336  29.222  30.568  1.00  0.00    -0.354 N 
ATOM     46  C   UNL A   1      43.906  30.113  28.319  1.00  0.00     0.074 A 
ATOM     47  C   UNL A   1      43.247  30.000  27.041  1.00  0.00     0.031 C 
ATOM     48  C   UNL A   1      38.325  28.298  30.857  1.00  0.00     0.029 A 
ATOM     49  C   UNL A   1      39.095  29.500  31.124  1.00  0.00     0.049 A 
ATOM     50  H   UNL A   1      41.117  29.811  30.679  1.00  0.00     0.167 HD
ATOM     51  C   UNL A   1      44.772  31.061  28.778  1.00  0.00     0.031 A 
ATOM     52  C   UNL A   1      38.716  30.658  31.718  1.00  0.00     0.031 A 
ATOM     53  C   UNL A   1      45.242  30.785  30.105  1.00  0.00     0.049 A 
ATOM     54  C   UNL A   1      39.955  31.359  32.133  1.00  0.00     0.074 A 
ATOM     55  C   UNL A   1      45.964  29.767  30.696  1.00  0.00     0.029 A 
ATOM     56  N   UNL A   1      44.657  31.477  31.138  1.00  0.00    -0.354 N 
ATOM     57  N   UNL A   1      40.781  30.897  33.031  1.00  0.00    -0.248 NA
ATOM     58  C   UNL A   1      40.489  32.408  31.280  1.00  0.00     0.031 C 
ATOM     59  C   UNL A   1      45.376  29.604  31.986  1.00  0.00     0.029 A 
ATOM     60  C   UNL A   1      44.362  30.557  32.112  1.00  0.00     0.049 A 
ATOM     61  H   UNL A   1      44.482  32.446  31.172  1.00  0.00     0.167 HD
ATOM     62  C   UNL A   1      42.037  31.293  32.599  1.00  0.00     0.074 A 
ATOM     63  C   UNL A   1      41.785  32.315  31.588  1.00  0.00     0.031 C 
ATOM     64  C   UNL A   1      43.153  30.568  32.907  1.00  0.00     0.031 A 
BRANCH  51  65
ATOM     65  C   UNL A   1      44.951  32.420  28.149  1.00  0.00    -0.014 A 
ATOM     66  C   UNL A   1      46.246  32.965  28.018  1.00  0.00     0.010 A 
ATOM     67  C   UNL A   1      43.863  33.289  27.929  1.00  0.00     0.010 A 
ATOM     68  C   UNL A   1      46.438  34.323  27.721  1.00  0.00     0.020 A 
ATOM     69  C   UNL A   1      44.044  34.633  27.592  1.00  0.00     0.020 A 
ATOM     70  C   UNL A   1      45.331  35.150  27.519  1.00  0.00     0.054 A 
BRANCH  70  71
ATOM     71  S   UNL A   1      45.587  36.926  27.264  1.00  0.00     0.124 S 
ATOM     72  O   UNL A   1      46.491  36.943  26.118  1.00  0.00    -0.237 OA
ATOM     73  O   UNL A   1      44.230  37.399  27.010  1.00  0.00    -0.237 OA
ATOM     74  O   UNL A   1      46.172  37.373  28.526  1.00  0.00    -0.744 OA
ENDBRANCH  70  71
ENDBRANCH  51  65
BRANCH  52  75
ATOM     75  C   UNL A   1      37.390  31.322  31.668  1.00  0.00    -0.014 A 
ATOM     76  C   UNL A   1      36.645  31.526  32.845  1.00  0.00     0.010 A 
ATOM     77  C   UNL A   1      36.982  32.016  30.509  1.00  0.00     0.010 A 
ATOM     78  C   UNL A   1      35.592  32.453  32.885  1.00  0.00     0.020 A 
ATOM     79  C   UNL A   1      35.925  32.933  30.537  1.00  0.00     0.020 A 
ATOM     80  C   UNL A   1      35.261  33.176  31.736  1.00  0.00     0.054 A 
BRANCH  80  81
ATOM     81  S   UNL A   1      34.037  34.514  31.847  1.00  0.00     0.124 S 
ATOM     82  O   UNL A   1      33.569  34.628  30.470  1.00  0.00    -0.237 OA
ATOM     83  O   UNL A   1      33.075  33.972  32.802  1.00  0.00    -0.237 OA
ATOM     84  O   UNL A   1      34.817  35.652  32.334  1.00  0.00    -0.744 OA
ENDBRANCH  80  81
ENDBRANCH  52  75
BRANCH  64  85
ATOM     85  C   UNL A   1      43.043  29.490  33.960  1.00  0.00    -0.014 A 
ATOM     86  C   UNL A   1      43.179  29.746  35.339  1.00  0.00     0.010 A 
ATOM     87  C   UNL A   1      42.603  28.219  33.552  1.00  0.00     0.010 A 
ATOM     88  C   UNL A   1      42.882  28.753  36.284  1.00  0.00     0.020 A 
ATOM     89  C   UNL A   1      42.291  27.230  34.490  1.00  0.00     0.020 A 
ATOM     90  C   UNL A   1      42.426  27.504  35.852  1.00  0.00     0.054 A 
BRANCH  90  91
ATOM     91  S   UNL A   1      41.969  26.250  37.083  1.00  0.00     0.124 S 
ATOM     92  O   UNL A   1      40.670  26.721  37.557  1.00  0.00    -0.237 OA
ATOM     93  O   UNL A   1      41.942  25.022  36.292  1.00  0.00    -0.237 OA
ATOM     94  O   UNL A   1      43.046  26.320  38.069  1.00  0.00    -0.744 OA
ENDBRANCH  90  91
ENDBRANCH  64  85
ENDBRANCH  38  39
ENDBRANCH  30  33
ENDBRANCH  28  29
ENDBRANCH  27  28
ENDBRANCH   1  27
TORSDOF 17
ENDMDL
