MODEL 1
REMARK VINA RESULT:     -10.2      0.000      0.000
REMARK SMILES CC[C@@](C)(NC(=O)N(C)[C@@H](C)C(C)C)C(=O)NCCCNC(=O)c1ccc(-c2c3nc(c(-c4ccc(S(=O)(=O)[O-])cc4)c4ccc([nH]4)c(-c4ccc(S(=O)(=O)[O-])cc4)c4nc(c(-c5ccc(S(=O)(=O)[O-])cc5)c5ccc2[nH]5)C=C4)C=C3)cc1
REMARK SMILES IDX 18 1 17 2 15 3 16 4 3 6 4 7 2 8 1 9 5 10 6 11 7 13 8 14 9 15
REMARK SMILES IDX 10 16 11 17 12 18 13 19 14 20 19 21 20 22 21 23 22 24 23 26
REMARK SMILES IDX 24 27 25 28 83 29 26 30 82 31 27 32 28 33 29 34 76 35 30 36
REMARK SMILES IDX 81 37 75 38 77 39 31 40 80 41 74 42 73 43 32 45 62 46 43 47
REMARK SMILES IDX 61 48 44 49 47 50 60 51 78 52 45 53 46 54 59 56 79 57 48 58
REMARK SMILES IDX 33 59 34 60 42 61 35 62 41 63 36 64 37 65 38 66 39 67 40 68
REMARK SMILES IDX 63 69 64 70 72 71 65 72 71 73 66 74 67 75 68 76 69 77 70 78
REMARK SMILES IDX 49 79 50 80 58 81 51 82 57 83 52 84 53 85 54 86 55 87 56 88
REMARK H PARENT 17 5 5 12 21 25 77 44 47 55
REMARK Flexibility Score: inf
ROOT
ATOM      1  C   UNL A   1      33.820  27.807  26.041  1.00  0.00     0.117 C 
ENDROOT
BRANCH   1   2
ATOM      2  N   UNL A   1      32.816  26.851  26.478  1.00  0.00    -0.354 N 
ATOM      3  C   UNL A   1      31.721  26.282  25.898  1.00  0.00     0.245 C 
ATOM      4  O   UNL A   1      31.180  25.405  26.582  1.00  0.00    -0.272 OA
ATOM      5  H   UNL A   1      32.959  26.544  27.402  1.00  0.00     0.163 HD
BRANCH   3   6
ATOM      6  C   UNL A   1      31.224  26.600  24.450  1.00  0.00     0.117 C 
ATOM      7  C   UNL A   1      29.950  25.734  24.234  1.00  0.00     0.045 C 
BRANCH   6   8
ATOM      8  C   UNL A   1      30.781  28.084  24.222  1.00  0.00     0.035 C 
ATOM      9  C   UNL A   1      31.653  28.949  23.315  1.00  0.00     0.007 C 
ENDBRANCH   6   8
BRANCH   6  10
ATOM     10  N   UNL A   1      32.191  26.247  23.377  1.00  0.00    -0.324 N 
ATOM     11  C   UNL A   1      33.198  25.377  23.148  1.00  0.00     0.318 C 
ATOM     12  H   UNL A   1      32.057  26.825  22.592  1.00  0.00     0.166 HD
ATOM     13  O   UNL A   1      33.961  25.730  22.244  1.00  0.00    -0.249 OA
BRANCH  11  14
ATOM     14  N   UNL A   1      33.305  24.149  23.745  1.00  0.00    -0.325 N 
ATOM     15  C   UNL A   1      32.306  23.092  23.724  1.00  0.00     0.149 C 
BRANCH  14  16
ATOM     16  C   UNL A   1      34.539  23.806  24.515  1.00  0.00     0.086 C 
ATOM     17  C   UNL A   1      34.312  23.643  26.034  1.00  0.00     0.031 C 
BRANCH  16  18
ATOM     18  C   UNL A   1      35.336  22.583  23.969  1.00  0.00     0.005 C 
ATOM     19  C   UNL A   1      36.630  22.952  23.239  1.00  0.00     0.009 C 
ATOM     20  C   UNL A   1      35.691  21.624  25.117  1.00  0.00     0.009 C 
ENDBRANCH  16  18
ENDBRANCH  14  16
ENDBRANCH  11  14
ENDBRANCH   6  10
ENDBRANCH   3   6
ENDBRANCH   1   2
BRANCH   1  21
ATOM     21  C   UNL A   1      33.917  29.071  26.885  1.00  0.00     0.042 C 
BRANCH  21  22
ATOM     22  C   UNL A   1      35.310  29.428  27.398  1.00  0.00     0.118 C 
BRANCH  22  23
ATOM     23  N   UNL A   1      35.290  30.036  28.714  1.00  0.00    -0.352 N 
ATOM     24  C   UNL A   1      36.288  30.204  29.644  1.00  0.00     0.251 C 
ATOM     25  H   UNL A   1      34.413  30.387  28.989  1.00  0.00     0.163 HD
ATOM     26  O   UNL A   1      35.972  30.589  30.768  1.00  0.00    -0.269 OA
BRANCH  24  27
ATOM     27  C   UNL A   1      37.718  29.923  29.349  1.00  0.00     0.039 A 
ATOM     28  C   UNL A   1      38.085  29.754  28.007  1.00  0.00     0.014 A 
ATOM     29  C   UNL A   1      38.677  29.712  30.345  1.00  0.00     0.014 A 
ATOM     30  C   UNL A   1      39.399  29.410  27.667  1.00  0.00     0.010 A 
ATOM     31  C   UNL A   1      40.006  29.425  30.000  1.00  0.00     0.010 A 
ATOM     32  C   UNL A   1      40.381  29.257  28.658  1.00  0.00    -0.014 A 
BRANCH  32  33
ATOM     33  C   UNL A   1      41.784  28.910  28.288  1.00  0.00     0.031 A 
ATOM     34  C   UNL A   1      42.158  27.499  27.905  1.00  0.00     0.074 A 
ATOM     35  C   UNL A   1      42.739  29.862  28.303  1.00  0.00     0.049 A 
ATOM     36  N   UNL A   1      43.329  27.022  27.559  1.00  0.00    -0.248 NA
ATOM     37  C   UNL A   1      41.084  26.495  27.925  1.00  0.00     0.031 C 
ATOM     38  C   UNL A   1      42.529  31.264  28.669  1.00  0.00     0.029 A 
ATOM     39  N   UNL A   1      44.078  29.795  28.001  1.00  0.00    -0.354 N 
ATOM     40  C   UNL A   1      43.136  25.663  27.331  1.00  0.00     0.074 A 
ATOM     41  C   UNL A   1      41.743  25.386  27.615  1.00  0.00     0.031 C 
ATOM     42  C   UNL A   1      43.691  31.927  28.548  1.00  0.00     0.029 A 
ATOM     43  C   UNL A   1      44.735  30.996  28.131  1.00  0.00     0.049 A 
ATOM     44  H   UNL A   1      44.525  28.963  27.719  1.00  0.00     0.167 HD
ATOM     45  C   UNL A   1      44.028  24.732  26.912  1.00  0.00     0.031 A 
ATOM     46  C   UNL A   1      46.030  31.317  27.943  1.00  0.00     0.031 A 
ATOM     47  C   UNL A   1      45.412  24.997  26.616  1.00  0.00     0.049 A 
ATOM     48  C   UNL A   1      47.006  30.263  27.496  1.00  0.00     0.074 A 
ATOM     49  C   UNL A   1      46.372  24.121  26.138  1.00  0.00     0.029 A 
ATOM     50  N   UNL A   1      46.036  26.225  26.771  1.00  0.00    -0.354 N 
ATOM     51  N   UNL A   1      46.787  28.997  27.237  1.00  0.00    -0.248 NA
ATOM     52  C   UNL A   1      48.401  30.686  27.307  1.00  0.00     0.031 C 
ATOM     53  C   UNL A   1      47.589  24.807  26.048  1.00  0.00     0.029 A 
ATOM     54  C   UNL A   1      47.374  26.123  26.420  1.00  0.00     0.049 A 
ATOM     55  H   UNL A   1      45.595  27.047  27.083  1.00  0.00     0.167 HD
ATOM     56  C   UNL A   1      48.014  28.478  26.831  1.00  0.00     0.074 A 
ATOM     57  C   UNL A   1      48.964  29.569  26.867  1.00  0.00     0.031 C 
ATOM     58  C   UNL A   1      48.319  27.210  26.461  1.00  0.00     0.031 A 
BRANCH  45  59
ATOM     59  C   UNL A   1      43.533  23.317  26.755  1.00  0.00    -0.014 A 
ATOM     60  C   UNL A   1      43.569  22.670  25.507  1.00  0.00     0.010 A 
ATOM     61  C   UNL A   1      43.071  22.609  27.881  1.00  0.00     0.010 A 
ATOM     62  C   UNL A   1      43.113  21.355  25.379  1.00  0.00     0.020 A 
ATOM     63  C   UNL A   1      42.637  21.286  27.760  1.00  0.00     0.020 A 
ATOM     64  C   UNL A   1      42.643  20.673  26.505  1.00  0.00     0.054 A 
BRANCH  64  65
ATOM     65  S   UNL A   1      42.068  18.963  26.314  1.00  0.00     0.124 S 
ATOM     66  O   UNL A   1      43.042  18.424  25.368  1.00  0.00    -0.237 OA
ATOM     67  O   UNL A   1      42.156  18.439  27.673  1.00  0.00    -0.237 OA
ATOM     68  O   UNL A   1      40.711  19.111  25.793  1.00  0.00    -0.744 OA
ENDBRANCH  64  65
ENDBRANCH  45  59
BRANCH  46  69
ATOM     69  C   UNL A   1      46.483  32.717  28.172  1.00  0.00    -0.014 A 
ATOM     70  C   UNL A   1      46.607  33.611  27.095  1.00  0.00     0.010 A 
ATOM     71  C   UNL A   1      46.783  33.161  29.473  1.00  0.00     0.010 A 
ATOM     72  C   UNL A   1      47.035  34.924  27.313  1.00  0.00     0.020 A 
ATOM     73  C   UNL A   1      47.187  34.480  29.697  1.00  0.00     0.020 A 
ATOM     74  C   UNL A   1      47.321  35.351  28.613  1.00  0.00     0.054 A 
BRANCH  74  75
ATOM     75  S   UNL A   1      47.818  37.075  28.881  1.00  0.00     0.124 S 
ATOM     76  O   UNL A   1      47.006  37.781  27.895  1.00  0.00    -0.237 OA
ATOM     77  O   UNL A   1      47.453  37.298  30.278  1.00  0.00    -0.237 OA
ATOM     78  O   UNL A   1      49.255  37.061  28.616  1.00  0.00    -0.744 OA
ENDBRANCH  74  75
ENDBRANCH  46  69
BRANCH  58  79
ATOM     79  C   UNL A   1      49.736  26.932  26.035  1.00  0.00    -0.014 A 
ATOM     80  C   UNL A   1      50.715  26.546  26.968  1.00  0.00     0.010 A 
ATOM     81  C   UNL A   1      50.081  27.008  24.673  1.00  0.00     0.010 A 
ATOM     82  C   UNL A   1      52.020  26.272  26.551  1.00  0.00     0.020 A 
ATOM     83  C   UNL A   1      51.379  26.711  24.249  1.00  0.00     0.020 A 
ATOM     84  C   UNL A   1      52.345  26.357  25.193  1.00  0.00     0.054 A 
BRANCH  84  85
ATOM     85  S   UNL A   1      54.035  25.953  24.668  1.00  0.00     0.124 S 
ATOM     86  O   UNL A   1      54.838  26.765  25.579  1.00  0.00    -0.237 OA
ATOM     87  O   UNL A   1      54.104  24.511  24.886  1.00  0.00    -0.237 OA
ATOM     88  O   UNL A   1      54.071  26.368  23.268  1.00  0.00    -0.744 OA
ENDBRANCH  84  85
ENDBRANCH  58  79
ENDBRANCH  32  33
ENDBRANCH  24  27
ENDBRANCH  22  23
ENDBRANCH  21  22
ENDBRANCH   1  21
TORSDOF 18
ENDMDL
MODEL 2
REMARK VINA RESULT:     -10.1      5.265      9.573
REMARK SMILES CC[C@@](C)(NC(=O)N(C)[C@@H](C)C(C)C)C(=O)NCCCNC(=O)c1ccc(-c2c3nc(c(-c4ccc(S(=O)(=O)[O-])cc4)c4ccc([nH]4)c(-c4ccc(S(=O)(=O)[O-])cc4)c4nc(c(-c5ccc(S(=O)(=O)[O-])cc5)c5ccc2[nH]5)C=C4)C=C3)cc1
REMARK SMILES IDX 18 1 17 2 15 3 16 4 3 6 4 7 2 8 1 9 5 10 6 11 7 13 8 14 9 15
REMARK SMILES IDX 10 16 11 17 12 18 13 19 14 20 19 21 20 22 21 23 22 24 23 26
REMARK SMILES IDX 24 27 25 28 83 29 26 30 82 31 27 32 28 33 29 34 76 35 30 36
REMARK SMILES IDX 81 37 75 38 77 39 31 40 80 41 74 42 73 43 32 45 62 46 43 47
REMARK SMILES IDX 61 48 44 49 47 50 60 51 78 52 45 53 46 54 59 56 79 57 48 58
REMARK SMILES IDX 33 59 34 60 42 61 35 62 41 63 36 64 37 65 38 66 39 67 40 68
REMARK SMILES IDX 63 69 64 70 72 71 65 72 71 73 66 74 67 75 68 76 69 77 70 78
REMARK SMILES IDX 49 79 50 80 58 81 51 82 57 83 52 84 53 85 54 86 55 87 56 88
REMARK H PARENT 17 5 5 12 21 25 77 44 47 55
REMARK Flexibility Score: inf
ROOT
ATOM      1  C   UNL A   1      31.688  28.049  26.773  1.00  0.00     0.117 C 
ENDROOT
BRANCH   1   2
ATOM      2  N   UNL A   1      31.043  26.750  26.880  1.00  0.00    -0.354 N 
ATOM      3  C   UNL A   1      30.610  25.821  25.983  1.00  0.00     0.245 C 
ATOM      4  O   UNL A   1      30.209  24.768  26.492  1.00  0.00    -0.272 OA
ATOM      5  H   UNL A   1      30.883  26.481  27.814  1.00  0.00     0.163 HD
BRANCH   3   6
ATOM      6  C   UNL A   1      30.698  25.986  24.430  1.00  0.00     0.117 C 
ATOM      7  C   UNL A   1      30.300  24.608  23.829  1.00  0.00     0.045 C 
BRANCH   6   8
ATOM      8  C   UNL A   1      29.698  27.026  23.825  1.00  0.00     0.035 C 
ATOM      9  C   UNL A   1      28.209  26.689  23.883  1.00  0.00     0.007 C 
ENDBRANCH   6   8
BRANCH   6  10
ATOM     10  N   UNL A   1      32.057  26.318  23.924  1.00  0.00    -0.324 N 
ATOM     11  C   UNL A   1      33.255  25.724  23.734  1.00  0.00     0.318 C 
ATOM     12  H   UNL A   1      32.095  27.259  23.641  1.00  0.00     0.166 HD
ATOM     13  O   UNL A   1      34.194  26.522  23.648  1.00  0.00    -0.249 OA
BRANCH  11  14
ATOM     14  N   UNL A   1      33.424  24.384  23.512  1.00  0.00    -0.325 N 
ATOM     15  C   UNL A   1      33.164  23.680  22.266  1.00  0.00     0.149 C 
BRANCH  14  16
ATOM     16  C   UNL A   1      33.910  23.506  24.619  1.00  0.00     0.086 C 
ATOM     17  C   UNL A   1      33.702  24.095  26.032  1.00  0.00     0.031 C 
BRANCH  16  18
ATOM     18  C   UNL A   1      33.381  22.041  24.576  1.00  0.00     0.005 C 
ATOM     19  C   UNL A   1      34.422  20.985  24.954  1.00  0.00     0.009 C 
ATOM     20  C   UNL A   1      32.176  21.884  25.520  1.00  0.00     0.009 C 
ENDBRANCH  16  18
ENDBRANCH  14  16
ENDBRANCH  11  14
ENDBRANCH   6  10
ENDBRANCH   3   6
ENDBRANCH   1   2
BRANCH   1  21
ATOM     21  C   UNL A   1      33.210  28.021  26.839  1.00  0.00     0.042 C 
BRANCH  21  22
ATOM     22  C   UNL A   1      33.933  29.137  26.089  1.00  0.00     0.118 C 
BRANCH  22  23
ATOM     23  N   UNL A   1      33.646  30.455  26.620  1.00  0.00    -0.352 N 
ATOM     24  C   UNL A   1      34.278  31.193  27.591  1.00  0.00     0.251 C 
ATOM     25  H   UNL A   1      32.865  30.897  26.216  1.00  0.00     0.163 HD
ATOM     26  O   UNL A   1      33.726  32.217  27.991  1.00  0.00    -0.269 OA
BRANCH  24  27
ATOM     27  C   UNL A   1      35.583  30.795  28.182  1.00  0.00     0.039 A 
ATOM     28  C   UNL A   1      35.588  29.730  29.093  1.00  0.00     0.014 A 
ATOM     29  C   UNL A   1      36.772  31.498  27.957  1.00  0.00     0.014 A 
ATOM     30  C   UNL A   1      36.769  29.356  29.744  1.00  0.00     0.010 A 
ATOM     31  C   UNL A   1      37.966  31.086  28.566  1.00  0.00     0.010 A 
ATOM     32  C   UNL A   1      37.977  30.018  29.477  1.00  0.00    -0.014 A 
BRANCH  32  33
ATOM     33  C   UNL A   1      39.237  29.603  30.159  1.00  0.00     0.031 A 
ATOM     34  C   UNL A   1      39.710  30.304  31.409  1.00  0.00     0.074 A 
ATOM     35  C   UNL A   1      39.975  28.594  29.654  1.00  0.00     0.049 A 
ATOM     36  N   UNL A   1      40.781  30.075  32.129  1.00  0.00    -0.248 NA
ATOM     37  C   UNL A   1      38.880  31.411  31.908  1.00  0.00     0.031 C 
ATOM     38  C   UNL A   1      39.654  27.836  28.443  1.00  0.00     0.029 A 
ATOM     39  N   UNL A   1      41.149  28.031  30.096  1.00  0.00    -0.354 N 
ATOM     40  C   UNL A   1      40.761  31.013  33.156  1.00  0.00     0.074 A 
ATOM     41  C   UNL A   1      39.590  31.838  32.944  1.00  0.00     0.031 C 
ATOM     42  C   UNL A   1      40.592  26.894  28.254  1.00  0.00     0.029 A 
ATOM     43  C   UNL A   1      41.600  27.001  29.304  1.00  0.00     0.049 A 
ATOM     44  H   UNL A   1      41.622  28.338  30.904  1.00  0.00     0.167 HD
ATOM     45  C   UNL A   1      41.625  31.169  34.188  1.00  0.00     0.031 A 
ATOM     46  C   UNL A   1      42.702  26.231  29.403  1.00  0.00     0.031 A 
ATOM     47  C   UNL A   1      42.787  30.348  34.416  1.00  0.00     0.049 A 
ATOM     48  C   UNL A   1      43.657  26.434  30.547  1.00  0.00     0.074 A 
ATOM     49  C   UNL A   1      43.688  30.406  35.465  1.00  0.00     0.029 A 
ATOM     50  N   UNL A   1      43.210  29.324  33.583  1.00  0.00    -0.354 N 
ATOM     51  N   UNL A   1      43.588  27.294  31.534  1.00  0.00    -0.248 NA
ATOM     52  C   UNL A   1      44.835  25.555  30.593  1.00  0.00     0.031 C 
ATOM     53  C   UNL A   1      44.684  29.448  35.244  1.00  0.00     0.029 A 
ATOM     54  C   UNL A   1      44.374  28.759  34.084  1.00  0.00     0.049 A 
ATOM     55  H   UNL A   1      42.754  29.040  32.760  1.00  0.00     0.167 HD
ATOM     56  C   UNL A   1      44.700  27.042  32.332  1.00  0.00     0.074 A 
ATOM     57  C   UNL A   1      45.417  25.944  31.720  1.00  0.00     0.031 C 
ATOM     58  C   UNL A   1      45.087  27.667  33.471  1.00  0.00     0.031 A 
BRANCH  45  59
ATOM     59  C   UNL A   1      41.353  32.289  35.159  1.00  0.00    -0.014 A 
ATOM     60  C   UNL A   1      40.504  32.100  36.264  1.00  0.00     0.010 A 
ATOM     61  C   UNL A   1      41.994  33.530  34.991  1.00  0.00     0.010 A 
ATOM     62  C   UNL A   1      40.267  33.146  37.160  1.00  0.00     0.020 A 
ATOM     63  C   UNL A   1      41.778  34.571  35.899  1.00  0.00     0.020 A 
ATOM     64  C   UNL A   1      40.901  34.378  36.968  1.00  0.00     0.054 A 
BRANCH  64  65
ATOM     65  S   UNL A   1      40.585  35.716  38.153  1.00  0.00     0.124 S 
ATOM     66  O   UNL A   1      39.928  35.001  39.244  1.00  0.00    -0.237 OA
ATOM     67  O   UNL A   1      41.926  36.212  38.444  1.00  0.00    -0.237 OA
ATOM     68  O   UNL A   1      39.729  36.640  37.411  1.00  0.00    -0.744 OA
ENDBRANCH  64  65
ENDBRANCH  45  59
BRANCH  46  69
ATOM     69  C   UNL A   1      42.960  25.178  28.382  1.00  0.00    -0.014 A 
ATOM     70  C   UNL A   1      43.695  25.475  27.222  1.00  0.00     0.010 A 
ATOM     71  C   UNL A   1      42.477  23.871  28.575  1.00  0.00     0.010 A 
ATOM     72  C   UNL A   1      43.933  24.484  26.265  1.00  0.00     0.020 A 
ATOM     73  C   UNL A   1      42.735  22.873  27.631  1.00  0.00     0.020 A 
ATOM     74  C   UNL A   1      43.453  23.189  26.476  1.00  0.00     0.054 A 
BRANCH  74  75
ATOM     75  S   UNL A   1      43.824  21.904  25.250  1.00  0.00     0.124 S 
ATOM     76  O   UNL A   1      42.788  20.914  25.525  1.00  0.00    -0.237 OA
ATOM     77  O   UNL A   1      43.692  22.624  23.985  1.00  0.00    -0.237 OA
ATOM     78  O   UNL A   1      45.187  21.496  25.585  1.00  0.00    -0.744 OA
ENDBRANCH  74  75
ENDBRANCH  46  69
BRANCH  58  79
ATOM     79  C   UNL A   1      46.332  27.164  34.153  1.00  0.00    -0.014 A 
ATOM     80  C   UNL A   1      47.594  27.712  33.864  1.00  0.00     0.010 A 
ATOM     81  C   UNL A   1      46.230  26.161  35.134  1.00  0.00     0.010 A 
ATOM     82  C   UNL A   1      48.735  27.246  34.522  1.00  0.00     0.020 A 
ATOM     83  C   UNL A   1      47.365  25.709  35.812  1.00  0.00     0.020 A 
ATOM     84  C   UNL A   1      48.615  26.245  35.492  1.00  0.00     0.054 A 
BRANCH  84  85
ATOM     85  S   UNL A   1      50.103  25.685  36.366  1.00  0.00     0.124 S 
ATOM     86  O   UNL A   1      49.826  26.104  37.736  1.00  0.00    -0.237 OA
ATOM     87  O   UNL A   1      50.090  24.243  36.134  1.00  0.00    -0.237 OA
ATOM     88  O   UNL A   1      51.186  26.406  35.701  1.00  0.00    -0.744 OA
ENDBRANCH  84  85
ENDBRANCH  58  79
ENDBRANCH  32  33
ENDBRANCH  24  27
ENDBRANCH  22  23
ENDBRANCH  21  22
ENDBRANCH   1  21
TORSDOF 18
ENDMDL
MODEL 3
REMARK VINA RESULT:     -10.0      4.453      9.662
REMARK SMILES CC[C@@](C)(NC(=O)N(C)[C@@H](C)C(C)C)C(=O)NCCCNC(=O)c1ccc(-c2c3nc(c(-c4ccc(S(=O)(=O)[O-])cc4)c4ccc([nH]4)c(-c4ccc(S(=O)(=O)[O-])cc4)c4nc(c(-c5ccc(S(=O)(=O)[O-])cc5)c5ccc2[nH]5)C=C4)C=C3)cc1
REMARK SMILES IDX 18 1 17 2 15 3 16 4 3 6 4 7 2 8 1 9 5 10 6 11 7 13 8 14 9 15
REMARK SMILES IDX 10 16 11 17 12 18 13 19 14 20 19 21 20 22 21 23 22 24 23 26
REMARK SMILES IDX 24 27 25 28 83 29 26 30 82 31 27 32 28 33 29 34 76 35 30 36
REMARK SMILES IDX 81 37 75 38 77 39 31 40 80 41 74 42 73 43 32 45 62 46 43 47
REMARK SMILES IDX 61 48 44 49 47 50 60 51 78 52 45 53 46 54 59 56 79 57 48 58
REMARK SMILES IDX 33 59 34 60 42 61 35 62 41 63 36 64 37 65 38 66 39 67 40 68
REMARK SMILES IDX 63 69 64 70 72 71 65 72 71 73 66 74 67 75 68 76 69 77 70 78
REMARK SMILES IDX 49 79 50 80 58 81 51 82 57 83 52 84 53 85 54 86 55 87 56 88
REMARK H PARENT 17 5 5 12 21 25 77 44 47 55
REMARK Flexibility Score: inf
ROOT
ATOM      1  C   UNL A   1      34.164  24.051  25.424  1.00  0.00     0.117 C 
ENDROOT
BRANCH   1   2
ATOM      2  N   UNL A   1      32.992  24.106  26.283  1.00  0.00    -0.354 N 
ATOM      3  C   UNL A   1      31.724  24.586  26.141  1.00  0.00     0.245 C 
ATOM      4  O   UNL A   1      30.974  24.330  27.090  1.00  0.00    -0.272 OA
ATOM      5  H   UNL A   1      33.150  23.707  27.170  1.00  0.00     0.163 HD
BRANCH   3   6
ATOM      6  C   UNL A   1      31.191  25.304  24.858  1.00  0.00     0.117 C 
ATOM      7  C   UNL A   1      30.672  24.176  23.921  1.00  0.00     0.045 C 
BRANCH   6   8
ATOM      8  C   UNL A   1      29.975  26.258  25.100  1.00  0.00     0.035 C 
ATOM      9  C   UNL A   1      28.947  26.389  23.979  1.00  0.00     0.007 C 
ENDBRANCH   6   8
BRANCH   6  10
ATOM     10  N   UNL A   1      32.224  26.068  24.108  1.00  0.00    -0.324 N 
ATOM     11  C   UNL A   1      32.817  27.280  24.124  1.00  0.00     0.318 C 
ATOM     12  H   UNL A   1      32.586  25.522  23.373  1.00  0.00     0.166 HD
ATOM     13  O   UNL A   1      33.343  27.588  23.049  1.00  0.00    -0.249 OA
BRANCH  11  14
ATOM     14  N   UNL A   1      32.962  28.051  25.245  1.00  0.00    -0.325 N 
ATOM     15  C   UNL A   1      33.561  27.636  26.504  1.00  0.00     0.149 C 
BRANCH  14  16
ATOM     16  C   UNL A   1      32.468  29.462  25.242  1.00  0.00     0.086 C 
ATOM     17  C   UNL A   1      31.115  29.657  24.522  1.00  0.00     0.031 C 
BRANCH  16  18
ATOM     18  C   UNL A   1      32.422  30.146  26.641  1.00  0.00     0.005 C 
ATOM     19  C   UNL A   1      33.767  30.704  27.112  1.00  0.00     0.009 C 
ATOM     20  C   UNL A   1      31.402  31.297  26.637  1.00  0.00     0.009 C 
ENDBRANCH  16  18
ENDBRANCH  14  16
ENDBRANCH  11  14
ENDBRANCH   6  10
ENDBRANCH   3   6
ENDBRANCH   1   2
BRANCH   1  21
ATOM     21  C   UNL A   1      35.431  23.537  26.095  1.00  0.00     0.042 C 
BRANCH  21  22
ATOM     22  C   UNL A   1      36.749  23.957  25.448  1.00  0.00     0.118 C 
BRANCH  22  23
ATOM     23  N   UNL A   1      37.791  22.958  25.583  1.00  0.00    -0.352 N 
ATOM     24  C   UNL A   1      39.069  23.051  26.077  1.00  0.00     0.251 C 
ATOM     25  H   UNL A   1      37.540  22.061  25.268  1.00  0.00     0.163 HD
ATOM     26  O   UNL A   1      39.824  22.094  25.914  1.00  0.00    -0.269 OA
BRANCH  24  27
ATOM     27  C   UNL A   1      39.574  24.261  26.780  1.00  0.00     0.039 A 
ATOM     28  C   UNL A   1      39.246  24.413  28.133  1.00  0.00     0.014 A 
ATOM     29  C   UNL A   1      40.256  25.294  26.129  1.00  0.00     0.014 A 
ATOM     30  C   UNL A   1      39.622  25.566  28.832  1.00  0.00     0.010 A 
ATOM     31  C   UNL A   1      40.683  26.423  26.844  1.00  0.00     0.010 A 
ATOM     32  C   UNL A   1      40.360  26.579  28.201  1.00  0.00    -0.014 A 
BRANCH  32  33
ATOM     33  C   UNL A   1      40.776  27.797  28.955  1.00  0.00     0.031 A 
ATOM     34  C   UNL A   1      42.138  27.884  29.597  1.00  0.00     0.074 A 
ATOM     35  C   UNL A   1      39.925  28.836  29.077  1.00  0.00     0.049 A 
ATOM     36  N   UNL A   1      42.662  28.866  30.291  1.00  0.00    -0.248 NA
ATOM     37  C   UNL A   1      43.021  26.717  29.453  1.00  0.00     0.031 C 
ATOM     38  C   UNL A   1      38.569  28.888  28.526  1.00  0.00     0.029 A 
ATOM     39  N   UNL A   1      40.074  30.050  29.704  1.00  0.00    -0.354 N 
ATOM     40  C   UNL A   1      43.927  28.432  30.674  1.00  0.00     0.074 A 
ATOM     41  C   UNL A   1      44.077  27.083  30.167  1.00  0.00     0.031 C 
ATOM     42  C   UNL A   1      38.022  30.078  28.818  1.00  0.00     0.029 A 
ATOM     43  C   UNL A   1      38.969  30.862  29.607  1.00  0.00     0.049 A 
ATOM     44  H   UNL A   1      40.896  30.313  30.180  1.00  0.00     0.167 HD
ATOM     45  C   UNL A   1      44.883  29.094  31.371  1.00  0.00     0.031 A 
ATOM     46  C   UNL A   1      38.734  32.095  30.098  1.00  0.00     0.031 A 
ATOM     47  C   UNL A   1      44.750  30.438  31.871  1.00  0.00     0.049 A 
ATOM     48  C   UNL A   1      39.803  32.803  30.884  1.00  0.00     0.074 A 
ATOM     49  C   UNL A   1      45.690  31.201  32.544  1.00  0.00     0.029 A 
ATOM     50  N   UNL A   1      43.611  31.218  31.757  1.00  0.00    -0.354 N 
ATOM     51  N   UNL A   1      41.011  32.392  31.188  1.00  0.00    -0.248 NA
ATOM     52  C   UNL A   1      39.480  34.147  31.385  1.00  0.00     0.031 C 
ATOM     53  C   UNL A   1      45.103  32.427  32.879  1.00  0.00     0.029 A 
ATOM     54  C   UNL A   1      43.816  32.446  32.368  1.00  0.00     0.049 A 
ATOM     55  H   UNL A   1      42.779  30.942  31.309  1.00  0.00     0.167 HD
ATOM     56  C   UNL A   1      41.598  33.436  31.895  1.00  0.00     0.074 A 
ATOM     57  C   UNL A   1      40.620  34.501  31.963  1.00  0.00     0.031 C 
ATOM     58  C   UNL A   1      42.839  33.503  32.437  1.00  0.00     0.031 A 
BRANCH  45  59
ATOM     59  C   UNL A   1      46.172  28.363  31.648  1.00  0.00    -0.014 A 
ATOM     60  C   UNL A   1      47.240  28.405  30.735  1.00  0.00     0.010 A 
ATOM     61  C   UNL A   1      46.333  27.667  32.861  1.00  0.00     0.010 A 
ATOM     62  C   UNL A   1      48.432  27.727  31.009  1.00  0.00     0.020 A 
ATOM     63  C   UNL A   1      47.533  27.009  33.149  1.00  0.00     0.020 A 
ATOM     64  C   UNL A   1      48.568  27.028  32.213  1.00  0.00     0.054 A 
BRANCH  64  65
ATOM     65  S   UNL A   1      50.130  26.168  32.550  1.00  0.00     0.124 S 
ATOM     66  O   UNL A   1      50.304  25.376  31.334  1.00  0.00    -0.237 OA
ATOM     67  O   UNL A   1      51.073  27.268  32.723  1.00  0.00    -0.237 OA
ATOM     68  O   UNL A   1      49.846  25.398  33.759  1.00  0.00    -0.744 OA
ENDBRANCH  64  65
ENDBRANCH  45  59
BRANCH  46  69
ATOM     69  C   UNL A   1      37.420  32.750  29.850  1.00  0.00    -0.014 A 
ATOM     70  C   UNL A   1      36.369  32.613  30.772  1.00  0.00     0.010 A 
ATOM     71  C   UNL A   1      37.221  33.524  28.692  1.00  0.00     0.010 A 
ATOM     72  C   UNL A   1      35.137  33.227  30.535  1.00  0.00     0.020 A 
ATOM     73  C   UNL A   1      35.998  34.160  28.465  1.00  0.00     0.020 A 
ATOM     74  C   UNL A   1      34.959  33.999  29.383  1.00  0.00     0.054 A 
BRANCH  74  75
ATOM     75  S   UNL A   1      33.371  34.837  29.125  1.00  0.00     0.124 S 
ATOM     76  O   UNL A   1      32.793  34.811  30.464  1.00  0.00    -0.237 OA
ATOM     77  O   UNL A   1      33.780  36.151  28.636  1.00  0.00    -0.237 OA
ATOM     78  O   UNL A   1      32.699  33.995  28.136  1.00  0.00    -0.744 OA
ENDBRANCH  74  75
ENDBRANCH  46  69
BRANCH  58  79
ATOM     79  C   UNL A   1      43.228  34.782  33.130  1.00  0.00    -0.014 A 
ATOM     80  C   UNL A   1      43.044  34.946  34.514  1.00  0.00     0.010 A 
ATOM     81  C   UNL A   1      43.833  35.816  32.393  1.00  0.00     0.010 A 
ATOM     82  C   UNL A   1      43.430  36.132  35.144  1.00  0.00     0.020 A 
ATOM     83  C   UNL A   1      44.243  36.995  33.023  1.00  0.00     0.020 A 
ATOM     84  C   UNL A   1      44.027  37.151  34.394  1.00  0.00     0.054 A 
BRANCH  84  85
ATOM     85  S   UNL A   1      44.561  38.666  35.239  1.00  0.00     0.124 S 
ATOM     86  O   UNL A   1      46.013  38.515  35.244  1.00  0.00    -0.237 OA
ATOM     87  O   UNL A   1      44.041  39.719  34.371  1.00  0.00    -0.237 OA
ATOM     88  O   UNL A   1      43.920  38.575  36.549  1.00  0.00    -0.744 OA
ENDBRANCH  84  85
ENDBRANCH  58  79
ENDBRANCH  32  33
ENDBRANCH  24  27
ENDBRANCH  22  23
ENDBRANCH  21  22
ENDBRANCH   1  21
TORSDOF 18
ENDMDL
