MODEL 1
REMARK VINA RESULT:     -11.2      0.000      0.000
REMARK SMILES O=Cc1ccc2c(c1)C=C(C(=O)NCCCNC(=O)c1ccc(-c3c4nc(c(-c5ccc(S(=O)(=O)[O-])cc5)c5ccc([nH]5)c(-c5ccc(S(=O)(=O)[O-])cc5)c5nc(c(-c6ccc(S(=O)(=O)[O-])cc6)c6ccc3[nH]6)C=C5)C=C4)cc1)[C@H](C(F)(F)F)O2
REMARK SMILES IDX 16 1 15 2 14 3 13 4 11 5 12 6 10 8 3 9 4 10 8 11 5 12 7 13
REMARK SMILES IDX 6 14 9 15 85 16 80 17 2 18 1 19 81 20 82 21 83 22 84 23
REMARK SMILES IDX 17 24 18 25 19 27 20 28 21 29 79 30 22 31 78 32 23 33 24 34
REMARK SMILES IDX 25 35 72 36 26 37 77 38 71 39 73 40 27 41 76 42 70 43 69 44
REMARK SMILES IDX 28 46 58 47 39 48 57 49 40 50 43 51 56 52 74 53 41 54 42 55
REMARK SMILES IDX 55 57 75 58 44 59 29 60 30 61 38 62 31 63 37 64 32 65 33 66
REMARK SMILES IDX 34 67 35 68 36 69 59 70 60 71 68 72 61 73 67 74 62 75 63 76
REMARK SMILES IDX 64 77 65 78 66 79 45 80 46 81 54 82 47 83 53 84 48 85 49 86
REMARK SMILES IDX 50 87 51 88 52 89
REMARK H PARENT 13 7 17 26 73 45 43 56
REMARK Flexibility Score: inf
ROOT
ATOM      1  C   UNL A   1      33.547  28.156  27.230  1.00  0.00     0.118 C 
ENDROOT
BRANCH   1   2
ATOM      2  C   UNL A   1      33.161  27.729  25.814  1.00  0.00     0.042 C 
BRANCH   2   3
ATOM      3  C   UNL A   1      31.675  27.386  25.655  1.00  0.00     0.118 C 
BRANCH   3   4
ATOM      4  N   UNL A   1      31.300  26.280  26.522  1.00  0.00    -0.352 N 
ATOM      5  C   UNL A   1      31.668  24.974  26.572  1.00  0.00     0.251 C 
ATOM      6  O   UNL A   1      31.095  24.241  27.375  1.00  0.00    -0.270 OA
ATOM      7  H   UNL A   1      30.645  26.529  27.214  1.00  0.00     0.163 HD
BRANCH   5   8
ATOM      8  C   UNL A   1      32.777  24.412  25.757  1.00  0.00     0.067 C 
ATOM      9  C   UNL A   1      37.237  22.683  25.097  1.00  0.00     0.015 A 
ATOM     10  C   UNL A   1      36.931  22.380  23.768  1.00  0.00     0.015 A 
ATOM     11  C   UNL A   1      36.289  23.299  25.919  1.00  0.00     0.023 A 
ATOM     12  C   UNL A   1      35.665  22.681  23.265  1.00  0.00     0.048 A 
ATOM     13  C   UNL A   1      35.018  23.598  25.408  1.00  0.00     0.018 A 
ATOM     14  C   UNL A   1      34.713  23.285  24.085  1.00  0.00     0.128 A 
ATOM     15  C   UNL A   1      33.991  24.163  26.267  1.00  0.00     0.025 C 
ATOM     16  O   UNL A   1      33.483  23.484  23.535  1.00  0.00    -0.475 OA
ATOM     17  C   UNL A   1      32.510  24.295  24.258  1.00  0.00     0.314 C 
BRANCH   9  18
ATOM     18  C   UNL A   1      38.558  22.328  25.653  1.00  0.00     0.260 C 
ATOM     19  O   UNL A   1      38.957  22.793  26.714  1.00  0.00    -0.298 OA
ENDBRANCH   9  18
BRANCH  17  20
ATOM     20  C   UNL A   1      31.109  23.781  23.856  1.00  0.00     0.429 C 
ATOM     21  F   UNL A   1      30.216  24.775  23.659  1.00  0.00    -0.167 F 
ATOM     22  F   UNL A   1      31.159  23.101  22.677  1.00  0.00    -0.167 F 
ATOM     23  F   UNL A   1      30.593  22.926  24.772  1.00  0.00    -0.167 F 
ENDBRANCH  17  20
ENDBRANCH   5   8
ENDBRANCH   3   4
ENDBRANCH   2   3
ENDBRANCH   1   2
BRANCH   1  24
ATOM     24  N   UNL A   1      33.435  29.594  27.411  1.00  0.00    -0.352 N 
ATOM     25  C   UNL A   1      34.305  30.489  27.980  1.00  0.00     0.251 C 
ATOM     26  H   UNL A   1      32.600  29.988  27.070  1.00  0.00     0.163 HD
ATOM     27  O   UNL A   1      33.900  31.622  28.233  1.00  0.00    -0.269 OA
BRANCH  25  28
ATOM     28  C   UNL A   1      35.704  30.118  28.299  1.00  0.00     0.039 A 
ATOM     29  C   UNL A   1      36.662  30.213  27.286  1.00  0.00     0.014 A 
ATOM     30  C   UNL A   1      36.068  29.606  29.549  1.00  0.00     0.014 A 
ATOM     31  C   UNL A   1      37.984  29.833  27.532  1.00  0.00     0.010 A 
ATOM     32  C   UNL A   1      37.401  29.283  29.813  1.00  0.00     0.010 A 
ATOM     33  C   UNL A   1      38.372  29.385  28.806  1.00  0.00    -0.014 A 
BRANCH  33  34
ATOM     34  C   UNL A   1      39.789  29.034  29.083  1.00  0.00     0.031 A 
ATOM     35  C   UNL A   1      40.722  30.031  29.718  1.00  0.00     0.074 A 
ATOM     36  C   UNL A   1      40.247  27.815  28.732  1.00  0.00     0.049 A 
ATOM     37  N   UNL A   1      41.983  29.887  30.043  1.00  0.00    -0.248 NA
ATOM     38  C   UNL A   1      40.175  31.366  30.008  1.00  0.00     0.031 C 
ATOM     39  C   UNL A   1      39.458  26.775  28.069  1.00  0.00     0.029 A 
ATOM     40  N   UNL A   1      41.486  27.244  28.886  1.00  0.00    -0.354 N 
ATOM     41  C   UNL A   1      42.383  31.114  30.563  1.00  0.00     0.074 A 
ATOM     42  C   UNL A   1      41.244  32.001  30.470  1.00  0.00     0.031 C 
ATOM     43  C   UNL A   1      40.221  25.683  27.903  1.00  0.00     0.029 A 
ATOM     44  C   UNL A   1      41.560  25.955  28.418  1.00  0.00     0.049 A 
ATOM     45  H   UNL A   1      42.249  27.714  29.295  1.00  0.00     0.167 HD
ATOM     46  C   UNL A   1      43.584  31.465  31.086  1.00  0.00     0.031 A 
ATOM     47  C   UNL A   1      42.586  25.083  28.405  1.00  0.00     0.031 A 
ATOM     48  C   UNL A   1      44.714  30.578  31.186  1.00  0.00     0.049 A 
ATOM     49  C   UNL A   1      43.904  25.489  29.003  1.00  0.00     0.074 A 
ATOM     50  C   UNL A   1      45.954  30.823  31.750  1.00  0.00     0.029 A 
ATOM     51  N   UNL A   1      44.745  29.278  30.707  1.00  0.00    -0.354 N 
ATOM     52  N   UNL A   1      44.240  26.631  29.554  1.00  0.00    -0.248 NA
ATOM     53  C   UNL A   1      44.974  24.483  28.991  1.00  0.00     0.031 C 
ATOM     54  C   UNL A   1      46.749  29.685  31.575  1.00  0.00     0.029 A 
ATOM     55  C   UNL A   1      45.988  28.714  30.945  1.00  0.00     0.049 A 
ATOM     56  H   UNL A   1      43.995  28.821  30.263  1.00  0.00     0.167 HD
ATOM     57  C   UNL A   1      45.556  26.475  29.971  1.00  0.00     0.074 A 
ATOM     58  C   UNL A   1      45.947  25.122  29.627  1.00  0.00     0.031 C 
ATOM     59  C   UNL A   1      46.368  27.371  30.586  1.00  0.00     0.031 A 
BRANCH  46  60
ATOM     60  C   UNL A   1      43.737  32.876  31.588  1.00  0.00    -0.014 A 
ATOM     61  C   UNL A   1      44.186  33.904  30.739  1.00  0.00     0.010 A 
ATOM     62  C   UNL A   1      43.390  33.189  32.915  1.00  0.00     0.010 A 
ATOM     63  C   UNL A   1      44.331  35.208  31.221  1.00  0.00     0.020 A 
ATOM     64  C   UNL A   1      43.508  34.498  33.394  1.00  0.00     0.020 A 
ATOM     65  C   UNL A   1      43.998  35.496  32.547  1.00  0.00     0.054 A 
BRANCH  65  66
ATOM     66  S   UNL A   1      44.182  37.200  33.143  1.00  0.00     0.124 S 
ATOM     67  O   UNL A   1      42.988  37.357  33.970  1.00  0.00    -0.237 OA
ATOM     68  O   UNL A   1      45.447  37.152  33.870  1.00  0.00    -0.237 OA
ATOM     69  O   UNL A   1      44.200  37.995  31.918  1.00  0.00    -0.744 OA
ENDBRANCH  65  66
ENDBRANCH  46  60
BRANCH  47  70
ATOM     70  C   UNL A   1      42.394  23.726  27.828  1.00  0.00    -0.014 A 
ATOM     71  C   UNL A   1      42.622  23.493  26.461  1.00  0.00     0.010 A 
ATOM     72  C   UNL A   1      42.009  22.652  28.651  1.00  0.00     0.010 A 
ATOM     73  C   UNL A   1      42.459  22.214  25.923  1.00  0.00     0.020 A 
ATOM     74  C   UNL A   1      41.870  21.366  28.122  1.00  0.00     0.020 A 
ATOM     75  C   UNL A   1      42.087  21.157  26.759  1.00  0.00     0.054 A 
BRANCH  75  76
ATOM     76  S   UNL A   1      41.949  19.489  26.056  1.00  0.00     0.124 S 
ATOM     77  O   UNL A   1      40.519  19.391  25.785  1.00  0.00    -0.237 OA
ATOM     78  O   UNL A   1      42.814  19.568  24.882  1.00  0.00    -0.237 OA
ATOM     79  O   UNL A   1      42.446  18.628  27.128  1.00  0.00    -0.744 OA
ENDBRANCH  75  76
ENDBRANCH  47  70
BRANCH  59  80
ATOM     80  C   UNL A   1      47.756  26.910  30.940  1.00  0.00    -0.014 A 
ATOM     81  C   UNL A   1      48.831  27.100  30.055  1.00  0.00     0.010 A 
ATOM     82  C   UNL A   1      47.991  26.307  32.189  1.00  0.00     0.010 A 
ATOM     83  C   UNL A   1      50.113  26.660  30.397  1.00  0.00     0.020 A 
ATOM     84  C   UNL A   1      49.276  25.889  32.545  1.00  0.00     0.020 A 
ATOM     85  C   UNL A   1      50.326  26.052  31.638  1.00  0.00     0.054 A 
BRANCH  85  86
ATOM     86  S   UNL A   1      52.003  25.513  32.073  1.00  0.00     0.124 S 
ATOM     87  O   UNL A   1      52.765  25.916  30.894  1.00  0.00    -0.237 OA
ATOM     88  O   UNL A   1      52.280  26.271  33.291  1.00  0.00    -0.237 OA
ATOM     89  O   UNL A   1      51.864  24.071  32.263  1.00  0.00    -0.744 OA
ENDBRANCH  85  86
ENDBRANCH  59  80
ENDBRANCH  33  34
ENDBRANCH  25  28
ENDBRANCH   1  24
TORSDOF 15
ENDMDL
MODEL 2
REMARK VINA RESULT:     -11.0      2.040      3.877
REMARK SMILES O=Cc1ccc2c(c1)C=C(C(=O)NCCCNC(=O)c1ccc(-c3c4nc(c(-c5ccc(S(=O)(=O)[O-])cc5)c5ccc([nH]5)c(-c5ccc(S(=O)(=O)[O-])cc5)c5nc(c(-c6ccc(S(=O)(=O)[O-])cc6)c6ccc3[nH]6)C=C5)C=C4)cc1)[C@H](C(F)(F)F)O2
REMARK SMILES IDX 16 1 15 2 14 3 13 4 11 5 12 6 10 8 3 9 4 10 8 11 5 12 7 13
REMARK SMILES IDX 6 14 9 15 85 16 80 17 2 18 1 19 81 20 82 21 83 22 84 23
REMARK SMILES IDX 17 24 18 25 19 27 20 28 21 29 79 30 22 31 78 32 23 33 24 34
REMARK SMILES IDX 25 35 72 36 26 37 77 38 71 39 73 40 27 41 76 42 70 43 69 44
REMARK SMILES IDX 28 46 58 47 39 48 57 49 40 50 43 51 56 52 74 53 41 54 42 55
REMARK SMILES IDX 55 57 75 58 44 59 29 60 30 61 38 62 31 63 37 64 32 65 33 66
REMARK SMILES IDX 34 67 35 68 36 69 59 70 60 71 68 72 61 73 67 74 62 75 63 76
REMARK SMILES IDX 64 77 65 78 66 79 45 80 46 81 54 82 47 83 53 84 48 85 49 86
REMARK SMILES IDX 50 87 51 88 52 89
REMARK H PARENT 13 7 17 26 73 45 43 56
REMARK Flexibility Score: inf
ROOT
ATOM      1  C   UNL A   1      33.585  28.269  27.152  1.00  0.00     0.118 C 
ENDROOT
BRANCH   1   2
ATOM      2  C   UNL A   1      34.068  28.004  25.726  1.00  0.00     0.042 C 
BRANCH   2   3
ATOM      3  C   UNL A   1      33.873  26.555  25.267  1.00  0.00     0.118 C 
BRANCH   3   4
ATOM      4  N   UNL A   1      34.095  26.428  23.834  1.00  0.00    -0.352 N 
ATOM      5  C   UNL A   1      33.288  26.587  22.754  1.00  0.00     0.251 C 
ATOM      6  O   UNL A   1      33.744  26.310  21.646  1.00  0.00    -0.270 OA
ATOM      7  H   UNL A   1      35.017  26.174  23.601  1.00  0.00     0.163 HD
BRANCH   5   8
ATOM      8  C   UNL A   1      31.914  27.147  22.841  1.00  0.00     0.067 C 
ATOM      9  C   UNL A   1      28.543  30.520  22.083  1.00  0.00     0.015 A 
ATOM     10  C   UNL A   1      27.565  29.670  22.603  1.00  0.00     0.015 A 
ATOM     11  C   UNL A   1      29.882  30.119  22.042  1.00  0.00     0.023 A 
ATOM     12  C   UNL A   1      27.926  28.407  23.072  1.00  0.00     0.048 A 
ATOM     13  C   UNL A   1      30.238  28.848  22.514  1.00  0.00     0.018 A 
ATOM     14  C   UNL A   1      29.259  27.998  23.024  1.00  0.00     0.128 A 
ATOM     15  C   UNL A   1      31.610  28.378  22.408  1.00  0.00     0.025 C 
ATOM     16  O   UNL A   1      29.514  26.727  23.440  1.00  0.00    -0.475 OA
ATOM     17  C   UNL A   1      30.900  26.308  23.615  1.00  0.00     0.314 C 
BRANCH   9  18
ATOM     18  C   UNL A   1      28.166  31.842  21.542  1.00  0.00     0.260 C 
ATOM     19  O   UNL A   1      27.875  32.779  22.275  1.00  0.00    -0.298 OA
ENDBRANCH   9  18
BRANCH  17  20
ATOM     20  C   UNL A   1      30.945  24.784  23.358  1.00  0.00     0.429 C 
ATOM     21  F   UNL A   1      31.571  24.458  22.207  1.00  0.00    -0.167 F 
ATOM     22  F   UNL A   1      31.639  24.145  24.341  1.00  0.00    -0.167 F 
ATOM     23  F   UNL A   1      29.709  24.229  23.338  1.00  0.00    -0.167 F 
ENDBRANCH  17  20
ENDBRANCH   5   8
ENDBRANCH   3   4
ENDBRANCH   2   3
ENDBRANCH   1   2
BRANCH   1  24
ATOM     24  N   UNL A   1      33.457  29.691  27.424  1.00  0.00    -0.352 N 
ATOM     25  C   UNL A   1      34.312  30.555  28.060  1.00  0.00     0.251 C 
ATOM     26  H   UNL A   1      32.623  30.100  27.100  1.00  0.00     0.163 HD
ATOM     27  O   UNL A   1      33.894  31.666  28.382  1.00  0.00    -0.269 OA
BRANCH  25  28
ATOM     28  C   UNL A   1      35.711  30.176  28.372  1.00  0.00     0.039 A 
ATOM     29  C   UNL A   1      36.669  30.291  27.361  1.00  0.00     0.014 A 
ATOM     30  C   UNL A   1      36.074  29.636  29.611  1.00  0.00     0.014 A 
ATOM     31  C   UNL A   1      37.991  29.906  27.600  1.00  0.00     0.010 A 
ATOM     32  C   UNL A   1      37.407  29.306  29.868  1.00  0.00     0.010 A 
ATOM     33  C   UNL A   1      38.378  29.429  28.863  1.00  0.00    -0.014 A 
BRANCH  33  34
ATOM     34  C   UNL A   1      39.795  29.072  29.133  1.00  0.00     0.031 A 
ATOM     35  C   UNL A   1      40.735  30.062  29.768  1.00  0.00     0.074 A 
ATOM     36  C   UNL A   1      40.247  27.852  28.776  1.00  0.00     0.049 A 
ATOM     37  N   UNL A   1      41.996  29.912  30.087  1.00  0.00    -0.248 NA
ATOM     38  C   UNL A   1      40.195  31.398  30.066  1.00  0.00     0.031 C 
ATOM     39  C   UNL A   1      39.450  26.818  28.111  1.00  0.00     0.029 A 
ATOM     40  N   UNL A   1      41.483  27.275  28.922  1.00  0.00    -0.354 N 
ATOM     41  C   UNL A   1      42.404  31.134  30.610  1.00  0.00     0.074 A 
ATOM     42  C   UNL A   1      41.269  32.027  30.526  1.00  0.00     0.031 C 
ATOM     43  C   UNL A   1      40.208  25.724  27.937  1.00  0.00     0.029 A 
ATOM     44  C   UNL A   1      41.550  25.987  28.448  1.00  0.00     0.049 A 
ATOM     45  H   UNL A   1      42.250  27.740  29.329  1.00  0.00     0.167 HD
ATOM     46  C   UNL A   1      43.608  31.478  31.129  1.00  0.00     0.031 A 
ATOM     47  C   UNL A   1      42.572  25.111  28.428  1.00  0.00     0.031 A 
ATOM     48  C   UNL A   1      44.736  30.586  31.221  1.00  0.00     0.049 A 
ATOM     49  C   UNL A   1      43.894  25.509  29.021  1.00  0.00     0.074 A 
ATOM     50  C   UNL A   1      45.979  30.824  31.782  1.00  0.00     0.029 A 
ATOM     51  N   UNL A   1      44.759  29.287  30.737  1.00  0.00    -0.354 N 
ATOM     52  N   UNL A   1      44.237  26.648  29.576  1.00  0.00    -0.248 NA
ATOM     53  C   UNL A   1      44.960  24.499  29.001  1.00  0.00     0.031 C 
ATOM     54  C   UNL A   1      46.768  29.683  31.598  1.00  0.00     0.029 A 
ATOM     55  C   UNL A   1      46.000  28.717  30.968  1.00  0.00     0.049 A 
ATOM     56  H   UNL A   1      44.004  28.835  30.295  1.00  0.00     0.167 HD
ATOM     57  C   UNL A   1      45.554  26.484  29.987  1.00  0.00     0.074 A 
ATOM     58  C   UNL A   1      45.939  25.131  29.635  1.00  0.00     0.031 C 
ATOM     59  C   UNL A   1      46.373  27.374  30.601  1.00  0.00     0.031 A 
BRANCH  46  60
ATOM     60  C   UNL A   1      43.770  32.887  31.637  1.00  0.00    -0.014 A 
ATOM     61  C   UNL A   1      44.170  33.926  30.778  1.00  0.00     0.010 A 
ATOM     62  C   UNL A   1      43.480  33.185  32.981  1.00  0.00     0.010 A 
ATOM     63  C   UNL A   1      44.323  35.228  31.264  1.00  0.00     0.020 A 
ATOM     64  C   UNL A   1      43.607  34.491  33.465  1.00  0.00     0.020 A 
ATOM     65  C   UNL A   1      44.047  35.501  32.606  1.00  0.00     0.054 A 
BRANCH  65  66
ATOM     66  S   UNL A   1      44.240  37.202  33.208  1.00  0.00     0.124 S 
ATOM     67  O   UNL A   1      42.974  37.418  33.904  1.00  0.00    -0.237 OA
ATOM     68  O   UNL A   1      45.419  37.108  34.064  1.00  0.00    -0.237 OA
ATOM     69  O   UNL A   1      44.422  37.982  31.987  1.00  0.00    -0.744 OA
ENDBRANCH  65  66
ENDBRANCH  46  60
BRANCH  47  70
ATOM     70  C   UNL A   1      42.371  23.757  27.846  1.00  0.00    -0.014 A 
ATOM     71  C   UNL A   1      42.674  23.509  26.496  1.00  0.00     0.010 A 
ATOM     72  C   UNL A   1      41.903  22.701  28.649  1.00  0.00     0.010 A 
ATOM     73  C   UNL A   1      42.503  22.232  25.955  1.00  0.00     0.020 A 
ATOM     74  C   UNL A   1      41.755  21.417  28.118  1.00  0.00     0.020 A 
ATOM     75  C   UNL A   1      42.047  21.192  26.772  1.00  0.00     0.054 A 
BRANCH  75  76
ATOM     76  S   UNL A   1      41.899  19.525  26.069  1.00  0.00     0.124 S 
ATOM     77  O   UNL A   1      42.408  18.693  27.154  1.00  0.00    -0.237 OA
ATOM     78  O   UNL A   1      40.466  19.419  25.806  1.00  0.00    -0.237 OA
ATOM     79  O   UNL A   1      42.740  19.585  24.875  1.00  0.00    -0.744 OA
ENDBRANCH  75  76
ENDBRANCH  47  70
BRANCH  59  80
ATOM     80  C   UNL A   1      47.760  26.906  30.948  1.00  0.00    -0.014 A 
ATOM     81  C   UNL A   1      48.849  27.175  30.101  1.00  0.00     0.010 A 
ATOM     82  C   UNL A   1      47.981  26.214  32.153  1.00  0.00     0.010 A 
ATOM     83  C   UNL A   1      50.130  26.727  30.435  1.00  0.00     0.020 A 
ATOM     84  C   UNL A   1      49.264  25.787  32.502  1.00  0.00     0.020 A 
ATOM     85  C   UNL A   1      50.329  26.031  31.631  1.00  0.00     0.054 A 
BRANCH  85  86
ATOM     86  S   UNL A   1      52.004  25.483  32.058  1.00  0.00     0.124 S 
ATOM     87  O   UNL A   1      52.290  26.280  33.248  1.00  0.00    -0.237 OA
ATOM     88  O   UNL A   1      51.826  24.051  32.288  1.00  0.00    -0.237 OA
ATOM     89  O   UNL A   1      52.791  25.823  30.875  1.00  0.00    -0.744 OA
ENDBRANCH  85  86
ENDBRANCH  59  80
ENDBRANCH  33  34
ENDBRANCH  25  28
ENDBRANCH   1  24
TORSDOF 15
ENDMDL
MODEL 3
REMARK VINA RESULT:     -10.9      4.851     10.222
REMARK SMILES O=Cc1ccc2c(c1)C=C(C(=O)NCCCNC(=O)c1ccc(-c3c4nc(c(-c5ccc(S(=O)(=O)[O-])cc5)c5ccc([nH]5)c(-c5ccc(S(=O)(=O)[O-])cc5)c5nc(c(-c6ccc(S(=O)(=O)[O-])cc6)c6ccc3[nH]6)C=C5)C=C4)cc1)[C@H](C(F)(F)F)O2
REMARK SMILES IDX 16 1 15 2 14 3 13 4 11 5 12 6 10 8 3 9 4 10 8 11 5 12 7 13
REMARK SMILES IDX 6 14 9 15 85 16 80 17 2 18 1 19 81 20 82 21 83 22 84 23
REMARK SMILES IDX 17 24 18 25 19 27 20 28 21 29 79 30 22 31 78 32 23 33 24 34
REMARK SMILES IDX 25 35 72 36 26 37 77 38 71 39 73 40 27 41 76 42 70 43 69 44
REMARK SMILES IDX 28 46 58 47 39 48 57 49 40 50 43 51 56 52 74 53 41 54 42 55
REMARK SMILES IDX 55 57 75 58 44 59 29 60 30 61 38 62 31 63 37 64 32 65 33 66
REMARK SMILES IDX 34 67 35 68 36 69 59 70 60 71 68 72 61 73 67 74 62 75 63 76
REMARK SMILES IDX 64 77 65 78 66 79 45 80 46 81 54 82 47 83 53 84 48 85 49 86
REMARK SMILES IDX 50 87 51 88 52 89
REMARK H PARENT 13 7 17 26 73 45 43 56
REMARK Flexibility Score: inf
ROOT
ATOM      1  C   UNL A   1      38.208  24.343  26.449  1.00  0.00     0.118 C 
ENDROOT
BRANCH   1   2
ATOM      2  C   UNL A   1      37.350  23.277  25.767  1.00  0.00     0.042 C 
BRANCH   2   3
ATOM      3  C   UNL A   1      35.864  23.350  26.135  1.00  0.00     0.118 C 
BRANCH   3   4
ATOM      4  N   UNL A   1      35.061  23.735  24.985  1.00  0.00    -0.352 N 
ATOM      5  C   UNL A   1      34.215  23.051  24.174  1.00  0.00     0.251 C 
ATOM      6  O   UNL A   1      33.744  23.636  23.201  1.00  0.00    -0.270 OA
ATOM      7  H   UNL A   1      35.150  24.686  24.745  1.00  0.00     0.163 HD
BRANCH   5   8
ATOM      8  C   UNL A   1      33.776  21.657  24.449  1.00  0.00     0.067 C 
ATOM      9  C   UNL A   1      34.483  16.916  25.028  1.00  0.00     0.015 A 
ATOM     10  C   UNL A   1      33.147  16.755  25.403  1.00  0.00     0.015 A 
ATOM     11  C   UNL A   1      34.969  18.175  24.662  1.00  0.00     0.023 A 
ATOM     12  C   UNL A   1      32.298  17.861  25.426  1.00  0.00     0.048 A 
ATOM     13  C   UNL A   1      34.111  19.282  24.687  1.00  0.00     0.018 A 
ATOM     14  C   UNL A   1      32.782  19.121  25.071  1.00  0.00     0.128 A 
ATOM     15  C   UNL A   1      34.614  20.613  24.389  1.00  0.00     0.025 C 
ATOM     16  O   UNL A   1      31.904  20.156  25.184  1.00  0.00    -0.475 OA
ATOM     17  C   UNL A   1      32.273  21.455  24.634  1.00  0.00     0.314 C 
BRANCH   9  18
ATOM     18  C   UNL A   1      35.403  15.760  25.045  1.00  0.00     0.260 C 
ATOM     19  O   UNL A   1      36.290  15.655  25.883  1.00  0.00    -0.298 OA
ENDBRANCH   9  18
BRANCH  17  20
ATOM     20  C   UNL A   1      31.545  22.525  25.480  1.00  0.00     0.429 C 
ATOM     21  F   UNL A   1      32.324  23.058  26.446  1.00  0.00    -0.167 F 
ATOM     22  F   UNL A   1      31.158  23.577  24.706  1.00  0.00    -0.167 F 
ATOM     23  F   UNL A   1      30.421  22.043  26.063  1.00  0.00    -0.167 F 
ENDBRANCH  17  20
ENDBRANCH   5   8
ENDBRANCH   3   4
ENDBRANCH   2   3
ENDBRANCH   1   2
BRANCH   1  24
ATOM     24  N   UNL A   1      39.610  24.222  26.087  1.00  0.00    -0.352 N 
ATOM     25  C   UNL A   1      40.693  24.977  26.460  1.00  0.00     0.251 C 
ATOM     26  H   UNL A   1      39.816  23.479  25.475  1.00  0.00     0.163 HD
ATOM     27  O   UNL A   1      41.749  24.835  25.846  1.00  0.00    -0.269 OA
BRANCH  25  28
ATOM     28  C   UNL A   1      40.613  25.957  27.569  1.00  0.00     0.039 A 
ATOM     29  C   UNL A   1      39.643  25.762  28.556  1.00  0.00     0.014 A 
ATOM     30  C   UNL A   1      41.419  27.100  27.609  1.00  0.00     0.014 A 
ATOM     31  C   UNL A   1      39.505  26.683  29.598  1.00  0.00     0.010 A 
ATOM     32  C   UNL A   1      41.321  27.990  28.682  1.00  0.00     0.010 A 
ATOM     33  C   UNL A   1      40.358  27.796  29.683  1.00  0.00    -0.014 A 
BRANCH  33  34
ATOM     34  C   UNL A   1      40.248  28.746  30.820  1.00  0.00     0.031 A 
ATOM     35  C   UNL A   1      41.121  28.598  32.037  1.00  0.00     0.074 A 
ATOM     36  C   UNL A   1      39.331  29.734  30.767  1.00  0.00     0.049 A 
ATOM     37  N   UNL A   1      41.167  29.345  33.113  1.00  0.00    -0.248 NA
ATOM     38  C   UNL A   1      42.048  27.456  32.060  1.00  0.00     0.031 C 
ATOM     39  C   UNL A   1      38.393  29.957  29.665  1.00  0.00     0.029 A 
ATOM     40  N   UNL A   1      39.039  30.735  31.660  1.00  0.00    -0.354 N 
ATOM     41  C   UNL A   1      42.116  28.758  33.943  1.00  0.00     0.074 A 
ATOM     42  C   UNL A   1      42.589  27.570  33.266  1.00  0.00     0.031 C 
ATOM     43  C   UNL A   1      37.653  31.045  29.931  1.00  0.00     0.029 A 
ATOM     44  C   UNL A   1      38.041  31.578  31.234  1.00  0.00     0.049 A 
ATOM     45  H   UNL A   1      39.502  30.840  32.523  1.00  0.00     0.167 HD
ATOM     46  C   UNL A   1      42.565  29.178  35.151  1.00  0.00     0.031 A 
ATOM     47  C   UNL A   1      37.498  32.662  31.821  1.00  0.00     0.031 A 
ATOM     48  C   UNL A   1      42.100  30.365  35.821  1.00  0.00     0.049 A 
ATOM     49  C   UNL A   1      38.021  33.117  33.154  1.00  0.00     0.074 A 
ATOM     50  C   UNL A   1      42.534  30.904  37.020  1.00  0.00     0.029 A 
ATOM     51  N   UNL A   1      41.094  31.196  35.352  1.00  0.00    -0.354 N 
ATOM     52  N   UNL A   1      38.969  32.586  33.889  1.00  0.00    -0.248 NA
ATOM     53  C   UNL A   1      37.413  34.325  33.727  1.00  0.00     0.031 C 
ATOM     54  C   UNL A   1      41.762  32.037  37.297  1.00  0.00     0.029 A 
ATOM     55  C   UNL A   1      40.879  32.232  36.247  1.00  0.00     0.049 A 
ATOM     56  H   UNL A   1      40.605  31.069  34.508  1.00  0.00     0.167 HD
ATOM     57  C   UNL A   1      39.083  33.407  35.005  1.00  0.00     0.074 A 
ATOM     58  C   UNL A   1      38.122  34.479  34.837  1.00  0.00     0.031 C 
ATOM     59  C   UNL A   1      39.911  33.285  36.072  1.00  0.00     0.031 A 
BRANCH  46  60
ATOM     60  C   UNL A   1      43.616  28.340  35.831  1.00  0.00    -0.014 A 
ATOM     61  C   UNL A   1      44.983  28.527  35.558  1.00  0.00     0.010 A 
ATOM     62  C   UNL A   1      43.235  27.378  36.786  1.00  0.00     0.010 A 
ATOM     63  C   UNL A   1      45.947  27.736  36.190  1.00  0.00     0.020 A 
ATOM     64  C   UNL A   1      44.198  26.604  37.440  1.00  0.00     0.020 A 
ATOM     65  C   UNL A   1      45.548  26.774  37.123  1.00  0.00     0.054 A 
BRANCH  65  66
ATOM     66  S   UNL A   1      46.820  25.772  37.940  1.00  0.00     0.124 S 
ATOM     67  O   UNL A   1      46.030  25.024  38.915  1.00  0.00    -0.237 OA
ATOM     68  O   UNL A   1      47.367  24.985  36.838  1.00  0.00    -0.237 OA
ATOM     69  O   UNL A   1      47.732  26.762  38.506  1.00  0.00    -0.744 OA
ENDBRANCH  65  66
ENDBRANCH  46  60
BRANCH  47  70
ATOM     70  C   UNL A   1      36.411  33.407  31.131  1.00  0.00    -0.014 A 
ATOM     71  C   UNL A   1      36.584  33.861  29.812  1.00  0.00     0.010 A 
ATOM     72  C   UNL A   1      35.186  33.640  31.781  1.00  0.00     0.010 A 
ATOM     73  C   UNL A   1      35.556  34.544  29.157  1.00  0.00     0.020 A 
ATOM     74  C   UNL A   1      34.146  34.301  31.121  1.00  0.00     0.020 A 
ATOM     75  C   UNL A   1      34.341  34.757  29.816  1.00  0.00     0.054 A 
BRANCH  75  76
ATOM     76  S   UNL A   1      32.993  35.584  28.925  1.00  0.00     0.124 S 
ATOM     77  O   UNL A   1      32.454  34.498  28.115  1.00  0.00    -0.237 OA
ATOM     78  O   UNL A   1      32.136  36.052  30.011  1.00  0.00    -0.237 OA
ATOM     79  O   UNL A   1      33.677  36.642  28.184  1.00  0.00    -0.744 OA
ENDBRANCH  75  76
ENDBRANCH  47  70
BRANCH  59  80
ATOM     80  C   UNL A   1      39.824  34.347  37.134  1.00  0.00    -0.014 A 
ATOM     81  C   UNL A   1      40.519  35.563  37.003  1.00  0.00     0.010 A 
ATOM     82  C   UNL A   1      39.012  34.139  38.264  1.00  0.00     0.010 A 
ATOM     83  C   UNL A   1      40.432  36.536  38.001  1.00  0.00     0.020 A 
ATOM     84  C   UNL A   1      38.904  35.120  39.252  1.00  0.00     0.020 A 
ATOM     85  C   UNL A   1      39.629  36.307  39.123  1.00  0.00     0.054 A 
BRANCH  85  86
ATOM     86  S   UNL A   1      39.510  37.595  40.394  1.00  0.00     0.124 S 
ATOM     87  O   UNL A   1      40.796  38.275  40.257  1.00  0.00    -0.237 OA
ATOM     88  O   UNL A   1      38.344  38.363  39.967  1.00  0.00    -0.237 OA
ATOM     89  O   UNL A   1      39.332  36.842  41.634  1.00  0.00    -0.744 OA
ENDBRANCH  85  86
ENDBRANCH  59  80
ENDBRANCH  33  34
ENDBRANCH  25  28
ENDBRANCH   1  24
TORSDOF 15
ENDMDL
