MODEL 1
REMARK VINA RESULT:     -10.8      0.000      0.000
REMARK SMILES CN(C)C(=O)CCNC(=O)NC[C@H]1CC[C@@H](C(=O)NCCCNC(=O)c2ccc(-c3c4nc(c(-c5ccc(S(=O)(=O)[O-])cc5)c5ccc([nH]5)c(-c5ccc(S(=O)(=O)[O-])cc5)c5nc(c(-c6ccc(S(=O)(=O)[O-])cc6)c6ccc3[nH]6)C=C5)C=C4)cc2)CC1
REMARK SMILES IDX 20 1 19 2 17 3 18 4 16 6 13 7 14 8 87 9 15 10 86 11 12 12
REMARK SMILES IDX 11 13 8 14 9 15 10 17 7 19 6 20 4 21 1 22 2 23 3 24 5 25
REMARK SMILES IDX 21 26 22 27 23 28 24 29 25 31 26 32 27 33 85 34 28 35 84 36
REMARK SMILES IDX 29 37 30 38 31 39 78 40 32 41 83 42 77 43 79 44 33 45 82 46
REMARK SMILES IDX 76 47 75 48 34 50 64 51 45 52 63 53 46 54 49 55 62 56 80 57
REMARK SMILES IDX 47 58 48 59 61 61 81 62 50 63 35 64 36 65 44 66 37 67 43 68
REMARK SMILES IDX 38 69 39 70 40 71 41 72 42 73 65 74 66 75 74 76 67 77 73 78
REMARK SMILES IDX 68 79 69 80 70 81 71 82 72 83 51 84 52 85 60 86 53 87 59 88
REMARK SMILES IDX 54 89 55 90 56 91 57 92 58 93
REMARK H PARENT 19 5 8 16 11 18 23 30 79 49 49 60
REMARK Flexibility Score: inf
ROOT
ATOM      1  C   UNL A   1      34.772  23.012  23.679  1.00  0.00     0.117 C 
ENDROOT
BRANCH   1   2
ATOM      2  N   UNL A   1      34.155  21.750  24.026  1.00  0.00    -0.356 N 
ATOM      3  C   UNL A   1      33.030  21.419  24.701  1.00  0.00     0.223 C 
ATOM      4  O   UNL A   1      32.738  20.215  24.681  1.00  0.00    -0.275 OA
ATOM      5  H   UNL A   1      34.661  20.968  23.703  1.00  0.00     0.163 HD
BRANCH   3   6
ATOM      6  C   UNL A   1      32.131  22.386  25.491  1.00  0.00     0.078 C 
ATOM      7  C   UNL A   1      32.547  25.383  25.654  1.00  0.00     0.008 C 
ATOM      8  C   UNL A   1      31.731  24.758  24.504  1.00  0.00     0.006 C 
ATOM      9  C   UNL A   1      33.406  24.391  26.453  1.00  0.00     0.006 C 
ATOM     10  C   UNL A   1      31.226  23.334  24.712  1.00  0.00     0.014 C 
ATOM     11  C   UNL A   1      32.778  23.034  26.708  1.00  0.00     0.014 C 
BRANCH   7  12
ATOM     12  C   UNL A   1      33.417  26.611  25.244  1.00  0.00     0.121 C 
BRANCH  12  13
ATOM     13  N   UNL A   1      33.365  27.743  26.160  1.00  0.00    -0.338 N 
ATOM     14  N   UNL A   1      33.128  29.653  24.799  1.00  0.00    -0.338 N 
ATOM     15  C   UNL A   1      33.443  29.071  25.967  1.00  0.00     0.314 C 
ATOM     16  H   UNL A   1      33.496  30.559  24.686  1.00  0.00     0.165 HD
ATOM     17  O   UNL A   1      33.852  29.777  26.889  1.00  0.00    -0.249 OA
ATOM     18  H   UNL A   1      33.251  27.486  27.103  1.00  0.00     0.165 HD
BRANCH  14  19
ATOM     19  C   UNL A   1      32.340  29.185  23.674  1.00  0.00     0.127 C 
BRANCH  19  20
ATOM     20  C   UNL A   1      30.896  28.877  24.057  1.00  0.00     0.121 C 
BRANCH  20  21
ATOM     21  C   UNL A   1      30.020  29.050  22.833  1.00  0.00     0.223 C 
ATOM     22  C   UNL A   1      28.693  30.472  21.373  1.00  0.00     0.146 C 
ATOM     23  N   UNL A   1      29.318  30.231  22.662  1.00  0.00    -0.349 N 
ATOM     24  C   UNL A   1      29.081  31.241  23.688  1.00  0.00     0.146 C 
ATOM     25  O   UNL A   1      30.032  28.168  21.968  1.00  0.00    -0.275 OA
ENDBRANCH  20  21
ENDBRANCH  19  20
ENDBRANCH  14  19
ENDBRANCH  12  13
ENDBRANCH   7  12
ENDBRANCH   3   6
ENDBRANCH   1   2
BRANCH   1  26
ATOM     26  C   UNL A   1      36.292  22.932  23.603  1.00  0.00     0.042 C 
BRANCH  26  27
ATOM     27  C   UNL A   1      37.009  23.455  24.836  1.00  0.00     0.118 C 
BRANCH  27  28
ATOM     28  N   UNL A   1      38.063  22.575  25.327  1.00  0.00    -0.352 N 
ATOM     29  C   UNL A   1      39.087  22.777  26.226  1.00  0.00     0.251 C 
ATOM     30  H   UNL A   1      38.037  21.667  24.946  1.00  0.00     0.163 HD
ATOM     31  O   UNL A   1      39.827  21.839  26.510  1.00  0.00    -0.269 OA
BRANCH  29  32
ATOM     32  C   UNL A   1      39.380  24.114  26.797  1.00  0.00     0.039 A 
ATOM     33  C   UNL A   1      38.953  24.372  28.106  1.00  0.00     0.014 A 
ATOM     34  C   UNL A   1      40.063  25.109  26.100  1.00  0.00     0.014 A 
ATOM     35  C   UNL A   1      39.286  25.573  28.736  1.00  0.00     0.010 A 
ATOM     36  C   UNL A   1      40.500  26.253  26.766  1.00  0.00     0.010 A 
ATOM     37  C   UNL A   1      40.113  26.502  28.090  1.00  0.00    -0.014 A 
BRANCH  37  38
ATOM     38  C   UNL A   1      40.567  27.747  28.764  1.00  0.00     0.031 A 
ATOM     39  C   UNL A   1      41.948  27.817  29.364  1.00  0.00     0.074 A 
ATOM     40  C   UNL A   1      39.716  28.783  28.912  1.00  0.00     0.049 A 
ATOM     41  N   UNL A   1      42.482  28.754  30.104  1.00  0.00    -0.248 NA
ATOM     42  C   UNL A   1      42.832  26.661  29.134  1.00  0.00     0.031 C 
ATOM     43  C   UNL A   1      38.336  28.828  28.423  1.00  0.00     0.029 A 
ATOM     44  N   UNL A   1      39.886  29.999  29.527  1.00  0.00    -0.354 N 
ATOM     45  C   UNL A   1      43.737  28.279  30.467  1.00  0.00     0.074 A 
ATOM     46  C   UNL A   1      43.868  26.955  29.902  1.00  0.00     0.031 C 
ATOM     47  C   UNL A   1      37.798  30.020  28.726  1.00  0.00     0.029 A 
ATOM     48  C   UNL A   1      38.774  30.807  29.470  1.00  0.00     0.049 A 
ATOM     49  H   UNL A   1      40.725  30.267  29.968  1.00  0.00     0.167 HD
ATOM     50  C   UNL A   1      44.704  28.896  31.186  1.00  0.00     0.031 A 
ATOM     51  C   UNL A   1      38.561  32.040  29.967  1.00  0.00     0.031 A 
ATOM     52  C   UNL A   1      44.592  30.234  31.702  1.00  0.00     0.049 A 
ATOM     53  C   UNL A   1      39.665  32.728  30.720  1.00  0.00     0.074 A 
ATOM     54  C   UNL A   1      45.540  30.978  32.382  1.00  0.00     0.029 A 
ATOM     55  N   UNL A   1      43.466  31.033  31.580  1.00  0.00    -0.354 N 
ATOM     56  N   UNL A   1      40.861  32.278  31.015  1.00  0.00    -0.248 NA
ATOM     57  C   UNL A   1      39.396  34.091  31.197  1.00  0.00     0.031 C 
ATOM     58  C   UNL A   1      44.976  32.219  32.697  1.00  0.00     0.029 A 
ATOM     59  C   UNL A   1      43.692  32.261  32.176  1.00  0.00     0.049 A 
ATOM     60  H   UNL A   1      42.630  30.768  31.134  1.00  0.00     0.167 HD
ATOM     61  C   UNL A   1      41.495  33.311  31.695  1.00  0.00     0.074 A 
ATOM     62  C   UNL A   1      40.555  34.412  31.755  1.00  0.00     0.031 C 
ATOM     63  C   UNL A   1      42.743  33.345  32.223  1.00  0.00     0.031 A 
BRANCH  50  64
ATOM     64  C   UNL A   1      45.968  28.122  31.454  1.00  0.00    -0.014 A 
ATOM     65  C   UNL A   1      46.101  27.322  32.602  1.00  0.00     0.010 A 
ATOM     66  C   UNL A   1      47.037  28.192  30.541  1.00  0.00     0.010 A 
ATOM     67  C   UNL A   1      47.299  26.651  32.865  1.00  0.00     0.020 A 
ATOM     68  C   UNL A   1      48.226  27.498  30.785  1.00  0.00     0.020 A 
ATOM     69  C   UNL A   1      48.357  26.752  31.958  1.00  0.00     0.054 A 
BRANCH  69  70
ATOM     70  S   UNL A   1      49.902  25.875  32.321  1.00  0.00     0.124 S 
ATOM     71  O   UNL A   1      49.477  24.936  33.358  1.00  0.00    -0.237 OA
ATOM     72  O   UNL A   1      50.244  25.275  31.033  1.00  0.00    -0.237 OA
ATOM     73  O   UNL A   1      50.803  26.933  32.770  1.00  0.00    -0.744 OA
ENDBRANCH  69  70
ENDBRANCH  50  64
BRANCH  51  74
ATOM     74  C   UNL A   1      37.253  32.713  29.741  1.00  0.00    -0.014 A 
ATOM     75  C   UNL A   1      36.269  32.705  30.744  1.00  0.00     0.010 A 
ATOM     76  C   UNL A   1      36.997  33.394  28.537  1.00  0.00     0.010 A 
ATOM     77  C   UNL A   1      35.049  33.358  30.547  1.00  0.00     0.020 A 
ATOM     78  C   UNL A   1      35.787  34.067  28.345  1.00  0.00     0.020 A 
ATOM     79  C   UNL A   1      34.817  34.039  29.348  1.00  0.00     0.054 A 
BRANCH  79  80
ATOM     80  S   UNL A   1      33.257  34.943  29.141  1.00  0.00     0.124 S 
ATOM     81  O   UNL A   1      32.717  34.930  30.497  1.00  0.00    -0.237 OA
ATOM     82  O   UNL A   1      33.707  36.245  28.651  1.00  0.00    -0.237 OA
ATOM     83  O   UNL A   1      32.526  34.139  28.165  1.00  0.00    -0.744 OA
ENDBRANCH  79  80
ENDBRANCH  51  74
BRANCH  63  84
ATOM     84  C   UNL A   1      43.178  34.623  32.883  1.00  0.00    -0.014 A 
ATOM     85  C   UNL A   1      43.842  35.625  32.156  1.00  0.00     0.010 A 
ATOM     86  C   UNL A   1      42.861  34.846  34.235  1.00  0.00     0.010 A 
ATOM     87  C   UNL A   1      44.203  36.823  32.777  1.00  0.00     0.020 A 
ATOM     88  C   UNL A   1      43.202  36.052  34.853  1.00  0.00     0.020 A 
ATOM     89  C   UNL A   1      43.881  37.029  34.123  1.00  0.00     0.054 A 
BRANCH  89  90
ATOM     90  S   UNL A   1      44.313  38.612  34.895  1.00  0.00     0.124 S 
ATOM     91  O   UNL A   1      43.989  38.363  36.296  1.00  0.00    -0.237 OA
ATOM     92  O   UNL A   1      45.737  38.741  34.592  1.00  0.00    -0.237 OA
ATOM     93  O   UNL A   1      43.449  39.575  34.215  1.00  0.00    -0.744 OA
ENDBRANCH  89  90
ENDBRANCH  63  84
ENDBRANCH  37  38
ENDBRANCH  29  32
ENDBRANCH  27  28
ENDBRANCH  26  27
ENDBRANCH   1  26
TORSDOF 18
ENDMDL
MODEL 2
REMARK VINA RESULT:     -10.6      3.906      7.206
REMARK SMILES CN(C)C(=O)CCNC(=O)NC[C@H]1CC[C@@H](C(=O)NCCCNC(=O)c2ccc(-c3c4nc(c(-c5ccc(S(=O)(=O)[O-])cc5)c5ccc([nH]5)c(-c5ccc(S(=O)(=O)[O-])cc5)c5nc(c(-c6ccc(S(=O)(=O)[O-])cc6)c6ccc3[nH]6)C=C5)C=C4)cc2)CC1
REMARK SMILES IDX 20 1 19 2 17 3 18 4 16 6 13 7 14 8 87 9 15 10 86 11 12 12
REMARK SMILES IDX 11 13 8 14 9 15 10 17 7 19 6 20 4 21 1 22 2 23 3 24 5 25
REMARK SMILES IDX 21 26 22 27 23 28 24 29 25 31 26 32 27 33 85 34 28 35 84 36
REMARK SMILES IDX 29 37 30 38 31 39 78 40 32 41 83 42 77 43 79 44 33 45 82 46
REMARK SMILES IDX 76 47 75 48 34 50 64 51 45 52 63 53 46 54 49 55 62 56 80 57
REMARK SMILES IDX 47 58 48 59 61 61 81 62 50 63 35 64 36 65 44 66 37 67 43 68
REMARK SMILES IDX 38 69 39 70 40 71 41 72 42 73 65 74 66 75 74 76 67 77 73 78
REMARK SMILES IDX 68 79 69 80 70 81 71 82 72 83 51 84 52 85 60 86 53 87 59 88
REMARK SMILES IDX 54 89 55 90 56 91 57 92 58 93
REMARK H PARENT 19 5 8 16 11 18 23 30 79 49 49 60
REMARK Flexibility Score: inf
ROOT
ATOM      1  C   UNL A   1      42.832  20.574  25.842  1.00  0.00     0.117 C 
ENDROOT
BRANCH   1   2
ATOM      2  N   UNL A   1      42.846  21.943  25.372  1.00  0.00    -0.356 N 
ATOM      3  C   UNL A   1      43.804  22.897  25.317  1.00  0.00     0.223 C 
ATOM      4  O   UNL A   1      43.486  23.929  24.708  1.00  0.00    -0.275 OA
ATOM      5  H   UNL A   1      41.976  22.242  25.019  1.00  0.00     0.163 HD
BRANCH   3   6
ATOM      6  C   UNL A   1      45.201  22.816  25.957  1.00  0.00     0.078 C 
ATOM      7  C   UNL A   1      46.933  25.211  26.622  1.00  0.00     0.008 C 
ATOM      8  C   UNL A   1      45.885  24.690  27.626  1.00  0.00     0.006 C 
ATOM      9  C   UNL A   1      46.773  24.688  25.186  1.00  0.00     0.006 C 
ATOM     10  C   UNL A   1      45.362  23.274  27.403  1.00  0.00     0.014 C 
ATOM     11  C   UNL A   1      46.357  23.235  25.060  1.00  0.00     0.014 C 
BRANCH   7  12
ATOM     12  C   UNL A   1      47.093  26.764  26.594  1.00  0.00     0.121 C 
BRANCH  12  13
ATOM     13  N   UNL A   1      47.301  27.343  25.273  1.00  0.00    -0.338 N 
ATOM     14  N   UNL A   1      46.170  29.411  25.299  1.00  0.00    -0.338 N 
ATOM     15  C   UNL A   1      46.740  28.388  24.642  1.00  0.00     0.314 C 
ATOM     16  H   UNL A   1      45.552  29.948  24.754  1.00  0.00     0.165 HD
ATOM     17  O   UNL A   1      46.718  28.389  23.411  1.00  0.00    -0.249 OA
ATOM     18  H   UNL A   1      47.985  26.878  24.740  1.00  0.00     0.165 HD
BRANCH  14  19
ATOM     19  C   UNL A   1      46.305  29.866  26.671  1.00  0.00     0.127 C 
BRANCH  19  20
ATOM     20  C   UNL A   1      46.787  31.310  26.764  1.00  0.00     0.121 C 
BRANCH  20  21
ATOM     21  C   UNL A   1      45.618  32.232  26.486  1.00  0.00     0.223 C 
ATOM     22  C   UNL A   1      44.354  34.246  26.994  1.00  0.00     0.146 C 
ATOM     23  N   UNL A   1      45.307  33.227  27.397  1.00  0.00    -0.349 N 
ATOM     24  C   UNL A   1      45.795  33.313  28.769  1.00  0.00     0.146 C 
ATOM     25  O   UNL A   1      45.033  32.135  25.403  1.00  0.00    -0.275 OA
ENDBRANCH  20  21
ENDBRANCH  19  20
ENDBRANCH  14  19
ENDBRANCH  12  13
ENDBRANCH   7  12
ENDBRANCH   3   6
ENDBRANCH   1   2
BRANCH   1  26
ATOM     26  C   UNL A   1      41.843  20.344  26.979  1.00  0.00     0.042 C 
BRANCH  26  27
ATOM     27  C   UNL A   1      41.031  21.570  27.360  1.00  0.00     0.118 C 
BRANCH  27  28
ATOM     28  N   UNL A   1      39.791  21.717  26.608  1.00  0.00    -0.352 N 
ATOM     29  C   UNL A   1      39.042  22.825  26.273  1.00  0.00     0.251 C 
ATOM     30  H   UNL A   1      39.419  20.867  26.277  1.00  0.00     0.163 HD
ATOM     31  O   UNL A   1      38.041  22.681  25.576  1.00  0.00    -0.269 OA
BRANCH  29  32
ATOM     32  C   UNL A   1      39.357  24.175  26.799  1.00  0.00     0.039 A 
ATOM     33  C   UNL A   1      38.933  24.482  28.099  1.00  0.00     0.014 A 
ATOM     34  C   UNL A   1      40.055  25.135  26.071  1.00  0.00     0.014 A 
ATOM     35  C   UNL A   1      39.284  25.699  28.689  1.00  0.00     0.010 A 
ATOM     36  C   UNL A   1      40.510  26.293  26.699  1.00  0.00     0.010 A 
ATOM     37  C   UNL A   1      40.126  26.592  28.014  1.00  0.00    -0.014 A 
BRANCH  37  38
ATOM     38  C   UNL A   1      40.601  27.851  28.647  1.00  0.00     0.031 A 
ATOM     39  C   UNL A   1      42.009  27.945  29.174  1.00  0.00     0.074 A 
ATOM     40  C   UNL A   1      39.747  28.880  28.823  1.00  0.00     0.049 A 
ATOM     41  N   UNL A   1      42.569  28.898  29.873  1.00  0.00    -0.248 NA
ATOM     42  C   UNL A   1      42.893  26.795  28.916  1.00  0.00     0.031 C 
ATOM     43  C   UNL A   1      38.343  28.904  28.404  1.00  0.00     0.029 A 
ATOM     44  N   UNL A   1      39.933  30.107  29.412  1.00  0.00    -0.354 N 
ATOM     45  C   UNL A   1      43.847  28.441  30.179  1.00  0.00     0.074 A 
ATOM     46  C   UNL A   1      43.964  27.111  29.626  1.00  0.00     0.031 C 
ATOM     47  C   UNL A   1      37.808  30.094  28.717  1.00  0.00     0.029 A 
ATOM     48  C   UNL A   1      38.812  30.902  29.401  1.00  0.00     0.049 A 
ATOM     49  H   UNL A   1      40.790  30.390  29.806  1.00  0.00     0.167 HD
ATOM     50  C   UNL A   1      44.842  29.079  30.839  1.00  0.00     0.031 A 
ATOM     51  C   UNL A   1      38.609  32.140  29.891  1.00  0.00     0.031 A 
ATOM     52  C   UNL A   1      44.741  30.423  31.342  1.00  0.00     0.049 A 
ATOM     53  C   UNL A   1      39.743  32.851  30.577  1.00  0.00     0.074 A 
ATOM     54  C   UNL A   1      45.714  31.186  31.963  1.00  0.00     0.029 A 
ATOM     55  N   UNL A   1      43.601  31.208  31.266  1.00  0.00    -0.354 N 
ATOM     56  N   UNL A   1      40.957  32.417  30.817  1.00  0.00    -0.248 NA
ATOM     57  C   UNL A   1      39.483  34.217  31.048  1.00  0.00     0.031 C 
ATOM     58  C   UNL A   1      45.152  32.426  32.289  1.00  0.00     0.029 A 
ATOM     59  C   UNL A   1      43.843  32.447  31.833  1.00  0.00     0.049 A 
ATOM     60  H   UNL A   1      42.747  30.927  30.866  1.00  0.00     0.167 HD
ATOM     61  C   UNL A   1      41.613  33.467  31.450  1.00  0.00     0.074 A 
ATOM     62  C   UNL A   1      40.665  34.558  31.542  1.00  0.00     0.031 C 
ATOM     63  C   UNL A   1      42.886  33.521  31.913  1.00  0.00     0.031 A 
BRANCH  50  64
ATOM     64  C   UNL A   1      46.126  28.322  31.053  1.00  0.00    -0.014 A 
ATOM     65  C   UNL A   1      46.339  27.566  32.219  1.00  0.00     0.010 A 
ATOM     66  C   UNL A   1      47.133  28.363  30.071  1.00  0.00     0.010 A 
ATOM     67  C   UNL A   1      47.557  26.913  32.428  1.00  0.00     0.020 A 
ATOM     68  C   UNL A   1      48.341  27.685  30.262  1.00  0.00     0.020 A 
ATOM     69  C   UNL A   1      48.554  26.984  31.451  1.00  0.00     0.054 A 
BRANCH  69  70
ATOM     70  S   UNL A   1      50.126  26.130  31.746  1.00  0.00     0.124 S 
ATOM     71  O   UNL A   1      50.776  26.241  30.442  1.00  0.00    -0.237 OA
ATOM     72  O   UNL A   1      50.728  26.920  32.817  1.00  0.00    -0.237 OA
ATOM     73  O   UNL A   1      49.719  24.779  32.126  1.00  0.00    -0.744 OA
ENDBRANCH  69  70
ENDBRANCH  50  64
BRANCH  51  74
ATOM     74  C   UNL A   1      37.284  32.795  29.722  1.00  0.00    -0.014 A 
ATOM     75  C   UNL A   1      36.415  32.929  30.818  1.00  0.00     0.010 A 
ATOM     76  C   UNL A   1      36.899  33.320  28.475  1.00  0.00     0.010 A 
ATOM     77  C   UNL A   1      35.180  33.568  30.671  1.00  0.00     0.020 A 
ATOM     78  C   UNL A   1      35.675  33.980  28.329  1.00  0.00     0.020 A 
ATOM     79  C   UNL A   1      34.819  34.093  29.427  1.00  0.00     0.054 A 
BRANCH  79  80
ATOM     80  S   UNL A   1      33.246  34.984  29.274  1.00  0.00     0.124 S 
ATOM     81  O   UNL A   1      32.552  34.201  28.256  1.00  0.00    -0.237 OA
ATOM     82  O   UNL A   1      32.697  34.894  30.625  1.00  0.00    -0.237 OA
ATOM     83  O   UNL A   1      33.654  36.326  28.865  1.00  0.00    -0.744 OA
ENDBRANCH  79  80
ENDBRANCH  51  74
BRANCH  63  84
ATOM     84  C   UNL A   1      43.339  34.813  32.533  1.00  0.00    -0.014 A 
ATOM     85  C   UNL A   1      43.219  35.035  33.915  1.00  0.00     0.010 A 
ATOM     86  C   UNL A   1      43.952  35.790  31.728  1.00  0.00     0.010 A 
ATOM     87  C   UNL A   1      43.683  36.225  34.480  1.00  0.00     0.020 A 
ATOM     88  C   UNL A   1      44.437  36.972  32.293  1.00  0.00     0.020 A 
ATOM     89  C   UNL A   1      44.288  37.187  33.665  1.00  0.00     0.054 A 
BRANCH  89  90
ATOM     90  S   UNL A   1      44.931  38.702  34.427  1.00  0.00     0.124 S 
ATOM     91  O   UNL A   1      45.440  38.206  35.703  1.00  0.00    -0.237 OA
ATOM     92  O   UNL A   1      45.947  39.138  33.472  1.00  0.00    -0.237 OA
ATOM     93  O   UNL A   1      43.757  39.568  34.517  1.00  0.00    -0.744 OA
ENDBRANCH  89  90
ENDBRANCH  63  84
ENDBRANCH  37  38
ENDBRANCH  29  32
ENDBRANCH  27  28
ENDBRANCH  26  27
ENDBRANCH   1  26
TORSDOF 18
ENDMDL
MODEL 3
REMARK VINA RESULT:     -10.5      4.267     10.346
REMARK SMILES CN(C)C(=O)CCNC(=O)NC[C@H]1CC[C@@H](C(=O)NCCCNC(=O)c2ccc(-c3c4nc(c(-c5ccc(S(=O)(=O)[O-])cc5)c5ccc([nH]5)c(-c5ccc(S(=O)(=O)[O-])cc5)c5nc(c(-c6ccc(S(=O)(=O)[O-])cc6)c6ccc3[nH]6)C=C5)C=C4)cc2)CC1
REMARK SMILES IDX 20 1 19 2 17 3 18 4 16 6 13 7 14 8 87 9 15 10 86 11 12 12
REMARK SMILES IDX 11 13 8 14 9 15 10 17 7 19 6 20 4 21 1 22 2 23 3 24 5 25
REMARK SMILES IDX 21 26 22 27 23 28 24 29 25 31 26 32 27 33 85 34 28 35 84 36
REMARK SMILES IDX 29 37 30 38 31 39 78 40 32 41 83 42 77 43 79 44 33 45 82 46
REMARK SMILES IDX 76 47 75 48 34 50 64 51 45 52 63 53 46 54 49 55 62 56 80 57
REMARK SMILES IDX 47 58 48 59 61 61 81 62 50 63 35 64 36 65 44 66 37 67 43 68
REMARK SMILES IDX 38 69 39 70 40 71 41 72 42 73 65 74 66 75 74 76 67 77 73 78
REMARK SMILES IDX 68 79 69 80 70 81 71 82 72 83 51 84 52 85 60 86 53 87 59 88
REMARK SMILES IDX 54 89 55 90 56 91 57 92 58 93
REMARK H PARENT 19 5 8 16 11 18 23 30 79 49 49 60
REMARK Flexibility Score: inf
ROOT
ATOM      1  C   UNL A   1      33.149  30.860  27.384  1.00  0.00     0.117 C 
ENDROOT
BRANCH   1   2
ATOM      2  N   UNL A   1      32.454  30.618  26.138  1.00  0.00    -0.356 N 
ATOM      3  C   UNL A   1      31.765  29.562  25.648  1.00  0.00     0.223 C 
ATOM      4  O   UNL A   1      31.174  29.769  24.579  1.00  0.00    -0.275 OA
ATOM      5  H   UNL A   1      32.491  31.382  25.517  1.00  0.00     0.163 HD
BRANCH   3   6
ATOM      6  C   UNL A   1      31.685  28.161  26.279  1.00  0.00     0.078 C 
ATOM      7  C   UNL A   1      33.052  25.693  25.174  1.00  0.00     0.008 C 
ATOM      8  C   UNL A   1      33.791  26.642  26.140  1.00  0.00     0.006 C 
ATOM      9  C   UNL A   1      31.772  26.271  24.551  1.00  0.00     0.006 C 
ATOM     10  C   UNL A   1      32.930  27.600  26.957  1.00  0.00     0.014 C 
ATOM     11  C   UNL A   1      30.919  27.123  25.471  1.00  0.00     0.014 C 
BRANCH   7  12
ATOM     12  C   UNL A   1      33.945  25.079  24.052  1.00  0.00     0.121 C 
BRANCH  12  13
ATOM     13  N   UNL A   1      33.522  25.376  22.689  1.00  0.00    -0.338 N 
ATOM     14  N   UNL A   1      32.567  23.383  21.870  1.00  0.00    -0.338 N 
ATOM     15  C   UNL A   1      33.111  24.595  21.677  1.00  0.00     0.314 C 
ATOM     16  H   UNL A   1      32.581  22.801  21.077  1.00  0.00     0.165 HD
ATOM     17  O   UNL A   1      33.273  24.994  20.523  1.00  0.00    -0.249 OA
ATOM     18  H   UNL A   1      33.542  26.335  22.468  1.00  0.00     0.165 HD
BRANCH  14  19
ATOM     19  C   UNL A   1      31.961  22.779  23.042  1.00  0.00     0.127 C 
BRANCH  19  20
ATOM     20  C   UNL A   1      32.762  21.593  23.570  1.00  0.00     0.121 C 
BRANCH  20  21
ATOM     21  C   UNL A   1      32.692  21.594  25.084  1.00  0.00     0.223 C 
ATOM     22  C   UNL A   1      33.779  21.845  27.245  1.00  0.00     0.146 C 
ATOM     23  N   UNL A   1      33.867  21.591  25.817  1.00  0.00    -0.349 N 
ATOM     24  C   UNL A   1      35.196  21.284  25.302  1.00  0.00     0.146 C 
ATOM     25  O   UNL A   1      31.587  21.696  25.625  1.00  0.00    -0.275 OA
ENDBRANCH  20  21
ENDBRANCH  19  20
ENDBRANCH  14  19
ENDBRANCH  12  13
ENDBRANCH   7  12
ENDBRANCH   3   6
ENDBRANCH   1   2
BRANCH   1  26
ATOM     26  C   UNL A   1      34.646  30.586  27.295  1.00  0.00     0.042 C 
BRANCH  26  27
ATOM     27  C   UNL A   1      35.489  31.393  28.268  1.00  0.00     0.118 C 
BRANCH  27  28
ATOM     28  N   UNL A   1      35.444  30.903  29.640  1.00  0.00    -0.352 N 
ATOM     29  C   UNL A   1      36.427  30.425  30.479  1.00  0.00     0.251 C 
ATOM     30  H   UNL A   1      34.545  30.915  30.041  1.00  0.00     0.163 HD
ATOM     31  O   UNL A   1      36.130  30.114  31.630  1.00  0.00    -0.269 OA
BRANCH  29  32
ATOM     32  C   UNL A   1      37.816  30.193  30.014  1.00  0.00     0.039 A 
ATOM     33  C   UNL A   1      38.810  30.031  30.987  1.00  0.00     0.014 A 
ATOM     34  C   UNL A   1      38.168  30.121  28.668  1.00  0.00     0.014 A 
ATOM     35  C   UNL A   1      40.118  29.709  30.616  1.00  0.00     0.010 A 
ATOM     36  C   UNL A   1      39.439  29.681  28.302  1.00  0.00     0.010 A 
ATOM     37  C   UNL A   1      40.431  29.474  29.271  1.00  0.00    -0.014 A 
BRANCH  37  38
ATOM     38  C   UNL A   1      41.788  29.036  28.848  1.00  0.00     0.031 A 
ATOM     39  C   UNL A   1      42.916  30.033  28.788  1.00  0.00     0.074 A 
ATOM     40  C   UNL A   1      41.989  27.767  28.437  1.00  0.00     0.049 A 
ATOM     41  N   UNL A   1      44.129  29.882  28.322  1.00  0.00    -0.248 NA
ATOM     42  C   UNL A   1      42.630  31.391  29.283  1.00  0.00     0.031 C 
ATOM     43  C   UNL A   1      40.971  26.713  28.397  1.00  0.00     0.029 A 
ATOM     44  N   UNL A   1      43.120  27.148  27.965  1.00  0.00    -0.354 N 
ATOM     45  C   UNL A   1      44.729  31.134  28.420  1.00  0.00     0.074 A 
ATOM     46  C   UNL A   1      43.735  32.039  28.950  1.00  0.00     0.031 C 
ATOM     47  C   UNL A   1      41.531  25.574  27.961  1.00  0.00     0.029 A 
ATOM     48  C   UNL A   1      42.933  25.824  27.645  1.00  0.00     0.049 A 
ATOM     49  H   UNL A   1      43.984  27.610  27.866  1.00  0.00     0.167 HD
ATOM     50  C   UNL A   1      45.999  31.493  28.118  1.00  0.00     0.031 A 
ATOM     51  C   UNL A   1      43.790  24.913  27.145  1.00  0.00     0.031 A 
ATOM     52  C   UNL A   1      47.001  30.578  27.641  1.00  0.00     0.049 A 
ATOM     53  C   UNL A   1      45.210  25.320  26.864  1.00  0.00     0.074 A 
ATOM     54  C   UNL A   1      48.336  30.826  27.373  1.00  0.00     0.029 A 
ATOM     55  N   UNL A   1      46.780  29.236  27.376  1.00  0.00    -0.354 N 
ATOM     56  N   UNL A   1      45.769  26.499  27.005  1.00  0.00    -0.248 NA
ATOM     57  C   UNL A   1      46.115  24.276  26.368  1.00  0.00     0.031 C 
ATOM     58  C   UNL A   1      48.916  29.637  26.918  1.00  0.00     0.029 A 
ATOM     59  C   UNL A   1      47.952  28.641  26.942  1.00  0.00     0.049 A 
ATOM     60  H   UNL A   1      45.918  28.773  27.482  1.00  0.00     0.167 HD
ATOM     61  C   UNL A   1      47.097  26.331  26.634  1.00  0.00     0.074 A 
ATOM     62  C   UNL A   1      47.261  24.937  26.276  1.00  0.00     0.031 C 
ATOM     63  C   UNL A   1      48.093  27.250  26.593  1.00  0.00     0.031 A 
BRANCH  50  64
ATOM     64  C   UNL A   1      46.369  32.941  28.298  1.00  0.00    -0.014 A 
ATOM     65  C   UNL A   1      46.222  33.865  27.249  1.00  0.00     0.010 A 
ATOM     66  C   UNL A   1      46.867  33.387  29.537  1.00  0.00     0.010 A 
ATOM     67  C   UNL A   1      46.620  35.195  27.414  1.00  0.00     0.020 A 
ATOM     68  C   UNL A   1      47.238  34.723  29.716  1.00  0.00     0.020 A 
ATOM     69  C   UNL A   1      47.134  35.613  28.645  1.00  0.00     0.054 A 
BRANCH  69  70
ATOM     70  S   UNL A   1      47.645  37.342  28.834  1.00  0.00     0.124 S 
ATOM     71  O   UNL A   1      47.621  37.505  30.286  1.00  0.00    -0.237 OA
ATOM     72  O   UNL A   1      48.972  37.356  28.222  1.00  0.00    -0.237 OA
ATOM     73  O   UNL A   1      46.620  38.087  28.107  1.00  0.00    -0.744 OA
ENDBRANCH  69  70
ENDBRANCH  50  64
BRANCH  51  74
ATOM     74  C   UNL A   1      43.331  23.518  26.908  1.00  0.00    -0.014 A 
ATOM     75  C   UNL A   1      43.139  23.050  25.597  1.00  0.00     0.010 A 
ATOM     76  C   UNL A   1      43.119  22.640  27.986  1.00  0.00     0.010 A 
ATOM     77  C   UNL A   1      42.733  21.732  25.367  1.00  0.00     0.020 A 
ATOM     78  C   UNL A   1      42.737  21.315  27.759  1.00  0.00     0.020 A 
ATOM     79  C   UNL A   1      42.539  20.871  26.451  1.00  0.00     0.054 A 
BRANCH  79  80
ATOM     80  S   UNL A   1      42.086  19.143  26.129  1.00  0.00     0.124 S 
ATOM     81  O   UNL A   1      40.656  19.251  25.855  1.00  0.00    -0.237 OA
ATOM     82  O   UNL A   1      42.926  18.803  24.983  1.00  0.00    -0.237 OA
ATOM     83  O   UNL A   1      42.438  18.462  27.373  1.00  0.00    -0.744 OA
ENDBRANCH  79  80
ENDBRANCH  51  74
BRANCH  63  84
ATOM     84  C   UNL A   1      49.456  26.773  26.176  1.00  0.00    -0.014 A 
ATOM     85  C   UNL A   1      49.945  27.017  24.882  1.00  0.00     0.010 A 
ATOM     86  C   UNL A   1      50.281  26.126  27.114  1.00  0.00     0.010 A 
ATOM     87  C   UNL A   1      51.230  26.601  24.524  1.00  0.00     0.020 A 
ATOM     88  C   UNL A   1      51.574  25.729  26.767  1.00  0.00     0.020 A 
ATOM     89  C   UNL A   1      52.036  25.959  25.470  1.00  0.00     0.054 A 
BRANCH  89  90
ATOM     90  S   UNL A   1      53.719  25.475  25.000  1.00  0.00     0.124 S 
ATOM     91  O   UNL A   1      53.727  25.758  23.568  1.00  0.00    -0.237 OA
ATOM     92  O   UNL A   1      54.549  26.355  25.819  1.00  0.00    -0.237 OA
ATOM     93  O   UNL A   1      53.784  24.059  25.357  1.00  0.00    -0.744 OA
ENDBRANCH  89  90
ENDBRANCH  63  84
ENDBRANCH  37  38
ENDBRANCH  29  32
ENDBRANCH  27  28
ENDBRANCH  26  27
ENDBRANCH   1  26
TORSDOF 18
ENDMDL
