MODEL 1
REMARK VINA RESULT:      -8.5      0.000      0.000
REMARK SMILES CCN(c1cccc(C)c1)c1nc(OCC(=O)NCCCNC(=O)c2ccc(-c3c4nc(c(-c5ccc(S(=O)(=O)[O-])cc5)c5ccc([nH]5)c(-c5ccc(S(=O)(=O)[O-])cc5)c5nc(c(-c6ccc(S(=O)(=O)[O-])cc6)c6ccc3[nH]6)C=C5)C=C4)cc2)cc(-c2ccc(C)cc2)n1
REMARK SMILES IDX 19 1 18 2 16 3 17 4 15 6 14 7 13 8 11 9 12 10 94 11 86 12
REMARK SMILES IDX 85 13 3 14 2 15 1 16 4 17 5 18 10 19 6 20 8 21 7 22 9 23
REMARK SMILES IDX 87 24 88 25 93 26 89 27 92 28 90 29 91 30 20 31 21 32 22 33
REMARK SMILES IDX 23 34 24 36 25 37 26 38 84 39 27 40 83 41 28 42 29 43 30 44
REMARK SMILES IDX 77 45 31 46 82 47 76 48 78 49 32 50 81 51 75 52 74 53 33 55
REMARK SMILES IDX 63 56 44 57 62 58 45 59 48 60 61 61 79 62 46 63 47 64 60 66
REMARK SMILES IDX 80 67 49 68 34 69 35 70 43 71 36 72 42 73 37 74 38 75 39 76
REMARK SMILES IDX 40 77 41 78 64 79 65 80 73 81 66 82 72 83 67 84 68 85 69 86
REMARK SMILES IDX 70 87 71 88 50 89 51 90 59 91 52 92 58 93 53 94 54 95 55 96
REMARK SMILES IDX 56 97 57 98
REMARK H PARENT 18 5 22 35 78 54 48 65
REMARK Flexibility Score: inf
ROOT
ATOM      1  C   UNL A   1      48.839  29.565  33.698  1.00  0.00     0.117 C 
ENDROOT
BRANCH   1   2
ATOM      2  N   UNL A   1      49.539  28.514  32.980  1.00  0.00    -0.353 N 
ATOM      3  C   UNL A   1      49.172  27.895  31.825  1.00  0.00     0.258 C 
ATOM      4  O   UNL A   1      49.858  26.964  31.398  1.00  0.00    -0.271 OA
ATOM      5  H   UNL A   1      50.386  28.212  33.380  1.00  0.00     0.163 HD
BRANCH   3   6
ATOM      6  C   UNL A   1      47.934  28.385  31.064  1.00  0.00     0.331 C 
BRANCH   6   7
ATOM      7  O   UNL A   1      47.470  29.700  31.309  1.00  0.00    -0.467 OA
BRANCH   7   8
ATOM      8  C   UNL A   1      46.392  30.150  30.600  1.00  0.00     0.219 A 
ATOM      9  C   UNL A   1      45.597  30.510  28.453  1.00  0.00     0.233 A 
ATOM     10  N   UNL A   1      46.558  30.043  29.272  1.00  0.00    -0.177 NA
ATOM     11  N   UNL A   1      44.474  31.067  28.924  1.00  0.00    -0.212 NA
ATOM     12  C   UNL A   1      44.307  31.115  30.257  1.00  0.00     0.080 A 
ATOM     13  C   UNL A   1      45.252  30.661  31.147  1.00  0.00     0.097 A 
BRANCH   9  14
ATOM     14  N   UNL A   1      45.759  30.341  27.065  1.00  0.00    -0.311 N 
BRANCH  14  15
ATOM     15  C   UNL A   1      45.834  31.572  26.263  1.00  0.00     0.122 C 
ATOM     16  C   UNL A   1      47.098  32.391  26.508  1.00  0.00     0.028 C 
ENDBRANCH  14  15
BRANCH  14  17
ATOM     17  C   UNL A   1      45.942  29.093  26.441  1.00  0.00     0.044 A 
ATOM     18  C   UNL A   1      47.195  28.603  26.053  1.00  0.00     0.026 A 
ATOM     19  C   UNL A   1      44.828  28.264  26.204  1.00  0.00     0.029 A 
ATOM     20  C   UNL A   1      47.329  27.345  25.451  1.00  0.00     0.002 A 
ATOM     21  C   UNL A   1      44.943  27.003  25.601  1.00  0.00    -0.049 A 
ATOM     22  C   UNL A   1      46.206  26.549  25.223  1.00  0.00     0.003 A 
ATOM     23  C   UNL A   1      43.713  26.178  25.376  1.00  0.00     0.044 C 
ENDBRANCH  14  17
ENDBRANCH   9  14
BRANCH  12  24
ATOM     24  C   UNL A   1      43.020  31.603  30.749  1.00  0.00     0.000 A 
ATOM     25  C   UNL A   1      42.943  32.377  31.915  1.00  0.00     0.010 A 
ATOM     26  C   UNL A   1      41.828  31.205  30.125  1.00  0.00     0.010 A 
ATOM     27  C   UNL A   1      41.706  32.713  32.467  1.00  0.00     0.004 A 
ATOM     28  C   UNL A   1      40.590  31.532  30.682  1.00  0.00     0.004 A 
ATOM     29  C   UNL A   1      40.521  32.277  31.864  1.00  0.00    -0.051 A 
ATOM     30  C   UNL A   1      39.189  32.583  32.481  1.00  0.00     0.044 C 
ENDBRANCH  12  24
ENDBRANCH   7   8
ENDBRANCH   6   7
ENDBRANCH   3   6
ENDBRANCH   1   2
BRANCH   1  31
ATOM     31  C   UNL A   1      48.082  29.038  34.906  1.00  0.00     0.042 C 
BRANCH  31  32
ATOM     32  C   UNL A   1      46.691  28.556  34.560  1.00  0.00     0.118 C 
BRANCH  32  33
ATOM     33  N   UNL A   1      46.013  28.041  35.728  1.00  0.00    -0.352 N 
ATOM     34  C   UNL A   1      45.121  28.843  36.415  1.00  0.00     0.251 C 
ATOM     35  H   UNL A   1      46.186  27.120  36.033  1.00  0.00     0.163 HD
ATOM     36  O   UNL A   1      45.435  29.529  37.379  1.00  0.00    -0.269 OA
BRANCH  34  37
ATOM     37  C   UNL A   1      43.743  28.724  35.891  1.00  0.00     0.039 A 
ATOM     38  C   UNL A   1      43.279  27.416  35.714  1.00  0.00     0.014 A 
ATOM     39  C   UNL A   1      43.348  29.757  35.042  1.00  0.00     0.014 A 
ATOM     40  C   UNL A   1      42.694  27.073  34.513  1.00  0.00     0.010 A 
ATOM     41  C   UNL A   1      42.887  29.409  33.809  1.00  0.00     0.010 A 
ATOM     42  C   UNL A   1      42.638  28.060  33.542  1.00  0.00    -0.014 A 
BRANCH  42  43
ATOM     43  C   UNL A   1      42.235  27.823  32.182  1.00  0.00     0.031 A 
ATOM     44  C   UNL A   1      40.802  27.999  31.941  1.00  0.00     0.074 A 
ATOM     45  C   UNL A   1      43.253  27.730  31.302  1.00  0.00     0.049 A 
ATOM     46  N   UNL A   1      40.173  27.588  30.907  1.00  0.00    -0.248 NA
ATOM     47  C   UNL A   1      39.917  28.629  32.932  1.00  0.00     0.031 C 
ATOM     48  C   UNL A   1      43.294  27.858  29.853  1.00  0.00     0.029 A 
ATOM     49  N   UNL A   1      44.521  27.220  31.626  1.00  0.00    -0.354 N 
ATOM     50  C   UNL A   1      38.971  28.267  30.905  1.00  0.00     0.074 A 
ATOM     51  C   UNL A   1      38.776  28.732  32.249  1.00  0.00     0.031 C 
ATOM     52  C   UNL A   1      44.345  27.142  29.394  1.00  0.00     0.029 A 
ATOM     53  C   UNL A   1      44.877  26.407  30.539  1.00  0.00     0.049 A 
ATOM     54  H   UNL A   1      45.047  27.396  32.439  1.00  0.00     0.167 HD
ATOM     55  C   UNL A   1      38.417  28.565  29.700  1.00  0.00     0.031 A 
ATOM     56  C   UNL A   1      44.775  25.049  30.694  1.00  0.00     0.031 A 
ATOM     57  C   UNL A   1      39.215  27.955  28.637  1.00  0.00     0.049 A 
ATOM     58  C   UNL A   1      43.713  24.471  29.773  1.00  0.00     0.074 A 
ATOM     59  C   UNL A   1      40.204  28.454  27.805  1.00  0.00     0.029 A 
ATOM     60  N   UNL A   1      39.362  26.574  28.642  1.00  0.00    -0.354 N 
ATOM     61  N   UNL A   1      42.603  25.079  29.438  1.00  0.00    -0.248 NA
ATOM     62  C   UNL A   1      43.891  23.204  29.074  1.00  0.00     0.031 C 
ATOM     63  C   UNL A   1      40.999  27.352  27.373  1.00  0.00     0.029 A 
ATOM     64  C   UNL A   1      40.491  26.197  27.945  1.00  0.00     0.049 A 
ATOM     65  H   UNL A   1      38.743  25.949  29.085  1.00  0.00     0.167 HD
ATOM     66  C   UNL A   1      41.964  24.358  28.455  1.00  0.00     0.074 A 
ATOM     67  C   UNL A   1      42.807  23.186  28.280  1.00  0.00     0.031 C 
ATOM     68  C   UNL A   1      40.816  24.779  27.837  1.00  0.00     0.031 A 
BRANCH  55  69
ATOM     69  C   UNL A   1      37.381  29.635  29.464  1.00  0.00    -0.014 A 
ATOM     70  C   UNL A   1      36.943  29.860  28.145  1.00  0.00     0.010 A 
ATOM     71  C   UNL A   1      36.823  30.467  30.456  1.00  0.00     0.010 A 
ATOM     72  C   UNL A   1      36.030  30.872  27.824  1.00  0.00     0.020 A 
ATOM     73  C   UNL A   1      35.917  31.496  30.148  1.00  0.00     0.020 A 
ATOM     74  C   UNL A   1      35.524  31.689  28.829  1.00  0.00     0.054 A 
BRANCH  74  75
ATOM     75  S   UNL A   1      34.327  32.974  28.388  1.00  0.00     0.124 S 
ATOM     76  O   UNL A   1      33.303  32.216  27.674  1.00  0.00    -0.237 OA
ATOM     77  O   UNL A   1      33.932  33.493  29.695  1.00  0.00    -0.237 OA
ATOM     78  O   UNL A   1      35.098  33.899  27.561  1.00  0.00    -0.744 OA
ENDBRANCH  74  75
ENDBRANCH  55  69
BRANCH  56  79
ATOM     79  C   UNL A   1      45.086  24.566  32.088  1.00  0.00    -0.014 A 
ATOM     80  C   UNL A   1      46.294  24.996  32.698  1.00  0.00     0.010 A 
ATOM     81  C   UNL A   1      44.132  23.945  32.911  1.00  0.00     0.010 A 
ATOM     82  C   UNL A   1      46.500  24.899  34.082  1.00  0.00     0.020 A 
ATOM     83  C   UNL A   1      44.349  23.818  34.301  1.00  0.00     0.020 A 
ATOM     84  C   UNL A   1      45.519  24.318  34.883  1.00  0.00     0.054 A 
BRANCH  84  85
ATOM     85  S   UNL A   1      45.788  24.168  36.681  1.00  0.00     0.124 S 
ATOM     86  O   UNL A   1      44.433  24.193  37.227  1.00  0.00    -0.237 OA
ATOM     87  O   UNL A   1      46.477  22.891  36.803  1.00  0.00    -0.237 OA
ATOM     88  O   UNL A   1      46.601  25.342  36.977  1.00  0.00    -0.744 OA
ENDBRANCH  84  85
ENDBRANCH  56  79
BRANCH  68  89
ATOM     89  C   UNL A   1      39.848  23.922  27.036  1.00  0.00    -0.014 A 
ATOM     90  C   UNL A   1      40.066  22.587  26.680  1.00  0.00     0.010 A 
ATOM     91  C   UNL A   1      38.560  24.445  26.736  1.00  0.00     0.010 A 
ATOM     92  C   UNL A   1      39.076  21.829  26.037  1.00  0.00     0.020 A 
ATOM     93  C   UNL A   1      37.542  23.682  26.164  1.00  0.00     0.020 A 
ATOM     94  C   UNL A   1      37.817  22.378  25.795  1.00  0.00     0.054 A 
BRANCH  94  95
ATOM     95  S   UNL A   1      36.545  21.355  25.027  1.00  0.00     0.124 S 
ATOM     96  O   UNL A   1      35.441  21.494  25.974  1.00  0.00    -0.237 OA
ATOM     97  O   UNL A   1      36.351  22.009  23.735  1.00  0.00    -0.237 OA
ATOM     98  O   UNL A   1      37.153  20.029  24.966  1.00  0.00    -0.744 OA
ENDBRANCH  94  95
ENDBRANCH  68  89
ENDBRANCH  42  43
ENDBRANCH  34  37
ENDBRANCH  32  33
ENDBRANCH  31  32
ENDBRANCH   1  31
TORSDOF 19
ENDMDL
MODEL 2
REMARK VINA RESULT:      -8.2      3.173      9.495
REMARK SMILES CCN(c1cccc(C)c1)c1nc(OCC(=O)NCCCNC(=O)c2ccc(-c3c4nc(c(-c5ccc(S(=O)(=O)[O-])cc5)c5ccc([nH]5)c(-c5ccc(S(=O)(=O)[O-])cc5)c5nc(c(-c6ccc(S(=O)(=O)[O-])cc6)c6ccc3[nH]6)C=C5)C=C4)cc2)cc(-c2ccc(C)cc2)n1
REMARK SMILES IDX 19 1 18 2 16 3 17 4 15 6 14 7 13 8 11 9 12 10 94 11 86 12
REMARK SMILES IDX 85 13 3 14 2 15 1 16 4 17 5 18 10 19 6 20 8 21 7 22 9 23
REMARK SMILES IDX 87 24 88 25 93 26 89 27 92 28 90 29 91 30 20 31 21 32 22 33
REMARK SMILES IDX 23 34 24 36 25 37 26 38 84 39 27 40 83 41 28 42 29 43 30 44
REMARK SMILES IDX 77 45 31 46 82 47 76 48 78 49 32 50 81 51 75 52 74 53 33 55
REMARK SMILES IDX 63 56 44 57 62 58 45 59 48 60 61 61 79 62 46 63 47 64 60 66
REMARK SMILES IDX 80 67 49 68 34 69 35 70 43 71 36 72 42 73 37 74 38 75 39 76
REMARK SMILES IDX 40 77 41 78 64 79 65 80 73 81 66 82 72 83 67 84 68 85 69 86
REMARK SMILES IDX 70 87 71 88 50 89 51 90 59 91 52 92 58 93 53 94 54 95 55 96
REMARK SMILES IDX 56 97 57 98
REMARK H PARENT 18 5 22 35 78 54 48 65
REMARK Flexibility Score: inf
ROOT
ATOM      1  C   UNL A   1      45.391  27.384  25.507  1.00  0.00     0.117 C 
ENDROOT
BRANCH   1   2
ATOM      2  N   UNL A   1      45.839  27.819  24.195  1.00  0.00    -0.353 N 
ATOM      3  C   UNL A   1      47.109  27.848  23.705  1.00  0.00     0.258 C 
ATOM      4  O   UNL A   1      47.310  28.324  22.586  1.00  0.00    -0.271 OA
ATOM      5  H   UNL A   1      45.135  28.132  23.583  1.00  0.00     0.163 HD
BRANCH   3   6
ATOM      6  C   UNL A   1      48.255  27.261  24.539  1.00  0.00     0.331 C 
BRANCH   6   7
ATOM      7  O   UNL A   1      49.160  28.154  25.162  1.00  0.00    -0.467 OA
BRANCH   7   8
ATOM      8  C   UNL A   1      48.865  28.607  26.416  1.00  0.00     0.219 A 
ATOM      9  C   UNL A   1      48.322  30.509  27.626  1.00  0.00     0.233 A 
ATOM     10  N   UNL A   1      48.569  29.917  26.442  1.00  0.00    -0.177 NA
ATOM     11  N   UNL A   1      48.349  29.826  28.778  1.00  0.00    -0.212 NA
ATOM     12  C   UNL A   1      48.595  28.506  28.721  1.00  0.00     0.080 A 
ATOM     13  C   UNL A   1      48.861  27.843  27.546  1.00  0.00     0.097 A 
BRANCH   9  14
ATOM     14  N   UNL A   1      47.959  31.868  27.633  1.00  0.00    -0.311 N 
BRANCH  14  15
ATOM     15  C   UNL A   1      49.052  32.836  27.451  1.00  0.00     0.122 C 
ATOM     16  C   UNL A   1      50.322  32.482  28.218  1.00  0.00     0.028 C 
ENDBRANCH  14  15
BRANCH  14  17
ATOM     17  C   UNL A   1      46.630  32.327  27.708  1.00  0.00     0.044 A 
ATOM     18  C   UNL A   1      45.957  32.543  28.918  1.00  0.00     0.026 A 
ATOM     19  C   UNL A   1      45.926  32.614  26.523  1.00  0.00     0.029 A 
ATOM     20  C   UNL A   1      44.640  33.017  28.942  1.00  0.00     0.002 A 
ATOM     21  C   UNL A   1      44.605  33.087  26.528  1.00  0.00    -0.049 A 
ATOM     22  C   UNL A   1      43.965  33.286  27.751  1.00  0.00     0.003 A 
ATOM     23  C   UNL A   1      43.917  33.365  25.227  1.00  0.00     0.044 C 
ENDBRANCH  14  17
ENDBRANCH   9  14
BRANCH  12  24
ATOM     24  C   UNL A   1      48.488  27.755  29.971  1.00  0.00     0.000 A 
ATOM     25  C   UNL A   1      48.317  28.417  31.194  1.00  0.00     0.010 A 
ATOM     26  C   UNL A   1      48.672  26.364  29.977  1.00  0.00     0.010 A 
ATOM     27  C   UNL A   1      48.367  27.713  32.399  1.00  0.00     0.004 A 
ATOM     28  C   UNL A   1      48.732  25.660  31.182  1.00  0.00     0.004 A 
ATOM     29  C   UNL A   1      48.592  26.332  32.401  1.00  0.00    -0.051 A 
ATOM     30  C   UNL A   1      48.706  25.577  33.691  1.00  0.00     0.044 C 
ENDBRANCH  12  24
ENDBRANCH   7   8
ENDBRANCH   6   7
ENDBRANCH   3   6
ENDBRANCH   1   2
BRANCH   1  31
ATOM     31  C   UNL A   1      44.375  26.256  25.429  1.00  0.00     0.042 C 
BRANCH  31  32
ATOM     32  C   UNL A   1      45.014  24.912  25.163  1.00  0.00     0.118 C 
BRANCH  32  33
ATOM     33  N   UNL A   1      44.268  23.847  25.796  1.00  0.00    -0.352 N 
ATOM     34  C   UNL A   1      44.924  22.931  26.596  1.00  0.00     0.251 C 
ATOM     35  H   UNL A   1      43.296  23.777  25.658  1.00  0.00     0.163 HD
ATOM     36  O   UNL A   1      45.352  21.860  26.185  1.00  0.00    -0.269 OA
BRANCH  34  37
ATOM     37  C   UNL A   1      44.989  23.366  28.009  1.00  0.00     0.039 A 
ATOM     38  C   UNL A   1      43.785  23.287  28.717  1.00  0.00     0.014 A 
ATOM     39  C   UNL A   1      45.922  24.368  28.271  1.00  0.00     0.014 A 
ATOM     40  C   UNL A   1      43.367  24.382  29.444  1.00  0.00     0.010 A 
ATOM     41  C   UNL A   1      45.470  25.498  28.880  1.00  0.00     0.010 A 
ATOM     42  C   UNL A   1      44.169  25.509  29.392  1.00  0.00    -0.014 A 
BRANCH  42  43
ATOM     43  C   UNL A   1      43.792  26.787  29.934  1.00  0.00     0.031 A 
ATOM     44  C   UNL A   1      44.099  26.952  31.355  1.00  0.00     0.074 A 
ATOM     45  C   UNL A   1      43.456  27.712  29.011  1.00  0.00     0.049 A 
ATOM     46  N   UNL A   1      43.623  27.865  32.111  1.00  0.00    -0.248 NA
ATOM     47  C   UNL A   1      44.963  26.007  32.080  1.00  0.00     0.031 C 
ATOM     48  C   UNL A   1      43.372  29.163  29.081  1.00  0.00     0.029 A 
ATOM     49  N   UNL A   1      42.851  27.404  27.780  1.00  0.00    -0.354 N 
ATOM     50  C   UNL A   1      44.432  27.886  33.229  1.00  0.00     0.074 A 
ATOM     51  C   UNL A   1      45.102  26.616  33.257  1.00  0.00     0.031 C 
ATOM     52  C   UNL A   1      42.480  29.581  28.156  1.00  0.00     0.029 A 
ATOM     53  C   UNL A   1      41.856  28.379  27.608  1.00  0.00     0.049 A 
ATOM     54  H   UNL A   1      43.077  26.665  27.171  1.00  0.00     0.167 HD
ATOM     55  C   UNL A   1      44.620  29.081  33.850  1.00  0.00     0.031 A 
ATOM     56  C   UNL A   1      40.556  28.014  27.841  1.00  0.00     0.031 A 
ATOM     57  C   UNL A   1      43.775  30.092  33.217  1.00  0.00     0.049 A 
ATOM     58  C   UNL A   1      39.982  28.762  29.033  1.00  0.00     0.074 A 
ATOM     59  C   UNL A   1      44.031  31.056  32.255  1.00  0.00     0.029 A 
ATOM     60  N   UNL A   1      42.402  29.890  33.217  1.00  0.00    -0.354 N 
ATOM     61  N   UNL A   1      40.663  29.106  30.097  1.00  0.00    -0.248 NA
ATOM     62  C   UNL A   1      38.617  29.273  29.051  1.00  0.00     0.031 C 
ATOM     63  C   UNL A   1      42.794  31.373  31.622  1.00  0.00     0.029 A 
ATOM     64  C   UNL A   1      41.799  30.600  32.199  1.00  0.00     0.049 A 
ATOM     65  H   UNL A   1      41.922  29.316  33.858  1.00  0.00     0.167 HD
ATOM     66  C   UNL A   1      39.891  29.923  30.891  1.00  0.00     0.074 A 
ATOM     67  C   UNL A   1      38.615  29.979  30.196  1.00  0.00     0.031 C 
ATOM     68  C   UNL A   1      40.352  30.516  32.037  1.00  0.00     0.031 A 
BRANCH  55  69
ATOM     69  C   UNL A   1      45.760  29.401  34.783  1.00  0.00    -0.014 A 
ATOM     70  C   UNL A   1      45.782  28.782  36.048  1.00  0.00     0.010 A 
ATOM     71  C   UNL A   1      46.809  30.304  34.514  1.00  0.00     0.010 A 
ATOM     72  C   UNL A   1      46.767  29.065  37.002  1.00  0.00     0.020 A 
ATOM     73  C   UNL A   1      47.796  30.610  35.466  1.00  0.00     0.020 A 
ATOM     74  C   UNL A   1      47.769  29.983  36.706  1.00  0.00     0.054 A 
BRANCH  74  75
ATOM     75  S   UNL A   1      49.043  30.312  37.950  1.00  0.00     0.124 S 
ATOM     76  O   UNL A   1      49.739  31.466  37.387  1.00  0.00    -0.237 OA
ATOM     77  O   UNL A   1      48.248  30.577  39.146  1.00  0.00    -0.237 OA
ATOM     78  O   UNL A   1      49.823  29.077  37.984  1.00  0.00    -0.744 OA
ENDBRANCH  74  75
ENDBRANCH  55  69
BRANCH  56  79
ATOM     79  C   UNL A   1      40.241  26.588  27.463  1.00  0.00    -0.014 A 
ATOM     80  C   UNL A   1      40.727  26.095  26.224  1.00  0.00     0.010 A 
ATOM     81  C   UNL A   1      39.736  25.651  28.380  1.00  0.00     0.010 A 
ATOM     82  C   UNL A   1      40.796  24.721  25.950  1.00  0.00     0.020 A 
ATOM     83  C   UNL A   1      39.776  24.268  28.094  1.00  0.00     0.020 A 
ATOM     84  C   UNL A   1      40.329  23.809  26.893  1.00  0.00     0.054 A 
BRANCH  84  85
ATOM     85  S   UNL A   1      40.394  22.021  26.537  1.00  0.00     0.124 S 
ATOM     86  O   UNL A   1      41.551  21.896  25.654  1.00  0.00    -0.237 OA
ATOM     87  O   UNL A   1      40.559  21.430  27.857  1.00  0.00    -0.237 OA
ATOM     88  O   UNL A   1      39.100  21.779  25.907  1.00  0.00    -0.744 OA
ENDBRANCH  84  85
ENDBRANCH  56  79
BRANCH  68  89
ATOM     89  C   UNL A   1      39.510  31.109  33.156  1.00  0.00    -0.014 A 
ATOM     90  C   UNL A   1      38.784  30.365  34.093  1.00  0.00     0.010 A 
ATOM     91  C   UNL A   1      39.559  32.513  33.377  1.00  0.00     0.010 A 
ATOM     92  C   UNL A   1      38.122  30.984  35.164  1.00  0.00     0.020 A 
ATOM     93  C   UNL A   1      38.967  33.133  34.477  1.00  0.00     0.020 A 
ATOM     94  C   UNL A   1      38.229  32.361  35.356  1.00  0.00     0.054 A 
BRANCH  94  95
ATOM     95  S   UNL A   1      37.420  33.115  36.781  1.00  0.00     0.124 S 
ATOM     96  O   UNL A   1      37.288  31.975  37.685  1.00  0.00    -0.237 OA
ATOM     97  O   UNL A   1      38.384  34.134  37.189  1.00  0.00    -0.237 OA
ATOM     98  O   UNL A   1      36.166  33.631  36.239  1.00  0.00    -0.744 OA
ENDBRANCH  94  95
ENDBRANCH  68  89
ENDBRANCH  42  43
ENDBRANCH  34  37
ENDBRANCH  32  33
ENDBRANCH  31  32
ENDBRANCH   1  31
TORSDOF 19
ENDMDL
MODEL 3
REMARK VINA RESULT:      -7.7      4.468     10.179
REMARK SMILES CCN(c1cccc(C)c1)c1nc(OCC(=O)NCCCNC(=O)c2ccc(-c3c4nc(c(-c5ccc(S(=O)(=O)[O-])cc5)c5ccc([nH]5)c(-c5ccc(S(=O)(=O)[O-])cc5)c5nc(c(-c6ccc(S(=O)(=O)[O-])cc6)c6ccc3[nH]6)C=C5)C=C4)cc2)cc(-c2ccc(C)cc2)n1
REMARK SMILES IDX 19 1 18 2 16 3 17 4 15 6 14 7 13 8 11 9 12 10 94 11 86 12
REMARK SMILES IDX 85 13 3 14 2 15 1 16 4 17 5 18 10 19 6 20 8 21 7 22 9 23
REMARK SMILES IDX 87 24 88 25 93 26 89 27 92 28 90 29 91 30 20 31 21 32 22 33
REMARK SMILES IDX 23 34 24 36 25 37 26 38 84 39 27 40 83 41 28 42 29 43 30 44
REMARK SMILES IDX 77 45 31 46 82 47 76 48 78 49 32 50 81 51 75 52 74 53 33 55
REMARK SMILES IDX 63 56 44 57 62 58 45 59 48 60 61 61 79 62 46 63 47 64 60 66
REMARK SMILES IDX 80 67 49 68 34 69 35 70 43 71 36 72 42 73 37 74 38 75 39 76
REMARK SMILES IDX 40 77 41 78 64 79 65 80 73 81 66 82 72 83 67 84 68 85 69 86
REMARK SMILES IDX 70 87 71 88 50 89 51 90 59 91 52 92 58 93 53 94 54 95 55 96
REMARK SMILES IDX 56 97 57 98
REMARK H PARENT 18 5 22 35 78 54 48 65
REMARK Flexibility Score: inf
ROOT
ATOM      1  C   UNL A   1      35.717  31.544  30.249  1.00  0.00     0.117 C 
ENDROOT
BRANCH   1   2
ATOM      2  N   UNL A   1      34.616  32.128  30.996  1.00  0.00    -0.353 N 
ATOM      3  C   UNL A   1      34.598  33.293  31.698  1.00  0.00     0.258 C 
ATOM      4  O   UNL A   1      33.589  33.594  32.337  1.00  0.00    -0.271 OA
ATOM      5  H   UNL A   1      33.776  31.615  30.993  1.00  0.00     0.163 HD
BRANCH   3   6
ATOM      6  C   UNL A   1      35.820  34.222  31.654  1.00  0.00     0.331 C 
BRANCH   6   7
ATOM      7  O   UNL A   1      36.753  34.156  32.715  1.00  0.00    -0.467 OA
BRANCH   7   8
ATOM      8  C   UNL A   1      38.029  33.753  32.433  1.00  0.00     0.219 A 
ATOM      9  C   UNL A   1      39.744  32.371  33.155  1.00  0.00     0.233 A 
ATOM     10  N   UNL A   1      38.477  32.811  33.279  1.00  0.00    -0.177 NA
ATOM     11  N   UNL A   1      40.566  32.836  32.205  1.00  0.00    -0.212 NA
ATOM     12  C   UNL A   1      40.077  33.740  31.338  1.00  0.00     0.080 A 
ATOM     13  C   UNL A   1      38.795  34.234  31.413  1.00  0.00     0.097 A 
BRANCH   9  14
ATOM     14  N   UNL A   1      40.184  31.344  34.011  1.00  0.00    -0.311 N 
BRANCH  14  15
ATOM     15  C   UNL A   1      39.571  31.303  35.348  1.00  0.00     0.122 C 
ATOM     16  C   UNL A   1      40.175  32.298  36.334  1.00  0.00     0.028 C 
ENDBRANCH  14  15
BRANCH  14  17
ATOM     17  C   UNL A   1      41.082  30.331  33.627  1.00  0.00     0.044 A 
ATOM     18  C   UNL A   1      40.678  29.036  33.276  1.00  0.00     0.026 A 
ATOM     19  C   UNL A   1      42.460  30.612  33.561  1.00  0.00     0.029 A 
ATOM     20  C   UNL A   1      41.609  28.067  32.882  1.00  0.00     0.002 A 
ATOM     21  C   UNL A   1      43.407  29.653  33.172  1.00  0.00    -0.049 A 
ATOM     22  C   UNL A   1      42.969  28.373  32.833  1.00  0.00     0.003 A 
ATOM     23  C   UNL A   1      44.858  30.023  33.130  1.00  0.00     0.044 C 
ENDBRANCH  14  17
ENDBRANCH   9  14
BRANCH  12  24
ATOM     24  C   UNL A   1      40.944  34.134  30.229  1.00  0.00     0.000 A 
ATOM     25  C   UNL A   1      42.280  33.716  30.178  1.00  0.00     0.010 A 
ATOM     26  C   UNL A   1      40.482  35.034  29.257  1.00  0.00     0.010 A 
ATOM     27  C   UNL A   1      43.146  34.215  29.204  1.00  0.00     0.004 A 
ATOM     28  C   UNL A   1      41.351  35.542  28.288  1.00  0.00     0.004 A 
ATOM     29  C   UNL A   1      42.692  35.144  28.263  1.00  0.00    -0.051 A 
ATOM     30  C   UNL A   1      43.628  35.730  27.249  1.00  0.00     0.044 C 
ENDBRANCH  12  24
ENDBRANCH   7   8
ENDBRANCH   6   7
ENDBRANCH   3   6
ENDBRANCH   1   2
BRANCH   1  31
ATOM     31  C   UNL A   1      36.574  30.623  31.102  1.00  0.00     0.042 C 
BRANCH  31  32
ATOM     32  C   UNL A   1      37.043  29.398  30.349  1.00  0.00     0.118 C 
BRANCH  32  33
ATOM     33  N   UNL A   1      38.358  28.989  30.789  1.00  0.00    -0.352 N 
ATOM     34  C   UNL A   1      39.145  28.206  29.966  1.00  0.00     0.251 C 
ATOM     35  H   UNL A   1      38.691  29.269  31.672  1.00  0.00     0.163 HD
ATOM     36  O   UNL A   1      39.172  26.983  30.023  1.00  0.00    -0.269 OA
BRANCH  34  37
ATOM     37  C   UNL A   1      39.991  29.017  29.063  1.00  0.00     0.039 A 
ATOM     38  C   UNL A   1      40.517  28.335  27.960  1.00  0.00     0.014 A 
ATOM     39  C   UNL A   1      40.698  30.043  29.688  1.00  0.00     0.014 A 
ATOM     40  C   UNL A   1      41.864  28.447  27.688  1.00  0.00     0.010 A 
ATOM     41  C   UNL A   1      42.047  30.070  29.510  1.00  0.00     0.010 A 
ATOM     42  C   UNL A   1      42.616  29.215  28.561  1.00  0.00    -0.014 A 
BRANCH  42  43
ATOM     43  C   UNL A   1      44.052  29.285  28.534  1.00  0.00     0.031 A 
ATOM     44  C   UNL A   1      44.586  30.325  27.654  1.00  0.00     0.074 A 
ATOM     45  C   UNL A   1      44.668  28.569  29.497  1.00  0.00     0.049 A 
ATOM     46  N   UNL A   1      45.798  30.403  27.255  1.00  0.00    -0.248 NA
ATOM     47  C   UNL A   1      43.730  31.373  27.078  1.00  0.00     0.031 C 
ATOM     48  C   UNL A   1      46.015  28.641  30.045  1.00  0.00     0.029 A 
ATOM     49  N   UNL A   1      44.159  27.373  30.030  1.00  0.00    -0.354 N 
ATOM     50  C   UNL A   1      45.954  31.688  26.777  1.00  0.00     0.074 A 
ATOM     51  C   UNL A   1      44.629  32.172  26.504  1.00  0.00     0.031 C 
ATOM     52  C   UNL A   1      46.341  27.423  30.530  1.00  0.00     0.029 A 
ATOM     53  C   UNL A   1      45.266  26.517  30.134  1.00  0.00     0.049 A 
ATOM     54  H   UNL A   1      43.226  27.178  30.277  1.00  0.00     0.167 HD
ATOM     55  C   UNL A   1      47.175  32.268  26.912  1.00  0.00     0.031 A 
ATOM     56  C   UNL A   1      45.401  25.529  29.194  1.00  0.00     0.031 A 
ATOM     57  C   UNL A   1      48.116  31.291  27.456  1.00  0.00     0.049 A 
ATOM     58  C   UNL A   1      46.640  25.750  28.341  1.00  0.00     0.074 A 
ATOM     59  C   UNL A   1      48.580  31.052  28.740  1.00  0.00     0.029 A 
ATOM     60  N   UNL A   1      48.340  30.127  26.733  1.00  0.00    -0.354 N 
ATOM     61  N   UNL A   1      47.104  26.922  27.987  1.00  0.00    -0.248 NA
ATOM     62  C   UNL A   1      47.506  24.654  27.923  1.00  0.00     0.031 C 
ATOM     63  C   UNL A   1      49.016  29.696  28.796  1.00  0.00     0.029 A 
ATOM     64  C   UNL A   1      48.811  29.121  27.552  1.00  0.00     0.049 A 
ATOM     65  H   UNL A   1      48.184  30.032  25.765  1.00  0.00     0.167 HD
ATOM     66  C   UNL A   1      48.329  26.765  27.381  1.00  0.00     0.074 A 
ATOM     67  C   UNL A   1      48.522  25.324  27.352  1.00  0.00     0.031 C 
ATOM     68  C   UNL A   1      49.108  27.816  26.973  1.00  0.00     0.031 A 
BRANCH  55  69
ATOM     69  C   UNL A   1      47.439  33.751  26.861  1.00  0.00    -0.014 A 
ATOM     70  C   UNL A   1      48.180  34.261  25.776  1.00  0.00     0.010 A 
ATOM     71  C   UNL A   1      47.033  34.690  27.831  1.00  0.00     0.010 A 
ATOM     72  C   UNL A   1      48.526  35.614  25.677  1.00  0.00     0.020 A 
ATOM     73  C   UNL A   1      47.384  36.048  27.754  1.00  0.00     0.020 A 
ATOM     74  C   UNL A   1      48.128  36.501  26.672  1.00  0.00     0.054 A 
BRANCH  74  75
ATOM     75  S   UNL A   1      48.568  38.250  26.505  1.00  0.00     0.124 S 
ATOM     76  O   UNL A   1      50.026  38.213  26.575  1.00  0.00    -0.237 OA
ATOM     77  O   UNL A   1      48.008  38.588  25.199  1.00  0.00    -0.237 OA
ATOM     78  O   UNL A   1      47.910  38.885  27.645  1.00  0.00    -0.744 OA
ENDBRANCH  74  75
ENDBRANCH  55  69
BRANCH  56  79
ATOM     79  C   UNL A   1      44.092  24.958  28.711  1.00  0.00    -0.014 A 
ATOM     80  C   UNL A   1      43.750  25.117  27.342  1.00  0.00     0.010 A 
ATOM     81  C   UNL A   1      43.331  24.050  29.466  1.00  0.00     0.010 A 
ATOM     82  C   UNL A   1      42.757  24.336  26.731  1.00  0.00     0.020 A 
ATOM     83  C   UNL A   1      42.310  23.284  28.861  1.00  0.00     0.020 A 
ATOM     84  C   UNL A   1      42.047  23.412  27.492  1.00  0.00     0.054 A 
BRANCH  84  85
ATOM     85  S   UNL A   1      40.739  22.407  26.712  1.00  0.00     0.124 S 
ATOM     86  O   UNL A   1      40.435  21.402  27.728  1.00  0.00    -0.237 OA
ATOM     87  O   UNL A   1      39.681  23.378  26.469  1.00  0.00    -0.237 OA
ATOM     88  O   UNL A   1      41.403  21.902  25.515  1.00  0.00    -0.744 OA
ENDBRANCH  84  85
ENDBRANCH  56  79
BRANCH  68  89
ATOM     89  C   UNL A   1      50.263  27.762  25.984  1.00  0.00    -0.014 A 
ATOM     90  C   UNL A   1      51.571  28.179  26.256  1.00  0.00     0.010 A 
ATOM     91  C   UNL A   1      50.062  27.115  24.734  1.00  0.00     0.010 A 
ATOM     92  C   UNL A   1      52.606  27.992  25.329  1.00  0.00     0.020 A 
ATOM     93  C   UNL A   1      51.096  26.858  23.834  1.00  0.00     0.020 A 
ATOM     94  C   UNL A   1      52.364  27.322  24.130  1.00  0.00     0.054 A 
BRANCH  94  95
ATOM     95  S   UNL A   1      53.732  27.040  22.989  1.00  0.00     0.124 S 
ATOM     96  O   UNL A   1      53.075  26.305  21.911  1.00  0.00    -0.237 OA
ATOM     97  O   UNL A   1      54.153  28.399  22.657  1.00  0.00    -0.237 OA
ATOM     98  O   UNL A   1      54.692  26.269  23.776  1.00  0.00    -0.744 OA
ENDBRANCH  94  95
ENDBRANCH  68  89
ENDBRANCH  42  43
ENDBRANCH  34  37
ENDBRANCH  32  33
ENDBRANCH  31  32
ENDBRANCH   1  31
TORSDOF 19
ENDMDL
