MODEL 1
REMARK VINA RESULT:     -10.9      0.000      0.000
REMARK SMILES CC[C@@](C)(NC(=O)CCc1ccc(OC)c(Br)c1)C(=O)NCCCNC(=O)c1ccc(-c2c3nc(c(-c4ccc(S(=O)(=O)[O-])cc4)c4ccc([nH]4)c(-c4ccc(S(=O)(=O)[O-])cc4)c4nc(c(-c5ccc(S(=O)(=O)[O-])cc5)c5ccc2[nH]5)C=C4)C=C3)cc1
REMARK SMILES IDX 22 1 21 2 19 3 20 4 3 6 4 7 2 8 1 9 5 10 6 11 7 13 8 14 9 15
REMARK SMILES IDX 10 16 11 17 18 18 12 19 16 20 13 21 17 22 14 23 15 24 23 25
REMARK SMILES IDX 24 26 25 27 26 28 27 30 28 31 29 32 87 33 30 34 86 35 31 36
REMARK SMILES IDX 32 37 33 38 80 39 34 40 85 41 79 42 81 43 35 44 84 45 78 46
REMARK SMILES IDX 77 47 36 49 66 50 47 51 65 52 48 53 51 54 64 55 82 56 49 57
REMARK SMILES IDX 50 58 63 60 83 61 52 62 37 63 38 64 46 65 39 66 45 67 40 68
REMARK SMILES IDX 41 69 42 70 43 71 44 72 67 73 68 74 76 75 69 76 75 77 70 78
REMARK SMILES IDX 71 79 72 80 73 81 74 82 53 83 54 84 62 85 55 86 61 87 56 88
REMARK SMILES IDX 57 89 58 90 59 91 60 92
REMARK H PARENT 21 5 5 12 25 29 81 48 51 59
REMARK Flexibility Score: inf
ROOT
ATOM      1  C   UNL A   1      36.154  24.128  25.254  1.00  0.00     0.117 C 
ENDROOT
BRANCH   1   2
ATOM      2  N   UNL A   1      35.391  23.589  24.121  1.00  0.00    -0.354 N 
ATOM      3  C   UNL A   1      34.190  22.894  24.071  1.00  0.00     0.245 C 
ATOM      4  O   UNL A   1      33.566  22.924  23.009  1.00  0.00    -0.272 OA
ATOM      5  H   UNL A   1      35.804  23.749  23.242  1.00  0.00     0.163 HD
BRANCH   3   6
ATOM      6  C   UNL A   1      33.590  22.274  25.366  1.00  0.00     0.116 C 
ATOM      7  C   UNL A   1      34.470  21.020  25.619  1.00  0.00     0.045 C 
BRANCH   6   8
ATOM      8  C   UNL A   1      33.589  23.020  26.737  1.00  0.00     0.035 C 
ATOM      9  C   UNL A   1      33.490  22.257  28.047  1.00  0.00     0.007 C 
ENDBRANCH   6   8
BRANCH   6  10
ATOM     10  N   UNL A   1      32.151  21.993  25.102  1.00  0.00    -0.342 N 
ATOM     11  C   UNL A   1      31.118  22.836  25.490  1.00  0.00     0.221 C 
ATOM     12  H   UNL A   1      31.919  21.164  24.625  1.00  0.00     0.164 HD
ATOM     13  O   UNL A   1      30.222  22.354  26.187  1.00  0.00    -0.275 OA
BRANCH  11  14
ATOM     14  C   UNL A   1      30.990  24.267  24.945  1.00  0.00     0.105 C 
BRANCH  14  15
ATOM     15  C   UNL A   1      30.366  25.333  25.863  1.00  0.00     0.045 C 
BRANCH  15  16
ATOM     16  C   UNL A   1      31.129  26.642  25.870  1.00  0.00    -0.046 A 
ATOM     17  C   UNL A   1      31.197  27.390  27.041  1.00  0.00     0.007 A 
ATOM     18  C   UNL A   1      31.808  27.134  24.748  1.00  0.00     0.023 A 
ATOM     19  C   UNL A   1      32.035  28.503  27.155  1.00  0.00     0.048 A 
ATOM     20  C   UNL A   1      32.606  28.291  24.843  1.00  0.00     0.060 A 
ATOM     21  C   UNL A   1      32.768  28.960  26.065  1.00  0.00     0.133 A 
ATOM     22  Br  UNL A   1      33.440  28.935  23.260  1.00  0.00    -0.047 Br
BRANCH  21  23
ATOM     23  O   UNL A   1      33.632  30.023  26.116  1.00  0.00    -0.496 OA
ATOM     24  C   UNL A   1      34.028  30.476  27.408  1.00  0.00     0.278 C 
ENDBRANCH  21  23
ENDBRANCH  15  16
ENDBRANCH  14  15
ENDBRANCH  11  14
ENDBRANCH   6  10
ENDBRANCH   3   6
ENDBRANCH   1   2
BRANCH   1  25
ATOM     25  C   UNL A   1      37.432  23.406  25.686  1.00  0.00     0.042 C 
BRANCH  25  26
ATOM     26  C   UNL A   1      38.383  24.183  26.582  1.00  0.00     0.118 C 
BRANCH  26  27
ATOM     27  N   UNL A   1      39.600  24.596  25.902  1.00  0.00    -0.352 N 
ATOM     28  C   UNL A   1      40.506  25.592  26.174  1.00  0.00     0.251 C 
ATOM     29  H   UNL A   1      39.814  24.064  25.102  1.00  0.00     0.163 HD
ATOM     30  O   UNL A   1      41.361  25.853  25.329  1.00  0.00    -0.269 OA
BRANCH  28  31
ATOM     31  C   UNL A   1      40.464  26.376  27.432  1.00  0.00     0.039 A 
ATOM     32  C   UNL A   1      41.330  27.468  27.564  1.00  0.00     0.014 A 
ATOM     33  C   UNL A   1      39.642  26.022  28.503  1.00  0.00     0.014 A 
ATOM     34  C   UNL A   1      41.317  28.242  28.729  1.00  0.00     0.010 A 
ATOM     35  C   UNL A   1      39.578  26.835  29.639  1.00  0.00     0.010 A 
ATOM     36  C   UNL A   1      40.408  27.960  29.762  1.00  0.00    -0.014 A 
BRANCH  36  37
ATOM     37  C   UNL A   1      40.290  28.850  30.950  1.00  0.00     0.031 A 
ATOM     38  C   UNL A   1      39.279  29.966  30.984  1.00  0.00     0.074 A 
ATOM     39  C   UNL A   1      41.146  28.693  31.980  1.00  0.00     0.049 A 
ATOM     40  N   UNL A   1      39.084  30.873  31.908  1.00  0.00    -0.248 NA
ATOM     41  C   UNL A   1      38.384  30.091  29.824  1.00  0.00     0.031 C 
ATOM     42  C   UNL A   1      42.195  27.673  32.061  1.00  0.00     0.029 A 
ATOM     43  N   UNL A   1      41.277  29.393  33.154  1.00  0.00    -0.354 N 
ATOM     44  C   UNL A   1      38.058  31.685  31.437  1.00  0.00     0.074 A 
ATOM     45  C   UNL A   1      37.700  31.186  30.126  1.00  0.00     0.031 C 
ATOM     46  C   UNL A   1      42.845  27.801  33.228  1.00  0.00     0.029 A 
ATOM     47  C   UNL A   1      42.294  28.936  33.960  1.00  0.00     0.049 A 
ATOM     48  H   UNL A   1      40.698  30.151  33.398  1.00  0.00     0.167 HD
ATOM     49  C   UNL A   1      37.460  32.740  32.043  1.00  0.00     0.031 A 
ATOM     50  C   UNL A   1      42.748  29.385  35.147  1.00  0.00     0.031 A 
ATOM     51  C   UNL A   1      37.814  33.233  33.349  1.00  0.00     0.049 A 
ATOM     52  C   UNL A   1      42.084  30.572  35.789  1.00  0.00     0.074 A 
ATOM     53  C   UNL A   1      37.227  34.260  34.068  1.00  0.00     0.029 A 
ATOM     54  N   UNL A   1      38.852  32.744  34.128  1.00  0.00    -0.354 N 
ATOM     55  N   UNL A   1      41.071  31.283  35.353  1.00  0.00    -0.248 NA
ATOM     56  C   UNL A   1      42.619  31.012  37.085  1.00  0.00     0.031 C 
ATOM     57  C   UNL A   1      37.944  34.428  35.258  1.00  0.00     0.029 A 
ATOM     58  C   UNL A   1      38.941  33.467  35.307  1.00  0.00     0.049 A 
ATOM     59  H   UNL A   1      39.439  31.993  33.881  1.00  0.00     0.167 HD
ATOM     60  C   UNL A   1      40.837  32.244  36.331  1.00  0.00     0.074 A 
ATOM     61  C   UNL A   1      41.798  32.008  37.389  1.00  0.00     0.031 C 
ATOM     62  C   UNL A   1      39.908  33.232  36.349  1.00  0.00     0.031 A 
BRANCH  49  63
ATOM     63  C   UNL A   1      36.359  33.444  31.292  1.00  0.00    -0.014 A 
ATOM     64  C   UNL A   1      35.097  33.655  31.878  1.00  0.00     0.010 A 
ATOM     65  C   UNL A   1      36.602  33.946  29.999  1.00  0.00     0.010 A 
ATOM     66  C   UNL A   1      34.088  34.313  31.170  1.00  0.00     0.020 A 
ATOM     67  C   UNL A   1      35.605  34.630  29.299  1.00  0.00     0.020 A 
ATOM     68  C   UNL A   1      34.348  34.794  29.883  1.00  0.00     0.054 A 
BRANCH  68  69
ATOM     69  S   UNL A   1      33.022  35.661  28.997  1.00  0.00     0.124 S 
ATOM     70  O   UNL A   1      32.450  34.590  28.187  1.00  0.00    -0.237 OA
ATOM     71  O   UNL A   1      32.177  36.149  30.082  1.00  0.00    -0.237 OA
ATOM     72  O   UNL A   1      33.729  36.699  28.246  1.00  0.00    -0.744 OA
ENDBRANCH  68  69
ENDBRANCH  49  63
BRANCH  50  73
ATOM     73  C   UNL A   1      43.894  28.702  35.810  1.00  0.00    -0.014 A 
ATOM     74  C   UNL A   1      45.212  29.123  35.568  1.00  0.00     0.010 A 
ATOM     75  C   UNL A   1      43.668  27.636  36.702  1.00  0.00     0.010 A 
ATOM     76  C   UNL A   1      46.287  28.482  36.194  1.00  0.00     0.020 A 
ATOM     77  C   UNL A   1      44.737  27.012  37.350  1.00  0.00     0.020 A 
ATOM     78  C   UNL A   1      46.041  27.432  37.084  1.00  0.00     0.054 A 
BRANCH  78  79
ATOM     79  S   UNL A   1      47.446  26.655  37.928  1.00  0.00     0.124 S 
ATOM     80  O   UNL A   1      47.213  25.239  37.665  1.00  0.00    -0.237 OA
ATOM     81  O   UNL A   1      48.593  27.248  37.243  1.00  0.00    -0.237 OA
ATOM     82  O   UNL A   1      47.280  27.070  39.319  1.00  0.00    -0.744 OA
ENDBRANCH  78  79
ENDBRANCH  50  73
BRANCH  62  83
ATOM     83  C   UNL A   1      39.873  34.126  37.561  1.00  0.00    -0.014 A 
ATOM     84  C   UNL A   1      40.662  35.287  37.632  1.00  0.00     0.010 A 
ATOM     85  C   UNL A   1      39.002  33.824  38.624  1.00  0.00     0.010 A 
ATOM     86  C   UNL A   1      40.603  36.114  38.756  1.00  0.00     0.020 A 
ATOM     87  C   UNL A   1      38.919  34.663  39.738  1.00  0.00     0.020 A 
ATOM     88  C   UNL A   1      39.732  35.796  39.803  1.00  0.00     0.054 A 
BRANCH  88  89
ATOM     89  S   UNL A   1      39.643  36.909  41.233  1.00  0.00     0.124 S 
ATOM     90  O   UNL A   1      38.905  38.045  40.688  1.00  0.00    -0.237 OA
ATOM     91  O   UNL A   1      38.925  36.107  42.220  1.00  0.00    -0.237 OA
ATOM     92  O   UNL A   1      41.045  37.174  41.554  1.00  0.00    -0.744 OA
ENDBRANCH  88  89
ENDBRANCH  62  83
ENDBRANCH  36  37
ENDBRANCH  28  31
ENDBRANCH  26  27
ENDBRANCH  25  26
ENDBRANCH   1  25
TORSDOF 19
ENDMDL
MODEL 2
REMARK VINA RESULT:     -10.8      3.670      9.465
REMARK SMILES CC[C@@](C)(NC(=O)CCc1ccc(OC)c(Br)c1)C(=O)NCCCNC(=O)c1ccc(-c2c3nc(c(-c4ccc(S(=O)(=O)[O-])cc4)c4ccc([nH]4)c(-c4ccc(S(=O)(=O)[O-])cc4)c4nc(c(-c5ccc(S(=O)(=O)[O-])cc5)c5ccc2[nH]5)C=C4)C=C3)cc1
REMARK SMILES IDX 22 1 21 2 19 3 20 4 3 6 4 7 2 8 1 9 5 10 6 11 7 13 8 14 9 15
REMARK SMILES IDX 10 16 11 17 18 18 12 19 16 20 13 21 17 22 14 23 15 24 23 25
REMARK SMILES IDX 24 26 25 27 26 28 27 30 28 31 29 32 87 33 30 34 86 35 31 36
REMARK SMILES IDX 32 37 33 38 80 39 34 40 85 41 79 42 81 43 35 44 84 45 78 46
REMARK SMILES IDX 77 47 36 49 66 50 47 51 65 52 48 53 51 54 64 55 82 56 49 57
REMARK SMILES IDX 50 58 63 60 83 61 52 62 37 63 38 64 46 65 39 66 45 67 40 68
REMARK SMILES IDX 41 69 42 70 43 71 44 72 67 73 68 74 76 75 69 76 75 77 70 78
REMARK SMILES IDX 71 79 72 80 73 81 74 82 53 83 54 84 62 85 55 86 61 87 56 88
REMARK SMILES IDX 57 89 58 90 59 91 60 92
REMARK H PARENT 21 5 5 12 25 29 81 48 51 59
REMARK Flexibility Score: inf
ROOT
ATOM      1  C   UNL A   1      34.824  25.046  25.387  1.00  0.00     0.117 C 
ENDROOT
BRANCH   1   2
ATOM      2  N   UNL A   1      33.602  25.256  26.175  1.00  0.00    -0.354 N 
ATOM      3  C   UNL A   1      32.496  26.067  25.956  1.00  0.00     0.245 C 
ATOM      4  O   UNL A   1      31.449  25.757  26.526  1.00  0.00    -0.272 OA
ATOM      5  H   UNL A   1      33.560  24.729  27.005  1.00  0.00     0.163 HD
BRANCH   3   6
ATOM      6  C   UNL A   1      32.554  27.196  24.886  1.00  0.00     0.116 C 
ATOM      7  C   UNL A   1      32.773  28.486  25.721  1.00  0.00     0.045 C 
BRANCH   6   8
ATOM      8  C   UNL A   1      33.660  27.261  23.787  1.00  0.00     0.035 C 
ATOM      9  C   UNL A   1      33.996  28.568  23.088  1.00  0.00     0.007 C 
ENDBRANCH   6   8
BRANCH   6  10
ATOM     10  N   UNL A   1      31.278  27.149  24.118  1.00  0.00    -0.342 N 
ATOM     11  C   UNL A   1      31.048  26.281  23.058  1.00  0.00     0.221 C 
ATOM     12  H   UNL A   1      30.558  27.767  24.376  1.00  0.00     0.164 HD
ATOM     13  O   UNL A   1      30.706  26.777  21.983  1.00  0.00    -0.275 OA
BRANCH  11  14
ATOM     14  C   UNL A   1      31.050  24.756  23.243  1.00  0.00     0.105 C 
BRANCH  14  15
ATOM     15  C   UNL A   1      32.307  23.980  22.811  1.00  0.00     0.045 C 
BRANCH  15  16
ATOM     16  C   UNL A   1      32.372  22.576  23.377  1.00  0.00    -0.046 A 
ATOM     17  C   UNL A   1      32.450  22.395  24.754  1.00  0.00     0.007 A 
ATOM     18  C   UNL A   1      32.325  21.429  22.575  1.00  0.00     0.023 A 
ATOM     19  C   UNL A   1      32.326  21.131  25.338  1.00  0.00     0.048 A 
ATOM     20  C   UNL A   1      32.262  20.149  23.159  1.00  0.00     0.060 A 
ATOM     21  C   UNL A   1      32.210  19.990  24.551  1.00  0.00     0.133 A 
ATOM     22  Br  UNL A   1      32.272  18.637  22.004  1.00  0.00    -0.047 Br
BRANCH  21  23
ATOM     23  O   UNL A   1      32.052  18.726  25.057  1.00  0.00    -0.496 OA
ATOM     24  C   UNL A   1      33.223  18.065  25.528  1.00  0.00     0.278 C 
ENDBRANCH  21  23
ENDBRANCH  15  16
ENDBRANCH  14  15
ENDBRANCH  11  14
ENDBRANCH   6  10
ENDBRANCH   3   6
ENDBRANCH   1   2
BRANCH   1  25
ATOM     25  C   UNL A   1      35.804  23.958  25.833  1.00  0.00     0.042 C 
BRANCH  25  26
ATOM     26  C   UNL A   1      37.027  23.745  24.955  1.00  0.00     0.118 C 
BRANCH  26  27
ATOM     27  N   UNL A   1      37.954  22.764  25.495  1.00  0.00    -0.352 N 
ATOM     28  C   UNL A   1      39.075  22.900  26.277  1.00  0.00     0.251 C 
ATOM     29  H   UNL A   1      37.738  21.833  25.257  1.00  0.00     0.163 HD
ATOM     30  O   UNL A   1      39.794  21.916  26.446  1.00  0.00    -0.269 OA
BRANCH  28  31
ATOM     31  C   UNL A   1      39.456  24.194  26.893  1.00  0.00     0.039 A 
ATOM     32  C   UNL A   1      39.026  24.462  28.198  1.00  0.00     0.014 A 
ATOM     33  C   UNL A   1      40.167  25.171  26.193  1.00  0.00     0.014 A 
ATOM     34  C   UNL A   1      39.371  25.665  28.822  1.00  0.00     0.010 A 
ATOM     35  C   UNL A   1      40.571  26.343  26.839  1.00  0.00     0.010 A 
ATOM     36  C   UNL A   1      40.187  26.601  28.164  1.00  0.00    -0.014 A 
BRANCH  36  37
ATOM     37  C   UNL A   1      40.671  27.825  28.859  1.00  0.00     0.031 A 
ATOM     38  C   UNL A   1      42.044  27.873  29.476  1.00  0.00     0.074 A 
ATOM     39  C   UNL A   1      39.842  28.880  28.993  1.00  0.00     0.049 A 
ATOM     40  N   UNL A   1      42.601  28.831  30.173  1.00  0.00    -0.248 NA
ATOM     41  C   UNL A   1      42.894  26.685  29.306  1.00  0.00     0.031 C 
ATOM     42  C   UNL A   1      38.474  28.954  28.472  1.00  0.00     0.029 A 
ATOM     43  N   UNL A   1      40.022  30.092  29.615  1.00  0.00    -0.354 N 
ATOM     44  C   UNL A   1      43.857  28.359  30.537  1.00  0.00     0.074 A 
ATOM     45  C   UNL A   1      43.963  27.012  30.018  1.00  0.00     0.031 C 
ATOM     46  C   UNL A   1      37.950  30.151  28.776  1.00  0.00     0.029 A 
ATOM     47  C   UNL A   1      38.921  30.915  29.551  1.00  0.00     0.049 A 
ATOM     48  H   UNL A   1      40.860  30.348  30.063  1.00  0.00     0.167 HD
ATOM     49  C   UNL A   1      44.838  28.992  31.228  1.00  0.00     0.031 A 
ATOM     50  C   UNL A   1      38.706  32.140  30.070  1.00  0.00     0.031 A 
ATOM     51  C   UNL A   1      44.733  30.333  31.741  1.00  0.00     0.049 A 
ATOM     52  C   UNL A   1      39.800  32.811  30.853  1.00  0.00     0.074 A 
ATOM     53  C   UNL A   1      45.694  31.078  32.403  1.00  0.00     0.029 A 
ATOM     54  N   UNL A   1      43.600  31.129  31.658  1.00  0.00    -0.354 N 
ATOM     55  N   UNL A   1      41.004  32.370  31.128  1.00  0.00    -0.248 NA
ATOM     56  C   UNL A   1      39.508  34.148  31.390  1.00  0.00     0.031 C 
ATOM     57  C   UNL A   1      45.125  32.302  32.769  1.00  0.00     0.029 A 
ATOM     58  C   UNL A   1      43.828  32.345  32.283  1.00  0.00     0.049 A 
ATOM     59  H   UNL A   1      42.758  30.869  31.219  1.00  0.00     0.167 HD
ATOM     60  C   UNL A   1      41.620  33.384  31.855  1.00  0.00     0.074 A 
ATOM     61  C   UNL A   1      40.663  34.467  31.957  1.00  0.00     0.031 C 
ATOM     62  C   UNL A   1      42.866  33.413  32.388  1.00  0.00     0.031 A 
BRANCH  49  63
ATOM     63  C   UNL A   1      46.115  28.232  31.480  1.00  0.00    -0.014 A 
ATOM     64  C   UNL A   1      47.178  28.269  30.559  1.00  0.00     0.010 A 
ATOM     65  C   UNL A   1      46.276  27.510  32.678  1.00  0.00     0.010 A 
ATOM     66  C   UNL A   1      48.358  27.563  30.810  1.00  0.00     0.020 A 
ATOM     67  C   UNL A   1      47.465  26.826  32.945  1.00  0.00     0.020 A 
ATOM     68  C   UNL A   1      48.492  26.843  32.000  1.00  0.00     0.054 A 
BRANCH  68  69
ATOM     69  S   UNL A   1      50.044  25.951  32.305  1.00  0.00     0.124 S 
ATOM     70  O   UNL A   1      50.647  25.935  30.976  1.00  0.00    -0.237 OA
ATOM     71  O   UNL A   1      50.712  26.798  33.288  1.00  0.00    -0.237 OA
ATOM     72  O   UNL A   1      49.603  24.649  32.805  1.00  0.00    -0.744 OA
ENDBRANCH  68  69
ENDBRANCH  49  63
BRANCH  50  73
ATOM     73  C   UNL A   1      37.394  32.814  29.860  1.00  0.00    -0.014 A 
ATOM     74  C   UNL A   1      37.164  33.585  28.708  1.00  0.00     0.010 A 
ATOM     75  C   UNL A   1      36.362  32.674  30.808  1.00  0.00     0.010 A 
ATOM     76  C   UNL A   1      35.931  34.216  28.512  1.00  0.00     0.020 A 
ATOM     77  C   UNL A   1      35.120  33.280  30.602  1.00  0.00     0.020 A 
ATOM     78  C   UNL A   1      34.915  34.056  29.460  1.00  0.00     0.054 A 
BRANCH  78  79
ATOM     79  S   UNL A   1      33.305  34.835  29.156  1.00  0.00     0.124 S 
ATOM     80  O   UNL A   1      32.715  34.843  30.490  1.00  0.00    -0.237 OA
ATOM     81  O   UNL A   1      33.683  36.141  28.621  1.00  0.00    -0.237 OA
ATOM     82  O   UNL A   1      32.669  33.938  28.193  1.00  0.00    -0.744 OA
ENDBRANCH  78  79
ENDBRANCH  50  73
BRANCH  62  83
ATOM     83  C   UNL A   1      43.277  34.664  33.119  1.00  0.00    -0.014 A 
ATOM     84  C   UNL A   1      43.070  34.801  34.503  1.00  0.00     0.010 A 
ATOM     85  C   UNL A   1      43.922  35.700  32.418  1.00  0.00     0.010 A 
ATOM     86  C   UNL A   1      43.474  35.962  35.167  1.00  0.00     0.020 A 
ATOM     87  C   UNL A   1      44.352  36.850  33.083  1.00  0.00     0.020 A 
ATOM     88  C   UNL A   1      44.111  36.980  34.452  1.00  0.00     0.054 A 
BRANCH  88  89
ATOM     89  S   UNL A   1      44.664  38.459  35.346  1.00  0.00     0.124 S 
ATOM     90  O   UNL A   1      46.092  38.482  35.042  1.00  0.00    -0.237 OA
ATOM     91  O   UNL A   1      43.873  39.521  34.729  1.00  0.00    -0.237 OA
ATOM     92  O   UNL A   1      44.328  38.169  36.738  1.00  0.00    -0.744 OA
ENDBRANCH  88  89
ENDBRANCH  62  83
ENDBRANCH  36  37
ENDBRANCH  28  31
ENDBRANCH  26  27
ENDBRANCH  25  26
ENDBRANCH   1  25
TORSDOF 19
ENDMDL
MODEL 3
REMARK VINA RESULT:     -10.7      6.498     11.538
REMARK SMILES CC[C@@](C)(NC(=O)CCc1ccc(OC)c(Br)c1)C(=O)NCCCNC(=O)c1ccc(-c2c3nc(c(-c4ccc(S(=O)(=O)[O-])cc4)c4ccc([nH]4)c(-c4ccc(S(=O)(=O)[O-])cc4)c4nc(c(-c5ccc(S(=O)(=O)[O-])cc5)c5ccc2[nH]5)C=C4)C=C3)cc1
REMARK SMILES IDX 22 1 21 2 19 3 20 4 3 6 4 7 2 8 1 9 5 10 6 11 7 13 8 14 9 15
REMARK SMILES IDX 10 16 11 17 18 18 12 19 16 20 13 21 17 22 14 23 15 24 23 25
REMARK SMILES IDX 24 26 25 27 26 28 27 30 28 31 29 32 87 33 30 34 86 35 31 36
REMARK SMILES IDX 32 37 33 38 80 39 34 40 85 41 79 42 81 43 35 44 84 45 78 46
REMARK SMILES IDX 77 47 36 49 66 50 47 51 65 52 48 53 51 54 64 55 82 56 49 57
REMARK SMILES IDX 50 58 63 60 83 61 52 62 37 63 38 64 46 65 39 66 45 67 40 68
REMARK SMILES IDX 41 69 42 70 43 71 44 72 67 73 68 74 76 75 69 76 75 77 70 78
REMARK SMILES IDX 71 79 72 80 73 81 74 82 53 83 54 84 62 85 55 86 61 87 56 88
REMARK SMILES IDX 57 89 58 90 59 91 60 92
REMARK H PARENT 21 5 5 12 25 29 81 48 51 59
REMARK Flexibility Score: inf
ROOT
ATOM      1  C   UNL A   1      33.633  29.854  26.778  1.00  0.00     0.117 C 
ENDROOT
BRANCH   1   2
ATOM      2  N   UNL A   1      32.390  29.350  27.377  1.00  0.00    -0.354 N 
ATOM      3  C   UNL A   1      31.665  28.188  27.144  1.00  0.00     0.245 C 
ATOM      4  O   UNL A   1      30.916  27.803  28.042  1.00  0.00    -0.272 OA
ATOM      5  H   UNL A   1      32.004  29.938  28.064  1.00  0.00     0.163 HD
BRANCH   3   6
ATOM      6  C   UNL A   1      31.947  27.330  25.876  1.00  0.00     0.116 C 
ATOM      7  C   UNL A   1      33.372  26.766  26.120  1.00  0.00     0.045 C 
BRANCH   6   8
ATOM      8  C   UNL A   1      31.099  26.074  25.502  1.00  0.00     0.035 C 
ATOM      9  C   UNL A   1      29.773  26.210  24.773  1.00  0.00     0.007 C 
ENDBRANCH   6   8
BRANCH   6  10
ATOM     10  N   UNL A   1      31.815  28.225  24.693  1.00  0.00    -0.342 N 
ATOM     11  C   UNL A   1      32.575  28.091  23.537  1.00  0.00     0.221 C 
ATOM     12  H   UNL A   1      31.153  28.951  24.731  1.00  0.00     0.164 HD
ATOM     13  O   UNL A   1      33.216  29.075  23.163  1.00  0.00    -0.275 OA
BRANCH  11  14
ATOM     14  C   UNL A   1      32.500  26.835  22.657  1.00  0.00     0.105 C 
BRANCH  14  15
ATOM     15  C   UNL A   1      33.783  26.005  22.477  1.00  0.00     0.045 C 
BRANCH  15  16
ATOM     16  C   UNL A   1      33.702  24.627  23.101  1.00  0.00    -0.046 A 
ATOM     17  C   UNL A   1      32.631  23.795  22.788  1.00  0.00     0.007 A 
ATOM     18  C   UNL A   1      34.681  24.124  23.968  1.00  0.00     0.023 A 
ATOM     19  C   UNL A   1      32.601  22.455  23.186  1.00  0.00     0.048 A 
ATOM     20  C   UNL A   1      34.621  22.791  24.420  1.00  0.00     0.060 A 
ATOM     21  C   UNL A   1      33.605  21.926  23.991  1.00  0.00     0.133 A 
ATOM     22  Br  UNL A   1      35.948  22.204  25.650  1.00  0.00    -0.047 Br
BRANCH  21  23
ATOM     23  O   UNL A   1      33.653  20.615  24.389  1.00  0.00    -0.496 OA
ATOM     24  C   UNL A   1      32.588  20.147  25.211  1.00  0.00     0.278 C 
ENDBRANCH  21  23
ENDBRANCH  15  16
ENDBRANCH  14  15
ENDBRANCH  11  14
ENDBRANCH   6  10
ENDBRANCH   3   6
ENDBRANCH   1   2
BRANCH   1  25
ATOM     25  C   UNL A   1      34.908  29.847  27.625  1.00  0.00     0.042 C 
BRANCH  25  26
ATOM     26  C   UNL A   1      35.419  31.200  28.096  1.00  0.00     0.118 C 
BRANCH  26  27
ATOM     27  N   UNL A   1      35.422  31.337  29.542  1.00  0.00    -0.352 N 
ATOM     28  C   UNL A   1      36.327  30.940  30.496  1.00  0.00     0.251 C 
ATOM     29  H   UNL A   1      34.631  31.800  29.904  1.00  0.00     0.163 HD
ATOM     30  O   UNL A   1      36.001  31.015  31.680  1.00  0.00    -0.269 OA
BRANCH  28  31
ATOM     31  C   UNL A   1      37.661  30.399  30.142  1.00  0.00     0.039 A 
ATOM     32  C   UNL A   1      38.007  30.318  28.788  1.00  0.00     0.014 A 
ATOM     33  C   UNL A   1      38.546  29.910  31.105  1.00  0.00     0.014 A 
ATOM     34  C   UNL A   1      39.260  29.824  28.408  1.00  0.00     0.010 A 
ATOM     35  C   UNL A   1      39.824  29.481  30.730  1.00  0.00     0.010 A 
ATOM     36  C   UNL A   1      40.200  29.442  29.379  1.00  0.00    -0.014 A 
BRANCH  36  37
ATOM     37  C   UNL A   1      41.581  29.038  28.999  1.00  0.00     0.031 A 
ATOM     38  C   UNL A   1      42.702  30.043  28.973  1.00  0.00     0.074 A 
ATOM     39  C   UNL A   1      41.814  27.769  28.608  1.00  0.00     0.049 A 
ATOM     40  N   UNL A   1      43.948  29.879  28.605  1.00  0.00    -0.248 NA
ATOM     41  C   UNL A   1      42.379  31.414  29.399  1.00  0.00     0.031 C 
ATOM     42  C   UNL A   1      40.811  26.702  28.554  1.00  0.00     0.029 A 
ATOM     43  N   UNL A   1      42.966  27.158  28.175  1.00  0.00    -0.354 N 
ATOM     44  C   UNL A   1      44.554  31.124  28.738  1.00  0.00     0.074 A 
ATOM     45  C   UNL A   1      43.527  32.042  29.183  1.00  0.00     0.031 C 
ATOM     46  C   UNL A   1      41.394  25.568  28.134  1.00  0.00     0.029 A 
ATOM     47  C   UNL A   1      42.800  25.833  27.846  1.00  0.00     0.049 A 
ATOM     48  H   UNL A   1      43.830  27.625  28.107  1.00  0.00     0.167 HD
ATOM     49  C   UNL A   1      45.848  31.469  28.524  1.00  0.00     0.031 A 
ATOM     50  C   UNL A   1      43.671  24.931  27.353  1.00  0.00     0.031 A 
ATOM     51  C   UNL A   1      46.869  30.554  28.086  1.00  0.00     0.049 A 
ATOM     52  C   UNL A   1      45.095  25.344  27.100  1.00  0.00     0.074 A 
ATOM     53  C   UNL A   1      48.219  30.799  27.896  1.00  0.00     0.029 A 
ATOM     54  N   UNL A   1      46.657  29.222  27.761  1.00  0.00    -0.354 N 
ATOM     55  N   UNL A   1      45.660  26.511  27.296  1.00  0.00    -0.248 NA
ATOM     56  C   UNL A   1      46.000  24.316  26.566  1.00  0.00     0.031 C 
ATOM     57  C   UNL A   1      48.812  29.631  27.404  1.00  0.00     0.029 A 
ATOM     58  C   UNL A   1      47.844  28.641  27.343  1.00  0.00     0.049 A 
ATOM     59  H   UNL A   1      45.791  28.758  27.819  1.00  0.00     0.167 HD
ATOM     60  C   UNL A   1      46.991  26.353  26.926  1.00  0.00     0.074 A 
ATOM     61  C   UNL A   1      47.151  24.972  26.517  1.00  0.00     0.031 C 
ATOM     62  C   UNL A   1      47.990  27.269  26.927  1.00  0.00     0.031 A 
BRANCH  49  63
ATOM     63  C   UNL A   1      46.232  32.909  28.752  1.00  0.00    -0.014 A 
ATOM     64  C   UNL A   1      46.080  33.872  27.738  1.00  0.00     0.010 A 
ATOM     65  C   UNL A   1      46.706  33.316  30.014  1.00  0.00     0.010 A 
ATOM     66  C   UNL A   1      46.436  35.204  27.967  1.00  0.00     0.020 A 
ATOM     67  C   UNL A   1      47.036  34.652  30.255  1.00  0.00     0.020 A 
ATOM     68  C   UNL A   1      46.916  35.585  29.224  1.00  0.00     0.054 A 
BRANCH  68  69
ATOM     69  S   UNL A   1      47.352  37.325  29.495  1.00  0.00     0.124 S 
ATOM     70  O   UNL A   1      46.479  37.684  30.609  1.00  0.00    -0.237 OA
ATOM     71  O   UNL A   1      48.776  37.254  29.810  1.00  0.00    -0.237 OA
ATOM     72  O   UNL A   1      47.030  37.966  28.220  1.00  0.00    -0.744 OA
ENDBRANCH  68  69
ENDBRANCH  49  63
BRANCH  50  73
ATOM     73  C   UNL A   1      43.219  23.541  27.067  1.00  0.00    -0.014 A 
ATOM     74  C   UNL A   1      42.851  23.163  25.765  1.00  0.00     0.010 A 
ATOM     75  C   UNL A   1      43.169  22.583  28.098  1.00  0.00     0.010 A 
ATOM     76  C   UNL A   1      42.429  21.856  25.499  1.00  0.00     0.020 A 
ATOM     77  C   UNL A   1      42.774  21.270  27.830  1.00  0.00     0.020 A 
ATOM     78  C   UNL A   1      42.397  20.916  26.534  1.00  0.00     0.054 A 
BRANCH  78  79
ATOM     79  S   UNL A   1      41.903  19.213  26.154  1.00  0.00     0.124 S 
ATOM     80  O   UNL A   1      40.508  19.381  25.760  1.00  0.00    -0.237 OA
ATOM     81  O   UNL A   1      42.826  18.849  25.081  1.00  0.00    -0.237 OA
ATOM     82  O   UNL A   1      42.119  18.506  27.414  1.00  0.00    -0.744 OA
ENDBRANCH  78  79
ENDBRANCH  50  73
BRANCH  62  83
ATOM     83  C   UNL A   1      49.354  26.806  26.487  1.00  0.00    -0.014 A 
ATOM     84  C   UNL A   1      50.168  26.031  27.331  1.00  0.00     0.010 A 
ATOM     85  C   UNL A   1      49.808  27.112  25.190  1.00  0.00     0.010 A 
ATOM     86  C   UNL A   1      51.423  25.595  26.898  1.00  0.00     0.020 A 
ATOM     87  C   UNL A   1      51.050  26.654  24.744  1.00  0.00     0.020 A 
ATOM     88  C   UNL A   1      51.857  25.910  25.607  1.00  0.00     0.054 A 
BRANCH  88  89
ATOM     89  S   UNL A   1      53.472  25.296  25.055  1.00  0.00     0.124 S 
ATOM     90  O   UNL A   1      53.428  25.574  23.622  1.00  0.00    -0.237 OA
ATOM     91  O   UNL A   1      54.406  26.112  25.826  1.00  0.00    -0.237 OA
ATOM     92  O   UNL A   1      53.446  23.880  25.416  1.00  0.00    -0.744 OA
ENDBRANCH  88  89
ENDBRANCH  62  83
ENDBRANCH  36  37
ENDBRANCH  28  31
ENDBRANCH  26  27
ENDBRANCH  25  26
ENDBRANCH   1  25
TORSDOF 19
ENDMDL
