MODEL 1
REMARK VINA RESULT:     -12.1      0.000      0.000
REMARK SMILES Cc1cc(C(=O)NCCCNC(=O)c2ccc(-c3c4nc(c(-c5ccc(S(=O)(=O)[O-])cc5)c5ccc([nH]5)c(-c5ccc(S(=O)(=O)[O-])cc5)c5nc(c(-c6ccc(S(=O)(=O)[O-])cc6)c6ccc3[nH]6)C=C5)C=C4)cc2)nn1[C@H]1CCS(=O)(=O)C1
REMARK SMILES IDX 10 1 9 2 8 3 7 4 5 5 6 6 4 8 1 9 2 10 3 11 75 12 74 13 76 14
REMARK SMILES IDX 77 15 82 16 78 17 79 18 80 19 81 20 11 21 12 22 13 24 14 25
REMARK SMILES IDX 15 26 73 27 16 28 72 29 17 30 18 31 19 32 66 33 20 34 71 35
REMARK SMILES IDX 65 36 67 37 21 38 70 39 64 40 63 41 22 43 52 44 33 45 51 46
REMARK SMILES IDX 34 47 37 48 50 49 68 50 35 51 36 52 49 54 69 55 38 56 23 57
REMARK SMILES IDX 24 58 32 59 25 60 31 61 26 62 27 63 28 64 29 65 30 66 53 67
REMARK SMILES IDX 54 68 62 69 55 70 61 71 56 72 57 73 58 74 59 75 60 76 39 77
REMARK SMILES IDX 40 78 48 79 41 80 47 81 42 82 43 83 44 84 45 85 46 86
REMARK H PARENT 7 7 11 23 67 42 37 53
REMARK Flexibility Score: inf
ROOT
ATOM      1  C   UNL A   1      40.208  22.377  27.270  1.00  0.00     0.118 C 
ENDROOT
BRANCH   1   2
ATOM      2  C   UNL A   1      39.106  22.877  26.359  1.00  0.00     0.042 C 
BRANCH   2   3
ATOM      3  C   UNL A   1      38.303  21.719  25.751  1.00  0.00     0.118 C 
BRANCH   3   4
ATOM      4  N   UNL A   1      37.819  22.017  24.413  1.00  0.00    -0.351 N 
ATOM      5  C   UNL A   1      36.645  22.610  23.995  1.00  0.00     0.271 C 
ATOM      6  O   UNL A   1      36.564  22.893  22.798  1.00  0.00    -0.267 OA
ATOM      7  H   UNL A   1      38.429  21.752  23.686  1.00  0.00     0.163 HD
BRANCH   5   8
ATOM      8  C   UNL A   1      35.566  22.906  24.958  1.00  0.00     0.150 A 
ATOM      9  C   UNL A   1      33.308  22.367  27.805  1.00  0.00     0.066 C 
ATOM     10  C   UNL A   1      34.044  22.831  26.607  1.00  0.00     0.036 A 
ATOM     11  C   UNL A   1      34.815  22.039  25.782  1.00  0.00     0.059 A 
ATOM     12  N   UNL A   1      34.147  24.085  26.064  1.00  0.00    -0.265 N 
ATOM     13  N   UNL A   1      35.152  24.167  25.170  1.00  0.00    -0.167 NA
BRANCH  12  14
ATOM     14  C   UNL A   1      33.339  25.285  26.196  1.00  0.00     0.123 C 
ATOM     15  C   UNL A   1      33.770  26.357  25.172  1.00  0.00     0.044 C 
ATOM     16  C   UNL A   1      31.842  25.145  25.997  1.00  0.00     0.164 C 
ATOM     17  C   UNL A   1      32.799  27.524  25.302  1.00  0.00     0.139 C 
ATOM     18  S   UNL A   1      31.260  26.813  25.852  1.00  0.00     0.152 S 
ATOM     19  O   UNL A   1      30.970  27.298  27.192  1.00  0.00    -0.229 OA
ATOM     20  O   UNL A   1      30.286  26.864  24.791  1.00  0.00    -0.229 OA
ENDBRANCH  12  14
ENDBRANCH   5   8
ENDBRANCH   3   4
ENDBRANCH   2   3
ENDBRANCH   1   2
BRANCH   1  21
ATOM     21  N   UNL A   1      41.498  22.207  26.573  1.00  0.00    -0.352 N 
ATOM     22  C   UNL A   1      42.314  23.169  25.986  1.00  0.00     0.251 C 
ATOM     23  H   UNL A   1      41.828  21.281  26.515  1.00  0.00     0.163 HD
ATOM     24  O   UNL A   1      43.159  22.854  25.158  1.00  0.00    -0.269 OA
BRANCH  22  25
ATOM     25  C   UNL A   1      42.140  24.573  26.396  1.00  0.00     0.039 A 
ATOM     26  C   UNL A   1      41.401  25.530  25.696  1.00  0.00     0.014 A 
ATOM     27  C   UNL A   1      42.688  24.887  27.622  1.00  0.00     0.014 A 
ATOM     28  C   UNL A   1      41.228  26.780  26.292  1.00  0.00     0.010 A 
ATOM     29  C   UNL A   1      42.079  25.852  28.344  1.00  0.00     0.010 A 
ATOM     30  C   UNL A   1      41.601  26.926  27.634  1.00  0.00    -0.014 A 
BRANCH  30  31
ATOM     31  C   UNL A   1      41.492  28.142  28.414  1.00  0.00     0.031 A 
ATOM     32  C   UNL A   1      42.534  29.137  28.101  1.00  0.00     0.074 A 
ATOM     33  C   UNL A   1      40.370  28.455  29.108  1.00  0.00     0.049 A 
ATOM     34  N   UNL A   1      43.574  29.416  28.809  1.00  0.00    -0.248 NA
ATOM     35  C   UNL A   1      42.535  29.749  26.762  1.00  0.00     0.031 C 
ATOM     36  C   UNL A   1      39.087  27.735  29.200  1.00  0.00     0.029 A 
ATOM     37  N   UNL A   1      40.100  29.589  29.795  1.00  0.00    -0.354 N 
ATOM     38  C   UNL A   1      44.224  30.431  28.125  1.00  0.00     0.074 A 
ATOM     39  C   UNL A   1      43.691  30.414  26.785  1.00  0.00     0.031 C 
ATOM     40  C   UNL A   1      38.129  28.567  29.676  1.00  0.00     0.029 A 
ATOM     41  C   UNL A   1      38.758  29.810  30.082  1.00  0.00     0.049 A 
ATOM     42  H   UNL A   1      40.807  30.217  30.073  1.00  0.00     0.167 HD
ATOM     43  C   UNL A   1      44.931  31.389  28.787  1.00  0.00     0.031 A 
ATOM     44  C   UNL A   1      38.216  30.956  30.573  1.00  0.00     0.031 A 
ATOM     45  C   UNL A   1      45.085  31.061  30.184  1.00  0.00     0.049 A 
ATOM     46  C   UNL A   1      39.340  31.711  31.197  1.00  0.00     0.074 A 
ATOM     47  C   UNL A   1      45.623  29.988  30.870  1.00  0.00     0.029 A 
ATOM     48  N   UNL A   1      44.228  31.680  31.069  1.00  0.00    -0.354 N 
ATOM     49  N   UNL A   1      40.006  31.264  32.230  1.00  0.00    -0.248 NA
ATOM     50  C   UNL A   1      40.058  32.666  30.364  1.00  0.00     0.031 C 
ATOM     51  C   UNL A   1      44.686  29.721  31.913  1.00  0.00     0.029 A 
ATOM     52  C   UNL A   1      43.691  30.701  31.869  1.00  0.00     0.049 A 
ATOM     53  H   UNL A   1      44.036  32.645  31.118  1.00  0.00     0.167 HD
ATOM     54  C   UNL A   1      41.340  31.529  31.942  1.00  0.00     0.074 A 
ATOM     55  C   UNL A   1      41.302  32.464  30.813  1.00  0.00     0.031 C 
ATOM     56  C   UNL A   1      42.352  30.745  32.427  1.00  0.00     0.031 A 
BRANCH  43  57
ATOM     57  C   UNL A   1      45.115  32.793  28.279  1.00  0.00    -0.014 A 
ATOM     58  C   UNL A   1      46.419  33.242  27.997  1.00  0.00     0.010 A 
ATOM     59  C   UNL A   1      44.093  33.764  28.318  1.00  0.00     0.010 A 
ATOM     60  C   UNL A   1      46.695  34.603  27.825  1.00  0.00     0.020 A 
ATOM     61  C   UNL A   1      44.349  35.118  28.104  1.00  0.00     0.020 A 
ATOM     62  C   UNL A   1      45.657  35.533  27.893  1.00  0.00     0.054 A 
BRANCH  62  63
ATOM     63  S   UNL A   1      46.041  37.296  27.774  1.00  0.00     0.124 S 
ATOM     64  O   UNL A   1      47.385  37.273  27.206  1.00  0.00    -0.237 OA
ATOM     65  O   UNL A   1      44.984  37.781  26.889  1.00  0.00    -0.237 OA
ATOM     66  O   UNL A   1      45.950  37.759  29.158  1.00  0.00    -0.744 OA
ENDBRANCH  62  63
ENDBRANCH  43  57
BRANCH  44  67
ATOM     67  C   UNL A   1      36.923  31.581  30.170  1.00  0.00    -0.014 A 
ATOM     68  C   UNL A   1      35.964  31.987  31.118  1.00  0.00     0.010 A 
ATOM     69  C   UNL A   1      36.745  32.031  28.843  1.00  0.00     0.010 A 
ATOM     70  C   UNL A   1      34.906  32.851  30.763  1.00  0.00     0.020 A 
ATOM     71  C   UNL A   1      35.696  32.887  28.482  1.00  0.00     0.020 A 
ATOM     72  C   UNL A   1      34.792  33.314  29.449  1.00  0.00     0.054 A 
BRANCH  72  73
ATOM     73  S   UNL A   1      33.540  34.569  29.034  1.00  0.00     0.124 S 
ATOM     74  O   UNL A   1      34.349  35.645  28.469  1.00  0.00    -0.237 OA
ATOM     75  O   UNL A   1      32.683  33.862  28.087  1.00  0.00    -0.237 OA
ATOM     76  O   UNL A   1      32.915  34.872  30.320  1.00  0.00    -0.744 OA
ENDBRANCH  72  73
ENDBRANCH  44  67
BRANCH  56  77
ATOM     77  C   UNL A   1      42.027  29.683  33.461  1.00  0.00    -0.014 A 
ATOM     78  C   UNL A   1      41.679  28.353  33.146  1.00  0.00     0.010 A 
ATOM     79  C   UNL A   1      42.263  30.002  34.809  1.00  0.00     0.010 A 
ATOM     80  C   UNL A   1      41.547  27.381  34.154  1.00  0.00     0.020 A 
ATOM     81  C   UNL A   1      42.149  29.038  35.815  1.00  0.00     0.020 A 
ATOM     82  C   UNL A   1      41.782  27.734  35.486  1.00  0.00     0.054 A 
BRANCH  82  83
ATOM     83  S   UNL A   1      41.642  26.474  36.788  1.00  0.00     0.124 S 
ATOM     84  O   UNL A   1      42.878  26.660  37.543  1.00  0.00    -0.237 OA
ATOM     85  O   UNL A   1      40.416  26.859  37.483  1.00  0.00    -0.237 OA
ATOM     86  O   UNL A   1      41.556  25.216  36.047  1.00  0.00    -0.744 OA
ENDBRANCH  82  83
ENDBRANCH  56  77
ENDBRANCH  30  31
ENDBRANCH  22  25
ENDBRANCH   1  21
TORSDOF 14
ENDMDL
MODEL 2
REMARK VINA RESULT:     -12.0      2.806      3.848
REMARK SMILES Cc1cc(C(=O)NCCCNC(=O)c2ccc(-c3c4nc(c(-c5ccc(S(=O)(=O)[O-])cc5)c5ccc([nH]5)c(-c5ccc(S(=O)(=O)[O-])cc5)c5nc(c(-c6ccc(S(=O)(=O)[O-])cc6)c6ccc3[nH]6)C=C5)C=C4)cc2)nn1[C@H]1CCS(=O)(=O)C1
REMARK SMILES IDX 10 1 9 2 8 3 7 4 5 5 6 6 4 8 1 9 2 10 3 11 75 12 74 13 76 14
REMARK SMILES IDX 77 15 82 16 78 17 79 18 80 19 81 20 11 21 12 22 13 24 14 25
REMARK SMILES IDX 15 26 73 27 16 28 72 29 17 30 18 31 19 32 66 33 20 34 71 35
REMARK SMILES IDX 65 36 67 37 21 38 70 39 64 40 63 41 22 43 52 44 33 45 51 46
REMARK SMILES IDX 34 47 37 48 50 49 68 50 35 51 36 52 49 54 69 55 38 56 23 57
REMARK SMILES IDX 24 58 32 59 25 60 31 61 26 62 27 63 28 64 29 65 30 66 53 67
REMARK SMILES IDX 54 68 62 69 55 70 61 71 56 72 57 73 58 74 59 75 60 76 39 77
REMARK SMILES IDX 40 78 48 79 41 80 47 81 42 82 43 83 44 84 45 85 46 86
REMARK H PARENT 7 7 11 23 67 42 37 53
REMARK Flexibility Score: inf
ROOT
ATOM      1  C   UNL A   1      37.853  22.750  25.405  1.00  0.00     0.118 C 
ENDROOT
BRANCH   1   2
ATOM      2  C   UNL A   1      36.529  22.292  25.984  1.00  0.00     0.042 C 
BRANCH   2   3
ATOM      3  C   UNL A   1      35.494  23.426  25.999  1.00  0.00     0.118 C 
BRANCH   3   4
ATOM      4  N   UNL A   1      34.487  23.248  27.032  1.00  0.00    -0.351 N 
ATOM      5  C   UNL A   1      33.407  22.391  27.095  1.00  0.00     0.271 C 
ATOM      6  O   UNL A   1      32.807  22.335  28.170  1.00  0.00    -0.267 OA
ATOM      7  H   UNL A   1      34.593  23.837  27.815  1.00  0.00     0.163 HD
BRANCH   5   8
ATOM      8  C   UNL A   1      33.027  21.572  25.926  1.00  0.00     0.150 A 
ATOM      9  C   UNL A   1      31.989  20.843  22.479  1.00  0.00     0.066 C 
ATOM     10  C   UNL A   1      32.364  20.837  23.911  1.00  0.00     0.036 A 
ATOM     11  C   UNL A   1      32.314  21.923  24.759  1.00  0.00     0.059 A 
ATOM     12  N   UNL A   1      32.839  19.818  24.696  1.00  0.00    -0.265 N 
ATOM     13  N   UNL A   1      33.363  20.273  25.852  1.00  0.00    -0.167 NA
BRANCH  12  14
ATOM     14  C   UNL A   1      32.801  18.372  24.562  1.00  0.00     0.123 C 
ATOM     15  C   UNL A   1      33.597  17.910  23.323  1.00  0.00     0.044 C 
ATOM     16  C   UNL A   1      33.363  17.549  25.706  1.00  0.00     0.164 C 
ATOM     17  C   UNL A   1      33.603  16.387  23.329  1.00  0.00     0.139 C 
ATOM     18  S   UNL A   1      33.499  15.911  25.044  1.00  0.00     0.152 S 
ATOM     19  O   UNL A   1      32.230  15.237  25.269  1.00  0.00    -0.229 OA
ATOM     20  O   UNL A   1      34.753  15.349  25.477  1.00  0.00    -0.229 OA
ENDBRANCH  12  14
ENDBRANCH   5   8
ENDBRANCH   3   4
ENDBRANCH   2   3
ENDBRANCH   1   2
BRANCH   1  21
ATOM     21  N   UNL A   1      39.006  22.011  25.954  1.00  0.00    -0.352 N 
ATOM     22  C   UNL A   1      40.176  22.503  26.524  1.00  0.00     0.251 C 
ATOM     23  H   UNL A   1      38.938  21.029  25.912  1.00  0.00     0.163 HD
ATOM     24  O   UNL A   1      41.174  21.800  26.615  1.00  0.00    -0.269 OA
BRANCH  22  25
ATOM     25  C   UNL A   1      40.176  23.889  27.024  1.00  0.00     0.039 A 
ATOM     26  C   UNL A   1      39.067  24.739  27.040  1.00  0.00     0.014 A 
ATOM     27  C   UNL A   1      41.363  24.295  27.598  1.00  0.00     0.014 A 
ATOM     28  C   UNL A   1      39.208  25.977  27.669  1.00  0.00     0.010 A 
ATOM     29  C   UNL A   1      41.292  25.203  28.594  1.00  0.00     0.010 A 
ATOM     30  C   UNL A   1      40.358  26.198  28.436  1.00  0.00    -0.014 A 
BRANCH  30  31
ATOM     31  C   UNL A   1      40.671  27.414  29.160  1.00  0.00     0.031 A 
ATOM     32  C   UNL A   1      41.690  28.248  28.496  1.00  0.00     0.074 A 
ATOM     33  C   UNL A   1      39.880  27.884  30.156  1.00  0.00     0.049 A 
ATOM     34  N   UNL A   1      42.928  28.369  28.832  1.00  0.00    -0.248 NA
ATOM     35  C   UNL A   1      41.354  28.858  27.200  1.00  0.00     0.031 C 
ATOM     36  C   UNL A   1      38.604  27.358  30.673  1.00  0.00     0.029 A 
ATOM     37  N   UNL A   1      40.001  29.043  30.845  1.00  0.00    -0.354 N 
ATOM     38  C   UNL A   1      43.464  29.283  27.937  1.00  0.00     0.074 A 
ATOM     39  C   UNL A   1      42.540  29.348  26.832  1.00  0.00     0.031 C 
ATOM     40  C   UNL A   1      37.970  28.318  31.389  1.00  0.00     0.029 A 
ATOM     41  C   UNL A   1      38.861  29.455  31.526  1.00  0.00     0.049 A 
ATOM     42  H   UNL A   1      40.839  29.559  30.861  1.00  0.00     0.167 HD
ATOM     43  C   UNL A   1      44.470  30.124  28.304  1.00  0.00     0.031 A 
ATOM     44  C   UNL A   1      38.667  30.666  32.113  1.00  0.00     0.031 A 
ATOM     45  C   UNL A   1      45.009  29.772  29.597  1.00  0.00     0.049 A 
ATOM     46  C   UNL A   1      40.024  31.247  32.323  1.00  0.00     0.074 A 
ATOM     47  C   UNL A   1      45.580  28.630  30.124  1.00  0.00     0.029 A 
ATOM     48  N   UNL A   1      44.569  30.505  30.678  1.00  0.00    -0.354 N 
ATOM     49  N   UNL A   1      40.912  30.704  33.114  1.00  0.00    -0.248 NA
ATOM     50  C   UNL A   1      40.569  32.091  31.268  1.00  0.00     0.031 C 
ATOM     51  C   UNL A   1      44.992  28.497  31.418  1.00  0.00     0.029 A 
ATOM     52  C   UNL A   1      44.180  29.612  31.646  1.00  0.00     0.049 A 
ATOM     53  H   UNL A   1      44.539  31.488  30.744  1.00  0.00     0.167 HD
ATOM     54  C   UNL A   1      42.111  30.773  32.413  1.00  0.00     0.074 A 
ATOM     55  C   UNL A   1      41.850  31.708  31.315  1.00  0.00     0.031 C 
ATOM     56  C   UNL A   1      43.104  29.848  32.591  1.00  0.00     0.031 A 
BRANCH  43  57
ATOM     57  C   UNL A   1      44.678  31.489  27.706  1.00  0.00    -0.014 A 
ATOM     58  C   UNL A   1      45.811  31.705  26.900  1.00  0.00     0.010 A 
ATOM     59  C   UNL A   1      43.951  32.627  28.115  1.00  0.00     0.010 A 
ATOM     60  C   UNL A   1      46.231  32.999  26.573  1.00  0.00     0.020 A 
ATOM     61  C   UNL A   1      44.335  33.919  27.758  1.00  0.00     0.020 A 
ATOM     62  C   UNL A   1      45.495  34.098  27.016  1.00  0.00     0.054 A 
BRANCH  62  63
ATOM     63  S   UNL A   1      46.105  35.766  26.676  1.00  0.00     0.124 S 
ATOM     64  O   UNL A   1      46.858  35.564  25.443  1.00  0.00    -0.237 OA
ATOM     65  O   UNL A   1      44.864  36.526  26.548  1.00  0.00    -0.237 OA
ATOM     66  O   UNL A   1      46.906  36.084  27.857  1.00  0.00    -0.744 OA
ENDBRANCH  62  63
ENDBRANCH  43  57
BRANCH  44  67
ATOM     67  C   UNL A   1      37.413  31.474  32.108  1.00  0.00    -0.014 A 
ATOM     68  C   UNL A   1      36.756  31.838  33.300  1.00  0.00     0.010 A 
ATOM     69  C   UNL A   1      37.004  32.125  30.923  1.00  0.00     0.010 A 
ATOM     70  C   UNL A   1      35.772  32.850  33.311  1.00  0.00     0.020 A 
ATOM     71  C   UNL A   1      36.026  33.129  30.926  1.00  0.00     0.020 A 
ATOM     72  C   UNL A   1      35.430  33.505  32.125  1.00  0.00     0.054 A 
BRANCH  72  73
ATOM     73  S   UNL A   1      34.297  34.931  32.170  1.00  0.00     0.124 S 
ATOM     74  O   UNL A   1      33.127  34.380  32.848  1.00  0.00    -0.237 OA
ATOM     75  O   UNL A   1      35.059  35.918  32.929  1.00  0.00    -0.237 OA
ATOM     76  O   UNL A   1      34.099  35.260  30.759  1.00  0.00    -0.744 OA
ENDBRANCH  72  73
ENDBRANCH  44  67
BRANCH  56  77
ATOM     77  C   UNL A   1      42.977  28.841  33.718  1.00  0.00    -0.014 A 
ATOM     78  C   UNL A   1      43.630  28.960  34.962  1.00  0.00     0.010 A 
ATOM     79  C   UNL A   1      42.011  27.830  33.574  1.00  0.00     0.010 A 
ATOM     80  C   UNL A   1      43.343  28.076  36.019  1.00  0.00     0.020 A 
ATOM     81  C   UNL A   1      41.708  26.958  34.624  1.00  0.00     0.020 A 
ATOM     82  C   UNL A   1      42.382  27.077  35.839  1.00  0.00     0.054 A 
BRANCH  82  83
ATOM     83  S   UNL A   1      41.986  25.953  37.211  1.00  0.00     0.124 S 
ATOM     84  O   UNL A   1      42.944  26.355  38.237  1.00  0.00    -0.237 OA
ATOM     85  O   UNL A   1      40.588  26.267  37.497  1.00  0.00    -0.237 OA
ATOM     86  O   UNL A   1      42.210  24.622  36.647  1.00  0.00    -0.744 OA
ENDBRANCH  82  83
ENDBRANCH  56  77
ENDBRANCH  30  31
ENDBRANCH  22  25
ENDBRANCH   1  21
TORSDOF 14
ENDMDL
MODEL 3
REMARK VINA RESULT:     -11.9      1.953      2.814
REMARK SMILES Cc1cc(C(=O)NCCCNC(=O)c2ccc(-c3c4nc(c(-c5ccc(S(=O)(=O)[O-])cc5)c5ccc([nH]5)c(-c5ccc(S(=O)(=O)[O-])cc5)c5nc(c(-c6ccc(S(=O)(=O)[O-])cc6)c6ccc3[nH]6)C=C5)C=C4)cc2)nn1[C@H]1CCS(=O)(=O)C1
REMARK SMILES IDX 10 1 9 2 8 3 7 4 5 5 6 6 4 8 1 9 2 10 3 11 75 12 74 13 76 14
REMARK SMILES IDX 77 15 82 16 78 17 79 18 80 19 81 20 11 21 12 22 13 24 14 25
REMARK SMILES IDX 15 26 73 27 16 28 72 29 17 30 18 31 19 32 66 33 20 34 71 35
REMARK SMILES IDX 65 36 67 37 21 38 70 39 64 40 63 41 22 43 52 44 33 45 51 46
REMARK SMILES IDX 34 47 37 48 50 49 68 50 35 51 36 52 49 54 69 55 38 56 23 57
REMARK SMILES IDX 24 58 32 59 25 60 31 61 26 62 27 63 28 64 29 65 30 66 53 67
REMARK SMILES IDX 54 68 62 69 55 70 61 71 56 72 57 73 58 74 59 75 60 76 39 77
REMARK SMILES IDX 40 78 48 79 41 80 47 81 42 82 43 83 44 84 45 85 46 86
REMARK H PARENT 7 7 11 23 67 42 37 53
REMARK Flexibility Score: inf
ROOT
ATOM      1  C   UNL A   1      40.862  22.197  27.562  1.00  0.00     0.118 C 
ENDROOT
BRANCH   1   2
ATOM      2  C   UNL A   1      39.616  22.884  27.040  1.00  0.00     0.042 C 
BRANCH   2   3
ATOM      3  C   UNL A   1      38.780  21.948  26.155  1.00  0.00     0.118 C 
BRANCH   3   4
ATOM      4  N   UNL A   1      38.292  22.603  24.954  1.00  0.00    -0.351 N 
ATOM      5  C   UNL A   1      37.008  22.748  24.470  1.00  0.00     0.271 C 
ATOM      6  O   UNL A   1      36.862  23.499  23.503  1.00  0.00    -0.267 OA
ATOM      7  H   UNL A   1      38.993  23.009  24.393  1.00  0.00     0.163 HD
BRANCH   5   8
ATOM      8  C   UNL A   1      35.877  22.050  25.113  1.00  0.00     0.150 A 
ATOM      9  C   UNL A   1      33.133  21.494  27.491  1.00  0.00     0.066 C 
ATOM     10  C   UNL A   1      34.181  21.430  26.447  1.00  0.00     0.036 A 
ATOM     11  C   UNL A   1      35.314  22.213  26.398  1.00  0.00     0.059 A 
ATOM     12  N   UNL A   1      34.271  20.636  25.333  1.00  0.00    -0.265 N 
ATOM     13  N   UNL A   1      35.198  21.087  24.465  1.00  0.00    -0.167 NA
BRANCH  12  14
ATOM     14  C   UNL A   1      33.638  19.381  24.964  1.00  0.00     0.123 C 
ATOM     15  C   UNL A   1      32.649  19.584  23.796  1.00  0.00     0.044 C 
ATOM     16  C   UNL A   1      34.541  18.251  24.508  1.00  0.00     0.164 C 
ATOM     17  C   UNL A   1      32.127  18.209  23.400  1.00  0.00     0.139 C 
ATOM     18  S   UNL A   1      33.435  17.064  23.797  1.00  0.00     0.152 S 
ATOM     19  O   UNL A   1      32.983  16.185  24.864  1.00  0.00    -0.229 OA
ATOM     20  O   UNL A   1      34.030  16.556  22.587  1.00  0.00    -0.229 OA
ENDBRANCH  12  14
ENDBRANCH   5   8
ENDBRANCH   3   4
ENDBRANCH   2   3
ENDBRANCH   1   2
BRANCH   1  21
ATOM     21  N   UNL A   1      41.952  22.150  26.568  1.00  0.00    -0.352 N 
ATOM     22  C   UNL A   1      42.482  23.177  25.794  1.00  0.00     0.251 C 
ATOM     23  H   UNL A   1      42.363  21.265  26.435  1.00  0.00     0.163 HD
ATOM     24  O   UNL A   1      43.129  22.932  24.784  1.00  0.00    -0.269 OA
BRANCH  22  25
ATOM     25  C   UNL A   1      42.251  24.565  26.228  1.00  0.00     0.039 A 
ATOM     26  C   UNL A   1      41.395  25.473  25.601  1.00  0.00     0.014 A 
ATOM     27  C   UNL A   1      42.879  24.912  27.406  1.00  0.00     0.014 A 
ATOM     28  C   UNL A   1      41.192  26.708  26.220  1.00  0.00     0.010 A 
ATOM     29  C   UNL A   1      42.271  25.832  28.185  1.00  0.00     0.010 A 
ATOM     30  C   UNL A   1      41.666  26.874  27.526  1.00  0.00    -0.014 A 
BRANCH  30  31
ATOM     31  C   UNL A   1      41.544  28.079  28.323  1.00  0.00     0.031 A 
ATOM     32  C   UNL A   1      42.591  29.079  28.042  1.00  0.00     0.074 A 
ATOM     33  C   UNL A   1      40.411  28.381  29.004  1.00  0.00     0.049 A 
ATOM     34  N   UNL A   1      43.620  29.347  28.770  1.00  0.00    -0.248 NA
ATOM     35  C   UNL A   1      42.613  29.710  26.712  1.00  0.00     0.031 C 
ATOM     36  C   UNL A   1      39.127  27.660  29.064  1.00  0.00     0.029 A 
ATOM     37  N   UNL A   1      40.130  29.505  29.704  1.00  0.00    -0.354 N 
ATOM     38  C   UNL A   1      44.280  30.373  28.112  1.00  0.00     0.074 A 
ATOM     39  C   UNL A   1      43.768  30.376  26.763  1.00  0.00     0.031 C 
ATOM     40  C   UNL A   1      38.162  28.484  29.537  1.00  0.00     0.029 A 
ATOM     41  C   UNL A   1      38.783  29.721  29.972  1.00  0.00     0.049 A 
ATOM     42  H   UNL A   1      40.832  30.128  30.002  1.00  0.00     0.167 HD
ATOM     43  C   UNL A   1      44.976  31.321  28.799  1.00  0.00     0.031 A 
ATOM     44  C   UNL A   1      38.233  30.859  30.472  1.00  0.00     0.031 A 
ATOM     45  C   UNL A   1      45.108  30.972  30.194  1.00  0.00     0.049 A 
ATOM     46  C   UNL A   1      39.347  31.606  31.125  1.00  0.00     0.074 A 
ATOM     47  C   UNL A   1      45.635  29.889  30.871  1.00  0.00     0.029 A 
ATOM     48  N   UNL A   1      44.237  31.577  31.074  1.00  0.00    -0.354 N 
ATOM     49  N   UNL A   1      39.997  31.144  32.161  1.00  0.00    -0.248 NA
ATOM     50  C   UNL A   1      40.078  32.573  30.317  1.00  0.00     0.031 C 
ATOM     51  C   UNL A   1      44.682  29.606  31.895  1.00  0.00     0.029 A 
ATOM     52  C   UNL A   1      43.687  30.586  31.851  1.00  0.00     0.049 A 
ATOM     53  H   UNL A   1      44.044  32.541  31.134  1.00  0.00     0.167 HD
ATOM     54  C   UNL A   1      41.335  31.413  31.898  1.00  0.00     0.074 A 
ATOM     55  C   UNL A   1      41.315  32.365  30.783  1.00  0.00     0.031 C 
ATOM     56  C   UNL A   1      42.339  30.622  32.387  1.00  0.00     0.031 A 
BRANCH  43  57
ATOM     57  C   UNL A   1      45.167  32.732  28.315  1.00  0.00    -0.014 A 
ATOM     58  C   UNL A   1      46.384  33.381  28.596  1.00  0.00     0.010 A 
ATOM     59  C   UNL A   1      44.109  33.528  27.829  1.00  0.00     0.010 A 
ATOM     60  C   UNL A   1      46.514  34.767  28.457  1.00  0.00     0.020 A 
ATOM     61  C   UNL A   1      44.241  34.904  27.645  1.00  0.00     0.020 A 
ATOM     62  C   UNL A   1      45.434  35.521  27.993  1.00  0.00     0.054 A 
BRANCH  62  63
ATOM     63  S   UNL A   1      45.580  37.321  27.918  1.00  0.00     0.124 S 
ATOM     64  O   UNL A   1      46.744  37.492  27.055  1.00  0.00    -0.237 OA
ATOM     65  O   UNL A   1      44.296  37.709  27.339  1.00  0.00    -0.237 OA
ATOM     66  O   UNL A   1      45.771  37.707  29.315  1.00  0.00    -0.744 OA
ENDBRANCH  62  63
ENDBRANCH  43  57
BRANCH  44  67
ATOM     67  C   UNL A   1      36.946  31.490  30.058  1.00  0.00    -0.014 A 
ATOM     68  C   UNL A   1      35.966  31.869  30.996  1.00  0.00     0.010 A 
ATOM     69  C   UNL A   1      36.795  31.973  28.739  1.00  0.00     0.010 A 
ATOM     70  C   UNL A   1      34.913  32.738  30.640  1.00  0.00     0.020 A 
ATOM     71  C   UNL A   1      35.750  32.834  28.378  1.00  0.00     0.020 A 
ATOM     72  C   UNL A   1      34.825  33.234  29.336  1.00  0.00     0.054 A 
BRANCH  72  73
ATOM     73  S   UNL A   1      33.576  34.495  28.926  1.00  0.00     0.124 S 
ATOM     74  O   UNL A   1      32.998  34.799  30.233  1.00  0.00    -0.237 OA
ATOM     75  O   UNL A   1      34.381  35.557  28.330  1.00  0.00    -0.237 OA
ATOM     76  O   UNL A   1      32.682  33.806  27.997  1.00  0.00    -0.744 OA
ENDBRANCH  72  73
ENDBRANCH  44  67
BRANCH  56  77
ATOM     77  C   UNL A   1      41.998  29.545  33.400  1.00  0.00    -0.014 A 
ATOM     78  C   UNL A   1      41.667  28.217  33.060  1.00  0.00     0.010 A 
ATOM     79  C   UNL A   1      42.202  29.848  34.757  1.00  0.00     0.010 A 
ATOM     80  C   UNL A   1      41.519  27.231  34.052  1.00  0.00     0.020 A 
ATOM     81  C   UNL A   1      42.072  28.870  35.748  1.00  0.00     0.020 A 
ATOM     82  C   UNL A   1      41.721  27.568  35.394  1.00  0.00     0.054 A 
BRANCH  82  83
ATOM     83  S   UNL A   1      41.561  26.291  36.676  1.00  0.00     0.124 S 
ATOM     84  O   UNL A   1      42.918  26.202  37.208  1.00  0.00    -0.237 OA
ATOM     85  O   UNL A   1      40.566  26.861  37.582  1.00  0.00    -0.237 OA
ATOM     86  O   UNL A   1      41.110  25.111  35.938  1.00  0.00    -0.744 OA
ENDBRANCH  82  83
ENDBRANCH  56  77
ENDBRANCH  30  31
ENDBRANCH  22  25
ENDBRANCH   1  21
TORSDOF 14
ENDMDL
