MODEL 1
REMARK VINA RESULT:     -11.7      0.000      0.000
REMARK SMILES O=C(NCCCNC(=O)c1ccc(N[C@@H]2CCCS(=O)(=O)C2)c(F)c1F)c1ccc(-c2c3nc(c(-c4ccc(S(=O)(=O)[O-])cc4)c4ccc([nH]4)c(-c4ccc(S(=O)(=O)[O-])cc4)c4nc(c(-c5ccc(S(=O)(=O)[O-])cc5)c5ccc2[nH]5)C=C4)C=C3)cc1
REMARK SMILES IDX 4 1 3 2 1 3 2 4 27 6 28 7 86 8 29 9 85 10 30 11 31 12 32 13
REMARK SMILES IDX 79 14 33 15 84 16 78 17 80 18 34 19 83 20 77 21 76 22 35 24
REMARK SMILES IDX 65 25 46 26 64 27 47 28 50 29 63 30 81 31 48 32 49 33 62 35
REMARK SMILES IDX 82 36 51 37 36 38 37 39 45 40 38 41 44 42 39 43 40 44 41 45
REMARK SMILES IDX 42 46 43 47 66 48 67 49 75 50 68 51 74 52 69 53 70 54 71 55
REMARK SMILES IDX 72 56 73 57 52 58 53 59 61 60 54 61 60 62 55 63 56 64 57 65
REMARK SMILES IDX 58 66 59 67 5 68 6 69 7 70 8 71 9 73 10 74 11 75 25 76 12 77
REMARK SMILES IDX 23 78 26 79 13 80 24 81 14 82 15 84 16 85 22 86 17 87 19 88
REMARK SMILES IDX 18 89 20 90 21 91
REMARK H PARENT 3 5 80 23 50 34 7 72 14 83
REMARK Flexibility Score: inf
ROOT
ATOM      1  C   UNL A   1      36.646  23.931  25.207  1.00  0.00     0.118 C 
ENDROOT
BRANCH   1   2
ATOM      2  N   UNL A   1      37.676  22.933  25.472  1.00  0.00    -0.352 N 
ATOM      3  O   UNL A   1      39.681  22.121  26.093  1.00  0.00    -0.269 OA
ATOM      4  C   UNL A   1      38.882  23.051  26.125  1.00  0.00     0.251 C 
ATOM      5  H   UNL A   1      37.478  22.032  25.128  1.00  0.00     0.163 HD
BRANCH   4   6
ATOM      6  C   UNL A   1      39.223  24.305  26.831  1.00  0.00     0.039 A 
ATOM      7  C   UNL A   1      39.929  25.315  26.179  1.00  0.00     0.014 A 
ATOM      8  C   UNL A   1      38.840  24.474  28.164  1.00  0.00     0.014 A 
ATOM      9  C   UNL A   1      40.435  26.382  26.907  1.00  0.00     0.010 A 
ATOM     10  C   UNL A   1      39.239  25.619  28.862  1.00  0.00     0.010 A 
ATOM     11  C   UNL A   1      40.080  26.563  28.253  1.00  0.00    -0.014 A 
BRANCH  11  12
ATOM     12  C   UNL A   1      40.556  27.778  28.964  1.00  0.00     0.031 A 
ATOM     13  C   UNL A   1      41.971  27.891  29.464  1.00  0.00     0.074 A 
ATOM     14  C   UNL A   1      39.702  28.811  29.109  1.00  0.00     0.049 A 
ATOM     15  N   UNL A   1      42.555  28.906  30.050  1.00  0.00    -0.248 NA
ATOM     16  C   UNL A   1      42.843  26.718  29.295  1.00  0.00     0.031 C 
ATOM     17  C   UNL A   1      38.304  28.819  28.663  1.00  0.00     0.029 A 
ATOM     18  N   UNL A   1      39.885  30.063  29.636  1.00  0.00    -0.354 N 
ATOM     19  C   UNL A   1      43.848  28.490  30.344  1.00  0.00     0.074 A 
ATOM     20  C   UNL A   1      43.957  27.119  29.894  1.00  0.00     0.031 C 
ATOM     21  C   UNL A   1      37.783  30.037  28.866  1.00  0.00     0.029 A 
ATOM     22  C   UNL A   1      38.776  30.869  29.532  1.00  0.00     0.049 A 
ATOM     23  H   UNL A   1      40.729  30.357  30.051  1.00  0.00     0.167 HD
ATOM     24  C   UNL A   1      44.852  29.186  30.932  1.00  0.00     0.031 A 
ATOM     25  C   UNL A   1      38.569  32.135  29.937  1.00  0.00     0.031 A 
ATOM     26  C   UNL A   1      44.733  30.550  31.380  1.00  0.00     0.049 A 
ATOM     27  C   UNL A   1      39.685  32.867  30.621  1.00  0.00     0.074 A 
ATOM     28  C   UNL A   1      45.701  31.355  31.958  1.00  0.00     0.029 A 
ATOM     29  N   UNL A   1      43.575  31.312  31.309  1.00  0.00    -0.354 N 
ATOM     30  N   UNL A   1      40.911  32.465  30.859  1.00  0.00    -0.248 NA
ATOM     31  C   UNL A   1      39.389  34.226  31.092  1.00  0.00     0.031 C 
ATOM     32  C   UNL A   1      45.111  32.578  32.294  1.00  0.00     0.029 A 
ATOM     33  C   UNL A   1      43.795  32.565  31.862  1.00  0.00     0.049 A 
ATOM     34  H   UNL A   1      42.722  31.008  30.923  1.00  0.00     0.167 HD
ATOM     35  C   UNL A   1      41.541  33.531  31.487  1.00  0.00     0.074 A 
ATOM     36  C   UNL A   1      40.566  34.601  31.573  1.00  0.00     0.031 C 
ATOM     37  C   UNL A   1      42.813  33.616  31.949  1.00  0.00     0.031 A 
BRANCH  24  38
ATOM     38  C   UNL A   1      46.159  28.469  31.166  1.00  0.00    -0.014 A 
ATOM     39  C   UNL A   1      47.199  28.508  30.220  1.00  0.00     0.010 A 
ATOM     40  C   UNL A   1      46.362  27.773  32.373  1.00  0.00     0.010 A 
ATOM     41  C   UNL A   1      48.397  27.824  30.456  1.00  0.00     0.020 A 
ATOM     42  C   UNL A   1      47.569  27.115  32.626  1.00  0.00     0.020 A 
ATOM     43  C   UNL A   1      48.573  27.128  31.655  1.00  0.00     0.054 A 
BRANCH  43  44
ATOM     44  S   UNL A   1      50.138  26.253  31.935  1.00  0.00     0.124 S 
ATOM     45  O   UNL A   1      51.044  26.968  31.041  1.00  0.00    -0.237 OA
ATOM     46  O   UNL A   1      50.369  26.461  33.362  1.00  0.00    -0.237 OA
ATOM     47  O   UNL A   1      49.841  24.876  31.549  1.00  0.00    -0.744 OA
ENDBRANCH  43  44
ENDBRANCH  24  38
BRANCH  25  48
ATOM     48  C   UNL A   1      37.247  32.779  29.708  1.00  0.00    -0.014 A 
ATOM     49  C   UNL A   1      36.266  32.775  30.713  1.00  0.00     0.010 A 
ATOM     50  C   UNL A   1      36.974  33.423  28.487  1.00  0.00     0.010 A 
ATOM     51  C   UNL A   1      35.031  33.391  30.497  1.00  0.00     0.020 A 
ATOM     52  C   UNL A   1      35.753  34.069  28.280  1.00  0.00     0.020 A 
ATOM     53  C   UNL A   1      34.783  34.038  29.282  1.00  0.00     0.054 A 
BRANCH  53  54
ATOM     54  S   UNL A   1      33.192  34.873  29.043  1.00  0.00     0.124 S 
ATOM     55  O   UNL A   1      33.609  36.189  28.569  1.00  0.00    -0.237 OA
ATOM     56  O   UNL A   1      32.535  34.022  28.054  1.00  0.00    -0.237 OA
ATOM     57  O   UNL A   1      32.589  34.849  30.374  1.00  0.00    -0.744 OA
ENDBRANCH  53  54
ENDBRANCH  25  48
BRANCH  37  58
ATOM     58  C   UNL A   1      43.233  34.930  32.556  1.00  0.00    -0.014 A 
ATOM     59  C   UNL A   1      43.131  35.163  33.939  1.00  0.00     0.010 A 
ATOM     60  C   UNL A   1      43.765  35.934  31.728  1.00  0.00     0.010 A 
ATOM     61  C   UNL A   1      43.514  36.396  34.476  1.00  0.00     0.020 A 
ATOM     62  C   UNL A   1      44.178  37.156  32.266  1.00  0.00     0.020 A 
ATOM     63  C   UNL A   1      44.033  37.385  33.635  1.00  0.00     0.054 A 
BRANCH  63  64
ATOM     64  S   UNL A   1      44.549  38.965  34.360  1.00  0.00     0.124 S 
ATOM     65  O   UNL A   1      43.380  39.806  34.118  1.00  0.00    -0.237 OA
ATOM     66  O   UNL A   1      44.792  38.613  35.757  1.00  0.00    -0.237 OA
ATOM     67  O   UNL A   1      45.743  39.323  33.597  1.00  0.00    -0.744 OA
ENDBRANCH  63  64
ENDBRANCH  37  58
ENDBRANCH  11  12
ENDBRANCH   4   6
ENDBRANCH   1   2
BRANCH   1  68
ATOM     68  C   UNL A   1      35.297  23.318  24.878  1.00  0.00     0.042 C 
BRANCH  68  69
ATOM     69  C   UNL A   1      34.147  24.301  24.977  1.00  0.00     0.118 C 
BRANCH  69  70
ATOM     70  N   UNL A   1      33.135  23.893  25.949  1.00  0.00    -0.352 N 
ATOM     71  C   UNL A   1      32.048  24.580  26.434  1.00  0.00     0.254 C 
ATOM     72  H   UNL A   1      33.250  22.985  26.312  1.00  0.00     0.163 HD
ATOM     73  O   UNL A   1      31.356  24.105  27.326  1.00  0.00    -0.269 OA
BRANCH  71  74
ATOM     74  C   UNL A   1      31.694  25.871  25.830  1.00  0.00     0.078 A 
ATOM     75  C   UNL A   1      30.591  25.940  24.981  1.00  0.00     0.019 A 
ATOM     76  C   UNL A   1      32.454  27.007  26.069  1.00  0.00     0.173 A 
ATOM     77  C   UNL A   1      30.347  27.102  24.255  1.00  0.00     0.030 A 
ATOM     78  C   UNL A   1      32.156  28.186  25.385  1.00  0.00     0.182 A 
ATOM     79  F   UNL A   1      33.499  26.979  26.909  1.00  0.00    -0.203 F 
ATOM     80  C   UNL A   1      31.120  28.253  24.430  1.00  0.00     0.074 A 
ATOM     81  F   UNL A   1      32.906  29.279  25.607  1.00  0.00    -0.201 F 
BRANCH  80  82
ATOM     82  N   UNL A   1      30.917  29.425  23.715  1.00  0.00    -0.379 N 
ATOM     83  H   UNL A   1      31.728  29.916  23.450  1.00  0.00     0.160 HD
BRANCH  82  84
ATOM     84  C   UNL A   1      29.637  30.021  23.305  1.00  0.00     0.094 C 
ATOM     85  C   UNL A   1      29.303  29.604  21.854  1.00  0.00     0.027 C 
ATOM     86  C   UNL A   1      29.613  31.509  23.652  1.00  0.00     0.161 C 
ATOM     87  C   UNL A   1      28.112  30.310  21.216  1.00  0.00     0.018 C 
ATOM     88  S   UNL A   1      28.177  32.323  23.024  1.00  0.00     0.152 S 
ATOM     89  C   UNL A   1      28.207  31.820  21.322  1.00  0.00     0.137 C 
ATOM     90  O   UNL A   1      28.418  33.750  23.059  1.00  0.00    -0.229 OA
ATOM     91  O   UNL A   1      27.006  31.740  23.649  1.00  0.00    -0.229 OA
ENDBRANCH  82  84
ENDBRANCH  80  82
ENDBRANCH  71  74
ENDBRANCH  69  70
ENDBRANCH  68  69
ENDBRANCH   1  68
TORSDOF 15
ENDMDL
MODEL 2
REMARK VINA RESULT:     -11.7      3.816      9.194
REMARK SMILES O=C(NCCCNC(=O)c1ccc(N[C@@H]2CCCS(=O)(=O)C2)c(F)c1F)c1ccc(-c2c3nc(c(-c4ccc(S(=O)(=O)[O-])cc4)c4ccc([nH]4)c(-c4ccc(S(=O)(=O)[O-])cc4)c4nc(c(-c5ccc(S(=O)(=O)[O-])cc5)c5ccc2[nH]5)C=C4)C=C3)cc1
REMARK SMILES IDX 4 1 3 2 1 3 2 4 27 6 28 7 86 8 29 9 85 10 30 11 31 12 32 13
REMARK SMILES IDX 79 14 33 15 84 16 78 17 80 18 34 19 83 20 77 21 76 22 35 24
REMARK SMILES IDX 65 25 46 26 64 27 47 28 50 29 63 30 81 31 48 32 49 33 62 35
REMARK SMILES IDX 82 36 51 37 36 38 37 39 45 40 38 41 44 42 39 43 40 44 41 45
REMARK SMILES IDX 42 46 43 47 66 48 67 49 75 50 68 51 74 52 69 53 70 54 71 55
REMARK SMILES IDX 72 56 73 57 52 58 53 59 61 60 54 61 60 62 55 63 56 64 57 65
REMARK SMILES IDX 58 66 59 67 5 68 6 69 7 70 8 71 9 73 10 74 11 75 25 76 12 77
REMARK SMILES IDX 23 78 26 79 13 80 24 81 14 82 15 84 16 85 22 86 17 87 19 88
REMARK SMILES IDX 18 89 20 90 21 91
REMARK H PARENT 3 5 80 23 50 34 7 72 14 83
REMARK Flexibility Score: inf
ROOT
ATOM      1  C   UNL A   1      33.846  28.112  26.561  1.00  0.00     0.118 C 
ENDROOT
BRANCH   1   2
ATOM      2  N   UNL A   1      33.642  29.466  27.063  1.00  0.00    -0.352 N 
ATOM      3  O   UNL A   1      34.032  31.319  28.278  1.00  0.00    -0.269 OA
ATOM      4  C   UNL A   1      34.466  30.268  27.819  1.00  0.00     0.251 C 
ATOM      5  H   UNL A   1      32.777  29.870  26.825  1.00  0.00     0.163 HD
BRANCH   4   6
ATOM      6  C   UNL A   1      35.855  29.846  28.103  1.00  0.00     0.039 A 
ATOM      7  C   UNL A   1      36.194  29.316  29.347  1.00  0.00     0.014 A 
ATOM      8  C   UNL A   1      36.835  29.987  27.117  1.00  0.00     0.014 A 
ATOM      9  C   UNL A   1      37.529  29.134  29.678  1.00  0.00     0.010 A 
ATOM     10  C   UNL A   1      38.167  29.674  27.412  1.00  0.00     0.010 A 
ATOM     11  C   UNL A   1      38.533  29.288  28.710  1.00  0.00    -0.014 A 
BRANCH  11  12
ATOM     12  C   UNL A   1      39.939  28.977  29.079  1.00  0.00     0.031 A 
ATOM     13  C   UNL A   1      40.573  27.661  28.717  1.00  0.00     0.074 A 
ATOM     14  C   UNL A   1      40.661  29.927  29.706  1.00  0.00     0.049 A 
ATOM     15  N   UNL A   1      41.804  27.262  28.916  1.00  0.00    -0.248 NA
ATOM     16  C   UNL A   1      39.722  26.660  28.055  1.00  0.00     0.031 C 
ATOM     17  C   UNL A   1      40.155  31.244  30.108  1.00  0.00     0.029 A 
ATOM     18  N   UNL A   1      41.978  29.953  30.085  1.00  0.00    -0.354 N 
ATOM     19  C   UNL A   1      41.871  25.961  28.432  1.00  0.00     0.074 A 
ATOM     20  C   UNL A   1      40.547  25.627  27.951  1.00  0.00     0.031 C 
ATOM     21  C   UNL A   1      41.164  31.972  30.605  1.00  0.00     0.029 A 
ATOM     22  C   UNL A   1      42.366  31.150  30.638  1.00  0.00     0.049 A 
ATOM     23  H   UNL A   1      42.588  29.187  29.974  1.00  0.00     0.167 HD
ATOM     24  C   UNL A   1      42.936  25.123  28.390  1.00  0.00     0.031 A 
ATOM     25  C   UNL A   1      43.553  31.546  31.132  1.00  0.00     0.031 A 
ATOM     26  C   UNL A   1      44.250  25.464  28.874  1.00  0.00     0.049 A 
ATOM     27  C   UNL A   1      44.704  30.585  31.109  1.00  0.00     0.074 A 
ATOM     28  C   UNL A   1      45.403  24.698  28.846  1.00  0.00     0.029 A 
ATOM     29  N   UNL A   1      44.586  26.666  29.480  1.00  0.00    -0.354 N 
ATOM     30  N   UNL A   1      44.752  29.370  30.616  1.00  0.00    -0.248 NA
ATOM     31  C   UNL A   1      45.961  31.048  31.710  1.00  0.00     0.031 C 
ATOM     32  C   UNL A   1      46.418  25.411  29.493  1.00  0.00     0.029 A 
ATOM     33  C   UNL A   1      45.920  26.650  29.860  1.00  0.00     0.049 A 
ATOM     34  H   UNL A   1      43.969  27.420  29.620  1.00  0.00     0.167 HD
ATOM     35  C   UNL A   1      46.053  28.930  30.826  1.00  0.00     0.074 A 
ATOM     36  C   UNL A   1      46.762  30.018  31.472  1.00  0.00     0.031 C 
ATOM     37  C   UNL A   1      46.610  27.736  30.510  1.00  0.00     0.031 A 
BRANCH  24  38
ATOM     38  C   UNL A   1      42.716  23.736  27.838  1.00  0.00    -0.014 A 
ATOM     39  C   UNL A   1      42.306  22.672  28.662  1.00  0.00     0.010 A 
ATOM     40  C   UNL A   1      42.888  23.502  26.460  1.00  0.00     0.010 A 
ATOM     41  C   UNL A   1      42.121  21.392  28.127  1.00  0.00     0.020 A 
ATOM     42  C   UNL A   1      42.675  22.232  25.917  1.00  0.00     0.020 A 
ATOM     43  C   UNL A   1      42.312  21.179  26.758  1.00  0.00     0.054 A 
BRANCH  43  44
ATOM     44  S   UNL A   1      42.062  19.510  26.093  1.00  0.00     0.124 S 
ATOM     45  O   UNL A   1      42.536  18.675  27.192  1.00  0.00    -0.237 OA
ATOM     46  O   UNL A   1      40.621  19.474  25.852  1.00  0.00    -0.237 OA
ATOM     47  O   UNL A   1      42.890  19.488  24.890  1.00  0.00    -0.744 OA
ENDBRANCH  43  44
ENDBRANCH  24  38
BRANCH  25  48
ATOM     48  C   UNL A   1      43.701  32.917  31.694  1.00  0.00    -0.014 A 
ATOM     49  C   UNL A   1      43.989  34.007  30.855  1.00  0.00     0.010 A 
ATOM     50  C   UNL A   1      43.527  33.141  33.072  1.00  0.00     0.010 A 
ATOM     51  C   UNL A   1      44.114  35.292  31.386  1.00  0.00     0.020 A 
ATOM     52  C   UNL A   1      43.618  34.430  33.601  1.00  0.00     0.020 A 
ATOM     53  C   UNL A   1      43.924  35.497  32.756  1.00  0.00     0.054 A 
BRANCH  53  54
ATOM     54  S   UNL A   1      44.043  37.182  33.414  1.00  0.00     0.124 S 
ATOM     55  O   UNL A   1      42.758  37.335  34.089  1.00  0.00    -0.237 OA
ATOM     56  O   UNL A   1      45.211  37.097  34.287  1.00  0.00    -0.237 OA
ATOM     57  O   UNL A   1      44.225  38.004  32.221  1.00  0.00    -0.744 OA
ENDBRANCH  53  54
ENDBRANCH  25  48
BRANCH  37  58
ATOM     58  C   UNL A   1      48.072  27.558  30.827  1.00  0.00    -0.014 A 
ATOM     59  C   UNL A   1      48.495  27.003  32.048  1.00  0.00     0.010 A 
ATOM     60  C   UNL A   1      49.035  27.927  29.871  1.00  0.00     0.010 A 
ATOM     61  C   UNL A   1      49.858  26.863  32.324  1.00  0.00     0.020 A 
ATOM     62  C   UNL A   1      50.398  27.759  30.131  1.00  0.00     0.020 A 
ATOM     63  C   UNL A   1      50.801  27.243  31.364  1.00  0.00     0.054 A 
BRANCH  63  64
ATOM     64  S   UNL A   1      52.562  27.024  31.735  1.00  0.00     0.124 S 
ATOM     65  O   UNL A   1      52.899  25.856  30.926  1.00  0.00    -0.237 OA
ATOM     66  O   UNL A   1      53.144  28.288  31.288  1.00  0.00    -0.237 OA
ATOM     67  O   UNL A   1      52.588  26.811  33.180  1.00  0.00    -0.744 OA
ENDBRANCH  63  64
ENDBRANCH  37  58
ENDBRANCH  11  12
ENDBRANCH   4   6
ENDBRANCH   1   2
BRANCH   1  68
ATOM     68  C   UNL A   1      32.549  27.406  26.213  1.00  0.00     0.042 C 
BRANCH  68  69
ATOM     69  C   UNL A   1      32.753  26.093  25.484  1.00  0.00     0.118 C 
BRANCH  69  70
ATOM     70  N   UNL A   1      33.059  26.273  24.067  1.00  0.00    -0.352 N 
ATOM     71  C   UNL A   1      33.701  25.434  23.187  1.00  0.00     0.254 C 
ATOM     72  H   UNL A   1      32.759  27.129  23.683  1.00  0.00     0.163 HD
ATOM     73  O   UNL A   1      33.953  25.800  22.046  1.00  0.00    -0.269 OA
BRANCH  71  74
ATOM     74  C   UNL A   1      34.034  24.070  23.619  1.00  0.00     0.078 A 
ATOM     75  C   UNL A   1      33.278  23.005  23.134  1.00  0.00     0.019 A 
ATOM     76  C   UNL A   1      35.065  23.834  24.518  1.00  0.00     0.173 A 
ATOM     77  C   UNL A   1      33.453  21.732  23.667  1.00  0.00     0.030 A 
ATOM     78  C   UNL A   1      35.273  22.539  24.993  1.00  0.00     0.182 A 
ATOM     79  F   UNL A   1      35.831  24.834  24.973  1.00  0.00    -0.203 F 
ATOM     80  C   UNL A   1      34.448  21.462  24.612  1.00  0.00     0.074 A 
ATOM     81  F   UNL A   1      36.262  22.318  25.877  1.00  0.00    -0.201 F 
BRANCH  80  82
ATOM     82  N   UNL A   1      34.643  20.209  25.177  1.00  0.00    -0.379 N 
ATOM     83  H   UNL A   1      35.212  20.181  25.980  1.00  0.00     0.160 HD
BRANCH  82  84
ATOM     84  C   UNL A   1      34.104  18.919  24.721  1.00  0.00     0.094 C 
ATOM     85  C   UNL A   1      32.715  18.677  25.354  1.00  0.00     0.027 C 
ATOM     86  C   UNL A   1      35.162  17.826  24.861  1.00  0.00     0.161 C 
ATOM     87  C   UNL A   1      32.120  17.289  25.142  1.00  0.00     0.018 C 
ATOM     88  S   UNL A   1      34.522  16.220  24.502  1.00  0.00     0.152 S 
ATOM     89  C   UNL A   1      33.078  16.180  25.532  1.00  0.00     0.137 C 
ATOM     90  O   UNL A   1      35.452  15.239  25.019  1.00  0.00    -0.229 OA
ATOM     91  O   UNL A   1      34.092  16.195  23.116  1.00  0.00    -0.229 OA
ENDBRANCH  82  84
ENDBRANCH  80  82
ENDBRANCH  71  74
ENDBRANCH  69  70
ENDBRANCH  68  69
ENDBRANCH   1  68
TORSDOF 15
ENDMDL
MODEL 3
REMARK VINA RESULT:     -11.6      3.777     10.115
REMARK SMILES O=C(NCCCNC(=O)c1ccc(N[C@@H]2CCCS(=O)(=O)C2)c(F)c1F)c1ccc(-c2c3nc(c(-c4ccc(S(=O)(=O)[O-])cc4)c4ccc([nH]4)c(-c4ccc(S(=O)(=O)[O-])cc4)c4nc(c(-c5ccc(S(=O)(=O)[O-])cc5)c5ccc2[nH]5)C=C4)C=C3)cc1
REMARK SMILES IDX 4 1 3 2 1 3 2 4 27 6 28 7 86 8 29 9 85 10 30 11 31 12 32 13
REMARK SMILES IDX 79 14 33 15 84 16 78 17 80 18 34 19 83 20 77 21 76 22 35 24
REMARK SMILES IDX 65 25 46 26 64 27 47 28 50 29 63 30 81 31 48 32 49 33 62 35
REMARK SMILES IDX 82 36 51 37 36 38 37 39 45 40 38 41 44 42 39 43 40 44 41 45
REMARK SMILES IDX 42 46 43 47 66 48 67 49 75 50 68 51 74 52 69 53 70 54 71 55
REMARK SMILES IDX 72 56 73 57 52 58 53 59 61 60 54 61 60 62 55 63 56 64 57 65
REMARK SMILES IDX 58 66 59 67 5 68 6 69 7 70 8 71 9 73 10 74 11 75 25 76 12 77
REMARK SMILES IDX 23 78 26 79 13 80 24 81 14 82 15 84 16 85 22 86 17 87 19 88
REMARK SMILES IDX 18 89 20 90 21 91
REMARK H PARENT 3 5 80 23 50 34 7 72 14 83
REMARK Flexibility Score: inf
ROOT
ATOM      1  C   UNL A   1      33.722  28.286  26.930  1.00  0.00     0.118 C 
ENDROOT
BRANCH   1   2
ATOM      2  N   UNL A   1      33.567  29.664  27.384  1.00  0.00    -0.352 N 
ATOM      3  O   UNL A   1      34.053  31.560  28.495  1.00  0.00    -0.269 OA
ATOM      4  C   UNL A   1      34.444  30.482  28.059  1.00  0.00     0.251 C 
ATOM      5  H   UNL A   1      32.697  30.073  27.176  1.00  0.00     0.163 HD
BRANCH   4   6
ATOM      6  C   UNL A   1      35.840  30.047  28.284  1.00  0.00     0.039 A 
ATOM      7  C   UNL A   1      36.234  29.544  29.523  1.00  0.00     0.014 A 
ATOM      8  C   UNL A   1      36.772  30.149  27.247  1.00  0.00     0.014 A 
ATOM      9  C   UNL A   1      37.581  29.351  29.792  1.00  0.00     0.010 A 
ATOM     10  C   UNL A   1      38.112  29.824  27.484  1.00  0.00     0.010 A 
ATOM     11  C   UNL A   1      38.537  29.466  28.772  1.00  0.00    -0.014 A 
BRANCH  11  12
ATOM     12  C   UNL A   1      39.956  29.143  29.079  1.00  0.00     0.031 A 
ATOM     13  C   UNL A   1      40.841  30.115  29.813  1.00  0.00     0.074 A 
ATOM     14  C   UNL A   1      40.427  27.929  28.728  1.00  0.00     0.049 A 
ATOM     15  N   UNL A   1      42.079  29.958  30.206  1.00  0.00    -0.248 NA
ATOM     16  C   UNL A   1      40.271  31.430  30.144  1.00  0.00     0.031 C 
ATOM     17  C   UNL A   1      39.662  26.902  28.012  1.00  0.00     0.029 A 
ATOM     18  N   UNL A   1      41.642  27.337  28.952  1.00  0.00    -0.354 N 
ATOM     19  C   UNL A   1      42.448  31.158  30.804  1.00  0.00     0.074 A 
ATOM     20  C   UNL A   1      41.307  32.043  30.701  1.00  0.00     0.031 C 
ATOM     21  C   UNL A   1      40.397  25.786  27.925  1.00  0.00     0.029 A 
ATOM     22  C   UNL A   1      41.711  26.041  28.498  1.00  0.00     0.049 A 
ATOM     23  H   UNL A   1      42.393  27.795  29.394  1.00  0.00     0.167 HD
ATOM     24  C   UNL A   1      43.625  31.490  31.388  1.00  0.00     0.031 A 
ATOM     25  C   UNL A   1      42.723  25.154  28.525  1.00  0.00     0.031 A 
ATOM     26  C   UNL A   1      44.757  30.603  31.484  1.00  0.00     0.049 A 
ATOM     27  C   UNL A   1      44.028  25.562  29.141  1.00  0.00     0.074 A 
ATOM     28  C   UNL A   1      45.983  30.832  32.085  1.00  0.00     0.029 A 
ATOM     29  N   UNL A   1      44.806  29.319  30.960  1.00  0.00    -0.354 N 
ATOM     30  N   UNL A   1      44.343  26.691  29.730  1.00  0.00    -0.248 NA
ATOM     31  C   UNL A   1      45.114  24.576  29.095  1.00  0.00     0.031 C 
ATOM     32  C   UNL A   1      46.794  29.714  31.868  1.00  0.00     0.029 A 
ATOM     33  C   UNL A   1      46.052  28.757  31.195  1.00  0.00     0.049 A 
ATOM     34  H   UNL A   1      44.066  28.872  30.490  1.00  0.00     0.167 HD
ATOM     35  C   UNL A   1      45.659  26.543  30.148  1.00  0.00     0.074 A 
ATOM     36  C   UNL A   1      46.072  25.208  29.760  1.00  0.00     0.031 C 
ATOM     37  C   UNL A   1      46.453  27.431  30.795  1.00  0.00     0.031 A 
BRANCH  24  38
ATOM     38  C   UNL A   1      43.768  32.891  31.933  1.00  0.00    -0.014 A 
ATOM     39  C   UNL A   1      44.247  33.945  31.135  1.00  0.00     0.010 A 
ATOM     40  C   UNL A   1      43.381  33.161  33.259  1.00  0.00     0.010 A 
ATOM     41  C   UNL A   1      44.382  35.232  31.668  1.00  0.00     0.020 A 
ATOM     42  C   UNL A   1      43.484  34.451  33.786  1.00  0.00     0.020 A 
ATOM     43  C   UNL A   1      44.004  35.476  32.992  1.00  0.00     0.054 A 
BRANCH  43  44
ATOM     44  S   UNL A   1      44.187  37.154  33.656  1.00  0.00     0.124 S 
ATOM     45  O   UNL A   1      42.976  37.292  34.461  1.00  0.00    -0.237 OA
ATOM     46  O   UNL A   1      45.436  37.067  34.409  1.00  0.00    -0.237 OA
ATOM     47  O   UNL A   1      44.241  37.996  32.463  1.00  0.00    -0.744 OA
ENDBRANCH  43  44
ENDBRANCH  24  38
BRANCH  25  48
ATOM     48  C   UNL A   1      42.533  23.798  27.942  1.00  0.00    -0.014 A 
ATOM     49  C   UNL A   1      42.096  22.729  28.744  1.00  0.00     0.010 A 
ATOM     50  C   UNL A   1      42.763  23.576  26.572  1.00  0.00     0.010 A 
ATOM     51  C   UNL A   1      41.909  21.461  28.189  1.00  0.00     0.020 A 
ATOM     52  C   UNL A   1      42.543  22.318  26.007  1.00  0.00     0.020 A 
ATOM     53  C   UNL A   1      42.129  21.264  26.822  1.00  0.00     0.054 A 
BRANCH  53  54
ATOM     54  S   UNL A   1      41.830  19.622  26.115  1.00  0.00     0.124 S 
ATOM     55  O   UNL A   1      42.261  18.743  27.198  1.00  0.00    -0.237 OA
ATOM     56  O   UNL A   1      40.393  19.648  25.854  1.00  0.00    -0.237 OA
ATOM     57  O   UNL A   1      42.673  19.604  24.922  1.00  0.00    -0.744 OA
ENDBRANCH  53  54
ENDBRANCH  25  48
BRANCH  37  58
ATOM     58  C   UNL A   1      47.840  26.970  31.159  1.00  0.00    -0.014 A 
ATOM     59  C   UNL A   1      48.106  26.350  32.393  1.00  0.00     0.010 A 
ATOM     60  C   UNL A   1      48.888  27.137  30.236  1.00  0.00     0.010 A 
ATOM     61  C   UNL A   1      49.405  25.945  32.714  1.00  0.00     0.020 A 
ATOM     62  C   UNL A   1      50.181  26.705  30.540  1.00  0.00     0.020 A 
ATOM     63  C   UNL A   1      50.435  26.127  31.786  1.00  0.00     0.054 A 
BRANCH  63  64
ATOM     64  S   UNL A   1      52.105  25.568  32.213  1.00  0.00     0.124 S 
ATOM     65  O   UNL A   1      52.900  26.122  31.121  1.00  0.00    -0.237 OA
ATOM     66  O   UNL A   1      52.323  26.180  33.522  1.00  0.00    -0.237 OA
ATOM     67  O   UNL A   1      51.991  24.111  32.225  1.00  0.00    -0.744 OA
ENDBRANCH  63  64
ENDBRANCH  37  58
ENDBRANCH  11  12
ENDBRANCH   4   6
ENDBRANCH   1   2
BRANCH   1  68
ATOM     68  C   UNL A   1      32.601  27.835  26.012  1.00  0.00     0.042 C 
BRANCH  68  69
ATOM     69  C   UNL A   1      32.561  26.334  25.801  1.00  0.00     0.118 C 
BRANCH  69  70
ATOM     70  N   UNL A   1      31.450  25.693  26.500  1.00  0.00    -0.352 N 
ATOM     71  C   UNL A   1      31.136  24.360  26.626  1.00  0.00     0.254 C 
ATOM     72  H   UNL A   1      30.830  26.312  26.950  1.00  0.00     0.163 HD
ATOM     73  O   UNL A   1      30.100  24.013  27.178  1.00  0.00    -0.269 OA
BRANCH  71  74
ATOM     74  C   UNL A   1      32.089  23.355  26.138  1.00  0.00     0.078 A 
ATOM     75  C   UNL A   1      32.040  22.975  24.798  1.00  0.00     0.019 A 
ATOM     76  C   UNL A   1      33.009  22.764  26.992  1.00  0.00     0.173 A 
ATOM     77  C   UNL A   1      32.803  21.898  24.356  1.00  0.00     0.030 A 
ATOM     78  C   UNL A   1      33.816  21.730  26.517  1.00  0.00     0.182 A 
ATOM     79  F   UNL A   1      33.101  23.136  28.277  1.00  0.00    -0.203 F 
ATOM     80  C   UNL A   1      33.706  21.243  25.199  1.00  0.00     0.074 A 
ATOM     81  F   UNL A   1      34.694  21.148  27.353  1.00  0.00    -0.201 F 
BRANCH  80  82
ATOM     82  N   UNL A   1      34.472  20.157  24.799  1.00  0.00    -0.379 N 
ATOM     83  H   UNL A   1      35.438  20.319  24.707  1.00  0.00     0.160 HD
BRANCH  82  84
ATOM     84  C   UNL A   1      34.015  18.792  24.497  1.00  0.00     0.094 C 
ATOM     85  C   UNL A   1      32.662  18.524  25.194  1.00  0.00     0.027 C 
ATOM     86  C   UNL A   1      35.151  17.795  24.718  1.00  0.00     0.161 C 
ATOM     87  C   UNL A   1      32.162  17.085  25.146  1.00  0.00     0.018 C 
ATOM     88  S   UNL A   1      34.618  16.119  24.547  1.00  0.00     0.152 S 
ATOM     89  C   UNL A   1      33.204  16.091  25.620  1.00  0.00     0.137 C 
ATOM     90  O   UNL A   1      35.626  15.263  25.135  1.00  0.00    -0.229 OA
ATOM     91  O   UNL A   1      34.159  15.919  23.185  1.00  0.00    -0.229 OA
ENDBRANCH  82  84
ENDBRANCH  80  82
ENDBRANCH  71  74
ENDBRANCH  69  70
ENDBRANCH  68  69
ENDBRANCH   1  68
TORSDOF 15
ENDMDL
