MODEL 1
REMARK VINA RESULT:     -11.1      0.000      0.000
REMARK SMILES CC(C)(C)c1ccc(OCc2nnc(SCC(=O)NCCCNC(=O)c3ccc(-c4c5nc(c(-c6ccc(S(=O)(=O)[O-])cc6)c6ccc([nH]6)c(-c6ccc(S(=O)(=O)[O-])cc6)c6nc(c(-c7ccc(S(=O)(=O)[O-])cc7)c7ccc4[nH]7)C=C6)C=C5)cc3)o2)cc1
REMARK SMILES IDX 17 1 18 2 19 3 16 5 15 6 14 7 11 8 12 9 86 10 13 11 10 12
REMARK SMILES IDX 9 13 8 14 5 15 6 16 88 17 7 18 87 19 2 20 1 21 3 22 4 23
REMARK SMILES IDX 20 24 21 25 22 26 23 27 24 28 25 30 26 31 27 32 85 33 28 34
REMARK SMILES IDX 84 35 29 36 30 37 31 38 78 39 32 40 83 41 77 42 79 43 33 44
REMARK SMILES IDX 82 45 76 46 75 47 34 49 64 50 45 51 63 52 46 53 49 54 62 55
REMARK SMILES IDX 80 56 47 57 48 58 61 60 81 61 50 62 35 63 36 64 44 65 37 66
REMARK SMILES IDX 43 67 38 68 39 69 40 70 41 71 42 72 65 73 66 74 74 75 67 76
REMARK SMILES IDX 73 77 68 78 69 79 70 80 71 81 72 82 51 83 52 84 60 85 53 86
REMARK SMILES IDX 59 87 54 88 55 89 56 90 57 91 58 92
REMARK H PARENT 19 4 23 29 79 48 49 59
REMARK Flexibility Score: inf
ROOT
ATOM      1  C   UNL A   1      32.969  20.535  24.577  1.00  0.00     0.230 C 
ATOM      2  O   UNL A   1      32.276  19.653  25.085  1.00  0.00    -0.274 OA
ATOM      3  N   UNL A   1      34.180  20.761  25.152  1.00  0.00    -0.355 N 
ATOM      4  H   UNL A   1      34.394  20.171  25.911  1.00  0.00     0.163 HD
ENDROOT
BRANCH   1   5
ATOM      5  C   UNL A   1      32.550  21.230  23.298  1.00  0.00     0.179 C 
BRANCH   5   6
ATOM      6  S   UNL A   1      31.529  22.699  23.527  1.00  0.00    -0.055 SA
BRANCH   6   7
ATOM      7  C   UNL A   1      32.604  23.995  23.127  1.00  0.00     0.277 A 
ATOM      8  C   UNL A   1      33.660  25.849  23.135  1.00  0.00     0.254 A 
ATOM      9  N   UNL A   1      33.902  25.287  21.968  1.00  0.00    -0.108 NA
ATOM     10  O   UNL A   1      32.854  25.070  23.926  1.00  0.00    -0.412 OA
ATOM     11  N   UNL A   1      33.223  24.086  21.968  1.00  0.00    -0.101 NA
BRANCH   8  12
ATOM     12  C   UNL A   1      34.011  27.227  23.584  1.00  0.00     0.328 C 
BRANCH  12  13
ATOM     13  O   UNL A   1      33.011  27.808  24.431  1.00  0.00    -0.484 OA
BRANCH  13  14
ATOM     14  C   UNL A   1      31.928  28.418  23.862  1.00  0.00     0.120 A 
ATOM     15  C   UNL A   1      29.483  29.644  23.109  1.00  0.00    -0.042 A 
ATOM     16  C   UNL A   1      30.212  30.096  24.219  1.00  0.00     0.008 A 
ATOM     17  C   UNL A   1      30.058  28.614  22.341  1.00  0.00     0.008 A 
ATOM     18  C   UNL A   1      31.417  29.488  24.590  1.00  0.00     0.047 A 
ATOM     19  C   UNL A   1      31.274  28.021  22.700  1.00  0.00     0.047 A 
BRANCH  15  20
ATOM     20  C   UNL A   1      28.093  30.189  22.749  1.00  0.00    -0.013 C 
ATOM     21  C   UNL A   1      27.977  30.693  21.293  1.00  0.00     0.016 C 
ATOM     22  C   UNL A   1      27.750  31.383  23.669  1.00  0.00     0.016 C 
ATOM     23  C   UNL A   1      27.039  29.080  22.941  1.00  0.00     0.016 C 
ENDBRANCH  15  20
ENDBRANCH  13  14
ENDBRANCH  12  13
ENDBRANCH   8  12
ENDBRANCH   6   7
ENDBRANCH   5   6
ENDBRANCH   1   5
BRANCH   3  24
ATOM     24  C   UNL A   1      35.206  21.730  24.827  1.00  0.00     0.117 C 
BRANCH  24  25
ATOM     25  C   UNL A   1      35.106  22.969  25.712  1.00  0.00     0.042 C 
BRANCH  25  26
ATOM     26  C   UNL A   1      36.439  23.675  25.940  1.00  0.00     0.118 C 
BRANCH  26  27
ATOM     27  N   UNL A   1      37.559  22.747  25.998  1.00  0.00    -0.352 N 
ATOM     28  C   UNL A   1      38.868  22.975  26.334  1.00  0.00     0.251 C 
ATOM     29  H   UNL A   1      37.343  21.816  25.762  1.00  0.00     0.163 HD
ATOM     30  O   UNL A   1      39.705  22.095  26.124  1.00  0.00    -0.269 OA
BRANCH  28  31
ATOM     31  C   UNL A   1      39.281  24.264  26.928  1.00  0.00     0.039 A 
ATOM     32  C   UNL A   1      38.913  24.553  28.244  1.00  0.00     0.014 A 
ATOM     33  C   UNL A   1      40.002  25.203  26.184  1.00  0.00     0.014 A 
ATOM     34  C   UNL A   1      39.302  25.761  28.827  1.00  0.00     0.010 A 
ATOM     35  C   UNL A   1      40.463  26.366  26.792  1.00  0.00     0.010 A 
ATOM     36  C   UNL A   1      40.101  26.670  28.113  1.00  0.00    -0.014 A 
BRANCH  36  37
ATOM     37  C   UNL A   1      40.536  27.956  28.717  1.00  0.00     0.031 A 
ATOM     38  C   UNL A   1      41.948  28.115  29.217  1.00  0.00     0.074 A 
ATOM     39  C   UNL A   1      39.652  28.962  28.862  1.00  0.00     0.049 A 
ATOM     40  N   UNL A   1      42.507  29.145  29.800  1.00  0.00    -0.248 NA
ATOM     41  C   UNL A   1      42.841  26.955  29.067  1.00  0.00     0.031 C 
ATOM     42  C   UNL A   1      38.247  28.923  28.450  1.00  0.00     0.029 A 
ATOM     43  N   UNL A   1      39.806  30.216  29.397  1.00  0.00    -0.354 N 
ATOM     44  C   UNL A   1      43.804  28.748  30.106  1.00  0.00     0.074 A 
ATOM     45  C   UNL A   1      43.929  27.366  29.697  1.00  0.00     0.031 C 
ATOM     46  C   UNL A   1      37.681  30.112  28.711  1.00  0.00     0.029 A 
ATOM     47  C   UNL A   1      38.666  30.981  29.346  1.00  0.00     0.049 A 
ATOM     48  H   UNL A   1      40.654  30.538  29.781  1.00  0.00     0.167 HD
ATOM     49  C   UNL A   1      44.808  29.471  30.659  1.00  0.00     0.031 A 
ATOM     50  C   UNL A   1      38.437  32.243  29.761  1.00  0.00     0.031 A 
ATOM     51  C   UNL A   1      44.680  30.847  31.062  1.00  0.00     0.049 A 
ATOM     52  C   UNL A   1      39.561  33.026  30.382  1.00  0.00     0.074 A 
ATOM     53  C   UNL A   1      45.649  31.686  31.581  1.00  0.00     0.029 A 
ATOM     54  N   UNL A   1      43.507  31.585  30.995  1.00  0.00    -0.354 N 
ATOM     55  N   UNL A   1      40.800  32.655  30.607  1.00  0.00    -0.248 NA
ATOM     56  C   UNL A   1      39.260  34.405  30.789  1.00  0.00     0.031 C 
ATOM     57  C   UNL A   1      45.049  32.913  31.882  1.00  0.00     0.029 A 
ATOM     58  C   UNL A   1      43.721  32.862  31.484  1.00  0.00     0.049 A 
ATOM     59  H   UNL A   1      42.648  31.249  30.649  1.00  0.00     0.167 HD
ATOM     60  C   UNL A   1      41.436  33.768  31.147  1.00  0.00     0.074 A 
ATOM     61  C   UNL A   1      40.446  34.825  31.209  1.00  0.00     0.031 C 
ATOM     62  C   UNL A   1      42.726  33.904  31.546  1.00  0.00     0.031 A 
BRANCH  49  63
ATOM     63  C   UNL A   1      46.124  28.767  30.879  1.00  0.00    -0.014 A 
ATOM     64  C   UNL A   1      47.044  28.588  29.828  1.00  0.00     0.010 A 
ATOM     65  C   UNL A   1      46.445  28.270  32.155  1.00  0.00     0.010 A 
ATOM     66  C   UNL A   1      48.222  27.865  30.031  1.00  0.00     0.020 A 
ATOM     67  C   UNL A   1      47.640  27.577  32.371  1.00  0.00     0.020 A 
ATOM     68  C   UNL A   1      48.507  27.355  31.301  1.00  0.00     0.054 A 
BRANCH  68  69
ATOM     69  S   UNL A   1      50.033  26.401  31.532  1.00  0.00     0.124 S 
ATOM     70  O   UNL A   1      50.182  26.422  32.986  1.00  0.00    -0.237 OA
ATOM     71  O   UNL A   1      49.691  25.103  30.957  1.00  0.00    -0.237 OA
ATOM     72  O   UNL A   1      51.035  27.163  30.793  1.00  0.00    -0.744 OA
ENDBRANCH  68  69
ENDBRANCH  49  63
BRANCH  50  73
ATOM     73  C   UNL A   1      37.096  32.855  29.553  1.00  0.00    -0.014 A 
ATOM     74  C   UNL A   1      36.259  33.115  30.652  1.00  0.00     0.010 A 
ATOM     75  C   UNL A   1      36.666  33.220  28.265  1.00  0.00     0.010 A 
ATOM     76  C   UNL A   1      35.015  33.725  30.468  1.00  0.00     0.020 A 
ATOM     77  C   UNL A   1      35.434  33.855  28.079  1.00  0.00     0.020 A 
ATOM     78  C   UNL A   1      34.613  34.098  29.182  1.00  0.00     0.054 A 
BRANCH  78  79
ATOM     79  S   UNL A   1      33.029  34.958  28.980  1.00  0.00     0.124 S 
ATOM     80  O   UNL A   1      32.455  34.860  30.319  1.00  0.00    -0.237 OA
ATOM     81  O   UNL A   1      33.447  36.295  28.568  1.00  0.00    -0.237 OA
ATOM     82  O   UNL A   1      32.346  34.181  27.948  1.00  0.00    -0.744 OA
ENDBRANCH  78  79
ENDBRANCH  50  73
BRANCH  62  83
ATOM     83  C   UNL A   1      43.160  35.260  32.040  1.00  0.00    -0.014 A 
ATOM     84  C   UNL A   1      43.705  36.222  31.172  1.00  0.00     0.010 A 
ATOM     85  C   UNL A   1      42.974  35.589  33.396  1.00  0.00     0.010 A 
ATOM     86  C   UNL A   1      44.093  37.473  31.660  1.00  0.00     0.020 A 
ATOM     87  C   UNL A   1      43.331  36.849  33.880  1.00  0.00     0.020 A 
ATOM     88  C   UNL A   1      43.905  37.779  33.012  1.00  0.00     0.054 A 
BRANCH  88  89
ATOM     89  S   UNL A   1      44.387  39.419  33.614  1.00  0.00     0.124 S 
ATOM     90  O   UNL A   1      43.091  40.068  33.800  1.00  0.00    -0.237 OA
ATOM     91  O   UNL A   1      45.118  39.111  34.840  1.00  0.00    -0.237 OA
ATOM     92  O   UNL A   1      45.203  39.961  32.528  1.00  0.00    -0.744 OA
ENDBRANCH  88  89
ENDBRANCH  62  83
ENDBRANCH  36  37
ENDBRANCH  28  31
ENDBRANCH  26  27
ENDBRANCH  25  26
ENDBRANCH  24  25
ENDBRANCH   3  24
TORSDOF 19
ENDMDL
MODEL 2
REMARK VINA RESULT:     -10.7      4.469     11.024
REMARK SMILES CC(C)(C)c1ccc(OCc2nnc(SCC(=O)NCCCNC(=O)c3ccc(-c4c5nc(c(-c6ccc(S(=O)(=O)[O-])cc6)c6ccc([nH]6)c(-c6ccc(S(=O)(=O)[O-])cc6)c6nc(c(-c7ccc(S(=O)(=O)[O-])cc7)c7ccc4[nH]7)C=C6)C=C5)cc3)o2)cc1
REMARK SMILES IDX 17 1 18 2 19 3 16 5 15 6 14 7 11 8 12 9 86 10 13 11 10 12
REMARK SMILES IDX 9 13 8 14 5 15 6 16 88 17 7 18 87 19 2 20 1 21 3 22 4 23
REMARK SMILES IDX 20 24 21 25 22 26 23 27 24 28 25 30 26 31 27 32 85 33 28 34
REMARK SMILES IDX 84 35 29 36 30 37 31 38 78 39 32 40 83 41 77 42 79 43 33 44
REMARK SMILES IDX 82 45 76 46 75 47 34 49 64 50 45 51 63 52 46 53 49 54 62 55
REMARK SMILES IDX 80 56 47 57 48 58 61 60 81 61 50 62 35 63 36 64 44 65 37 66
REMARK SMILES IDX 43 67 38 68 39 69 40 70 41 71 42 72 65 73 66 74 74 75 67 76
REMARK SMILES IDX 73 77 68 78 69 79 70 80 71 81 72 82 51 83 52 84 60 85 53 86
REMARK SMILES IDX 59 87 54 88 55 89 56 90 57 91 58 92
REMARK H PARENT 19 4 23 29 79 48 49 59
REMARK Flexibility Score: inf
ROOT
ATOM      1  C   UNL A   1      34.547  35.482  33.168  1.00  0.00     0.230 C 
ATOM      2  O   UNL A   1      34.286  36.671  33.349  1.00  0.00    -0.274 OA
ATOM      3  N   UNL A   1      35.497  34.941  33.976  1.00  0.00    -0.355 N 
ATOM      4  H   UNL A   1      35.866  35.555  34.650  1.00  0.00     0.163 HD
ENDROOT
BRANCH   1   5
ATOM      5  C   UNL A   1      33.752  34.638  32.193  1.00  0.00     0.179 C 
BRANCH   5   6
ATOM      6  S   UNL A   1      33.609  35.325  30.531  1.00  0.00    -0.055 SA
BRANCH   6   7
ATOM      7  C   UNL A   1      34.510  34.209  29.562  1.00  0.00     0.277 A 
ATOM      8  C   UNL A   1      35.067  32.545  28.349  1.00  0.00     0.254 A 
ATOM      9  N   UNL A   1      36.189  33.121  28.729  1.00  0.00    -0.108 NA
ATOM     10  O   UNL A   1      33.961  33.198  28.832  1.00  0.00    -0.412 OA
ATOM     11  N   UNL A   1      35.826  34.200  29.509  1.00  0.00    -0.101 NA
BRANCH   8  12
ATOM     12  C   UNL A   1      34.895  31.246  27.637  1.00  0.00     0.328 C 
BRANCH  12  13
ATOM     13  O   UNL A   1      33.643  30.613  27.932  1.00  0.00    -0.484 OA
BRANCH  13  14
ATOM     14  C   UNL A   1      33.236  29.554  27.168  1.00  0.00     0.120 A 
ATOM     15  C   UNL A   1      32.672  27.539  25.253  1.00  0.00    -0.042 A 
ATOM     16  C   UNL A   1      33.992  27.857  25.606  1.00  0.00     0.008 A 
ATOM     17  C   UNL A   1      31.644  28.203  25.947  1.00  0.00     0.008 A 
ATOM     18  C   UNL A   1      34.267  28.853  26.550  1.00  0.00     0.047 A 
ATOM     19  C   UNL A   1      31.920  29.184  26.907  1.00  0.00     0.047 A 
BRANCH  15  20
ATOM     20  C   UNL A   1      32.329  26.554  24.125  1.00  0.00    -0.013 C 
ATOM     21  C   UNL A   1      30.817  26.452  23.823  1.00  0.00     0.016 C 
ATOM     22  C   UNL A   1      32.808  25.136  24.511  1.00  0.00     0.016 C 
ATOM     23  C   UNL A   1      33.032  26.993  22.825  1.00  0.00     0.016 C 
ENDBRANCH  15  20
ENDBRANCH  13  14
ENDBRANCH  12  13
ENDBRANCH   8  12
ENDBRANCH   6   7
ENDBRANCH   5   6
ENDBRANCH   1   5
BRANCH   3  24
ATOM     24  C   UNL A   1      36.052  33.603  34.004  1.00  0.00     0.117 C 
BRANCH  24  25
ATOM     25  C   UNL A   1      37.465  33.572  33.429  1.00  0.00     0.042 C 
BRANCH  25  26
ATOM     26  C   UNL A   1      37.556  32.935  32.045  1.00  0.00     0.118 C 
BRANCH  26  27
ATOM     27  N   UNL A   1      36.591  31.861  31.861  1.00  0.00    -0.352 N 
ATOM     28  C   UNL A   1      36.705  30.694  31.151  1.00  0.00     0.251 C 
ATOM     29  H   UNL A   1      35.727  31.993  32.316  1.00  0.00     0.163 HD
ATOM     30  O   UNL A   1      35.698  30.010  30.952  1.00  0.00    -0.269 OA
BRANCH  28  31
ATOM     31  C   UNL A   1      38.012  30.261  30.616  1.00  0.00     0.039 A 
ATOM     32  C   UNL A   1      38.259  30.387  29.246  1.00  0.00     0.014 A 
ATOM     33  C   UNL A   1      38.984  29.701  31.450  1.00  0.00     0.014 A 
ATOM     34  C   UNL A   1      39.492  29.993  28.722  1.00  0.00     0.010 A 
ATOM     35  C   UNL A   1      40.242  29.391  30.942  1.00  0.00     0.010 A 
ATOM     36  C   UNL A   1      40.504  29.512  29.570  1.00  0.00    -0.014 A 
BRANCH  36  37
ATOM     37  C   UNL A   1      41.827  29.097  29.035  1.00  0.00     0.031 A 
ATOM     38  C   UNL A   1      42.952  30.094  28.949  1.00  0.00     0.074 A 
ATOM     39  C   UNL A   1      42.003  27.841  28.580  1.00  0.00     0.049 A 
ATOM     40  N   UNL A   1      44.166  29.933  28.486  1.00  0.00    -0.248 NA
ATOM     41  C   UNL A   1      42.667  31.459  29.422  1.00  0.00     0.031 C 
ATOM     42  C   UNL A   1      40.984  26.789  28.576  1.00  0.00     0.029 A 
ATOM     43  N   UNL A   1      43.107  27.236  28.034  1.00  0.00    -0.354 N 
ATOM     44  C   UNL A   1      44.777  31.179  28.589  1.00  0.00     0.074 A 
ATOM     45  C   UNL A   1      43.784  32.095  29.104  1.00  0.00     0.031 C 
ATOM     46  C   UNL A   1      41.522  25.660  28.089  1.00  0.00     0.029 A 
ATOM     47  C   UNL A   1      42.907  25.916  27.708  1.00  0.00     0.049 A 
ATOM     48  H   UNL A   1      43.961  27.704  27.888  1.00  0.00     0.167 HD
ATOM     49  C   UNL A   1      46.056  31.526  28.301  1.00  0.00     0.031 A 
ATOM     50  C   UNL A   1      43.745  25.011  27.166  1.00  0.00     0.031 A 
ATOM     51  C   UNL A   1      47.042  30.610  27.793  1.00  0.00     0.049 A 
ATOM     52  C   UNL A   1      45.157  25.417  26.844  1.00  0.00     0.074 A 
ATOM     53  C   UNL A   1      48.378  30.846  27.520  1.00  0.00     0.029 A 
ATOM     54  N   UNL A   1      46.798  29.281  27.476  1.00  0.00    -0.354 N 
ATOM     55  N   UNL A   1      45.737  26.583  27.006  1.00  0.00    -0.248 NA
ATOM     56  C   UNL A   1      46.031  24.380  26.281  1.00  0.00     0.031 C 
ATOM     57  C   UNL A   1      48.927  29.676  26.984  1.00  0.00     0.029 A 
ATOM     58  C   UNL A   1      47.952  28.690  26.988  1.00  0.00     0.049 A 
ATOM     59  H   UNL A   1      45.932  28.825  27.582  1.00  0.00     0.167 HD
ATOM     60  C   UNL A   1      47.056  26.409  26.601  1.00  0.00     0.074 A 
ATOM     61  C   UNL A   1      47.187  25.025  26.192  1.00  0.00     0.031 C 
ATOM     62  C   UNL A   1      48.068  27.312  26.579  1.00  0.00     0.031 A 
BRANCH  49  63
ATOM     63  C   UNL A   1      46.442  32.969  28.512  1.00  0.00    -0.014 A 
ATOM     64  C   UNL A   1      46.793  33.455  29.785  1.00  0.00     0.010 A 
ATOM     65  C   UNL A   1      46.447  33.856  27.420  1.00  0.00     0.010 A 
ATOM     66  C   UNL A   1      47.071  34.812  29.976  1.00  0.00     0.020 A 
ATOM     67  C   UNL A   1      46.759  35.207  27.599  1.00  0.00     0.020 A 
ATOM     68  C   UNL A   1      47.042  35.681  28.881  1.00  0.00     0.054 A 
BRANCH  68  69
ATOM     69  S   UNL A   1      47.384  37.440  29.159  1.00  0.00     0.124 S 
ATOM     70  O   UNL A   1      47.532  37.937  27.792  1.00  0.00    -0.237 OA
ATOM     71  O   UNL A   1      46.190  37.894  29.864  1.00  0.00    -0.237 OA
ATOM     72  O   UNL A   1      48.610  37.435  29.953  1.00  0.00    -0.744 OA
ENDBRANCH  68  69
ENDBRANCH  49  63
BRANCH  50  73
ATOM     73  C   UNL A   1      43.277  23.615  26.944  1.00  0.00    -0.014 A 
ATOM     74  C   UNL A   1      42.873  23.200  25.663  1.00  0.00     0.010 A 
ATOM     75  C   UNL A   1      43.273  22.682  27.997  1.00  0.00     0.010 A 
ATOM     76  C   UNL A   1      42.469  21.881  25.439  1.00  0.00     0.020 A 
ATOM     77  C   UNL A   1      42.895  21.355  27.771  1.00  0.00     0.020 A 
ATOM     78  C   UNL A   1      42.490  20.964  26.493  1.00  0.00     0.054 A 
BRANCH  78  79
ATOM     79  S   UNL A   1      42.036  19.240  26.158  1.00  0.00     0.124 S 
ATOM     80  O   UNL A   1      42.938  18.893  25.065  1.00  0.00    -0.237 OA
ATOM     81  O   UNL A   1      42.311  18.588  27.436  1.00  0.00    -0.237 OA
ATOM     82  O   UNL A   1      40.621  19.322  25.801  1.00  0.00    -0.744 OA
ENDBRANCH  78  79
ENDBRANCH  50  73
BRANCH  62  83
ATOM     83  C   UNL A   1      49.426  26.822  26.144  1.00  0.00    -0.014 A 
ATOM     84  C   UNL A   1      49.943  27.114  24.870  1.00  0.00     0.010 A 
ATOM     85  C   UNL A   1      50.215  26.090  27.051  1.00  0.00     0.010 A 
ATOM     86  C   UNL A   1      51.208  26.650  24.498  1.00  0.00     0.020 A 
ATOM     87  C   UNL A   1      51.492  25.652  26.695  1.00  0.00     0.020 A 
ATOM     88  C   UNL A   1      51.975  25.919  25.413  1.00  0.00     0.054 A 
BRANCH  88  89
ATOM     89  S   UNL A   1      53.625  25.356  24.918  1.00  0.00     0.124 S 
ATOM     90  O   UNL A   1      53.628  25.644  23.486  1.00  0.00    -0.237 OA
ATOM     91  O   UNL A   1      54.506  26.191  25.729  1.00  0.00    -0.237 OA
ATOM     92  O   UNL A   1      53.626  23.936  25.267  1.00  0.00    -0.744 OA
ENDBRANCH  88  89
ENDBRANCH  62  83
ENDBRANCH  36  37
ENDBRANCH  28  31
ENDBRANCH  26  27
ENDBRANCH  25  26
ENDBRANCH  24  25
ENDBRANCH   3  24
TORSDOF 19
ENDMDL
MODEL 3
REMARK VINA RESULT:     -10.7      2.133      2.805
REMARK SMILES CC(C)(C)c1ccc(OCc2nnc(SCC(=O)NCCCNC(=O)c3ccc(-c4c5nc(c(-c6ccc(S(=O)(=O)[O-])cc6)c6ccc([nH]6)c(-c6ccc(S(=O)(=O)[O-])cc6)c6nc(c(-c7ccc(S(=O)(=O)[O-])cc7)c7ccc4[nH]7)C=C6)C=C5)cc3)o2)cc1
REMARK SMILES IDX 17 1 18 2 19 3 16 5 15 6 14 7 11 8 12 9 86 10 13 11 10 12
REMARK SMILES IDX 9 13 8 14 5 15 6 16 88 17 7 18 87 19 2 20 1 21 3 22 4 23
REMARK SMILES IDX 20 24 21 25 22 26 23 27 24 28 25 30 26 31 27 32 85 33 28 34
REMARK SMILES IDX 84 35 29 36 30 37 31 38 78 39 32 40 83 41 77 42 79 43 33 44
REMARK SMILES IDX 82 45 76 46 75 47 34 49 64 50 45 51 63 52 46 53 49 54 62 55
REMARK SMILES IDX 80 56 47 57 48 58 61 60 81 61 50 62 35 63 36 64 44 65 37 66
REMARK SMILES IDX 43 67 38 68 39 69 40 70 41 71 42 72 65 73 66 74 74 75 67 76
REMARK SMILES IDX 73 77 68 78 69 79 70 80 71 81 72 82 51 83 52 84 60 85 53 86
REMARK SMILES IDX 59 87 54 88 55 89 56 90 57 91 58 92
REMARK H PARENT 19 4 23 29 79 48 49 59
REMARK Flexibility Score: inf
ROOT
ATOM      1  C   UNL A   1      33.165  19.992  25.231  1.00  0.00     0.230 C 
ATOM      2  O   UNL A   1      32.656  19.011  25.775  1.00  0.00    -0.274 OA
ATOM      3  N   UNL A   1      34.508  20.138  25.381  1.00  0.00    -0.355 N 
ATOM      4  H   UNL A   1      34.948  19.423  25.893  1.00  0.00     0.163 HD
ENDROOT
BRANCH   1   5
ATOM      5  C   UNL A   1      32.357  20.903  24.331  1.00  0.00     0.179 C 
BRANCH   5   6
ATOM      6  S   UNL A   1      31.605  22.320  25.158  1.00  0.00    -0.055 SA
BRANCH   6   7
ATOM      7  C   UNL A   1      32.584  23.649  24.636  1.00  0.00     0.277 A 
ATOM      8  C   UNL A   1      33.527  25.557  24.492  1.00  0.00     0.254 A 
ATOM      9  N   UNL A   1      33.757  24.940  23.350  1.00  0.00    -0.108 NA
ATOM     10  O   UNL A   1      32.800  24.783  25.360  1.00  0.00    -0.412 OA
ATOM     11  N   UNL A   1      33.151  23.704  23.449  1.00  0.00    -0.101 NA
BRANCH   8  12
ATOM     12  C   UNL A   1      33.812  26.978  24.843  1.00  0.00     0.328 C 
BRANCH  12  13
ATOM     13  O   UNL A   1      33.434  27.893  23.807  1.00  0.00    -0.484 OA
BRANCH  13  14
ATOM     14  C   UNL A   1      32.146  28.349  23.758  1.00  0.00     0.120 A 
ATOM     15  C   UNL A   1      29.532  29.292  23.188  1.00  0.00    -0.042 A 
ATOM     16  C   UNL A   1      30.032  28.127  22.587  1.00  0.00     0.008 A 
ATOM     17  C   UNL A   1      30.350  29.922  24.144  1.00  0.00     0.008 A 
ATOM     18  C   UNL A   1      31.322  27.665  22.868  1.00  0.00     0.047 A 
ATOM     19  C   UNL A   1      31.632  29.447  24.441  1.00  0.00     0.047 A 
BRANCH  15  20
ATOM     20  C   UNL A   1      28.178  29.910  22.805  1.00  0.00    -0.013 C 
ATOM     21  C   UNL A   1      28.104  30.391  21.339  1.00  0.00     0.016 C 
ATOM     22  C   UNL A   1      27.896  31.138  23.699  1.00  0.00     0.016 C 
ATOM     23  C   UNL A   1      27.060  28.866  23.008  1.00  0.00     0.016 C 
ENDBRANCH  15  20
ENDBRANCH  13  14
ENDBRANCH  12  13
ENDBRANCH   8  12
ENDBRANCH   6   7
ENDBRANCH   5   6
ENDBRANCH   1   5
BRANCH   3  24
ATOM     24  C   UNL A   1      35.396  21.180  24.905  1.00  0.00     0.117 C 
BRANCH  24  25
ATOM     25  C   UNL A   1      35.517  22.316  25.916  1.00  0.00     0.042 C 
BRANCH  25  26
ATOM     26  C   UNL A   1      36.918  22.911  26.014  1.00  0.00     0.118 C 
BRANCH  26  27
ATOM     27  N   UNL A   1      37.953  21.891  26.096  1.00  0.00    -0.352 N 
ATOM     28  C   UNL A   1      39.300  22.025  26.311  1.00  0.00     0.251 C 
ATOM     29  H   UNL A   1      37.637  20.965  25.981  1.00  0.00     0.163 HD
ATOM     30  O   UNL A   1      40.036  21.051  26.142  1.00  0.00    -0.269 OA
BRANCH  28  31
ATOM     31  C   UNL A   1      39.872  23.323  26.726  1.00  0.00     0.039 A 
ATOM     32  C   UNL A   1      40.514  23.416  27.964  1.00  0.00     0.014 A 
ATOM     33  C   UNL A   1      39.750  24.457  25.918  1.00  0.00     0.014 A 
ATOM     34  C   UNL A   1      41.070  24.631  28.369  1.00  0.00     0.010 A 
ATOM     35  C   UNL A   1      40.379  25.643  26.284  1.00  0.00     0.010 A 
ATOM     36  C   UNL A   1      41.028  25.751  27.522  1.00  0.00    -0.014 A 
BRANCH  36  37
ATOM     37  C   UNL A   1      41.622  27.050  27.930  1.00  0.00     0.031 A 
ATOM     38  C   UNL A   1      43.105  27.277  27.795  1.00  0.00     0.074 A 
ATOM     39  C   UNL A   1      40.840  28.007  28.467  1.00  0.00     0.049 A 
ATOM     40  N   UNL A   1      43.814  28.327  28.122  1.00  0.00    -0.248 NA
ATOM     41  C   UNL A   1      43.899  26.166  27.244  1.00  0.00     0.031 C 
ATOM     42  C   UNL A   1      39.396  27.900  28.683  1.00  0.00     0.029 A 
ATOM     43  N   UNL A   1      41.153  29.261  28.929  1.00  0.00    -0.354 N 
ATOM     44  C   UNL A   1      45.135  27.994  27.840  1.00  0.00     0.074 A 
ATOM     45  C   UNL A   1      45.134  26.627  27.370  1.00  0.00     0.031 C 
ATOM     46  C   UNL A   1      38.943  29.054  29.198  1.00  0.00     0.029 A 
ATOM     47  C   UNL A   1      40.067  29.966  29.388  1.00  0.00     0.049 A 
ATOM     48  H   UNL A   1      42.070  29.621  28.931  1.00  0.00     0.167 HD
ATOM     49  C   UNL A   1      46.247  28.762  27.943  1.00  0.00     0.031 A 
ATOM     50  C   UNL A   1      39.982  31.208  29.902  1.00  0.00     0.031 A 
ATOM     51  C   UNL A   1      46.243  30.124  28.408  1.00  0.00     0.049 A 
ATOM     52  C   UNL A   1      41.229  32.041  30.018  1.00  0.00     0.074 A 
ATOM     53  C   UNL A   1      47.305  31.007  28.498  1.00  0.00     0.029 A 
ATOM     54  N   UNL A   1      45.121  30.801  28.865  1.00  0.00    -0.354 N 
ATOM     55  N   UNL A   1      42.461  31.733  29.688  1.00  0.00    -0.248 NA
ATOM     56  C   UNL A   1      41.070  33.397  30.561  1.00  0.00     0.031 C 
ATOM     57  C   UNL A   1      46.836  32.197  29.064  1.00  0.00     0.029 A 
ATOM     58  C   UNL A   1      45.468  32.081  29.262  1.00  0.00     0.049 A 
ATOM     59  H   UNL A   1      44.212  30.425  28.902  1.00  0.00     0.167 HD
ATOM     60  C   UNL A   1      43.218  32.870  29.948  1.00  0.00     0.074 A 
ATOM     61  C   UNL A   1      42.303  33.873  30.456  1.00  0.00     0.031 C 
ATOM     62  C   UNL A   1      44.549  33.069  29.771  1.00  0.00     0.031 A 
BRANCH  49  63
ATOM     63  C   UNL A   1      47.561  28.125  27.565  1.00  0.00    -0.014 A 
ATOM     64  C   UNL A   1      48.342  27.437  28.512  1.00  0.00     0.010 A 
ATOM     65  C   UNL A   1      48.027  28.221  26.241  1.00  0.00     0.010 A 
ATOM     66  C   UNL A   1      49.593  26.921  28.163  1.00  0.00     0.020 A 
ATOM     67  C   UNL A   1      49.262  27.676  25.877  1.00  0.00     0.020 A 
ATOM     68  C   UNL A   1      50.049  27.054  26.848  1.00  0.00     0.054 A 
BRANCH  68  69
ATOM     69  S   UNL A   1      51.686  26.396  26.425  1.00  0.00     0.124 S 
ATOM     70  O   UNL A   1      51.667  26.460  24.965  1.00  0.00    -0.237 OA
ATOM     71  O   UNL A   1      52.590  27.335  27.081  1.00  0.00    -0.237 OA
ATOM     72  O   UNL A   1      51.674  25.048  26.987  1.00  0.00    -0.744 OA
ENDBRANCH  68  69
ENDBRANCH  49  63
BRANCH  50  73
ATOM     73  C   UNL A   1      38.654  31.752  30.299  1.00  0.00    -0.014 A 
ATOM     74  C   UNL A   1      38.173  31.562  31.606  1.00  0.00     0.010 A 
ATOM     75  C   UNL A   1      37.883  32.498  29.388  1.00  0.00     0.010 A 
ATOM     76  C   UNL A   1      36.944  32.103  31.996  1.00  0.00     0.020 A 
ATOM     77  C   UNL A   1      36.666  33.063  29.782  1.00  0.00     0.020 A 
ATOM     78  C   UNL A   1      36.202  32.857  31.083  1.00  0.00     0.054 A 
BRANCH  78  79
ATOM     79  S   UNL A   1      34.649  33.613  31.638  1.00  0.00     0.124 S 
ATOM     80  O   UNL A   1      33.960  33.858  30.374  1.00  0.00    -0.237 OA
ATOM     81  O   UNL A   1      34.073  32.567  32.479  1.00  0.00    -0.237 OA
ATOM     82  O   UNL A   1      35.086  34.809  32.355  1.00  0.00    -0.744 OA
ENDBRANCH  78  79
ENDBRANCH  50  73
BRANCH  62  83
ATOM     83  C   UNL A   1      45.093  34.440  30.082  1.00  0.00    -0.014 A 
ATOM     84  C   UNL A   1      45.142  35.453  29.108  1.00  0.00     0.010 A 
ATOM     85  C   UNL A   1      45.524  34.727  31.390  1.00  0.00     0.010 A 
ATOM     86  C   UNL A   1      45.647  36.716  29.428  1.00  0.00     0.020 A 
ATOM     87  C   UNL A   1      45.999  35.998  31.722  1.00  0.00     0.020 A 
ATOM     88  C   UNL A   1      46.075  36.980  30.734  1.00  0.00     0.054 A 
BRANCH  88  89
ATOM     89  S   UNL A   1      46.697  38.636  31.132  1.00  0.00     0.124 S 
ATOM     90  O   UNL A   1      45.966  38.949  32.357  1.00  0.00    -0.237 OA
ATOM     91  O   UNL A   1      48.131  38.410  31.295  1.00  0.00    -0.237 OA
ATOM     92  O   UNL A   1      46.327  39.435  29.965  1.00  0.00    -0.744 OA
ENDBRANCH  88  89
ENDBRANCH  62  83
ENDBRANCH  36  37
ENDBRANCH  28  31
ENDBRANCH  26  27
ENDBRANCH  25  26
ENDBRANCH  24  25
ENDBRANCH   3  24
TORSDOF 19
ENDMDL
