MODEL 1
REMARK VINA RESULT:     -11.8      0.000      0.000
REMARK SMILES Cc1nn(C)cc1-c1ccnc2nc(CCC(=O)NCCCNC(=O)c3ccc(-c4c5nc(c(-c6ccc(S(=O)(=O)[O-])cc6)c6ccc([nH]6)c(-c6ccc(S(=O)(=O)[O-])cc6)c6nc(c(-c7ccc(S(=O)(=O)[O-])cc7)c7ccc4[nH]7)C=C6)C=C5)cc3)nn12
REMARK SMILES IDX 21 1 20 2 19 3 17 4 18 5 16 7 15 8 14 9 8 10 9 11 87 12
REMARK SMILES IDX 10 13 12 14 86 15 11 16 13 17 7 18 1 19 2 20 3 21 4 22 6 23
REMARK SMILES IDX 5 24 22 25 23 26 24 27 25 29 26 30 27 31 85 32 28 33 84 34
REMARK SMILES IDX 29 35 30 36 31 37 78 38 32 39 83 40 77 41 79 42 33 43 82 44
REMARK SMILES IDX 76 45 75 46 34 48 64 49 45 50 63 51 46 52 49 53 62 54 80 55
REMARK SMILES IDX 47 56 48 57 61 59 81 60 50 61 35 62 36 63 44 64 37 65 43 66
REMARK SMILES IDX 38 67 39 68 40 69 41 70 42 71 65 72 66 73 74 74 67 75 73 76
REMARK SMILES IDX 68 77 69 78 70 79 71 80 72 81 51 82 52 83 60 84 53 85 59 86
REMARK SMILES IDX 54 87 55 88 56 89 57 90 58 91
REMARK H PARENT 19 6 23 28 79 47 49 58
REMARK Flexibility Score: inf
ROOT
ATOM      1  C   UNL A   1      34.474  32.621  29.030  1.00  0.00     0.042 C 
ENDROOT
BRANCH   1   2
ATOM      2  C   UNL A   1      34.340  31.323  28.206  1.00  0.00     0.117 C 
BRANCH   2   3
ATOM      3  N   UNL A   1      33.175  31.389  27.308  1.00  0.00    -0.356 N 
ATOM      4  C   UNL A   1      32.336  30.446  26.792  1.00  0.00     0.220 C 
ATOM      5  O   UNL A   1      31.519  30.812  25.942  1.00  0.00    -0.275 OA
ATOM      6  H   UNL A   1      32.955  32.305  27.020  1.00  0.00     0.163 HD
BRANCH   4   7
ATOM      7  C   UNL A   1      32.335  29.009  27.265  1.00  0.00     0.108 C 
BRANCH   7   8
ATOM      8  C   UNL A   1      33.259  28.125  26.435  1.00  0.00     0.089 C 
BRANCH   8   9
ATOM      9  C   UNL A   1      32.704  26.764  26.278  1.00  0.00     0.153 A 
ATOM     10  C   UNL A   1      32.745  23.376  25.467  1.00  0.00     0.081 A 
ATOM     11  C   UNL A   1      31.799  22.494  25.839  1.00  0.00     0.049 A 
ATOM     12  N   UNL A   1      32.538  24.724  25.819  1.00  0.00    -0.196 N 
ATOM     13  C   UNL A   1      30.672  23.006  26.661  1.00  0.00     0.117 A 
ATOM     14  C   UNL A   1      31.433  25.120  26.597  1.00  0.00     0.252 A 
ATOM     15  N   UNL A   1      33.347  25.799  25.626  1.00  0.00    -0.149 NA
ATOM     16  N   UNL A   1      30.492  24.235  27.030  1.00  0.00    -0.220 NA
ATOM     17  N   UNL A   1      31.544  26.397  26.889  1.00  0.00    -0.194 NA
BRANCH  10  18
ATOM     18  C   UNL A   1      34.005  22.967  24.915  1.00  0.00     0.041 A 
ATOM     19  C   UNL A   1      33.852  23.269  22.345  1.00  0.00     0.069 C 
ATOM     20  C   UNL A   1      34.534  22.917  23.606  1.00  0.00     0.069 A 
ATOM     21  N   UNL A   1      35.786  22.413  23.577  1.00  0.00    -0.178 NA
ATOM     22  N   UNL A   1      36.055  22.137  24.859  1.00  0.00    -0.275 N 
ATOM     23  C   UNL A   1      34.987  22.371  25.657  1.00  0.00     0.119 A 
ATOM     24  C   UNL A   1      37.274  21.486  25.277  1.00  0.00     0.173 C 
ENDBRANCH  10  18
ENDBRANCH   8   9
ENDBRANCH   7   8
ENDBRANCH   4   7
ENDBRANCH   2   3
ENDBRANCH   1   2
BRANCH   1  25
ATOM     25  C   UNL A   1      34.757  32.601  30.561  1.00  0.00     0.118 C 
BRANCH  25  26
ATOM     26  N   UNL A   1      35.349  31.354  31.114  1.00  0.00    -0.352 N 
ATOM     27  C   UNL A   1      36.486  30.565  31.202  1.00  0.00     0.251 C 
ATOM     28  H   UNL A   1      34.644  30.904  31.632  1.00  0.00     0.163 HD
ATOM     29  O   UNL A   1      36.360  29.688  32.074  1.00  0.00    -0.269 OA
BRANCH  27  30
ATOM     30  C   UNL A   1      37.782  30.478  30.406  1.00  0.00     0.039 A 
ATOM     31  C   UNL A   1      38.980  30.521  31.160  1.00  0.00     0.014 A 
ATOM     32  C   UNL A   1      37.988  30.376  29.037  1.00  0.00     0.014 A 
ATOM     33  C   UNL A   1      40.278  30.296  30.607  1.00  0.00     0.010 A 
ATOM     34  C   UNL A   1      39.292  30.060  28.487  1.00  0.00     0.010 A 
ATOM     35  C   UNL A   1      40.472  29.955  29.262  1.00  0.00    -0.014 A 
BRANCH  35  36
ATOM     36  C   UNL A   1      41.854  29.480  28.747  1.00  0.00     0.031 A 
ATOM     37  C   UNL A   1      43.069  30.406  28.606  1.00  0.00     0.074 A 
ATOM     38  C   UNL A   1      42.082  28.195  28.348  1.00  0.00     0.049 A 
ATOM     39  N   UNL A   1      44.299  30.115  28.220  1.00  0.00    -0.248 NA
ATOM     40  C   UNL A   1      42.882  31.827  28.911  1.00  0.00     0.031 C 
ATOM     41  C   UNL A   1      41.090  27.121  28.298  1.00  0.00     0.029 A 
ATOM     42  N   UNL A   1      43.237  27.563  27.895  1.00  0.00    -0.354 N 
ATOM     43  C   UNL A   1      45.012  31.315  28.207  1.00  0.00     0.074 A 
ATOM     44  C   UNL A   1      44.056  32.343  28.571  1.00  0.00     0.031 C 
ATOM     45  C   UNL A   1      41.670  25.980  27.886  1.00  0.00     0.029 A 
ATOM     46  C   UNL A   1      43.086  26.217  27.610  1.00  0.00     0.049 A 
ATOM     47  H   UNL A   1      44.094  28.036  27.787  1.00  0.00     0.167 HD
ATOM     48  C   UNL A   1      46.328  31.570  27.958  1.00  0.00     0.031 A 
ATOM     49  C   UNL A   1      43.946  25.258  27.187  1.00  0.00     0.031 A 
ATOM     50  C   UNL A   1      47.345  30.598  27.628  1.00  0.00     0.049 A 
ATOM     51  C   UNL A   1      45.411  25.548  26.939  1.00  0.00     0.074 A 
ATOM     52  C   UNL A   1      48.712  30.804  27.478  1.00  0.00     0.029 A 
ATOM     53  N   UNL A   1      47.130  29.253  27.388  1.00  0.00    -0.354 N 
ATOM     54  N   UNL A   1      46.063  26.674  27.073  1.00  0.00    -0.248 NA
ATOM     55  C   UNL A   1      46.259  24.421  26.503  1.00  0.00     0.031 C 
ATOM     56  C   UNL A   1      49.312  29.599  27.097  1.00  0.00     0.029 A 
ATOM     57  C   UNL A   1      48.331  28.626  27.073  1.00  0.00     0.049 A 
ATOM     58  H   UNL A   1      46.255  28.806  27.434  1.00  0.00     0.167 HD
ATOM     59  C   UNL A   1      47.396  26.381  26.777  1.00  0.00     0.074 A 
ATOM     60  C   UNL A   1      47.465  24.973  26.467  1.00  0.00     0.031 C 
ATOM     61  C   UNL A   1      48.458  27.222  26.774  1.00  0.00     0.031 A 
BRANCH  48  62
ATOM     62  C   UNL A   1      46.789  33.008  28.068  1.00  0.00    -0.014 A 
ATOM     63  C   UNL A   1      46.872  33.826  26.926  1.00  0.00     0.010 A 
ATOM     64  C   UNL A   1      47.071  33.571  29.329  1.00  0.00     0.010 A 
ATOM     65  C   UNL A   1      47.297  35.152  27.032  1.00  0.00     0.020 A 
ATOM     66  C   UNL A   1      47.462  34.911  29.444  1.00  0.00     0.020 A 
ATOM     67  C   UNL A   1      47.599  35.684  28.289  1.00  0.00     0.054 A 
BRANCH  67  68
ATOM     68  S   UNL A   1      48.158  37.406  28.392  1.00  0.00     0.124 S 
ATOM     69  O   UNL A   1      49.587  37.271  28.099  1.00  0.00    -0.237 OA
ATOM     70  O   UNL A   1      47.370  38.062  27.345  1.00  0.00    -0.237 OA
ATOM     71  O   UNL A   1      47.836  37.801  29.752  1.00  0.00    -0.744 OA
ENDBRANCH  67  68
ENDBRANCH  48  62
BRANCH  49  72
ATOM     72  C   UNL A   1      43.467  23.851  26.990  1.00  0.00    -0.014 A 
ATOM     73  C   UNL A   1      43.151  23.381  25.700  1.00  0.00     0.010 A 
ATOM     74  C   UNL A   1      43.266  22.999  28.091  1.00  0.00     0.010 A 
ATOM     75  C   UNL A   1      42.625  22.097  25.518  1.00  0.00     0.020 A 
ATOM     76  C   UNL A   1      42.771  21.702  27.908  1.00  0.00     0.020 A 
ATOM     77  C   UNL A   1      42.443  21.263  26.623  1.00  0.00     0.054 A 
BRANCH  77  78
ATOM     78  S   UNL A   1      41.814  19.581  26.353  1.00  0.00     0.124 S 
ATOM     79  O   UNL A   1      42.507  19.188  25.131  1.00  0.00    -0.237 OA
ATOM     80  O   UNL A   1      42.235  18.890  27.570  1.00  0.00    -0.237 OA
ATOM     81  O   UNL A   1      40.372  19.773  26.222  1.00  0.00    -0.744 OA
ENDBRANCH  77  78
ENDBRANCH  49  72
BRANCH  61  82
ATOM     82  C   UNL A   1      49.834  26.663  26.483  1.00  0.00    -0.014 A 
ATOM     83  C   UNL A   1      50.640  26.104  27.491  1.00  0.00     0.010 A 
ATOM     84  C   UNL A   1      50.305  26.635  25.155  1.00  0.00     0.010 A 
ATOM     85  C   UNL A   1      51.892  25.551  27.183  1.00  0.00     0.020 A 
ATOM     86  C   UNL A   1      51.544  26.063  24.838  1.00  0.00     0.020 A 
ATOM     87  C   UNL A   1      52.336  25.532  25.858  1.00  0.00     0.054 A 
BRANCH  87  88
ATOM     88  S   UNL A   1      53.936  24.761  25.476  1.00  0.00     0.124 S 
ATOM     89  O   UNL A   1      54.638  24.865  26.752  1.00  0.00    -0.237 OA
ATOM     90  O   UNL A   1      53.554  23.408  25.078  1.00  0.00    -0.237 OA
ATOM     91  O   UNL A   1      54.475  25.591  24.401  1.00  0.00    -0.744 OA
ENDBRANCH  87  88
ENDBRANCH  61  82
ENDBRANCH  35  36
ENDBRANCH  27  30
ENDBRANCH  25  26
ENDBRANCH   1  25
TORSDOF 16
ENDMDL
MODEL 2
REMARK VINA RESULT:     -11.5      6.692     13.429
REMARK SMILES Cc1nn(C)cc1-c1ccnc2nc(CCC(=O)NCCCNC(=O)c3ccc(-c4c5nc(c(-c6ccc(S(=O)(=O)[O-])cc6)c6ccc([nH]6)c(-c6ccc(S(=O)(=O)[O-])cc6)c6nc(c(-c7ccc(S(=O)(=O)[O-])cc7)c7ccc4[nH]7)C=C6)C=C5)cc3)nn12
REMARK SMILES IDX 21 1 20 2 19 3 17 4 18 5 16 7 15 8 14 9 8 10 9 11 87 12
REMARK SMILES IDX 10 13 12 14 86 15 11 16 13 17 7 18 1 19 2 20 3 21 4 22 6 23
REMARK SMILES IDX 5 24 22 25 23 26 24 27 25 29 26 30 27 31 85 32 28 33 84 34
REMARK SMILES IDX 29 35 30 36 31 37 78 38 32 39 83 40 77 41 79 42 33 43 82 44
REMARK SMILES IDX 76 45 75 46 34 48 64 49 45 50 63 51 46 52 49 53 62 54 80 55
REMARK SMILES IDX 47 56 48 57 61 59 81 60 50 61 35 62 36 63 44 64 37 65 43 66
REMARK SMILES IDX 38 67 39 68 40 69 41 70 42 71 65 72 66 73 74 74 67 75 73 76
REMARK SMILES IDX 68 77 69 78 70 79 71 80 72 81 51 82 52 83 60 84 53 85 59 86
REMARK SMILES IDX 54 87 55 88 56 89 57 90 58 91
REMARK H PARENT 19 6 23 28 79 47 49 58
REMARK Flexibility Score: inf
ROOT
ATOM      1  C   UNL A   1      43.580  26.554  25.656  1.00  0.00     0.042 C 
ENDROOT
BRANCH   1   2
ATOM      2  C   UNL A   1      45.009  26.739  26.209  1.00  0.00     0.117 C 
BRANCH   2   3
ATOM      3  N   UNL A   1      46.013  26.503  25.156  1.00  0.00    -0.356 N 
ATOM      4  C   UNL A   1      46.728  25.406  24.774  1.00  0.00     0.220 C 
ATOM      5  O   UNL A   1      47.609  25.568  23.924  1.00  0.00    -0.275 OA
ATOM      6  H   UNL A   1      46.208  27.304  24.616  1.00  0.00     0.163 HD
BRANCH   4   7
ATOM      7  C   UNL A   1      46.436  24.019  25.302  1.00  0.00     0.108 C 
BRANCH   7   8
ATOM      8  C   UNL A   1      45.986  23.063  24.203  1.00  0.00     0.089 C 
BRANCH   8   9
ATOM      9  C   UNL A   1      45.294  21.884  24.765  1.00  0.00     0.153 A 
ATOM     10  C   UNL A   1      42.654  20.116  26.193  1.00  0.00     0.081 A 
ATOM     11  C   UNL A   1      42.586  18.774  26.261  1.00  0.00     0.049 A 
ATOM     12  N   UNL A   1      43.826  20.672  25.646  1.00  0.00    -0.196 N 
ATOM     13  C   UNL A   1      43.711  18.002  25.671  1.00  0.00     0.117 A 
ATOM     14  C   UNL A   1      44.848  19.860  25.116  1.00  0.00     0.252 A 
ATOM     15  N   UNL A   1      44.132  21.975  25.407  1.00  0.00    -0.149 NA
ATOM     16  N   UNL A   1      44.775  18.500  25.125  1.00  0.00    -0.220 NA
ATOM     17  N   UNL A   1      45.762  20.623  24.558  1.00  0.00    -0.194 NA
BRANCH  10  18
ATOM     18  C   UNL A   1      41.526  20.959  26.472  1.00  0.00     0.041 A 
ATOM     19  C   UNL A   1      42.154  22.433  28.510  1.00  0.00     0.069 C 
ATOM     20  C   UNL A   1      41.266  21.967  27.427  1.00  0.00     0.069 A 
ATOM     21  N   UNL A   1      40.016  22.467  27.318  1.00  0.00    -0.178 NA
ATOM     22  N   UNL A   1      39.478  21.779  26.304  1.00  0.00    -0.275 N 
ATOM     23  C   UNL A   1      40.318  20.821  25.846  1.00  0.00     0.119 A 
ATOM     24  C   UNL A   1      38.099  21.931  25.903  1.00  0.00     0.173 C 
ENDBRANCH  10  18
ENDBRANCH   8   9
ENDBRANCH   7   8
ENDBRANCH   4   7
ENDBRANCH   2   3
ENDBRANCH   1   2
BRANCH   1  25
ATOM     25  C   UNL A   1      42.908  25.153  25.562  1.00  0.00     0.118 C 
BRANCH  25  26
ATOM     26  N   UNL A   1      41.444  25.095  25.816  1.00  0.00    -0.352 N 
ATOM     27  C   UNL A   1      40.356  25.724  26.402  1.00  0.00     0.251 C 
ATOM     28  H   UNL A   1      41.109  24.271  25.394  1.00  0.00     0.163 HD
ATOM     29  O   UNL A   1      39.285  25.216  26.027  1.00  0.00    -0.269 OA
BRANCH  27  30
ATOM     30  C   UNL A   1      40.200  26.808  27.461  1.00  0.00     0.039 A 
ATOM     31  C   UNL A   1      39.448  26.453  28.608  1.00  0.00     0.014 A 
ATOM     32  C   UNL A   1      40.668  28.114  27.483  1.00  0.00     0.014 A 
ATOM     33  C   UNL A   1      39.327  27.279  29.767  1.00  0.00     0.010 A 
ATOM     34  C   UNL A   1      40.624  28.917  28.690  1.00  0.00     0.010 A 
ATOM     35  C   UNL A   1      39.999  28.503  29.891  1.00  0.00    -0.014 A 
BRANCH  35  36
ATOM     36  C   UNL A   1      40.048  29.256  31.244  1.00  0.00     0.031 A 
ATOM     37  C   UNL A   1      41.121  29.009  32.312  1.00  0.00     0.074 A 
ATOM     38  C   UNL A   1      39.110  30.182  31.599  1.00  0.00     0.049 A 
ATOM     39  N   UNL A   1      41.291  29.608  33.478  1.00  0.00    -0.248 NA
ATOM     40  C   UNL A   1      42.105  27.953  32.058  1.00  0.00     0.031 C 
ATOM     41  C   UNL A   1      37.934  30.559  30.814  1.00  0.00     0.029 A 
ATOM     42  N   UNL A   1      38.990  30.984  32.730  1.00  0.00    -0.354 N 
ATOM     43  C   UNL A   1      42.372  28.982  34.100  1.00  0.00     0.074 A 
ATOM     44  C   UNL A   1      42.780  27.919  33.200  1.00  0.00     0.031 C 
ATOM     45  C   UNL A   1      37.247  31.522  31.452  1.00  0.00     0.029 A 
ATOM     46  C   UNL A   1      37.902  31.840  32.719  1.00  0.00     0.049 A 
ATOM     47  H   UNL A   1      39.629  30.946  33.478  1.00  0.00     0.167 HD
ATOM     48  C   UNL A   1      43.009  29.254  35.273  1.00  0.00     0.031 A 
ATOM     49  C   UNL A   1      37.456  32.781  33.588  1.00  0.00     0.031 A 
ATOM     50  C   UNL A   1      42.687  30.315  36.200  1.00  0.00     0.049 A 
ATOM     51  C   UNL A   1      38.186  33.093  34.877  1.00  0.00     0.074 A 
ATOM     52  C   UNL A   1      43.378  30.692  37.346  1.00  0.00     0.029 A 
ATOM     53  N   UNL A   1      41.598  31.162  36.112  1.00  0.00    -0.354 N 
ATOM     54  N   UNL A   1      39.284  32.562  35.353  1.00  0.00    -0.248 NA
ATOM     55  C   UNL A   1      37.622  34.152  35.736  1.00  0.00     0.031 C 
ATOM     56  C   UNL A   1      42.680  31.728  37.975  1.00  0.00     0.029 A 
ATOM     57  C   UNL A   1      41.588  32.042  37.189  1.00  0.00     0.049 A 
ATOM     58  H   UNL A   1      40.928  31.145  35.392  1.00  0.00     0.167 HD
ATOM     59  C   UNL A   1      39.557  33.248  36.537  1.00  0.00     0.074 A 
ATOM     60  C   UNL A   1      38.522  34.239  36.706  1.00  0.00     0.031 C 
ATOM     61  C   UNL A   1      40.590  33.060  37.395  1.00  0.00     0.031 A 
BRANCH  48  62
ATOM     62  C   UNL A   1      44.195  28.385  35.638  1.00  0.00    -0.014 A 
ATOM     63  C   UNL A   1      44.021  27.212  36.395  1.00  0.00     0.010 A 
ATOM     64  C   UNL A   1      45.483  28.700  35.160  1.00  0.00     0.010 A 
ATOM     65  C   UNL A   1      45.116  26.413  36.730  1.00  0.00     0.020 A 
ATOM     66  C   UNL A   1      46.578  27.882  35.461  1.00  0.00     0.020 A 
ATOM     67  C   UNL A   1      46.390  26.758  36.268  1.00  0.00     0.054 A 
BRANCH  67  68
ATOM     68  S   UNL A   1      47.794  25.706  36.728  1.00  0.00     0.124 S 
ATOM     69  O   UNL A   1      47.834  24.761  35.609  1.00  0.00    -0.237 OA
ATOM     70  O   UNL A   1      48.905  26.659  36.774  1.00  0.00    -0.237 OA
ATOM     71  O   UNL A   1      47.407  25.140  38.009  1.00  0.00    -0.744 OA
ENDBRANCH  67  68
ENDBRANCH  48  62
BRANCH  49  72
ATOM     72  C   UNL A   1      36.228  33.579  33.268  1.00  0.00    -0.014 A 
ATOM     73  C   UNL A   1      34.950  33.001  33.400  1.00  0.00     0.010 A 
ATOM     74  C   UNL A   1      36.332  34.891  32.773  1.00  0.00     0.010 A 
ATOM     75  C   UNL A   1      33.804  33.711  33.026  1.00  0.00     0.020 A 
ATOM     76  C   UNL A   1      35.184  35.616  32.428  1.00  0.00     0.020 A 
ATOM     77  C   UNL A   1      33.928  35.017  32.546  1.00  0.00     0.054 A 
BRANCH  77  78
ATOM     78  S   UNL A   1      32.422  35.938  32.120  1.00  0.00     0.124 S 
ATOM     79  O   UNL A   1      32.671  37.234  32.743  1.00  0.00    -0.237 OA
ATOM     80  O   UNL A   1      32.447  35.922  30.660  1.00  0.00    -0.237 OA
ATOM     81  O   UNL A   1      31.355  35.146  32.727  1.00  0.00    -0.744 OA
ENDBRANCH  77  78
ENDBRANCH  49  72
BRANCH  61  82
ATOM     82  C   UNL A   1      40.721  33.976  38.594  1.00  0.00    -0.014 A 
ATOM     83  C   UNL A   1      41.372  35.220  38.512  1.00  0.00     0.010 A 
ATOM     84  C   UNL A   1      40.120  33.611  39.815  1.00  0.00     0.010 A 
ATOM     85  C   UNL A   1      41.437  36.068  39.628  1.00  0.00     0.020 A 
ATOM     86  C   UNL A   1      40.162  34.463  40.926  1.00  0.00     0.020 A 
ATOM     87  C   UNL A   1      40.831  35.685  40.828  1.00  0.00     0.054 A 
BRANCH  87  88
ATOM     88  S   UNL A   1      40.881  36.823  42.244  1.00  0.00     0.124 S 
ATOM     89  O   UNL A   1      42.226  37.383  42.138  1.00  0.00    -0.237 OA
ATOM     90  O   UNL A   1      39.791  37.750  41.949  1.00  0.00    -0.237 OA
ATOM     91  O   UNL A   1      40.658  35.955  43.397  1.00  0.00    -0.744 OA
ENDBRANCH  87  88
ENDBRANCH  61  82
ENDBRANCH  35  36
ENDBRANCH  27  30
ENDBRANCH  25  26
ENDBRANCH   1  25
TORSDOF 16
ENDMDL
MODEL 3
REMARK VINA RESULT:     -11.5      6.088     11.897
REMARK SMILES Cc1nn(C)cc1-c1ccnc2nc(CCC(=O)NCCCNC(=O)c3ccc(-c4c5nc(c(-c6ccc(S(=O)(=O)[O-])cc6)c6ccc([nH]6)c(-c6ccc(S(=O)(=O)[O-])cc6)c6nc(c(-c7ccc(S(=O)(=O)[O-])cc7)c7ccc4[nH]7)C=C6)C=C5)cc3)nn12
REMARK SMILES IDX 21 1 20 2 19 3 17 4 18 5 16 7 15 8 14 9 8 10 9 11 87 12
REMARK SMILES IDX 10 13 12 14 86 15 11 16 13 17 7 18 1 19 2 20 3 21 4 22 6 23
REMARK SMILES IDX 5 24 22 25 23 26 24 27 25 29 26 30 27 31 85 32 28 33 84 34
REMARK SMILES IDX 29 35 30 36 31 37 78 38 32 39 83 40 77 41 79 42 33 43 82 44
REMARK SMILES IDX 76 45 75 46 34 48 64 49 45 50 63 51 46 52 49 53 62 54 80 55
REMARK SMILES IDX 47 56 48 57 61 59 81 60 50 61 35 62 36 63 44 64 37 65 43 66
REMARK SMILES IDX 38 67 39 68 40 69 41 70 42 71 65 72 66 73 74 74 67 75 73 76
REMARK SMILES IDX 68 77 69 78 70 79 71 80 72 81 51 82 52 83 60 84 53 85 59 86
REMARK SMILES IDX 54 87 55 88 56 89 57 90 58 91
REMARK H PARENT 19 6 23 28 79 47 49 58
REMARK Flexibility Score: inf
ROOT
ATOM      1  C   UNL A   1      40.715  21.564  27.229  1.00  0.00     0.042 C 
ENDROOT
BRANCH   1   2
ATOM      2  C   UNL A   1      39.646  22.366  26.457  1.00  0.00     0.117 C 
BRANCH   2   3
ATOM      3  N   UNL A   1      38.711  21.462  25.765  1.00  0.00    -0.356 N 
ATOM      4  C   UNL A   1      37.580  21.669  25.031  1.00  0.00     0.220 C 
ATOM      5  O   UNL A   1      36.931  20.675  24.691  1.00  0.00    -0.275 OA
ATOM      6  H   UNL A   1      38.953  20.511  25.849  1.00  0.00     0.163 HD
BRANCH   4   7
ATOM      7  C   UNL A   1      37.142  23.044  24.578  1.00  0.00     0.108 C 
BRANCH   7   8
ATOM      8  C   UNL A   1      36.471  23.835  25.695  1.00  0.00     0.089 C 
BRANCH   8   9
ATOM      9  C   UNL A   1      35.009  23.609  25.711  1.00  0.00     0.153 A 
ATOM     10  C   UNL A   1      32.047  21.859  25.172  1.00  0.00     0.081 A 
ATOM     11  C   UNL A   1      30.861  22.184  25.719  1.00  0.00     0.049 A 
ATOM     12  N   UNL A   1      33.132  22.715  25.438  1.00  0.00    -0.196 N 
ATOM     13  C   UNL A   1      30.826  23.362  26.625  1.00  0.00     0.117 A 
ATOM     14  C   UNL A   1      33.004  23.817  26.305  1.00  0.00     0.252 A 
ATOM     15  N   UNL A   1      34.434  22.597  25.067  1.00  0.00    -0.149 NA
ATOM     16  N   UNL A   1      31.826  24.133  26.914  1.00  0.00    -0.220 NA
ATOM     17  N   UNL A   1      34.184  24.370  26.481  1.00  0.00    -0.194 NA
BRANCH  10  18
ATOM     18  C   UNL A   1      32.272  20.604  24.511  1.00  0.00     0.041 A 
ATOM     19  C   UNL A   1      31.797  20.970  21.989  1.00  0.00     0.069 C 
ATOM     20  C   UNL A   1      32.198  20.176  23.166  1.00  0.00     0.069 A 
ATOM     21  N   UNL A   1      32.471  18.860  23.032  1.00  0.00    -0.178 NA
ATOM     22  N   UNL A   1      32.712  18.449  24.282  1.00  0.00    -0.275 N 
ATOM     23  C   UNL A   1      32.513  19.438  25.183  1.00  0.00     0.119 A 
ATOM     24  C   UNL A   1      32.959  17.065  24.613  1.00  0.00     0.173 C 
ENDBRANCH  10  18
ENDBRANCH   8   9
ENDBRANCH   7   8
ENDBRANCH   4   7
ENDBRANCH   2   3
ENDBRANCH   1   2
BRANCH   1  25
ATOM     25  C   UNL A   1      42.237  21.849  27.066  1.00  0.00     0.118 C 
BRANCH  25  26
ATOM     26  N   UNL A   1      42.614  22.979  26.176  1.00  0.00    -0.352 N 
ATOM     27  C   UNL A   1      42.803  24.349  26.079  1.00  0.00     0.251 C 
ATOM     28  H   UNL A   1      42.810  22.596  25.290  1.00  0.00     0.163 HD
ATOM     29  O   UNL A   1      43.380  24.650  25.019  1.00  0.00    -0.269 OA
BRANCH  27  30
ATOM     30  C   UNL A   1      42.372  25.543  26.921  1.00  0.00     0.039 A 
ATOM     31  C   UNL A   1      41.307  25.313  27.827  1.00  0.00     0.014 A 
ATOM     32  C   UNL A   1      42.848  26.846  26.939  1.00  0.00     0.014 A 
ATOM     33  C   UNL A   1      40.873  26.261  28.803  1.00  0.00     0.010 A 
ATOM     34  C   UNL A   1      42.472  27.778  27.985  1.00  0.00     0.010 A 
ATOM     35  C   UNL A   1      41.511  27.496  28.985  1.00  0.00    -0.014 A 
BRANCH  35  36
ATOM     36  C   UNL A   1      41.181  28.395  30.203  1.00  0.00     0.031 A 
ATOM     37  C   UNL A   1      41.962  28.354  31.523  1.00  0.00     0.074 A 
ATOM     38  C   UNL A   1      40.140  29.277  30.199  1.00  0.00     0.049 A 
ATOM     39  N   UNL A   1      41.804  29.089  32.610  1.00  0.00    -0.248 NA
ATOM     40  C   UNL A   1      43.029  27.358  31.652  1.00  0.00     0.031 C 
ATOM     41  C   UNL A   1      39.181  29.470  29.110  1.00  0.00     0.029 A 
ATOM     42  N   UNL A   1      39.699  30.187  31.156  1.00  0.00    -0.354 N 
ATOM     43  C   UNL A   1      42.723  28.623  33.550  1.00  0.00     0.074 A 
ATOM     44  C   UNL A   1      43.396  27.503  32.919  1.00  0.00     0.031 C 
ATOM     45  C   UNL A   1      38.309  30.441  29.434  1.00  0.00     0.029 A 
ATOM     46  C   UNL A   1      38.609  30.947  30.772  1.00  0.00     0.049 A 
ATOM     47  H   UNL A   1      40.131  30.282  32.036  1.00  0.00     0.167 HD
ATOM     48  C   UNL A   1      43.030  29.072  34.800  1.00  0.00     0.031 A 
ATOM     49  C   UNL A   1      37.913  31.940  31.380  1.00  0.00     0.031 A 
ATOM     50  C   UNL A   1      42.434  30.200  35.478  1.00  0.00     0.049 A 
ATOM     51  C   UNL A   1      38.279  32.449  32.757  1.00  0.00     0.074 A 
ATOM     52  C   UNL A   1      42.795  30.755  36.701  1.00  0.00     0.029 A 
ATOM     53  N   UNL A   1      41.361  30.944  35.021  1.00  0.00    -0.354 N 
ATOM     54  N   UNL A   1      39.246  32.063  33.550  1.00  0.00    -0.248 NA
ATOM     55  C   UNL A   1      37.464  33.549  33.312  1.00  0.00     0.031 C 
ATOM     56  C   UNL A   1      41.910  31.795  37.005  1.00  0.00     0.029 A 
ATOM     57  C   UNL A   1      41.037  31.933  35.943  1.00  0.00     0.049 A 
ATOM     58  H   UNL A   1      40.895  30.794  34.167  1.00  0.00     0.167 HD
ATOM     59  C   UNL A   1      39.179  32.895  34.669  1.00  0.00     0.074 A 
ATOM     60  C   UNL A   1      38.086  33.813  34.452  1.00  0.00     0.031 C 
ATOM     61  C   UNL A   1      39.970  32.885  35.768  1.00  0.00     0.031 A 
BRANCH  48  62
ATOM     62  C   UNL A   1      44.128  28.346  35.550  1.00  0.00    -0.014 A 
ATOM     63  C   UNL A   1      45.464  28.779  35.464  1.00  0.00     0.010 A 
ATOM     64  C   UNL A   1      43.815  27.271  36.406  1.00  0.00     0.010 A 
ATOM     65  C   UNL A   1      46.473  28.108  36.158  1.00  0.00     0.020 A 
ATOM     66  C   UNL A   1      44.819  26.620  37.133  1.00  0.00     0.020 A 
ATOM     67  C   UNL A   1      46.146  27.027  36.980  1.00  0.00     0.054 A 
BRANCH  67  68
ATOM     68  S   UNL A   1      47.481  26.170  37.860  1.00  0.00     0.124 S 
ATOM     69  O   UNL A   1      47.354  26.729  39.208  1.00  0.00    -0.237 OA
ATOM     70  O   UNL A   1      47.095  24.762  37.734  1.00  0.00    -0.237 OA
ATOM     71  O   UNL A   1      48.682  26.552  37.137  1.00  0.00    -0.744 OA
ENDBRANCH  67  68
ENDBRANCH  48  62
BRANCH  49  72
ATOM     72  C   UNL A   1      36.767  32.598  30.672  1.00  0.00    -0.014 A 
ATOM     73  C   UNL A   1      37.004  33.603  29.714  1.00  0.00     0.010 A 
ATOM     74  C   UNL A   1      35.438  32.269  30.994  1.00  0.00     0.010 A 
ATOM     75  C   UNL A   1      35.939  34.279  29.109  1.00  0.00     0.020 A 
ATOM     76  C   UNL A   1      34.369  32.921  30.367  1.00  0.00     0.020 A 
ATOM     77  C   UNL A   1      34.627  33.930  29.436  1.00  0.00     0.054 A 
BRANCH  77  78
ATOM     78  S   UNL A   1      33.261  34.782  28.595  1.00  0.00     0.124 S 
ATOM     79  O   UNL A   1      32.418  35.186  29.715  1.00  0.00    -0.237 OA
ATOM     80  O   UNL A   1      33.949  35.866  27.898  1.00  0.00    -0.237 OA
ATOM     81  O   UNL A   1      32.699  33.751  27.727  1.00  0.00    -0.744 OA
ENDBRANCH  77  78
ENDBRANCH  49  72
BRANCH  61  82
ATOM     82  C   UNL A   1      39.750  33.935  36.837  1.00  0.00    -0.014 A 
ATOM     83  C   UNL A   1      38.921  33.703  37.949  1.00  0.00     0.010 A 
ATOM     84  C   UNL A   1      40.445  35.158  36.762  1.00  0.00     0.010 A 
ATOM     85  C   UNL A   1      38.774  34.677  38.948  1.00  0.00     0.020 A 
ATOM     86  C   UNL A   1      40.320  36.125  37.768  1.00  0.00     0.020 A 
ATOM     87  C   UNL A   1      39.475  35.881  38.853  1.00  0.00     0.054 A 
BRANCH  87  88
ATOM     88  S   UNL A   1      39.312  37.105  40.186  1.00  0.00     0.124 S 
ATOM     89  O   UNL A   1      38.667  36.325  41.239  1.00  0.00    -0.237 OA
ATOM     90  O   UNL A   1      40.698  37.485  40.445  1.00  0.00    -0.237 OA
ATOM     91  O   UNL A   1      38.484  38.155  39.596  1.00  0.00    -0.744 OA
ENDBRANCH  87  88
ENDBRANCH  61  82
ENDBRANCH  35  36
ENDBRANCH  27  30
ENDBRANCH  25  26
ENDBRANCH   1  25
TORSDOF 16
ENDMDL
