MODEL 1
REMARK VINA RESULT:     -11.0      0.000      0.000
REMARK SMILES C#Cc1cccc(NS(=O)(=O)c2ccc(F)c(C(=O)NCCCNC(=O)c3ccc(-c4c5nc(c(-c6ccc(S(=O)(=O)[O-])cc6)c6ccc([nH]6)c(-c6ccc(S(=O)(=O)[O-])cc6)c6nc(c(-c7ccc(S(=O)(=O)[O-])cc7)c7ccc4[nH]7)C=C6)C=C5)cc3)c2)c1
REMARK SMILES IDX 21 1 20 2 18 3 19 4 17 6 12 7 13 8 87 9 14 10 15 11 16 12
REMARK SMILES IDX 9 13 10 14 11 15 8 16 7 18 3 19 4 20 88 21 5 22 6 23 2 24
REMARK SMILES IDX 1 25 22 26 23 27 24 28 25 29 26 31 27 32 28 33 86 34 29 35
REMARK SMILES IDX 85 36 30 37 31 38 32 39 79 40 33 41 84 42 78 43 80 44 34 45
REMARK SMILES IDX 83 46 77 47 76 48 35 50 65 51 46 52 64 53 47 54 50 55 63 56
REMARK SMILES IDX 81 57 48 58 49 59 62 61 82 62 51 63 36 64 37 65 45 66 38 67
REMARK SMILES IDX 44 68 39 69 40 70 41 71 42 72 43 73 66 74 67 75 75 76 68 77
REMARK SMILES IDX 74 78 69 79 70 80 71 81 72 82 73 83 52 84 53 85 61 86 54 87
REMARK SMILES IDX 60 88 55 89 56 90 57 91 58 92 59 93
REMARK H PARENT 20 5 8 17 24 30 80 49 50 60
REMARK Flexibility Score: inf
ROOT
ATOM      1  C   UNL A   1      35.108  34.069  28.427  1.00  0.00     0.118 C 
ENDROOT
BRANCH   1   2
ATOM      2  N   UNL A   1      33.924  34.895  28.294  1.00  0.00    -0.352 N 
ATOM      3  C   UNL A   1      33.161  35.584  29.198  1.00  0.00     0.254 C 
ATOM      4  O   UNL A   1      32.147  36.135  28.761  1.00  0.00    -0.269 OA
ATOM      5  H   UNL A   1      33.603  34.978  27.366  1.00  0.00     0.163 HD
BRANCH   3   6
ATOM      6  C   UNL A   1      33.547  35.818  30.616  1.00  0.00     0.076 A 
ATOM      7  C   UNL A   1      34.307  34.811  32.703  1.00  0.00     0.088 A 
ATOM      8  C   UNL A   1      33.823  35.899  33.421  1.00  0.00     0.025 A 
ATOM      9  C   UNL A   1      34.082  34.728  31.320  1.00  0.00     0.039 A 
ATOM     10  C   UNL A   1      33.452  37.037  32.709  1.00  0.00     0.041 A 
ATOM     11  C   UNL A   1      33.416  37.012  31.316  1.00  0.00     0.136 A 
ATOM     12  F   UNL A   1      33.369  38.197  30.698  1.00  0.00    -0.206 F 
BRANCH   7  13
ATOM     13  S   UNL A   1      35.494  33.682  33.403  1.00  0.00     0.261 S 
ATOM     14  O   UNL A   1      35.354  32.429  32.693  1.00  0.00    -0.201 OA
ATOM     15  O   UNL A   1      35.319  33.751  34.840  1.00  0.00    -0.201 OA
BRANCH  13  16
ATOM     16  N   UNL A   1      37.056  34.234  33.127  1.00  0.00    -0.280 N 
ATOM     17  H   UNL A   1      37.381  34.924  33.749  1.00  0.00     0.180 HD
BRANCH  16  18
ATOM     18  C   UNL A   1      37.976  33.837  32.109  1.00  0.00     0.050 A 
ATOM     19  C   UNL A   1      40.299  33.329  31.608  1.00  0.00     0.026 A 
ATOM     20  C   UNL A   1      40.060  33.576  30.259  1.00  0.00     0.017 A 
ATOM     21  C   UNL A   1      39.265  33.488  32.536  1.00  0.00     0.044 A 
ATOM     22  C   UNL A   1      38.756  33.790  29.823  1.00  0.00     0.003 A 
ATOM     23  C   UNL A   1      37.701  33.828  30.744  1.00  0.00     0.027 A 
BRANCH  19  24
ATOM     24  C   UNL A   1      41.585  32.853  32.008  1.00  0.00    -0.070 C 
ATOM     25  C   UNL A   1      42.688  32.578  32.402  1.00  0.00     0.010 C 
ENDBRANCH  19  24
ENDBRANCH  16  18
ENDBRANCH  13  16
ENDBRANCH   7  13
ENDBRANCH   3   6
ENDBRANCH   1   2
BRANCH   1  26
ATOM     26  C   UNL A   1      34.796  32.633  28.006  1.00  0.00     0.042 C 
BRANCH  26  27
ATOM     27  C   UNL A   1      35.936  31.684  28.357  1.00  0.00     0.118 C 
BRANCH  27  28
ATOM     28  N   UNL A   1      35.762  31.124  29.692  1.00  0.00    -0.352 N 
ATOM     29  C   UNL A   1      36.535  30.225  30.378  1.00  0.00     0.251 C 
ATOM     30  H   UNL A   1      34.965  31.441  30.176  1.00  0.00     0.163 HD
ATOM     31  O   UNL A   1      36.077  29.667  31.371  1.00  0.00    -0.269 OA
BRANCH  29  32
ATOM     32  C   UNL A   1      37.906  29.933  29.919  1.00  0.00     0.039 A 
ATOM     33  C   UNL A   1      38.946  29.936  30.852  1.00  0.00     0.014 A 
ATOM     34  C   UNL A   1      38.168  29.681  28.570  1.00  0.00     0.014 A 
ATOM     35  C   UNL A   1      40.242  29.638  30.435  1.00  0.00     0.010 A 
ATOM     36  C   UNL A   1      39.440  29.292  28.175  1.00  0.00     0.010 A 
ATOM     37  C   UNL A   1      40.492  29.279  29.100  1.00  0.00    -0.014 A 
BRANCH  37  38
ATOM     38  C   UNL A   1      41.853  28.890  28.653  1.00  0.00     0.031 A 
ATOM     39  C   UNL A   1      42.939  29.926  28.553  1.00  0.00     0.074 A 
ATOM     40  C   UNL A   1      42.089  27.615  28.291  1.00  0.00     0.049 A 
ATOM     41  N   UNL A   1      44.173  29.786  28.145  1.00  0.00    -0.248 NA
ATOM     42  C   UNL A   1      42.587  31.306  28.935  1.00  0.00     0.031 C 
ATOM     43  C   UNL A   1      41.101  26.532  28.311  1.00  0.00     0.029 A 
ATOM     44  N   UNL A   1      43.232  27.011  27.833  1.00  0.00    -0.354 N 
ATOM     45  C   UNL A   1      44.739  31.054  28.209  1.00  0.00     0.074 A 
ATOM     46  C   UNL A   1      43.699  31.962  28.635  1.00  0.00     0.031 C 
ATOM     47  C   UNL A   1      41.692  25.391  27.923  1.00  0.00     0.029 A 
ATOM     48  C   UNL A   1      43.080  25.669  27.571  1.00  0.00     0.049 A 
ATOM     49  H   UNL A   1      44.081  27.492  27.703  1.00  0.00     0.167 HD
ATOM     50  C   UNL A   1      46.017  31.424  27.955  1.00  0.00     0.031 A 
ATOM     51  C   UNL A   1      43.956  24.767  27.091  1.00  0.00     0.031 A 
ATOM     52  C   UNL A   1      47.044  30.512  27.527  1.00  0.00     0.049 A 
ATOM     53  C   UNL A   1      45.359  25.212  26.781  1.00  0.00     0.074 A 
ATOM     54  C   UNL A   1      48.381  30.775  27.289  1.00  0.00     0.029 A 
ATOM     55  N   UNL A   1      46.848  29.164  27.264  1.00  0.00    -0.354 N 
ATOM     56  N   UNL A   1      45.896  26.401  26.915  1.00  0.00    -0.248 NA
ATOM     57  C   UNL A   1      46.279  24.189  26.264  1.00  0.00     0.031 C 
ATOM     58  C   UNL A   1      48.976  29.605  26.809  1.00  0.00     0.029 A 
ATOM     59  C   UNL A   1      48.031  28.590  26.831  1.00  0.00     0.049 A 
ATOM     60  H   UNL A   1      45.993  28.685  27.369  1.00  0.00     0.167 HD
ATOM     61  C   UNL A   1      47.225  26.262  26.533  1.00  0.00     0.074 A 
ATOM     62  C   UNL A   1      47.413  24.869  26.179  1.00  0.00     0.031 C 
ATOM     63  C   UNL A   1      48.202  27.201  26.480  1.00  0.00     0.031 A 
BRANCH  50  64
ATOM     64  C   UNL A   1      46.370  32.881  28.118  1.00  0.00    -0.014 A 
ATOM     65  C   UNL A   1      46.927  33.370  29.314  1.00  0.00     0.010 A 
ATOM     66  C   UNL A   1      46.185  33.768  27.042  1.00  0.00     0.010 A 
ATOM     67  C   UNL A   1      47.254  34.722  29.444  1.00  0.00     0.020 A 
ATOM     68  C   UNL A   1      46.544  35.114  27.155  1.00  0.00     0.020 A 
ATOM     69  C   UNL A   1      47.062  35.586  28.362  1.00  0.00     0.054 A 
BRANCH  69  70
ATOM     70  S   UNL A   1      47.528  37.328  28.551  1.00  0.00     0.124 S 
ATOM     71  O   UNL A   1      47.267  37.557  29.970  1.00  0.00    -0.237 OA
ATOM     72  O   UNL A   1      48.936  37.324  28.163  1.00  0.00    -0.237 OA
ATOM     73  O   UNL A   1      46.633  38.030  27.632  1.00  0.00    -0.744 OA
ENDBRANCH  69  70
ENDBRANCH  50  64
BRANCH  51  74
ATOM     74  C   UNL A   1      43.530  23.355  26.877  1.00  0.00    -0.014 A 
ATOM     75  C   UNL A   1      43.077  22.570  27.952  1.00  0.00     0.010 A 
ATOM     76  C   UNL A   1      43.569  22.788  25.589  1.00  0.00     0.010 A 
ATOM     77  C   UNL A   1      42.694  21.240  27.747  1.00  0.00     0.020 A 
ATOM     78  C   UNL A   1      43.152  21.472  25.375  1.00  0.00     0.020 A 
ATOM     79  C   UNL A   1      42.728  20.703  26.458  1.00  0.00     0.054 A 
BRANCH  79  80
ATOM     80  S   UNL A   1      42.181  18.991  26.212  1.00  0.00     0.124 S 
ATOM     81  O   UNL A   1      40.791  19.171  25.802  1.00  0.00    -0.237 OA
ATOM     82  O   UNL A   1      43.092  18.517  25.174  1.00  0.00    -0.237 OA
ATOM     83  O   UNL A   1      42.371  18.378  27.526  1.00  0.00    -0.744 OA
ENDBRANCH  79  80
ENDBRANCH  51  74
BRANCH  63  84
ATOM     84  C   UNL A   1      49.579  26.750  26.066  1.00  0.00    -0.014 A 
ATOM     85  C   UNL A   1      50.033  26.884  24.742  1.00  0.00     0.010 A 
ATOM     86  C   UNL A   1      50.455  26.231  27.040  1.00  0.00     0.010 A 
ATOM     87  C   UNL A   1      51.322  26.476  24.393  1.00  0.00     0.020 A 
ATOM     88  C   UNL A   1      51.758  25.858  26.702  1.00  0.00     0.020 A 
ATOM     89  C   UNL A   1      52.178  25.970  25.376  1.00  0.00     0.054 A 
BRANCH  89  90
ATOM     90  S   UNL A   1      53.862  25.492  24.903  1.00  0.00     0.124 S 
ATOM     91  O   UNL A   1      53.774  24.035  24.894  1.00  0.00    -0.237 OA
ATOM     92  O   UNL A   1      54.015  26.121  23.593  1.00  0.00    -0.237 OA
ATOM     93  O   UNL A   1      54.695  26.058  25.962  1.00  0.00    -0.744 OA
ENDBRANCH  89  90
ENDBRANCH  63  84
ENDBRANCH  37  38
ENDBRANCH  29  32
ENDBRANCH  27  28
ENDBRANCH  26  27
ENDBRANCH   1  26
TORSDOF 17
ENDMDL
MODEL 2
REMARK VINA RESULT:     -10.7      4.359     11.999
REMARK SMILES C#Cc1cccc(NS(=O)(=O)c2ccc(F)c(C(=O)NCCCNC(=O)c3ccc(-c4c5nc(c(-c6ccc(S(=O)(=O)[O-])cc6)c6ccc([nH]6)c(-c6ccc(S(=O)(=O)[O-])cc6)c6nc(c(-c7ccc(S(=O)(=O)[O-])cc7)c7ccc4[nH]7)C=C6)C=C5)cc3)c2)c1
REMARK SMILES IDX 21 1 20 2 18 3 19 4 17 6 12 7 13 8 87 9 14 10 15 11 16 12
REMARK SMILES IDX 9 13 10 14 11 15 8 16 7 18 3 19 4 20 88 21 5 22 6 23 2 24
REMARK SMILES IDX 1 25 22 26 23 27 24 28 25 29 26 31 27 32 28 33 86 34 29 35
REMARK SMILES IDX 85 36 30 37 31 38 32 39 79 40 33 41 84 42 78 43 80 44 34 45
REMARK SMILES IDX 83 46 77 47 76 48 35 50 65 51 46 52 64 53 47 54 50 55 63 56
REMARK SMILES IDX 81 57 48 58 49 59 62 61 82 62 51 63 36 64 37 65 45 66 38 67
REMARK SMILES IDX 44 68 39 69 40 70 41 71 42 72 43 73 66 74 67 75 75 76 68 77
REMARK SMILES IDX 74 78 69 79 70 80 71 81 72 82 73 83 52 84 53 85 61 86 54 87
REMARK SMILES IDX 60 88 55 89 56 90 57 91 58 92 59 93
REMARK H PARENT 20 5 8 17 24 30 80 49 50 60
REMARK Flexibility Score: inf
ROOT
ATOM      1  C   UNL A   1      42.665  22.097  28.149  1.00  0.00     0.118 C 
ENDROOT
BRANCH   1   2
ATOM      2  N   UNL A   1      43.597  21.859  27.065  1.00  0.00    -0.352 N 
ATOM      3  C   UNL A   1      44.553  22.637  26.468  1.00  0.00     0.254 C 
ATOM      4  O   UNL A   1      45.133  22.152  25.494  1.00  0.00    -0.269 OA
ATOM      5  H   UNL A   1      43.529  20.956  26.677  1.00  0.00     0.163 HD
BRANCH   3   6
ATOM      6  C   UNL A   1      45.021  23.947  26.999  1.00  0.00     0.076 A 
ATOM      7  C   UNL A   1      45.384  26.312  26.529  1.00  0.00     0.088 A 
ATOM      8  C   UNL A   1      46.306  26.391  27.566  1.00  0.00     0.025 A 
ATOM      9  C   UNL A   1      44.818  25.073  26.186  1.00  0.00     0.039 A 
ATOM     10  C   UNL A   1      46.372  25.328  28.463  1.00  0.00     0.041 A 
ATOM     11  C   UNL A   1      45.651  24.160  28.219  1.00  0.00     0.136 A 
ATOM     12  F   UNL A   1      45.504  23.323  29.252  1.00  0.00    -0.206 F 
BRANCH   7  13
ATOM     13  S   UNL A   1      44.630  27.769  25.833  1.00  0.00     0.261 S 
ATOM     14  O   UNL A   1      43.409  27.344  25.185  1.00  0.00    -0.201 OA
ATOM     15  O   UNL A   1      45.674  28.448  25.091  1.00  0.00    -0.201 OA
BRANCH  13  16
ATOM     16  N   UNL A   1      44.196  28.839  27.052  1.00  0.00    -0.280 N 
ATOM     17  H   UNL A   1      43.520  28.509  27.689  1.00  0.00     0.180 HD
BRANCH  16  18
ATOM     18  C   UNL A   1      44.674  30.164  27.290  1.00  0.00     0.050 A 
ATOM     19  C   UNL A   1      46.161  31.535  28.635  1.00  0.00     0.026 A 
ATOM     20  C   UNL A   1      45.407  32.661  28.318  1.00  0.00     0.017 A 
ATOM     21  C   UNL A   1      45.779  30.283  28.146  1.00  0.00     0.044 A 
ATOM     22  C   UNL A   1      44.396  32.562  27.367  1.00  0.00     0.003 A 
ATOM     23  C   UNL A   1      44.094  31.325  26.785  1.00  0.00     0.027 A 
BRANCH  19  24
ATOM     24  C   UNL A   1      47.354  31.695  29.404  1.00  0.00    -0.070 C 
ATOM     25  C   UNL A   1      48.321  31.714  30.120  1.00  0.00     0.010 C 
ENDBRANCH  19  24
ENDBRANCH  16  18
ENDBRANCH  13  16
ENDBRANCH   7  13
ENDBRANCH   3   6
ENDBRANCH   1   2
BRANCH   1  26
ATOM     26  C   UNL A   1      41.233  21.856  27.674  1.00  0.00     0.042 C 
BRANCH  26  27
ATOM     27  C   UNL A   1      41.117  21.965  26.158  1.00  0.00     0.118 C 
BRANCH  27  28
ATOM     28  N   UNL A   1      39.723  22.088  25.745  1.00  0.00    -0.352 N 
ATOM     29  C   UNL A   1      38.770  22.998  26.123  1.00  0.00     0.251 C 
ATOM     30  H   UNL A   1      39.420  21.414  25.095  1.00  0.00     0.163 HD
ATOM     31  O   UNL A   1      37.588  22.769  25.882  1.00  0.00    -0.269 OA
BRANCH  29  32
ATOM     32  C   UNL A   1      39.169  24.237  26.815  1.00  0.00     0.039 A 
ATOM     33  C   UNL A   1      38.747  24.443  28.130  1.00  0.00     0.014 A 
ATOM     34  C   UNL A   1      39.935  25.204  26.159  1.00  0.00     0.014 A 
ATOM     35  C   UNL A   1      39.137  25.599  28.802  1.00  0.00     0.010 A 
ATOM     36  C   UNL A   1      40.402  26.307  26.860  1.00  0.00     0.010 A 
ATOM     37  C   UNL A   1      39.997  26.523  28.185  1.00  0.00    -0.014 A 
BRANCH  37  38
ATOM     38  C   UNL A   1      40.480  27.724  28.909  1.00  0.00     0.031 A 
ATOM     39  C   UNL A   1      41.849  27.730  29.532  1.00  0.00     0.074 A 
ATOM     40  C   UNL A   1      39.662  28.785  29.045  1.00  0.00     0.049 A 
ATOM     41  N   UNL A   1      42.427  28.668  30.236  1.00  0.00    -0.248 NA
ATOM     42  C   UNL A   1      42.667  26.516  29.367  1.00  0.00     0.031 C 
ATOM     43  C   UNL A   1      38.299  28.878  28.515  1.00  0.00     0.029 A 
ATOM     44  N   UNL A   1      39.855  29.990  29.672  1.00  0.00    -0.354 N 
ATOM     45  C   UNL A   1      43.665  28.155  30.606  1.00  0.00     0.074 A 
ATOM     46  C   UNL A   1      43.731  26.802  30.103  1.00  0.00     0.031 C 
ATOM     47  C   UNL A   1      37.794  30.087  28.806  1.00  0.00     0.029 A 
ATOM     48  C   UNL A   1      38.772  30.835  29.589  1.00  0.00     0.049 A 
ATOM     49  H   UNL A   1      40.689  30.229  30.138  1.00  0.00     0.167 HD
ATOM     50  C   UNL A   1      44.665  28.765  31.287  1.00  0.00     0.031 A 
ATOM     51  C   UNL A   1      38.582  32.067  30.097  1.00  0.00     0.031 A 
ATOM     52  C   UNL A   1      44.587  30.111  31.787  1.00  0.00     0.049 A 
ATOM     53  C   UNL A   1      39.695  32.707  30.882  1.00  0.00     0.074 A 
ATOM     54  C   UNL A   1      45.561  30.840  32.446  1.00  0.00     0.029 A 
ATOM     55  N   UNL A   1      43.470  30.929  31.692  1.00  0.00    -0.354 N 
ATOM     56  N   UNL A   1      40.886  32.233  31.161  1.00  0.00    -0.248 NA
ATOM     57  C   UNL A   1      39.442  34.054  31.412  1.00  0.00     0.031 C 
ATOM     58  C   UNL A   1      45.008  32.069  32.818  1.00  0.00     0.029 A 
ATOM     59  C   UNL A   1      43.719  32.141  32.312  1.00  0.00     0.049 A 
ATOM     60  H   UNL A   1      42.626  30.684  31.248  1.00  0.00     0.167 HD
ATOM     61  C   UNL A   1      41.537  33.237  31.869  1.00  0.00     0.074 A 
ATOM     62  C   UNL A   1      40.613  34.350  31.959  1.00  0.00     0.031 C 
ATOM     63  C   UNL A   1      42.787  33.239  32.396  1.00  0.00     0.031 A 
BRANCH  50  64
ATOM     64  C   UNL A   1      45.922  27.973  31.543  1.00  0.00    -0.014 A 
ATOM     65  C   UNL A   1      45.995  27.030  32.584  1.00  0.00     0.010 A 
ATOM     66  C   UNL A   1      47.036  28.142  30.700  1.00  0.00     0.010 A 
ATOM     67  C   UNL A   1      47.167  26.301  32.802  1.00  0.00     0.020 A 
ATOM     68  C   UNL A   1      48.198  27.389  30.891  1.00  0.00     0.020 A 
ATOM     69  C   UNL A   1      48.261  26.485  31.952  1.00  0.00     0.054 A 
BRANCH  69  70
ATOM     70  S   UNL A   1      49.757  25.500  32.240  1.00  0.00     0.124 S 
ATOM     71  O   UNL A   1      50.136  25.124  30.880  1.00  0.00    -0.237 OA
ATOM     72  O   UNL A   1      50.644  26.455  32.898  1.00  0.00    -0.237 OA
ATOM     73  O   UNL A   1      49.293  24.399  33.083  1.00  0.00    -0.744 OA
ENDBRANCH  69  70
ENDBRANCH  50  64
BRANCH  51  74
ATOM     74  C   UNL A   1      37.289  32.774  29.877  1.00  0.00    -0.014 A 
ATOM     75  C   UNL A   1      36.257  32.695  30.828  1.00  0.00     0.010 A 
ATOM     76  C   UNL A   1      37.087  33.539  28.714  1.00  0.00     0.010 A 
ATOM     77  C   UNL A   1      35.039  33.348  30.608  1.00  0.00     0.020 A 
ATOM     78  C   UNL A   1      35.886  34.223  28.508  1.00  0.00     0.020 A 
ATOM     79  C   UNL A   1      34.865  34.112  29.452  1.00  0.00     0.054 A 
BRANCH  79  80
ATOM     80  S   UNL A   1      33.295  34.988  29.214  1.00  0.00     0.124 S 
ATOM     81  O   UNL A   1      32.731  34.976  30.560  1.00  0.00    -0.237 OA
ATOM     82  O   UNL A   1      33.734  36.291  28.721  1.00  0.00    -0.237 OA
ATOM     83  O   UNL A   1      32.589  34.166  28.232  1.00  0.00    -0.744 OA
ENDBRANCH  79  80
ENDBRANCH  51  74
BRANCH  63  84
ATOM     84  C   UNL A   1      43.250  34.499  33.080  1.00  0.00    -0.014 A 
ATOM     85  C   UNL A   1      43.725  35.604  32.350  1.00  0.00     0.010 A 
ATOM     86  C   UNL A   1      43.155  34.597  34.482  1.00  0.00     0.010 A 
ATOM     87  C   UNL A   1      44.128  36.767  33.011  1.00  0.00     0.020 A 
ATOM     88  C   UNL A   1      43.520  35.772  35.143  1.00  0.00     0.020 A 
ATOM     89  C   UNL A   1      44.018  36.845  34.403  1.00  0.00     0.054 A 
BRANCH  89  90
ATOM     90  S   UNL A   1      44.503  38.383  35.230  1.00  0.00     0.124 S 
ATOM     91  O   UNL A   1      45.960  38.275  35.245  1.00  0.00    -0.237 OA
ATOM     92  O   UNL A   1      43.959  39.407  34.341  1.00  0.00    -0.237 OA
ATOM     93  O   UNL A   1      43.859  38.294  36.538  1.00  0.00    -0.744 OA
ENDBRANCH  89  90
ENDBRANCH  63  84
ENDBRANCH  37  38
ENDBRANCH  29  32
ENDBRANCH  27  28
ENDBRANCH  26  27
ENDBRANCH   1  26
TORSDOF 17
ENDMDL
MODEL 3
REMARK VINA RESULT:     -10.7      6.111     14.109
REMARK SMILES C#Cc1cccc(NS(=O)(=O)c2ccc(F)c(C(=O)NCCCNC(=O)c3ccc(-c4c5nc(c(-c6ccc(S(=O)(=O)[O-])cc6)c6ccc([nH]6)c(-c6ccc(S(=O)(=O)[O-])cc6)c6nc(c(-c7ccc(S(=O)(=O)[O-])cc7)c7ccc4[nH]7)C=C6)C=C5)cc3)c2)c1
REMARK SMILES IDX 21 1 20 2 18 3 19 4 17 6 12 7 13 8 87 9 14 10 15 11 16 12
REMARK SMILES IDX 9 13 10 14 11 15 8 16 7 18 3 19 4 20 88 21 5 22 6 23 2 24
REMARK SMILES IDX 1 25 22 26 23 27 24 28 25 29 26 31 27 32 28 33 86 34 29 35
REMARK SMILES IDX 85 36 30 37 31 38 32 39 79 40 33 41 84 42 78 43 80 44 34 45
REMARK SMILES IDX 83 46 77 47 76 48 35 50 65 51 46 52 64 53 47 54 50 55 63 56
REMARK SMILES IDX 81 57 48 58 49 59 62 61 82 62 51 63 36 64 37 65 45 66 38 67
REMARK SMILES IDX 44 68 39 69 40 70 41 71 42 72 43 73 66 74 67 75 75 76 68 77
REMARK SMILES IDX 74 78 69 79 70 80 71 81 72 82 73 83 52 84 53 85 61 86 54 87
REMARK SMILES IDX 60 88 55 89 56 90 57 91 58 92 59 93
REMARK H PARENT 20 5 8 17 24 30 80 49 50 60
REMARK Flexibility Score: inf
ROOT
ATOM      1  C   UNL A   1      43.122  22.016  25.660  1.00  0.00     0.118 C 
ENDROOT
BRANCH   1   2
ATOM      2  N   UNL A   1      42.252  20.859  25.723  1.00  0.00    -0.352 N 
ATOM      3  C   UNL A   1      40.963  20.682  26.151  1.00  0.00     0.254 C 
ATOM      4  O   UNL A   1      40.533  19.526  26.148  1.00  0.00    -0.269 OA
ATOM      5  H   UNL A   1      42.672  20.031  25.392  1.00  0.00     0.163 HD
BRANCH   3   6
ATOM      6  C   UNL A   1      40.028  21.792  26.479  1.00  0.00     0.076 A 
ATOM      7  C   UNL A   1      38.066  23.062  25.784  1.00  0.00     0.088 A 
ATOM      8  C   UNL A   1      38.452  24.127  26.590  1.00  0.00     0.025 A 
ATOM      9  C   UNL A   1      38.902  21.941  25.655  1.00  0.00     0.039 A 
ATOM     10  C   UNL A   1      39.464  23.907  27.521  1.00  0.00     0.041 A 
ATOM     11  C   UNL A   1      40.170  22.704  27.517  1.00  0.00     0.136 A 
ATOM     12  F   UNL A   1      40.889  22.431  28.612  1.00  0.00    -0.206 F 
BRANCH   7  13
ATOM     13  S   UNL A   1      36.400  22.908  25.170  1.00  0.00     0.261 S 
ATOM     14  O   UNL A   1      36.497  22.629  23.753  1.00  0.00    -0.201 OA
ATOM     15  O   UNL A   1      35.682  24.069  25.657  1.00  0.00    -0.201 OA
BRANCH  13  16
ATOM     16  N   UNL A   1      35.637  21.593  25.881  1.00  0.00    -0.280 N 
ATOM     17  H   UNL A   1      36.022  21.286  26.734  1.00  0.00     0.180 HD
BRANCH  16  18
ATOM     18  C   UNL A   1      34.505  20.857  25.414  1.00  0.00     0.050 A 
ATOM     19  C   UNL A   1      33.768  18.873  24.222  1.00  0.00     0.026 A 
ATOM     20  C   UNL A   1      32.547  19.486  23.958  1.00  0.00     0.017 A 
ATOM     21  C   UNL A   1      34.757  19.568  24.924  1.00  0.00     0.044 A 
ATOM     22  C   UNL A   1      32.251  20.707  24.556  1.00  0.00     0.003 A 
ATOM     23  C   UNL A   1      33.202  21.347  25.362  1.00  0.00     0.027 A 
BRANCH  19  24
ATOM     24  C   UNL A   1      33.961  17.514  23.824  1.00  0.00    -0.070 C 
ATOM     25  C   UNL A   1      34.100  16.413  23.359  1.00  0.00     0.010 C 
ENDBRANCH  19  24
ENDBRANCH  16  18
ENDBRANCH  13  16
ENDBRANCH   7  13
ENDBRANCH   3   6
ENDBRANCH   1   2
BRANCH   1  26
ATOM     26  C   UNL A   1      43.681  22.330  27.048  1.00  0.00     0.042 C 
BRANCH  26  27
ATOM     27  C   UNL A   1      43.796  23.832  27.281  1.00  0.00     0.118 C 
BRANCH  27  28
ATOM     28  N   UNL A   1      43.543  24.575  26.052  1.00  0.00    -0.352 N 
ATOM     29  C   UNL A   1      42.831  25.729  25.852  1.00  0.00     0.251 C 
ATOM     30  H   UNL A   1      43.946  24.189  25.241  1.00  0.00     0.163 HD
ATOM     31  O   UNL A   1      42.499  26.044  24.712  1.00  0.00    -0.269 OA
BRANCH  29  32
ATOM     32  C   UNL A   1      42.468  26.579  27.001  1.00  0.00     0.039 A 
ATOM     33  C   UNL A   1      41.580  26.080  27.957  1.00  0.00     0.014 A 
ATOM     34  C   UNL A   1      42.982  27.872  27.121  1.00  0.00     0.014 A 
ATOM     35  C   UNL A   1      41.248  26.864  29.059  1.00  0.00     0.010 A 
ATOM     36  C   UNL A   1      42.726  28.613  28.267  1.00  0.00     0.010 A 
ATOM     37  C   UNL A   1      41.847  28.122  29.241  1.00  0.00    -0.014 A 
BRANCH  37  38
ATOM     38  C   UNL A   1      41.560  28.941  30.444  1.00  0.00     0.031 A 
ATOM     39  C   UNL A   1      42.403  28.788  31.680  1.00  0.00     0.074 A 
ATOM     40  C   UNL A   1      40.508  29.782  30.434  1.00  0.00     0.049 A 
ATOM     41  N   UNL A   1      42.281  29.385  32.837  1.00  0.00    -0.248 NA
ATOM     42  C   UNL A   1      43.513  27.820  31.620  1.00  0.00     0.031 C 
ATOM     43  C   UNL A   1      39.597  29.985  29.304  1.00  0.00     0.029 A 
ATOM     44  N   UNL A   1      40.025  30.623  31.403  1.00  0.00    -0.354 N 
ATOM     45  C   UNL A   1      43.285  28.858  33.642  1.00  0.00     0.074 A 
ATOM     46  C   UNL A   1      43.968  27.850  32.864  1.00  0.00     0.031 C 
ATOM     47  C   UNL A   1      38.691  30.920  29.632  1.00  0.00     0.029 A 
ATOM     48  C   UNL A   1      38.919  31.341  31.011  1.00  0.00     0.049 A 
ATOM     49  H   UNL A   1      40.430  30.707  32.297  1.00  0.00     0.167 HD
ATOM     50  C   UNL A   1      43.620  29.199  34.909  1.00  0.00     0.031 A 
ATOM     51  C   UNL A   1      38.165  32.228  31.687  1.00  0.00     0.031 A 
ATOM     52  C   UNL A   1      42.930  30.202  35.677  1.00  0.00     0.049 A 
ATOM     53  C   UNL A   1      38.536  32.561  33.106  1.00  0.00     0.074 A 
ATOM     54  C   UNL A   1      43.219  30.657  36.951  1.00  0.00     0.029 A 
ATOM     55  N   UNL A   1      41.809  30.898  35.247  1.00  0.00    -0.354 N 
ATOM     56  N   UNL A   1      39.532  32.105  33.827  1.00  0.00    -0.248 NA
ATOM     57  C   UNL A   1      37.686  33.538  33.800  1.00  0.00     0.031 C 
ATOM     58  C   UNL A   1      42.228  31.572  37.321  1.00  0.00     0.029 A 
ATOM     59  C   UNL A   1      41.373  31.753  36.245  1.00  0.00     0.049 A 
ATOM     60  H   UNL A   1      41.387  30.799  34.363  1.00  0.00     0.167 HD
ATOM     61  C   UNL A   1      39.450  32.766  35.048  1.00  0.00     0.074 A 
ATOM     62  C   UNL A   1      38.317  33.665  34.959  1.00  0.00     0.031 C 
ATOM     63  C   UNL A   1      40.241  32.640  36.142  1.00  0.00     0.031 A 
BRANCH  50  64
ATOM     64  C   UNL A   1      44.774  28.470  35.550  1.00  0.00    -0.014 A 
ATOM     65  C   UNL A   1      44.585  27.253  36.229  1.00  0.00     0.010 A 
ATOM     66  C   UNL A   1      46.077  28.988  35.431  1.00  0.00     0.010 A 
ATOM     67  C   UNL A   1      45.669  26.589  36.811  1.00  0.00     0.020 A 
ATOM     68  C   UNL A   1      47.169  28.309  35.980  1.00  0.00     0.020 A 
ATOM     69  C   UNL A   1      46.955  27.121  36.680  1.00  0.00     0.054 A 
BRANCH  69  70
ATOM     70  S   UNL A   1      48.345  26.218  37.417  1.00  0.00     0.124 S 
ATOM     71  O   UNL A   1      47.685  25.024  37.939  1.00  0.00    -0.237 OA
ATOM     72  O   UNL A   1      49.224  26.000  36.271  1.00  0.00    -0.237 OA
ATOM     73  O   UNL A   1      48.860  27.138  38.429  1.00  0.00    -0.744 OA
ENDBRANCH  69  70
ENDBRANCH  50  64
BRANCH  51  74
ATOM     74  C   UNL A   1      36.988  32.862  31.028  1.00  0.00    -0.014 A 
ATOM     75  C   UNL A   1      35.680  32.496  31.389  1.00  0.00     0.010 A 
ATOM     76  C   UNL A   1      37.172  33.845  30.038  1.00  0.00     0.010 A 
ATOM     77  C   UNL A   1      34.579  33.084  30.756  1.00  0.00     0.020 A 
ATOM     78  C   UNL A   1      36.076  34.462  29.430  1.00  0.00     0.020 A 
ATOM     79  C   UNL A   1      34.785  34.067  29.785  1.00  0.00     0.054 A 
BRANCH  79  80
ATOM     80  S   UNL A   1      33.341  34.849  29.014  1.00  0.00     0.124 S 
ATOM     81  O   UNL A   1      32.467  35.074  30.161  1.00  0.00    -0.237 OA
ATOM     82  O   UNL A   1      33.919  36.047  28.411  1.00  0.00    -0.237 OA
ATOM     83  O   UNL A   1      32.876  33.843  28.060  1.00  0.00    -0.744 OA
ENDBRANCH  79  80
ENDBRANCH  51  74
BRANCH  63  84
ATOM     84  C   UNL A   1      39.940  33.528  37.322  1.00  0.00    -0.014 A 
ATOM     85  C   UNL A   1      40.305  34.886  37.336  1.00  0.00     0.010 A 
ATOM     86  C   UNL A   1      39.226  33.001  38.416  1.00  0.00     0.010 A 
ATOM     87  C   UNL A   1      39.993  35.690  38.436  1.00  0.00     0.020 A 
ATOM     88  C   UNL A   1      38.879  33.811  39.500  1.00  0.00     0.020 A 
ATOM     89  C   UNL A   1      39.277  35.148  39.508  1.00  0.00     0.054 A 
BRANCH  89  90
ATOM     90  S   UNL A   1      38.845  36.226  40.900  1.00  0.00     0.124 S 
ATOM     91  O   UNL A   1      40.078  36.221  41.683  1.00  0.00    -0.237 OA
ATOM     92  O   UNL A   1      38.528  37.489  40.237  1.00  0.00    -0.237 OA
ATOM     93  O   UNL A   1      37.709  35.552  41.523  1.00  0.00    -0.744 OA
ENDBRANCH  89  90
ENDBRANCH  63  84
ENDBRANCH  37  38
ENDBRANCH  29  32
ENDBRANCH  27  28
ENDBRANCH  26  27
ENDBRANCH   1  26
TORSDOF 17
ENDMDL
