MODEL 1
REMARK VINA RESULT:      -9.3      0.000      0.000
REMARK SMILES COc1ccc(C(=O)C[C@H](C)CC(=O)NCCCNC(=O)c2ccc(-c3c4nc(c(-c5ccc(S(=O)(=O)[O-])cc5)c5ccc([nH]5)c(-c5ccc(S(=O)(=O)[O-])cc5)c5nc(c(-c6ccc(S(=O)(=O)[O-])cc6)c6ccc3[nH]6)C=C5)C=C4)cc2)c(OC)c1
REMARK SMILES IDX 16 1 15 2 13 3 14 4 12 6 10 7 11 8 9 9 7 10 8 11 6 12 3 13
REMARK SMILES IDX 4 14 85 15 5 16 82 17 2 18 1 19 83 20 84 21 17 22 18 23
REMARK SMILES IDX 19 24 20 25 21 27 22 28 23 29 81 30 24 31 80 32 25 33 26 34
REMARK SMILES IDX 27 35 74 36 28 37 79 38 73 39 75 40 29 41 78 42 72 43 71 44
REMARK SMILES IDX 30 46 60 47 41 48 59 49 42 50 45 51 58 52 76 53 43 54 44 55
REMARK SMILES IDX 57 57 77 58 46 59 31 60 32 61 40 62 33 63 39 64 34 65 35 66
REMARK SMILES IDX 36 67 37 68 38 69 61 70 62 71 70 72 63 73 69 74 64 75 65 76
REMARK SMILES IDX 66 77 67 78 68 79 47 80 48 81 56 82 49 83 55 84 50 85 51 86
REMARK SMILES IDX 52 87 53 88 54 89
REMARK H PARENT 15 5 19 26 75 45 45 56
REMARK Flexibility Score: inf
ROOT
ATOM      1  C   UNL A   1      34.568  34.919  28.349  1.00  0.00     0.117 C 
ENDROOT
BRANCH   1   2
ATOM      2  N   UNL A   1      33.961  35.985  29.132  1.00  0.00    -0.356 N 
ATOM      3  C   UNL A   1      33.250  35.893  30.295  1.00  0.00     0.220 C 
ATOM      4  O   UNL A   1      32.526  36.829  30.630  1.00  0.00    -0.275 OA
ATOM      5  H   UNL A   1      34.078  36.895  28.776  1.00  0.00     0.163 HD
BRANCH   3   6
ATOM      6  C   UNL A   1      33.501  34.715  31.205  1.00  0.00     0.103 C 
BRANCH   6   7
ATOM      7  C   UNL A   1      34.804  34.604  32.004  1.00  0.00     0.003 C 
ATOM      8  C   UNL A   1      34.779  35.400  33.309  1.00  0.00     0.008 C 
BRANCH   7   9
ATOM      9  C   UNL A   1      35.094  33.128  32.365  1.00  0.00     0.085 C 
BRANCH   9  10
ATOM     10  C   UNL A   1      36.511  32.652  32.086  1.00  0.00     0.166 C 
ATOM     11  O   UNL A   1      36.911  31.601  32.594  1.00  0.00    -0.294 OA
BRANCH  10  12
ATOM     12  C   UNL A   1      37.483  33.459  31.273  1.00  0.00     0.060 A 
ATOM     13  C   UNL A   1      39.363  34.636  29.551  1.00  0.00     0.122 A 
ATOM     14  C   UNL A   1      38.384  33.800  29.030  1.00  0.00     0.047 A 
ATOM     15  C   UNL A   1      39.363  34.953  30.909  1.00  0.00     0.093 A 
ATOM     16  C   UNL A   1      37.457  33.208  29.887  1.00  0.00     0.019 A 
ATOM     17  C   UNL A   1      38.428  34.373  31.783  1.00  0.00     0.133 A 
BRANCH  13  18
ATOM     18  O   UNL A   1      40.250  35.189  28.667  1.00  0.00    -0.497 OA
ATOM     19  C   UNL A   1      41.593  35.156  29.151  1.00  0.00     0.278 C 
ENDBRANCH  13  18
BRANCH  17  20
ATOM     20  O   UNL A   1      38.378  34.701  33.112  1.00  0.00    -0.496 OA
ATOM     21  C   UNL A   1      39.513  34.366  33.911  1.00  0.00     0.278 C 
ENDBRANCH  17  20
ENDBRANCH  10  12
ENDBRANCH   9  10
ENDBRANCH   7   9
ENDBRANCH   6   7
ENDBRANCH   3   6
ENDBRANCH   1   2
BRANCH   1  22
ATOM     22  C   UNL A   1      33.767  33.635  28.503  1.00  0.00     0.042 C 
BRANCH  22  23
ATOM     23  C   UNL A   1      34.634  32.430  28.815  1.00  0.00     0.118 C 
BRANCH  23  24
ATOM     24  N   UNL A   1      34.016  31.192  28.375  1.00  0.00    -0.352 N 
ATOM     25  C   UNL A   1      34.618  30.011  28.012  1.00  0.00     0.251 C 
ATOM     26  H   UNL A   1      33.033  31.201  28.330  1.00  0.00     0.163 HD
ATOM     27  O   UNL A   1      33.958  29.149  27.443  1.00  0.00    -0.269 OA
BRANCH  25  28
ATOM     28  C   UNL A   1      36.058  29.797  28.287  1.00  0.00     0.039 A 
ATOM     29  C   UNL A   1      36.445  29.339  29.547  1.00  0.00     0.014 A 
ATOM     30  C   UNL A   1      37.027  30.052  27.311  1.00  0.00     0.014 A 
ATOM     31  C   UNL A   1      37.795  29.089  29.809  1.00  0.00     0.010 A 
ATOM     32  C   UNL A   1      38.354  29.703  27.538  1.00  0.00     0.010 A 
ATOM     33  C   UNL A   1      38.758  29.239  28.798  1.00  0.00    -0.014 A 
BRANCH  33  34
ATOM     34  C   UNL A   1      40.194  28.947  29.047  1.00  0.00     0.031 A 
ATOM     35  C   UNL A   1      40.762  27.601  28.679  1.00  0.00     0.074 A 
ATOM     36  C   UNL A   1      40.972  29.871  29.645  1.00  0.00     0.049 A 
ATOM     37  N   UNL A   1      41.973  27.140  28.860  1.00  0.00    -0.248 NA
ATOM     38  C   UNL A   1      39.846  26.634  28.049  1.00  0.00     0.031 C 
ATOM     39  C   UNL A   1      40.530  31.196  30.087  1.00  0.00     0.029 A 
ATOM     40  N   UNL A   1      42.300  29.836  29.989  1.00  0.00    -0.354 N 
ATOM     41  C   UNL A   1      41.957  25.833  28.386  1.00  0.00     0.074 A 
ATOM     42  C   UNL A   1      40.605  25.553  27.960  1.00  0.00     0.031 C 
ATOM     43  C   UNL A   1      41.575  31.857  30.612  1.00  0.00     0.029 A 
ATOM     44  C   UNL A   1      42.749  30.991  30.588  1.00  0.00     0.049 A 
ATOM     45  H   UNL A   1      42.880  29.057  29.821  1.00  0.00     0.167 HD
ATOM     46  C   UNL A   1      42.981  24.951  28.293  1.00  0.00     0.031 A 
ATOM     47  C   UNL A   1      43.964  31.312  31.072  1.00  0.00     0.031 A 
ATOM     48  C   UNL A   1      44.330  25.241  28.698  1.00  0.00     0.049 A 
ATOM     49  C   UNL A   1      45.081  30.310  30.965  1.00  0.00     0.074 A 
ATOM     50  C   UNL A   1      45.451  24.437  28.588  1.00  0.00     0.029 A 
ATOM     51  N   UNL A   1      44.742  26.424  29.292  1.00  0.00    -0.354 N 
ATOM     52  N   UNL A   1      45.061  29.105  30.447  1.00  0.00    -0.248 NA
ATOM     53  C   UNL A   1      46.390  30.716  31.496  1.00  0.00     0.031 C 
ATOM     54  C   UNL A   1      46.529  25.111  29.169  1.00  0.00     0.029 A 
ATOM     55  C   UNL A   1      46.094  26.362  29.578  1.00  0.00     0.049 A 
ATOM     56  H   UNL A   1      44.158  27.195  29.481  1.00  0.00     0.167 HD
ATOM     57  C   UNL A   1      46.360  28.622  30.563  1.00  0.00     0.074 A 
ATOM     58  C   UNL A   1      47.143  29.671  31.181  1.00  0.00     0.031 C 
ATOM     59  C   UNL A   1      46.860  27.418  30.189  1.00  0.00     0.031 A 
BRANCH  46  60
ATOM     60  C   UNL A   1      42.684  23.586  27.727  1.00  0.00    -0.014 A 
ATOM     61  C   UNL A   1      42.865  23.309  26.361  1.00  0.00     0.010 A 
ATOM     62  C   UNL A   1      42.279  22.548  28.587  1.00  0.00     0.010 A 
ATOM     63  C   UNL A   1      42.616  22.029  25.858  1.00  0.00     0.020 A 
ATOM     64  C   UNL A   1      42.057  21.259  28.093  1.00  0.00     0.020 A 
ATOM     65  C   UNL A   1      42.216  21.011  26.729  1.00  0.00     0.054 A 
BRANCH  65  66
ATOM     66  S   UNL A   1      41.945  19.349  26.054  1.00  0.00     0.124 S 
ATOM     67  O   UNL A   1      42.341  18.501  27.176  1.00  0.00    -0.237 OA
ATOM     68  O   UNL A   1      40.517  19.358  25.748  1.00  0.00    -0.237 OA
ATOM     69  O   UNL A   1      42.828  19.297  24.892  1.00  0.00    -0.744 OA
ENDBRANCH  65  66
ENDBRANCH  46  60
BRANCH  47  70
ATOM     70  C   UNL A   1      44.193  32.645  31.700  1.00  0.00    -0.014 A 
ATOM     71  C   UNL A   1      43.993  32.831  33.080  1.00  0.00     0.010 A 
ATOM     72  C   UNL A   1      44.602  33.739  30.917  1.00  0.00     0.010 A 
ATOM     73  C   UNL A   1      44.167  34.093  33.657  1.00  0.00     0.020 A 
ATOM     74  C   UNL A   1      44.808  34.994  31.496  1.00  0.00     0.020 A 
ATOM     75  C   UNL A   1      44.574  35.167  32.861  1.00  0.00     0.054 A 
BRANCH  75  76
ATOM     76  S   UNL A   1      44.821  36.788  33.638  1.00  0.00     0.124 S 
ATOM     77  O   UNL A   1      45.845  36.493  34.634  1.00  0.00    -0.237 OA
ATOM     78  O   UNL A   1      45.250  37.614  32.513  1.00  0.00    -0.237 OA
ATOM     79  O   UNL A   1      43.501  37.114  34.173  1.00  0.00    -0.744 OA
ENDBRANCH  75  76
ENDBRANCH  47  70
BRANCH  59  80
ATOM     80  C   UNL A   1      48.333  27.181  30.398  1.00  0.00    -0.014 A 
ATOM     81  C   UNL A   1      49.281  27.563  29.433  1.00  0.00     0.010 A 
ATOM     82  C   UNL A   1      48.776  26.618  31.609  1.00  0.00     0.010 A 
ATOM     83  C   UNL A   1      50.644  27.356  29.661  1.00  0.00     0.020 A 
ATOM     84  C   UNL A   1      50.140  26.439  31.854  1.00  0.00     0.020 A 
ATOM     85  C   UNL A   1      51.064  26.796  30.873  1.00  0.00     0.054 A 
BRANCH  85  86
ATOM     86  S   UNL A   1      52.841  26.580  31.162  1.00  0.00     0.124 S 
ATOM     87  O   UNL A   1      53.159  27.743  31.986  1.00  0.00    -0.237 OA
ATOM     88  O   UNL A   1      52.899  25.290  31.846  1.00  0.00    -0.237 OA
ATOM     89  O   UNL A   1      53.415  26.592  29.819  1.00  0.00    -0.744 OA
ENDBRANCH  85  86
ENDBRANCH  59  80
ENDBRANCH  33  34
ENDBRANCH  25  28
ENDBRANCH  23  24
ENDBRANCH  22  23
ENDBRANCH   1  22
TORSDOF 19
ENDMDL
MODEL 2
REMARK VINA RESULT:      -9.2      3.956     10.023
REMARK SMILES COc1ccc(C(=O)C[C@H](C)CC(=O)NCCCNC(=O)c2ccc(-c3c4nc(c(-c5ccc(S(=O)(=O)[O-])cc5)c5ccc([nH]5)c(-c5ccc(S(=O)(=O)[O-])cc5)c5nc(c(-c6ccc(S(=O)(=O)[O-])cc6)c6ccc3[nH]6)C=C5)C=C4)cc2)c(OC)c1
REMARK SMILES IDX 16 1 15 2 13 3 14 4 12 6 10 7 11 8 9 9 7 10 8 11 6 12 3 13
REMARK SMILES IDX 4 14 85 15 5 16 82 17 2 18 1 19 83 20 84 21 17 22 18 23
REMARK SMILES IDX 19 24 20 25 21 27 22 28 23 29 81 30 24 31 80 32 25 33 26 34
REMARK SMILES IDX 27 35 74 36 28 37 79 38 73 39 75 40 29 41 78 42 72 43 71 44
REMARK SMILES IDX 30 46 60 47 41 48 59 49 42 50 45 51 58 52 76 53 43 54 44 55
REMARK SMILES IDX 57 57 77 58 46 59 31 60 32 61 40 62 33 63 39 64 34 65 35 66
REMARK SMILES IDX 36 67 37 68 38 69 61 70 62 71 70 72 63 73 69 74 64 75 65 76
REMARK SMILES IDX 66 77 67 78 68 79 47 80 48 81 56 82 49 83 55 84 50 85 51 86
REMARK SMILES IDX 52 87 53 88 54 89
REMARK H PARENT 15 5 19 26 75 45 45 56
REMARK Flexibility Score: inf
ROOT
ATOM      1  C   UNL A   1      34.293  23.148  25.039  1.00  0.00     0.117 C 
ENDROOT
BRANCH   1   2
ATOM      2  N   UNL A   1      33.617  21.859  25.080  1.00  0.00    -0.356 N 
ATOM      3  C   UNL A   1      32.289  21.585  24.918  1.00  0.00     0.220 C 
ATOM      4  O   UNL A   1      31.846  20.511  25.321  1.00  0.00    -0.275 OA
ATOM      5  H   UNL A   1      34.195  21.080  25.248  1.00  0.00     0.163 HD
BRANCH   3   6
ATOM      6  C   UNL A   1      31.447  22.540  24.107  1.00  0.00     0.103 C 
BRANCH   6   7
ATOM      7  C   UNL A   1      30.699  23.695  24.781  1.00  0.00     0.003 C 
ATOM      8  C   UNL A   1      30.827  23.687  26.305  1.00  0.00     0.008 C 
BRANCH   7   9
ATOM      9  C   UNL A   1      31.235  25.056  24.277  1.00  0.00     0.085 C 
BRANCH   9  10
ATOM     10  C   UNL A   1      30.480  26.280  24.770  1.00  0.00     0.166 C 
ATOM     11  O   UNL A   1      29.257  26.343  24.615  1.00  0.00    -0.294 OA
BRANCH  10  12
ATOM     12  C   UNL A   1      31.179  27.464  25.375  1.00  0.00     0.060 A 
ATOM     13  C   UNL A   1      32.227  29.643  26.801  1.00  0.00     0.122 A 
ATOM     14  C   UNL A   1      31.911  28.471  27.474  1.00  0.00     0.047 A 
ATOM     15  C   UNL A   1      32.101  29.710  25.414  1.00  0.00     0.093 A 
ATOM     16  C   UNL A   1      31.381  27.393  26.768  1.00  0.00     0.019 A 
ATOM     17  C   UNL A   1      31.578  28.627  24.687  1.00  0.00     0.133 A 
BRANCH  13  18
ATOM     18  O   UNL A   1      32.742  30.673  27.542  1.00  0.00    -0.497 OA
ATOM     19  C   UNL A   1      34.168  30.716  27.498  1.00  0.00     0.278 C 
ENDBRANCH  13  18
BRANCH  17  20
ATOM     20  O   UNL A   1      31.486  28.650  23.320  1.00  0.00    -0.496 OA
ATOM     21  C   UNL A   1      30.388  29.365  22.751  1.00  0.00     0.278 C 
ENDBRANCH  17  20
ENDBRANCH  10  12
ENDBRANCH   9  10
ENDBRANCH   7   9
ENDBRANCH   6   7
ENDBRANCH   3   6
ENDBRANCH   1   2
BRANCH   1  22
ATOM     22  C   UNL A   1      35.200  23.301  26.251  1.00  0.00     0.042 C 
BRANCH  22  23
ATOM     23  C   UNL A   1      36.548  23.908  25.908  1.00  0.00     0.118 C 
BRANCH  23  24
ATOM     24  N   UNL A   1      37.596  22.906  25.865  1.00  0.00    -0.352 N 
ATOM     25  C   UNL A   1      38.923  23.033  26.195  1.00  0.00     0.251 C 
ATOM     26  H   UNL A   1      37.317  22.013  25.558  1.00  0.00     0.163 HD
ATOM     27  O   UNL A   1      39.711  22.150  25.874  1.00  0.00    -0.269 OA
BRANCH  25  28
ATOM     28  C   UNL A   1      39.398  24.241  26.910  1.00  0.00     0.039 A 
ATOM     29  C   UNL A   1      40.166  25.178  26.217  1.00  0.00     0.014 A 
ATOM     30  C   UNL A   1      39.096  24.450  28.259  1.00  0.00     0.014 A 
ATOM     31  C   UNL A   1      40.585  26.344  26.862  1.00  0.00     0.010 A 
ATOM     32  C   UNL A   1      39.423  25.657  28.868  1.00  0.00     0.010 A 
ATOM     33  C   UNL A   1      40.191  26.609  28.184  1.00  0.00    -0.014 A 
BRANCH  33  34
ATOM     34  C   UNL A   1      40.599  27.859  28.878  1.00  0.00     0.031 A 
ATOM     35  C   UNL A   1      41.960  27.955  29.517  1.00  0.00     0.074 A 
ATOM     36  C   UNL A   1      39.730  28.886  28.975  1.00  0.00     0.049 A 
ATOM     37  N   UNL A   1      42.479  28.938  30.206  1.00  0.00    -0.248 NA
ATOM     38  C   UNL A   1      42.846  26.784  29.390  1.00  0.00     0.031 C 
ATOM     39  C   UNL A   1      38.369  28.900  28.433  1.00  0.00     0.029 A 
ATOM     40  N   UNL A   1      39.863  30.117  29.565  1.00  0.00    -0.354 N 
ATOM     41  C   UNL A   1      43.736  28.499  30.607  1.00  0.00     0.074 A 
ATOM     42  C   UNL A   1      43.882  27.142  30.133  1.00  0.00     0.031 C 
ATOM     43  C   UNL A   1      37.806  30.092  28.689  1.00  0.00     0.029 A 
ATOM     44  C   UNL A   1      38.744  30.910  29.451  1.00  0.00     0.049 A 
ATOM     45  H   UNL A   1      40.683  30.408  30.027  1.00  0.00     0.167 HD
ATOM     46  C   UNL A   1      44.693  29.172  31.289  1.00  0.00     0.031 A 
ATOM     47  C   UNL A   1      38.497  32.151  29.914  1.00  0.00     0.031 A 
ATOM     48  C   UNL A   1      44.553  30.529  31.741  1.00  0.00     0.049 A 
ATOM     49  C   UNL A   1      39.575  32.872  30.678  1.00  0.00     0.074 A 
ATOM     50  C   UNL A   1      45.486  31.320  32.387  1.00  0.00     0.029 A 
ATOM     51  N   UNL A   1      43.407  31.298  31.597  1.00  0.00    -0.354 N 
ATOM     52  N   UNL A   1      40.783  32.465  30.983  1.00  0.00    -0.248 NA
ATOM     53  C   UNL A   1      39.259  34.228  31.149  1.00  0.00     0.031 C 
ATOM     54  C   UNL A   1      44.887  32.547  32.686  1.00  0.00     0.029 A 
ATOM     55  C   UNL A   1      43.602  32.545  32.165  1.00  0.00     0.049 A 
ATOM     56  H   UNL A   1      42.579  31.000  31.156  1.00  0.00     0.167 HD
ATOM     57  C   UNL A   1      41.382  33.524  31.656  1.00  0.00     0.074 A 
ATOM     58  C   UNL A   1      40.410  34.597  31.695  1.00  0.00     0.031 C 
ATOM     59  C   UNL A   1      42.625  33.604  32.190  1.00  0.00     0.031 A 
BRANCH  46  60
ATOM     60  C   UNL A   1      45.983  28.450  31.589  1.00  0.00    -0.014 A 
ATOM     61  C   UNL A   1      46.132  27.682  32.757  1.00  0.00     0.010 A 
ATOM     62  C   UNL A   1      47.036  28.490  30.658  1.00  0.00     0.010 A 
ATOM     63  C   UNL A   1      47.322  26.993  33.005  1.00  0.00     0.020 A 
ATOM     64  C   UNL A   1      48.217  27.778  30.888  1.00  0.00     0.020 A 
ATOM     65  C   UNL A   1      48.357  27.043  32.067  1.00  0.00     0.054 A 
BRANCH  65  66
ATOM     66  S   UNL A   1      49.872  26.101  32.395  1.00  0.00     0.124 S 
ATOM     67  O   UNL A   1      49.359  24.738  32.510  1.00  0.00    -0.237 OA
ATOM     68  O   UNL A   1      50.678  26.370  31.207  1.00  0.00    -0.237 OA
ATOM     69  O   UNL A   1      50.381  26.681  33.635  1.00  0.00    -0.744 OA
ENDBRANCH  65  66
ENDBRANCH  46  60
BRANCH  47  70
ATOM     70  C   UNL A   1      37.177  32.795  29.666  1.00  0.00    -0.014 A 
ATOM     71  C   UNL A   1      36.933  33.494  28.470  1.00  0.00     0.010 A 
ATOM     72  C   UNL A   1      36.157  32.722  30.632  1.00  0.00     0.010 A 
ATOM     73  C   UNL A   1      35.707  34.133  28.260  1.00  0.00     0.020 A 
ATOM     74  C   UNL A   1      34.919  33.332  30.412  1.00  0.00     0.020 A 
ATOM     75  C   UNL A   1      34.707  34.047  29.233  1.00  0.00     0.054 A 
BRANCH  75  76
ATOM     76  S   UNL A   1      33.114  34.861  28.925  1.00  0.00     0.124 S 
ATOM     77  O   UNL A   1      32.486  33.947  27.977  1.00  0.00    -0.237 OA
ATOM     78  O   UNL A   1      32.519  34.901  30.257  1.00  0.00    -0.237 OA
ATOM     79  O   UNL A   1      33.496  36.163  28.382  1.00  0.00    -0.744 OA
ENDBRANCH  75  76
ENDBRANCH  47  70
BRANCH  59  80
ATOM     80  C   UNL A   1      43.027  34.908  32.829  1.00  0.00    -0.014 A 
ATOM     81  C   UNL A   1      42.867  35.128  34.208  1.00  0.00     0.010 A 
ATOM     82  C   UNL A   1      43.627  35.906  32.040  1.00  0.00     0.010 A 
ATOM     83  C   UNL A   1      43.271  36.337  34.781  1.00  0.00     0.020 A 
ATOM     84  C   UNL A   1      44.062  37.103  32.615  1.00  0.00     0.020 A 
ATOM     85  C   UNL A   1      43.868  37.316  33.979  1.00  0.00     0.054 A 
BRANCH  85  86
ATOM     86  S   UNL A   1      44.424  38.858  34.756  1.00  0.00     0.124 S 
ATOM     87  O   UNL A   1      44.165  38.597  36.169  1.00  0.00    -0.237 OA
ATOM     88  O   UNL A   1      45.834  38.916  34.375  1.00  0.00    -0.237 OA
ATOM     89  O   UNL A   1      43.577  39.879  34.145  1.00  0.00    -0.744 OA
ENDBRANCH  85  86
ENDBRANCH  59  80
ENDBRANCH  33  34
ENDBRANCH  25  28
ENDBRANCH  23  24
ENDBRANCH  22  23
ENDBRANCH   1  22
TORSDOF 19
ENDMDL
MODEL 3
REMARK VINA RESULT:      -9.1      5.082     11.751
REMARK SMILES COc1ccc(C(=O)C[C@H](C)CC(=O)NCCCNC(=O)c2ccc(-c3c4nc(c(-c5ccc(S(=O)(=O)[O-])cc5)c5ccc([nH]5)c(-c5ccc(S(=O)(=O)[O-])cc5)c5nc(c(-c6ccc(S(=O)(=O)[O-])cc6)c6ccc3[nH]6)C=C5)C=C4)cc2)c(OC)c1
REMARK SMILES IDX 16 1 15 2 13 3 14 4 12 6 10 7 11 8 9 9 7 10 8 11 6 12 3 13
REMARK SMILES IDX 4 14 85 15 5 16 82 17 2 18 1 19 83 20 84 21 17 22 18 23
REMARK SMILES IDX 19 24 20 25 21 27 22 28 23 29 81 30 24 31 80 32 25 33 26 34
REMARK SMILES IDX 27 35 74 36 28 37 79 38 73 39 75 40 29 41 78 42 72 43 71 44
REMARK SMILES IDX 30 46 60 47 41 48 59 49 42 50 45 51 58 52 76 53 43 54 44 55
REMARK SMILES IDX 57 57 77 58 46 59 31 60 32 61 40 62 33 63 39 64 34 65 35 66
REMARK SMILES IDX 36 67 37 68 38 69 61 70 62 71 70 72 63 73 69 74 64 75 65 76
REMARK SMILES IDX 66 77 67 78 68 79 47 80 48 81 56 82 49 83 55 84 50 85 51 86
REMARK SMILES IDX 52 87 53 88 54 89
REMARK H PARENT 15 5 19 26 75 45 45 56
REMARK Flexibility Score: inf
ROOT
ATOM      1  C   UNL A   1      39.789  22.226  26.482  1.00  0.00     0.117 C 
ENDROOT
BRANCH   1   2
ATOM      2  N   UNL A   1      38.513  22.901  26.664  1.00  0.00    -0.356 N 
ATOM      3  C   UNL A   1      37.551  23.176  25.734  1.00  0.00     0.220 C 
ATOM      4  O   UNL A   1      36.712  24.042  25.978  1.00  0.00    -0.275 OA
ATOM      5  H   UNL A   1      38.316  23.201  27.581  1.00  0.00     0.163 HD
BRANCH   3   6
ATOM      6  C   UNL A   1      37.457  22.298  24.510  1.00  0.00     0.103 C 
BRANCH   6   7
ATOM      7  C   UNL A   1      36.609  21.021  24.522  1.00  0.00     0.003 C 
ATOM      8  C   UNL A   1      37.404  19.775  24.913  1.00  0.00     0.008 C 
BRANCH   7   9
ATOM      9  C   UNL A   1      35.438  21.159  25.523  1.00  0.00     0.085 C 
BRANCH   9  10
ATOM     10  C   UNL A   1      34.109  21.590  24.921  1.00  0.00     0.166 C 
ATOM     11  O   UNL A   1      33.292  20.731  24.575  1.00  0.00    -0.294 OA
BRANCH  10  12
ATOM     12  C   UNL A   1      33.779  23.030  24.652  1.00  0.00     0.060 A 
ATOM     13  C   UNL A   1      33.505  25.736  23.958  1.00  0.00     0.122 A 
ATOM     14  C   UNL A   1      33.943  24.825  23.007  1.00  0.00     0.047 A 
ATOM     15  C   UNL A   1      33.127  25.297  25.226  1.00  0.00     0.093 A 
ATOM     16  C   UNL A   1      34.089  23.483  23.355  1.00  0.00     0.019 A 
ATOM     17  C   UNL A   1      33.257  23.946  25.588  1.00  0.00     0.133 A 
BRANCH  13  18
ATOM     18  O   UNL A   1      33.382  27.042  23.566  1.00  0.00    -0.497 OA
ATOM     19  C   UNL A   1      33.169  27.924  24.668  1.00  0.00     0.278 C 
ENDBRANCH  13  18
BRANCH  17  20
ATOM     20  O   UNL A   1      32.851  23.481  26.811  1.00  0.00    -0.496 OA
ATOM     21  C   UNL A   1      31.480  23.102  26.944  1.00  0.00     0.278 C 
ENDBRANCH  17  20
ENDBRANCH  10  12
ENDBRANCH   9  10
ENDBRANCH   7   9
ENDBRANCH   6   7
ENDBRANCH   3   6
ENDBRANCH   1   2
BRANCH   1  22
ATOM     22  C   UNL A   1      40.633  22.356  27.742  1.00  0.00     0.042 C 
BRANCH  22  23
ATOM     23  C   UNL A   1      41.859  23.228  27.546  1.00  0.00     0.118 C 
BRANCH  23  24
ATOM     24  N   UNL A   1      41.776  24.009  26.326  1.00  0.00    -0.352 N 
ATOM     25  C   UNL A   1      41.391  25.318  26.166  1.00  0.00     0.251 C 
ATOM     26  H   UNL A   1      42.032  23.537  25.501  1.00  0.00     0.163 HD
ATOM     27  O   UNL A   1      41.155  25.744  25.040  1.00  0.00    -0.269 OA
BRANCH  25  28
ATOM     28  C   UNL A   1      41.238  26.197  27.349  1.00  0.00     0.039 A 
ATOM     29  C   UNL A   1      42.192  27.189  27.582  1.00  0.00     0.014 A 
ATOM     30  C   UNL A   1      40.164  26.043  28.232  1.00  0.00     0.014 A 
ATOM     31  C   UNL A   1      42.040  28.055  28.668  1.00  0.00     0.010 A 
ATOM     32  C   UNL A   1      39.958  26.971  29.248  1.00  0.00     0.010 A 
ATOM     33  C   UNL A   1      40.906  27.974  29.492  1.00  0.00    -0.014 A 
BRANCH  33  34
ATOM     34  C   UNL A   1      40.709  28.907  30.632  1.00  0.00     0.031 A 
ATOM     35  C   UNL A   1      41.555  28.769  31.872  1.00  0.00     0.074 A 
ATOM     36  C   UNL A   1      39.741  29.844  30.573  1.00  0.00     0.049 A 
ATOM     37  N   UNL A   1      41.501  29.453  32.986  1.00  0.00    -0.248 NA
ATOM     38  C   UNL A   1      42.576  27.707  31.874  1.00  0.00     0.031 C 
ATOM     39  C   UNL A   1      38.829  30.052  29.444  1.00  0.00     0.029 A 
ATOM     40  N   UNL A   1      39.361  30.798  31.483  1.00  0.00    -0.354 N 
ATOM     41  C   UNL A   1      42.463  28.894  33.821  1.00  0.00     0.074 A 
ATOM     42  C   UNL A   1      43.047  27.782  33.109  1.00  0.00     0.031 C 
ATOM     43  C   UNL A   1      38.019  31.088  29.718  1.00  0.00     0.029 A 
ATOM     44  C   UNL A   1      38.320  31.589  31.056  1.00  0.00     0.049 A 
ATOM     45  H   UNL A   1      39.794  30.907  32.362  1.00  0.00     0.167 HD
ATOM     46  C   UNL A   1      42.842  29.286  35.060  1.00  0.00     0.031 A 
ATOM     47  C   UNL A   1      37.673  32.597  31.673  1.00  0.00     0.031 A 
ATOM     48  C   UNL A   1      42.273  30.407  35.758  1.00  0.00     0.049 A 
ATOM     49  C   UNL A   1      38.108  33.005  33.055  1.00  0.00     0.074 A 
ATOM     50  C   UNL A   1      42.629  30.922  36.992  1.00  0.00     0.029 A 
ATOM     51  N   UNL A   1      41.227  31.186  35.285  1.00  0.00    -0.354 N 
ATOM     52  N   UNL A   1      39.069  32.510  33.797  1.00  0.00    -0.248 NA
ATOM     53  C   UNL A   1      37.379  34.119  33.678  1.00  0.00     0.031 C 
ATOM     54  C   UNL A   1      41.761  31.976  37.292  1.00  0.00     0.029 A 
ATOM     55  C   UNL A   1      40.908  32.161  36.214  1.00  0.00     0.049 A 
ATOM     56  H   UNL A   1      40.778  31.063  34.417  1.00  0.00     0.167 HD
ATOM     57  C   UNL A   1      39.079  33.270  34.961  1.00  0.00     0.074 A 
ATOM     58  C   UNL A   1      38.043  34.271  34.815  1.00  0.00     0.031 C 
ATOM     59  C   UNL A   1      39.876  33.153  36.051  1.00  0.00     0.031 A 
BRANCH  46  60
ATOM     60  C   UNL A   1      43.928  28.497  35.746  1.00  0.00    -0.014 A 
ATOM     61  C   UNL A   1      45.283  28.845  35.601  1.00  0.00     0.010 A 
ATOM     62  C   UNL A   1      43.584  27.432  36.598  1.00  0.00     0.010 A 
ATOM     63  C   UNL A   1      46.276  28.123  36.269  1.00  0.00     0.020 A 
ATOM     64  C   UNL A   1      44.572  26.726  37.292  1.00  0.00     0.020 A 
ATOM     65  C   UNL A   1      45.914  27.069  37.113  1.00  0.00     0.054 A 
BRANCH  65  66
ATOM     66  S   UNL A   1      47.221  26.181  38.002  1.00  0.00     0.124 S 
ATOM     67  O   UNL A   1      48.063  27.278  38.474  1.00  0.00    -0.237 OA
ATOM     68  O   UNL A   1      46.476  25.472  39.039  1.00  0.00    -0.237 OA
ATOM     69  O   UNL A   1      47.823  25.331  36.978  1.00  0.00    -0.744 OA
ENDBRANCH  65  66
ENDBRANCH  46  60
BRANCH  47  70
ATOM     70  C   UNL A   1      36.548  33.296  30.990  1.00  0.00    -0.014 A 
ATOM     71  C   UNL A   1      36.776  34.058  29.830  1.00  0.00     0.010 A 
ATOM     72  C   UNL A   1      35.241  33.210  31.504  1.00  0.00     0.010 A 
ATOM     73  C   UNL A   1      35.725  34.747  29.217  1.00  0.00     0.020 A 
ATOM     74  C   UNL A   1      34.182  33.871  30.875  1.00  0.00     0.020 A 
ATOM     75  C   UNL A   1      34.434  34.648  29.744  1.00  0.00     0.054 A 
BRANCH  75  76
ATOM     76  S   UNL A   1      33.080  35.528  28.914  1.00  0.00     0.124 S 
ATOM     77  O   UNL A   1      32.444  34.457  28.154  1.00  0.00    -0.237 OA
ATOM     78  O   UNL A   1      32.310  36.052  30.038  1.00  0.00    -0.237 OA
ATOM     79  O   UNL A   1      33.770  36.540  28.116  1.00  0.00    -0.744 OA
ENDBRANCH  75  76
ENDBRANCH  47  70
BRANCH  59  80
ATOM     80  C   UNL A   1      39.692  34.156  37.160  1.00  0.00    -0.014 A 
ATOM     81  C   UNL A   1      38.925  33.856  38.299  1.00  0.00     0.010 A 
ATOM     82  C   UNL A   1      40.347  35.399  37.081  1.00  0.00     0.010 A 
ATOM     83  C   UNL A   1      38.791  34.794  39.326  1.00  0.00     0.020 A 
ATOM     84  C   UNL A   1      40.240  36.327  38.121  1.00  0.00     0.020 A 
ATOM     85  C   UNL A   1      39.451  36.024  39.230  1.00  0.00     0.054 A 
BRANCH  85  86
ATOM     86  S   UNL A   1      39.296  37.206  40.597  1.00  0.00     0.124 S 
ATOM     87  O   UNL A   1      38.847  36.349  41.690  1.00  0.00    -0.237 OA
ATOM     88  O   UNL A   1      40.655  37.727  40.724  1.00  0.00    -0.237 OA
ATOM     89  O   UNL A   1      38.308  38.167  40.113  1.00  0.00    -0.744 OA
ENDBRANCH  85  86
ENDBRANCH  59  80
ENDBRANCH  33  34
ENDBRANCH  25  28
ENDBRANCH  23  24
ENDBRANCH  22  23
ENDBRANCH   1  22
TORSDOF 19
ENDMDL
