MODEL 1
REMARK VINA RESULT:      -9.9      0.000      0.000
REMARK SMILES CCN(CC)C(=O)CN(CC(=O)NCCCNC(=O)c1ccc(-c2c3nc(c(-c4ccc(S(=O)(=O)[O-])cc4)c4ccc([nH]4)c(-c4ccc(S(=O)(=O)[O-])cc4)c4nc(c(-c5ccc(S(=O)(=O)[O-])cc5)c5ccc2[nH]5)C=C4)C=C3)cc1)c1ccccc1
REMARK SMILES IDX 14 1 13 2 11 3 12 4 10 6 9 7 8 8 6 9 3 10 7 11 2 12 1 13
REMARK SMILES IDX 4 14 5 15 80 16 81 17 85 18 82 19 84 20 83 21 15 22 16 23
REMARK SMILES IDX 17 24 18 25 19 27 20 28 21 29 79 30 22 31 78 32 23 33 24 34
REMARK SMILES IDX 25 35 72 36 26 37 77 38 71 39 73 40 27 41 76 42 70 43 69 44
REMARK SMILES IDX 28 46 58 47 39 48 57 49 40 50 43 51 56 52 74 53 41 54 42 55
REMARK SMILES IDX 55 57 75 58 44 59 29 60 30 61 38 62 31 63 37 64 32 65 33 66
REMARK SMILES IDX 34 67 35 68 36 69 59 70 60 71 68 72 61 73 67 74 62 75 63 76
REMARK SMILES IDX 64 77 65 78 66 79 45 80 46 81 54 82 47 83 53 84 48 85 49 86
REMARK SMILES IDX 50 87 51 88 52 89
REMARK H PARENT 13 5 17 26 73 45 43 56
REMARK Flexibility Score: inf
ROOT
ATOM      1  C   UNL A   1      34.117  23.338  24.598  1.00  0.00     0.117 C 
ENDROOT
BRANCH   1   2
ATOM      2  N   UNL A   1      34.302  24.268  23.509  1.00  0.00    -0.354 N 
ATOM      3  C   UNL A   1      33.395  25.095  22.922  1.00  0.00     0.239 C 
ATOM      4  O   UNL A   1      33.807  25.841  22.028  1.00  0.00    -0.273 OA
ATOM      5  H   UNL A   1      35.214  24.309  23.139  1.00  0.00     0.163 HD
BRANCH   3   6
ATOM      6  C   UNL A   1      31.947  25.173  23.410  1.00  0.00     0.217 C 
BRANCH   6   7
ATOM      7  N   UNL A   1      31.523  26.377  24.165  1.00  0.00    -0.353 N 
BRANCH   7   8
ATOM      8  C   UNL A   1      31.971  26.501  25.577  1.00  0.00     0.217 C 
BRANCH   8   9
ATOM      9  C   UNL A   1      33.242  27.304  25.898  1.00  0.00     0.242 C 
ATOM     10  N   UNL A   1      33.190  28.523  26.569  1.00  0.00    -0.342 N 
ATOM     11  O   UNL A   1      34.329  26.862  25.501  1.00  0.00    -0.273 OA
BRANCH  10  12
ATOM     12  C   UNL A   1      34.466  29.126  26.965  1.00  0.00     0.116 C 
ATOM     13  C   UNL A   1      34.277  30.528  27.535  1.00  0.00     0.027 C 
ENDBRANCH  10  12
BRANCH  10  14
ATOM     14  C   UNL A   1      31.975  29.248  26.917  1.00  0.00     0.116 C 
ATOM     15  C   UNL A   1      31.526  30.189  25.809  1.00  0.00     0.027 C 
ENDBRANCH  10  14
ENDBRANCH   8   9
ENDBRANCH   7   8
BRANCH   7  16
ATOM     16  C   UNL A   1      30.775  27.378  23.549  1.00  0.00     0.038 A 
ATOM     17  C   UNL A   1      29.374  27.431  23.632  1.00  0.00     0.026 A 
ATOM     18  C   UNL A   1      31.363  28.404  22.792  1.00  0.00     0.026 A 
ATOM     19  C   UNL A   1      28.612  28.421  22.993  1.00  0.00     0.002 A 
ATOM     20  C   UNL A   1      30.615  29.388  22.130  1.00  0.00     0.002 A 
ATOM     21  C   UNL A   1      29.233  29.396  22.230  1.00  0.00     0.000 A 
ENDBRANCH   7  16
ENDBRANCH   6   7
ENDBRANCH   3   6
ENDBRANCH   1   2
BRANCH   1  22
ATOM     22  C   UNL A   1      34.992  23.671  25.798  1.00  0.00     0.042 C 
BRANCH  22  23
ATOM     23  C   UNL A   1      36.434  24.004  25.430  1.00  0.00     0.118 C 
BRANCH  23  24
ATOM     24  N   UNL A   1      37.347  22.900  25.695  1.00  0.00    -0.352 N 
ATOM     25  C   UNL A   1      38.612  22.910  26.224  1.00  0.00     0.251 C 
ATOM     26  H   UNL A   1      37.002  22.009  25.458  1.00  0.00     0.163 HD
ATOM     27  O   UNL A   1      39.299  21.891  26.166  1.00  0.00    -0.269 OA
BRANCH  25  28
ATOM     28  C   UNL A   1      39.150  24.135  26.849  1.00  0.00     0.039 A 
ATOM     29  C   UNL A   1      39.956  24.989  26.092  1.00  0.00     0.014 A 
ATOM     30  C   UNL A   1      38.882  24.430  28.189  1.00  0.00     0.014 A 
ATOM     31  C   UNL A   1      40.441  26.168  26.660  1.00  0.00     0.010 A 
ATOM     32  C   UNL A   1      39.293  25.644  28.726  1.00  0.00     0.010 A 
ATOM     33  C   UNL A   1      40.086  26.521  27.973  1.00  0.00    -0.014 A 
BRANCH  33  34
ATOM     34  C   UNL A   1      40.539  27.796  28.585  1.00  0.00     0.031 A 
ATOM     35  C   UNL A   1      41.923  27.903  29.164  1.00  0.00     0.074 A 
ATOM     36  C   UNL A   1      39.678  28.826  28.694  1.00  0.00     0.049 A 
ATOM     37  N   UNL A   1      42.472  28.896  29.815  1.00  0.00    -0.248 NA
ATOM     38  C   UNL A   1      42.797  26.727  29.014  1.00  0.00     0.031 C 
ATOM     39  C   UNL A   1      38.297  28.831  28.209  1.00  0.00     0.029 A 
ATOM     40  N   UNL A   1      39.835  30.066  29.264  1.00  0.00    -0.354 N 
ATOM     41  C   UNL A   1      43.740  28.457  30.174  1.00  0.00     0.074 A 
ATOM     42  C   UNL A   1      43.861  27.091  29.714  1.00  0.00     0.031 C 
ATOM     43  C   UNL A   1      37.739  30.021  28.481  1.00  0.00     0.029 A 
ATOM     44  C   UNL A   1      38.704  30.846  29.203  1.00  0.00     0.049 A 
ATOM     45  H   UNL A   1      40.676  30.367  29.676  1.00  0.00     0.167 HD
ATOM     46  C   UNL A   1      44.723  29.135  30.815  1.00  0.00     0.031 A 
ATOM     47  C   UNL A   1      38.463  32.080  29.687  1.00  0.00     0.031 A 
ATOM     48  C   UNL A   1      44.595  30.494  31.271  1.00  0.00     0.049 A 
ATOM     49  C   UNL A   1      39.561  32.811  30.408  1.00  0.00     0.074 A 
ATOM     50  C   UNL A   1      45.548  31.290  31.880  1.00  0.00     0.029 A 
ATOM     51  N   UNL A   1      43.438  31.254  31.177  1.00  0.00    -0.354 N 
ATOM     52  N   UNL A   1      40.780  32.407  30.679  1.00  0.00    -0.248 NA
ATOM     53  C   UNL A   1      39.258  34.170  30.877  1.00  0.00     0.031 C 
ATOM     54  C   UNL A   1      44.949  32.510  32.212  1.00  0.00     0.029 A 
ATOM     55  C   UNL A   1      43.645  32.501  31.742  1.00  0.00     0.049 A 
ATOM     56  H   UNL A   1      42.595  30.953  30.768  1.00  0.00     0.167 HD
ATOM     57  C   UNL A   1      41.398  33.472  31.324  1.00  0.00     0.074 A 
ATOM     58  C   UNL A   1      40.423  34.541  31.393  1.00  0.00     0.031 C 
ATOM     59  C   UNL A   1      42.663  33.557  31.809  1.00  0.00     0.031 A 
BRANCH  46  60
ATOM     60  C   UNL A   1      46.013  28.399  31.079  1.00  0.00    -0.014 A 
ATOM     61  C   UNL A   1      46.214  27.676  32.271  1.00  0.00     0.010 A 
ATOM     62  C   UNL A   1      47.040  28.423  30.118  1.00  0.00     0.010 A 
ATOM     63  C   UNL A   1      47.437  27.050  32.524  1.00  0.00     0.020 A 
ATOM     64  C   UNL A   1      48.253  27.769  30.351  1.00  0.00     0.020 A 
ATOM     65  C   UNL A   1      48.453  27.108  31.565  1.00  0.00     0.054 A 
BRANCH  65  66
ATOM     66  S   UNL A   1      50.035  26.296  31.924  1.00  0.00     0.124 S 
ATOM     67  O   UNL A   1      50.935  27.441  32.055  1.00  0.00    -0.237 OA
ATOM     68  O   UNL A   1      49.752  25.577  33.163  1.00  0.00    -0.237 OA
ATOM     69  O   UNL A   1      50.267  25.453  30.754  1.00  0.00    -0.744 OA
ENDBRANCH  65  66
ENDBRANCH  46  60
BRANCH  47  70
ATOM     70  C   UNL A   1      37.125  32.699  29.480  1.00  0.00    -0.014 A 
ATOM     71  C   UNL A   1      36.129  32.592  30.465  1.00  0.00     0.010 A 
ATOM     72  C   UNL A   1      36.858  33.447  28.318  1.00  0.00     0.010 A 
ATOM     73  C   UNL A   1      34.892  33.219  30.294  1.00  0.00     0.020 A 
ATOM     74  C   UNL A   1      35.633  34.100  28.155  1.00  0.00     0.020 A 
ATOM     75  C   UNL A   1      34.655  33.977  29.143  1.00  0.00     0.054 A 
BRANCH  75  76
ATOM     76  S   UNL A   1      33.071  34.848  28.984  1.00  0.00     0.124 S 
ATOM     77  O   UNL A   1      33.494  36.166  28.519  1.00  0.00    -0.237 OA
ATOM     78  O   UNL A   1      32.359  34.030  28.005  1.00  0.00    -0.237 OA
ATOM     79  O   UNL A   1      32.520  34.809  30.337  1.00  0.00    -0.744 OA
ENDBRANCH  75  76
ENDBRANCH  47  70
BRANCH  59  80
ATOM     80  C   UNL A   1      43.088  34.865  32.424  1.00  0.00    -0.014 A 
ATOM     81  C   UNL A   1      43.868  35.793  31.713  1.00  0.00     0.010 A 
ATOM     82  C   UNL A   1      42.634  35.198  33.714  1.00  0.00     0.010 A 
ATOM     83  C   UNL A   1      44.205  37.021  32.291  1.00  0.00     0.020 A 
ATOM     84  C   UNL A   1      42.943  36.436  34.283  1.00  0.00     0.020 A 
ATOM     85  C   UNL A   1      43.737  37.336  33.570  1.00  0.00     0.054 A 
BRANCH  85  86
ATOM     86  S   UNL A   1      44.141  38.959  34.272  1.00  0.00     0.124 S 
ATOM     87  O   UNL A   1      45.391  39.283  33.592  1.00  0.00    -0.237 OA
ATOM     88  O   UNL A   1      42.987  39.769  33.889  1.00  0.00    -0.237 OA
ATOM     89  O   UNL A   1      44.261  38.697  35.705  1.00  0.00    -0.744 OA
ENDBRANCH  85  86
ENDBRANCH  59  80
ENDBRANCH  33  34
ENDBRANCH  25  28
ENDBRANCH  23  24
ENDBRANCH  22  23
ENDBRANCH   1  22
TORSDOF 19
ENDMDL
MODEL 2
REMARK VINA RESULT:      -9.5      1.237      2.707
REMARK SMILES CCN(CC)C(=O)CN(CC(=O)NCCCNC(=O)c1ccc(-c2c3nc(c(-c4ccc(S(=O)(=O)[O-])cc4)c4ccc([nH]4)c(-c4ccc(S(=O)(=O)[O-])cc4)c4nc(c(-c5ccc(S(=O)(=O)[O-])cc5)c5ccc2[nH]5)C=C4)C=C3)cc1)c1ccccc1
REMARK SMILES IDX 14 1 13 2 11 3 12 4 10 6 9 7 8 8 6 9 3 10 7 11 2 12 1 13
REMARK SMILES IDX 4 14 5 15 80 16 81 17 85 18 82 19 84 20 83 21 15 22 16 23
REMARK SMILES IDX 17 24 18 25 19 27 20 28 21 29 79 30 22 31 78 32 23 33 24 34
REMARK SMILES IDX 25 35 72 36 26 37 77 38 71 39 73 40 27 41 76 42 70 43 69 44
REMARK SMILES IDX 28 46 58 47 39 48 57 49 40 50 43 51 56 52 74 53 41 54 42 55
REMARK SMILES IDX 55 57 75 58 44 59 29 60 30 61 38 62 31 63 37 64 32 65 33 66
REMARK SMILES IDX 34 67 35 68 36 69 59 70 60 71 68 72 61 73 67 74 62 75 63 76
REMARK SMILES IDX 64 77 65 78 66 79 45 80 46 81 54 82 47 83 53 84 48 85 49 86
REMARK SMILES IDX 50 87 51 88 52 89
REMARK H PARENT 13 5 17 26 73 45 43 56
REMARK Flexibility Score: inf
ROOT
ATOM      1  C   UNL A   1      34.583  23.694  24.445  1.00  0.00     0.117 C 
ENDROOT
BRANCH   1   2
ATOM      2  N   UNL A   1      34.163  24.861  23.706  1.00  0.00    -0.354 N 
ATOM      3  C   UNL A   1      33.864  26.106  24.165  1.00  0.00     0.239 C 
ATOM      4  O   UNL A   1      33.572  26.963  23.324  1.00  0.00    -0.273 OA
ATOM      5  H   UNL A   1      34.083  24.738  22.732  1.00  0.00     0.163 HD
BRANCH   3   6
ATOM      6  C   UNL A   1      33.978  26.464  25.648  1.00  0.00     0.217 C 
BRANCH   6   7
ATOM      7  N   UNL A   1      32.923  27.316  26.249  1.00  0.00    -0.353 N 
BRANCH   7   8
ATOM      8  C   UNL A   1      31.577  26.718  26.444  1.00  0.00     0.217 C 
BRANCH   8   9
ATOM      9  C   UNL A   1      31.431  25.189  26.509  1.00  0.00     0.242 C 
ATOM     10  N   UNL A   1      30.911  24.456  25.446  1.00  0.00    -0.342 N 
ATOM     11  O   UNL A   1      31.748  24.616  27.560  1.00  0.00    -0.273 OA
BRANCH  10  12
ATOM     12  C   UNL A   1      30.963  22.994  25.549  1.00  0.00     0.116 C 
ATOM     13  C   UNL A   1      29.927  22.457  26.529  1.00  0.00     0.027 C 
ENDBRANCH  10  12
BRANCH  10  14
ATOM     14  C   UNL A   1      30.323  25.017  24.237  1.00  0.00     0.116 C 
ATOM     15  C   UNL A   1      30.819  24.322  22.977  1.00  0.00     0.027 C 
ENDBRANCH  10  14
ENDBRANCH   8   9
ENDBRANCH   7   8
BRANCH   7  16
ATOM     16  C   UNL A   1      33.208  28.616  26.664  1.00  0.00     0.038 A 
ATOM     17  C   UNL A   1      34.477  28.996  27.131  1.00  0.00     0.026 A 
ATOM     18  C   UNL A   1      32.249  29.641  26.653  1.00  0.00     0.026 A 
ATOM     19  C   UNL A   1      34.765  30.297  27.574  1.00  0.00     0.002 A 
ATOM     20  C   UNL A   1      32.514  30.939  27.113  1.00  0.00     0.002 A 
ATOM     21  C   UNL A   1      33.777  31.269  27.575  1.00  0.00     0.000 A 
ENDBRANCH   7  16
ENDBRANCH   6   7
ENDBRANCH   3   6
ENDBRANCH   1   2
BRANCH   1  22
ATOM     22  C   UNL A   1      36.091  23.493  24.403  1.00  0.00     0.042 C 
BRANCH  22  23
ATOM     23  C   UNL A   1      36.778  23.740  25.741  1.00  0.00     0.118 C 
BRANCH  23  24
ATOM     24  N   UNL A   1      37.852  22.790  26.000  1.00  0.00    -0.352 N 
ATOM     25  C   UNL A   1      39.118  23.001  26.485  1.00  0.00     0.251 C 
ATOM     26  H   UNL A   1      37.636  21.851  25.797  1.00  0.00     0.163 HD
ATOM     27  O   UNL A   1      39.946  22.093  26.427  1.00  0.00    -0.269 OA
BRANCH  25  28
ATOM     28  C   UNL A   1      39.488  24.309  27.062  1.00  0.00     0.039 A 
ATOM     29  C   UNL A   1      39.057  24.631  28.352  1.00  0.00     0.014 A 
ATOM     30  C   UNL A   1      40.239  25.229  26.325  1.00  0.00     0.014 A 
ATOM     31  C   UNL A   1      39.430  25.848  28.923  1.00  0.00     0.010 A 
ATOM     32  C   UNL A   1      40.681  26.402  26.926  1.00  0.00     0.010 A 
ATOM     33  C   UNL A   1      40.272  26.730  28.226  1.00  0.00    -0.014 A 
BRANCH  33  34
ATOM     34  C   UNL A   1      40.733  28.005  28.830  1.00  0.00     0.031 A 
ATOM     35  C   UNL A   1      42.129  28.118  29.380  1.00  0.00     0.074 A 
ATOM     36  C   UNL A   1      39.871  29.033  28.959  1.00  0.00     0.049 A 
ATOM     37  N   UNL A   1      42.687  29.112  30.021  1.00  0.00    -0.248 NA
ATOM     38  C   UNL A   1      43.004  26.945  29.210  1.00  0.00     0.031 C 
ATOM     39  C   UNL A   1      38.480  29.033  28.503  1.00  0.00     0.029 A 
ATOM     40  N   UNL A   1      40.035  30.272  29.527  1.00  0.00    -0.354 N 
ATOM     41  C   UNL A   1      43.965  28.677  30.352  1.00  0.00     0.074 A 
ATOM     42  C   UNL A   1      44.081  27.312  29.888  1.00  0.00     0.031 C 
ATOM     43  C   UNL A   1      37.924  30.221  28.789  1.00  0.00     0.029 A 
ATOM     44  C   UNL A   1      38.900  31.048  29.491  1.00  0.00     0.049 A 
ATOM     45  H   UNL A   1      40.884  30.576  29.921  1.00  0.00     0.167 HD
ATOM     46  C   UNL A   1      44.959  29.358  30.973  1.00  0.00     0.031 A 
ATOM     47  C   UNL A   1      38.665  32.281  29.981  1.00  0.00     0.031 A 
ATOM     48  C   UNL A   1      44.835  30.716  31.434  1.00  0.00     0.049 A 
ATOM     49  C   UNL A   1      39.776  33.015  30.680  1.00  0.00     0.074 A 
ATOM     50  C   UNL A   1      45.798  31.515  32.023  1.00  0.00     0.029 A 
ATOM     51  N   UNL A   1      43.674  31.472  31.365  1.00  0.00    -0.354 N 
ATOM     52  N   UNL A   1      41.001  32.615  30.925  1.00  0.00    -0.248 NA
ATOM     53  C   UNL A   1      39.477  34.372  31.157  1.00  0.00     0.031 C 
ATOM     54  C   UNL A   1      45.202  32.732  32.369  1.00  0.00     0.029 A 
ATOM     55  C   UNL A   1      43.888  32.719  31.927  1.00  0.00     0.049 A 
ATOM     56  H   UNL A   1      42.823  31.168  30.974  1.00  0.00     0.167 HD
ATOM     57  C   UNL A   1      41.629  33.682  31.558  1.00  0.00     0.074 A 
ATOM     58  C   UNL A   1      40.651  34.747  31.649  1.00  0.00     0.031 C 
ATOM     59  C   UNL A   1      42.903  33.771  32.016  1.00  0.00     0.031 A 
BRANCH  46  60
ATOM     60  C   UNL A   1      46.257  28.626  31.209  1.00  0.00    -0.014 A 
ATOM     61  C   UNL A   1      47.319  28.703  30.287  1.00  0.00     0.010 A 
ATOM     62  C   UNL A   1      46.422  27.855  32.373  1.00  0.00     0.010 A 
ATOM     63  C   UNL A   1      48.491  27.970  30.492  1.00  0.00     0.020 A 
ATOM     64  C   UNL A   1      47.606  27.150  32.601  1.00  0.00     0.020 A 
ATOM     65  C   UNL A   1      48.624  27.191  31.646  1.00  0.00     0.054 A 
BRANCH  65  66
ATOM     66  S   UNL A   1      50.151  26.242  31.882  1.00  0.00     0.124 S 
ATOM     67  O   UNL A   1      49.754  25.289  32.916  1.00  0.00    -0.237 OA
ATOM     68  O   UNL A   1      50.381  25.671  30.558  1.00  0.00    -0.237 OA
ATOM     69  O   UNL A   1      51.124  27.247  32.302  1.00  0.00    -0.744 OA
ENDBRANCH  65  66
ENDBRANCH  46  60
BRANCH  47  70
ATOM     70  C   UNL A   1      37.321  32.895  29.804  1.00  0.00    -0.014 A 
ATOM     71  C   UNL A   1      36.378  32.862  30.845  1.00  0.00     0.010 A 
ATOM     72  C   UNL A   1      36.996  33.566  28.609  1.00  0.00     0.010 A 
ATOM     73  C   UNL A   1      35.136  33.486  30.697  1.00  0.00     0.020 A 
ATOM     74  C   UNL A   1      35.767  34.216  28.468  1.00  0.00     0.020 A 
ATOM     75  C   UNL A   1      34.841  34.167  29.512  1.00  0.00     0.054 A 
BRANCH  75  76
ATOM     76  S   UNL A   1      33.256  35.038  29.377  1.00  0.00     0.124 S 
ATOM     77  O   UNL A   1      32.692  34.853  30.711  1.00  0.00    -0.237 OA
ATOM     78  O   UNL A   1      33.672  36.399  29.049  1.00  0.00    -0.237 OA
ATOM     79  O   UNL A   1      32.564  34.329  28.303  1.00  0.00    -0.744 OA
ENDBRANCH  75  76
ENDBRANCH  47  70
BRANCH  59  80
ATOM     80  C   UNL A   1      43.337  35.080  32.624  1.00  0.00    -0.014 A 
ATOM     81  C   UNL A   1      43.765  36.155  31.826  1.00  0.00     0.010 A 
ATOM     82  C   UNL A   1      43.242  35.256  34.017  1.00  0.00     0.010 A 
ATOM     83  C   UNL A   1      44.113  37.375  32.414  1.00  0.00     0.020 A 
ATOM     84  C   UNL A   1      43.559  36.483  34.605  1.00  0.00     0.020 A 
ATOM     85  C   UNL A   1      44.004  37.532  33.799  1.00  0.00     0.054 A 
BRANCH  85  86
ATOM     86  S   UNL A   1      44.406  39.143  34.529  1.00  0.00     0.124 S 
ATOM     87  O   UNL A   1      44.152  38.906  35.947  1.00  0.00    -0.237 OA
ATOM     88  O   UNL A   1      45.808  39.320  34.161  1.00  0.00    -0.237 OA
ATOM     89  O   UNL A   1      43.477  40.062  33.875  1.00  0.00    -0.744 OA
ENDBRANCH  85  86
ENDBRANCH  59  80
ENDBRANCH  33  34
ENDBRANCH  25  28
ENDBRANCH  23  24
ENDBRANCH  22  23
ENDBRANCH   1  22
TORSDOF 19
ENDMDL
MODEL 3
REMARK VINA RESULT:      -9.5      2.650      9.067
REMARK SMILES CCN(CC)C(=O)CN(CC(=O)NCCCNC(=O)c1ccc(-c2c3nc(c(-c4ccc(S(=O)(=O)[O-])cc4)c4ccc([nH]4)c(-c4ccc(S(=O)(=O)[O-])cc4)c4nc(c(-c5ccc(S(=O)(=O)[O-])cc5)c5ccc2[nH]5)C=C4)C=C3)cc1)c1ccccc1
REMARK SMILES IDX 14 1 13 2 11 3 12 4 10 6 9 7 8 8 6 9 3 10 7 11 2 12 1 13
REMARK SMILES IDX 4 14 5 15 80 16 81 17 85 18 82 19 84 20 83 21 15 22 16 23
REMARK SMILES IDX 17 24 18 25 19 27 20 28 21 29 79 30 22 31 78 32 23 33 24 34
REMARK SMILES IDX 25 35 72 36 26 37 77 38 71 39 73 40 27 41 76 42 70 43 69 44
REMARK SMILES IDX 28 46 58 47 39 48 57 49 40 50 43 51 56 52 74 53 41 54 42 55
REMARK SMILES IDX 55 57 75 58 44 59 29 60 30 61 38 62 31 63 37 64 32 65 33 66
REMARK SMILES IDX 34 67 35 68 36 69 59 70 60 71 68 72 61 73 67 74 62 75 63 76
REMARK SMILES IDX 64 77 65 78 66 79 45 80 46 81 54 82 47 83 53 84 48 85 49 86
REMARK SMILES IDX 50 87 51 88 52 89
REMARK H PARENT 13 5 17 26 73 45 43 56
REMARK Flexibility Score: inf
ROOT
ATOM      1  C   UNL A   1      33.468  27.206  25.106  1.00  0.00     0.117 C 
ENDROOT
BRANCH   1   2
ATOM      2  N   UNL A   1      32.731  26.362  26.016  1.00  0.00    -0.354 N 
ATOM      3  C   UNL A   1      31.416  26.012  25.990  1.00  0.00     0.239 C 
ATOM      4  O   UNL A   1      31.022  25.230  26.862  1.00  0.00    -0.273 OA
ATOM      5  H   UNL A   1      33.254  25.986  26.762  1.00  0.00     0.163 HD
BRANCH   3   6
ATOM      6  C   UNL A   1      30.482  26.485  24.874  1.00  0.00     0.217 C 
BRANCH   6   7
ATOM      7  N   UNL A   1      30.862  26.196  23.469  1.00  0.00    -0.353 N 
BRANCH   7   8
ATOM      8  C   UNL A   1      30.674  27.275  22.465  1.00  0.00     0.217 C 
BRANCH   8   9
ATOM      9  C   UNL A   1      30.542  28.732  22.938  1.00  0.00     0.242 C 
ATOM     10  N   UNL A   1      29.319  29.398  22.926  1.00  0.00    -0.342 N 
ATOM     11  O   UNL A   1      31.568  29.328  23.292  1.00  0.00    -0.273 OA
BRANCH  10  12
ATOM     12  C   UNL A   1      29.272  30.727  23.544  1.00  0.00     0.116 C 
ATOM     13  C   UNL A   1      28.591  31.749  22.642  1.00  0.00     0.027 C 
ENDBRANCH  10  12
BRANCH  10  14
ATOM     14  C   UNL A   1      28.080  28.886  22.357  1.00  0.00     0.116 C 
ATOM     15  C   UNL A   1      27.046  28.557  23.424  1.00  0.00     0.027 C 
ENDBRANCH  10  14
ENDBRANCH   8   9
ENDBRANCH   7   8
BRANCH   7  16
ATOM     16  C   UNL A   1      31.425  24.969  23.122  1.00  0.00     0.038 A 
ATOM     17  C   UNL A   1      30.853  23.743  23.501  1.00  0.00     0.026 A 
ATOM     18  C   UNL A   1      32.608  24.864  22.373  1.00  0.00     0.026 A 
ATOM     19  C   UNL A   1      31.427  22.505  23.177  1.00  0.00     0.002 A 
ATOM     20  C   UNL A   1      33.206  23.635  22.060  1.00  0.00     0.002 A 
ATOM     21  C   UNL A   1      32.613  22.450  22.464  1.00  0.00     0.000 A 
ENDBRANCH   7  16
ENDBRANCH   6   7
ENDBRANCH   3   6
ENDBRANCH   1   2
BRANCH   1  22
ATOM     22  C   UNL A   1      34.125  28.383  25.812  1.00  0.00     0.042 C 
BRANCH  22  23
ATOM     23  C   UNL A   1      33.662  28.569  27.253  1.00  0.00     0.118 C 
BRANCH  23  24
ATOM     24  N   UNL A   1      33.586  29.972  27.638  1.00  0.00    -0.352 N 
ATOM     25  C   UNL A   1      34.491  30.750  28.313  1.00  0.00     0.251 C 
ATOM     26  H   UNL A   1      32.757  30.432  27.372  1.00  0.00     0.163 HD
ATOM     27  O   UNL A   1      34.144  31.856  28.729  1.00  0.00    -0.269 OA
BRANCH  25  28
ATOM     28  C   UNL A   1      35.865  30.264  28.548  1.00  0.00     0.039 A 
ATOM     29  C   UNL A   1      36.803  30.348  27.516  1.00  0.00     0.014 A 
ATOM     30  C   UNL A   1      36.224  29.704  29.777  1.00  0.00     0.014 A 
ATOM     31  C   UNL A   1      38.115  29.926  27.736  1.00  0.00     0.010 A 
ATOM     32  C   UNL A   1      37.550  29.364  30.022  1.00  0.00     0.010 A 
ATOM     33  C   UNL A   1      38.507  29.460  29.002  1.00  0.00    -0.014 A 
BRANCH  33  34
ATOM     34  C   UNL A   1      39.908  29.059  29.284  1.00  0.00     0.031 A 
ATOM     35  C   UNL A   1      40.876  30.056  29.861  1.00  0.00     0.074 A 
ATOM     36  C   UNL A   1      40.330  27.825  28.943  1.00  0.00     0.049 A 
ATOM     37  N   UNL A   1      42.156  29.925  30.094  1.00  0.00    -0.248 NA
ATOM     38  C   UNL A   1      40.337  31.386  30.193  1.00  0.00     0.031 C 
ATOM     39  C   UNL A   1      39.499  26.782  28.339  1.00  0.00     0.029 A 
ATOM     40  N   UNL A   1      41.571  27.246  29.043  1.00  0.00    -0.354 N 
ATOM     41  C   UNL A   1      42.580  31.157  30.575  1.00  0.00     0.074 A 
ATOM     42  C   UNL A   1      41.433  32.038  30.551  1.00  0.00     0.031 C 
ATOM     43  C   UNL A   1      40.245  25.685  28.142  1.00  0.00     0.029 A 
ATOM     44  C   UNL A   1      41.618  25.960  28.558  1.00  0.00     0.049 A 
ATOM     45  H   UNL A   1      42.352  27.707  29.425  1.00  0.00     0.167 HD
ATOM     46  C   UNL A   1      43.810  31.520  31.013  1.00  0.00     0.031 A 
ATOM     47  C   UNL A   1      42.650  25.101  28.446  1.00  0.00     0.031 A 
ATOM     48  C   UNL A   1      44.947  30.639  31.033  1.00  0.00     0.049 A 
ATOM     49  C   UNL A   1      44.011  25.527  28.924  1.00  0.00     0.074 A 
ATOM     50  C   UNL A   1      46.222  30.889  31.508  1.00  0.00     0.029 A 
ATOM     51  N   UNL A   1      44.949  29.338  30.548  1.00  0.00    -0.354 N 
ATOM     52  N   UNL A   1      44.380  26.675  29.440  1.00  0.00    -0.248 NA
ATOM     53  C   UNL A   1      45.091  24.538  28.817  1.00  0.00     0.031 C 
ATOM     54  C   UNL A   1      47.012  29.763  31.252  1.00  0.00     0.029 A 
ATOM     55  C   UNL A   1      46.211  28.784  30.686  1.00  0.00     0.049 A 
ATOM     56  H   UNL A   1      44.170  28.878  30.162  1.00  0.00     0.167 HD
ATOM     57  C   UNL A   1      45.729  26.537  29.747  1.00  0.00     0.074 A 
ATOM     58  C   UNL A   1      46.107  25.190  29.368  1.00  0.00     0.031 C 
ATOM     59  C   UNL A   1      46.575  27.442  30.300  1.00  0.00     0.031 A 
BRANCH  46  60
ATOM     60  C   UNL A   1      43.987  32.944  31.481  1.00  0.00    -0.014 A 
ATOM     61  C   UNL A   1      44.386  33.963  30.595  1.00  0.00     0.010 A 
ATOM     62  C   UNL A   1      43.743  33.270  32.827  1.00  0.00     0.010 A 
ATOM     63  C   UNL A   1      44.602  35.263  31.060  1.00  0.00     0.020 A 
ATOM     64  C   UNL A   1      43.922  34.577  33.289  1.00  0.00     0.020 A 
ATOM     65  C   UNL A   1      44.376  35.560  32.407  1.00  0.00     0.054 A 
BRANCH  65  66
ATOM     66  S   UNL A   1      44.676  37.253  32.986  1.00  0.00     0.124 S 
ATOM     67  O   UNL A   1      43.404  37.578  33.628  1.00  0.00    -0.237 OA
ATOM     68  O   UNL A   1      45.810  37.086  33.889  1.00  0.00    -0.237 OA
ATOM     69  O   UNL A   1      44.961  37.993  31.759  1.00  0.00    -0.744 OA
ENDBRANCH  65  66
ENDBRANCH  46  60
BRANCH  47  70
ATOM     70  C   UNL A   1      42.419  23.749  27.871  1.00  0.00    -0.014 A 
ATOM     71  C   UNL A   1      42.465  23.545  26.481  1.00  0.00     0.010 A 
ATOM     72  C   UNL A   1      42.204  22.643  28.715  1.00  0.00     0.010 A 
ATOM     73  C   UNL A   1      42.301  22.265  25.945  1.00  0.00     0.020 A 
ATOM     74  C   UNL A   1      42.068  21.356  28.186  1.00  0.00     0.020 A 
ATOM     75  C   UNL A   1      42.112  21.177  26.802  1.00  0.00     0.054 A 
BRANCH  75  76
ATOM     76  S   UNL A   1      41.985  19.515  26.086  1.00  0.00     0.124 S 
ATOM     77  O   UNL A   1      42.856  19.618  24.919  1.00  0.00    -0.237 OA
ATOM     78  O   UNL A   1      42.477  18.667  27.170  1.00  0.00    -0.237 OA
ATOM     79  O   UNL A   1      40.561  19.375  25.792  1.00  0.00    -0.744 OA
ENDBRANCH  75  76
ENDBRANCH  47  70
BRANCH  59  80
ATOM     80  C   UNL A   1      47.990  27.001  30.571  1.00  0.00    -0.014 A 
ATOM     81  C   UNL A   1      49.012  27.187  29.625  1.00  0.00     0.010 A 
ATOM     82  C   UNL A   1      48.312  26.455  31.828  1.00  0.00     0.010 A 
ATOM     83  C   UNL A   1      50.327  26.814  29.922  1.00  0.00     0.020 A 
ATOM     84  C   UNL A   1      49.629  26.109  32.140  1.00  0.00     0.020 A 
ATOM     85  C   UNL A   1      50.627  26.281  31.180  1.00  0.00     0.054 A 
BRANCH  85  86
ATOM     86  S   UNL A   1      52.349  25.860  31.561  1.00  0.00     0.124 S 
ATOM     87  O   UNL A   1      53.007  26.073  30.275  1.00  0.00    -0.237 OA
ATOM     88  O   UNL A   1      52.689  26.820  32.608  1.00  0.00    -0.237 OA
ATOM     89  O   UNL A   1      52.277  24.468  32.001  1.00  0.00    -0.744 OA
ENDBRANCH  85  86
ENDBRANCH  59  80
ENDBRANCH  33  34
ENDBRANCH  25  28
ENDBRANCH  23  24
ENDBRANCH  22  23
ENDBRANCH   1  22
TORSDOF 19
ENDMDL
