MODEL 1
REMARK VINA RESULT:     -11.7      0.000      0.000
REMARK SMILES O=C(NCCCNC(=O)c1c(/C=C2/SC(=S)N=C2O)cnc2ccccc12)c1ccc(-c2c3nc(c(-c4ccc(S(=O)(=O)[O-])cc4)c4ccc([nH]4)c(-c4ccc(S(=O)(=O)[O-])cc4)c4nc(c(-c5ccc(S(=O)(=O)[O-])cc5)c5ccc2[nH]5)C=C4)C=C3)cc1
REMARK SMILES IDX 4 1 3 2 1 3 2 4 28 6 29 7 87 8 30 9 86 10 31 11 32 12 33 13
REMARK SMILES IDX 80 14 34 15 85 16 79 17 81 18 35 19 84 20 78 21 77 22 36 24
REMARK SMILES IDX 66 25 47 26 65 27 48 28 51 29 64 30 82 31 49 32 50 33 63 35
REMARK SMILES IDX 83 36 52 37 37 38 38 39 46 40 39 41 45 42 40 43 41 44 42 45
REMARK SMILES IDX 43 46 44 47 67 48 68 49 76 50 69 51 75 52 70 53 71 54 72 55
REMARK SMILES IDX 73 56 74 57 53 58 54 59 62 60 55 61 61 62 56 63 57 64 58 65
REMARK SMILES IDX 59 66 60 67 5 68 6 69 7 70 8 71 9 73 10 74 11 75 27 76 20 77
REMARK SMILES IDX 22 78 26 79 21 80 23 81 25 82 24 83 12 84 13 85 14 86 18 87
REMARK SMILES IDX 15 88 17 89 16 90 19 91
REMARK H PARENT 3 5 81 23 51 34 7 72 19 92
REMARK Flexibility Score: inf
ROOT
ATOM      1  C   UNL A   1      33.601  28.429  27.270  1.00  0.00     0.118 C 
ENDROOT
BRANCH   1   2
ATOM      2  N   UNL A   1      33.585  29.866  27.501  1.00  0.00    -0.352 N 
ATOM      3  O   UNL A   1      34.179  31.862  28.324  1.00  0.00    -0.269 OA
ATOM      4  C   UNL A   1      34.510  30.705  28.072  1.00  0.00     0.251 C 
ATOM      5  H   UNL A   1      32.766  30.316  27.193  1.00  0.00     0.163 HD
BRANCH   4   6
ATOM      6  C   UNL A   1      35.870  30.236  28.414  1.00  0.00     0.039 A 
ATOM      7  C   UNL A   1      36.166  29.687  29.663  1.00  0.00     0.014 A 
ATOM      8  C   UNL A   1      36.866  30.295  27.433  1.00  0.00     0.014 A 
ATOM      9  C   UNL A   1      37.478  29.346  29.984  1.00  0.00     0.010 A 
ATOM     10  C   UNL A   1      38.163  29.867  27.725  1.00  0.00     0.010 A 
ATOM     11  C   UNL A   1      38.489  29.423  29.016  1.00  0.00    -0.014 A 
BRANCH  11  12
ATOM     12  C   UNL A   1      39.873  28.996  29.344  1.00  0.00     0.031 A 
ATOM     13  C   UNL A   1      40.827  29.942  30.020  1.00  0.00     0.074 A 
ATOM     14  C   UNL A   1      40.277  27.755  29.011  1.00  0.00     0.049 A 
ATOM     15  N   UNL A   1      42.090  29.767  30.315  1.00  0.00    -0.248 NA
ATOM     16  C   UNL A   1      40.298  31.259  30.404  1.00  0.00     0.031 C 
ATOM     17  C   UNL A   1      39.444  26.743  28.356  1.00  0.00     0.029 A 
ATOM     18  N   UNL A   1      41.489  27.133  29.172  1.00  0.00    -0.354 N 
ATOM     19  C   UNL A   1      42.515  30.958  30.891  1.00  0.00     0.074 A 
ATOM     20  C   UNL A   1      41.379  31.855  30.886  1.00  0.00     0.031 C 
ATOM     21  C   UNL A   1      40.161  25.623  28.189  1.00  0.00     0.029 A 
ATOM     22  C   UNL A   1      41.521  25.857  28.663  1.00  0.00     0.049 A 
ATOM     23  H   UNL A   1      42.261  27.560  29.609  1.00  0.00     0.167 HD
ATOM     24  C   UNL A   1      43.740  31.276  31.378  1.00  0.00     0.031 A 
ATOM     25  C   UNL A   1      42.536  24.978  28.556  1.00  0.00     0.031 A 
ATOM     26  C   UNL A   1      44.866  30.379  31.375  1.00  0.00     0.049 A 
ATOM     27  C   UNL A   1      43.893  25.359  29.072  1.00  0.00     0.074 A 
ATOM     28  C   UNL A   1      46.140  30.596  31.869  1.00  0.00     0.029 A 
ATOM     29  N   UNL A   1      44.855  29.096  30.847  1.00  0.00    -0.354 N 
ATOM     30  N   UNL A   1      44.269  26.482  29.635  1.00  0.00    -0.248 NA
ATOM     31  C   UNL A   1      44.958  24.357  28.944  1.00  0.00     0.031 C 
ATOM     32  C   UNL A   1      46.913  29.463  31.594  1.00  0.00     0.029 A 
ATOM     33  C   UNL A   1      46.107  28.517  30.982  1.00  0.00     0.049 A 
ATOM     34  H   UNL A   1      44.074  28.661  30.435  1.00  0.00     0.167 HD
ATOM     35  C   UNL A   1      45.612  26.314  29.951  1.00  0.00     0.074 A 
ATOM     36  C   UNL A   1      45.980  24.980  29.519  1.00  0.00     0.031 C 
ATOM     37  C   UNL A   1      46.458  27.187  30.550  1.00  0.00     0.031 A 
BRANCH  24  38
ATOM     38  C   UNL A   1      43.931  32.672  31.912  1.00  0.00    -0.014 A 
ATOM     39  C   UNL A   1      43.594  33.002  33.237  1.00  0.00     0.010 A 
ATOM     40  C   UNL A   1      44.458  33.669  31.071  1.00  0.00     0.010 A 
ATOM     41  C   UNL A   1      43.722  34.319  33.692  1.00  0.00     0.020 A 
ATOM     42  C   UNL A   1      44.614  34.980  31.531  1.00  0.00     0.020 A 
ATOM     43  C   UNL A   1      44.218  35.302  32.830  1.00  0.00     0.054 A 
BRANCH  43  44
ATOM     44  S   UNL A   1      44.346  37.008  33.433  1.00  0.00     0.124 S 
ATOM     45  O   UNL A   1      43.933  36.862  34.828  1.00  0.00    -0.237 OA
ATOM     46  O   UNL A   1      45.758  37.321  33.227  1.00  0.00    -0.237 OA
ATOM     47  O   UNL A   1      43.416  37.747  32.583  1.00  0.00    -0.744 OA
ENDBRANCH  43  44
ENDBRANCH  24  38
BRANCH  25  48
ATOM     48  C   UNL A   1      42.284  23.661  27.914  1.00  0.00    -0.014 A 
ATOM     49  C   UNL A   1      42.453  23.496  26.529  1.00  0.00     0.010 A 
ATOM     50  C   UNL A   1      41.961  22.541  28.705  1.00  0.00     0.010 A 
ATOM     51  C   UNL A   1      42.313  22.232  25.948  1.00  0.00     0.020 A 
ATOM     52  C   UNL A   1      41.845  21.274  28.131  1.00  0.00     0.020 A 
ATOM     53  C   UNL A   1      42.021  21.127  26.754  1.00  0.00     0.054 A 
BRANCH  53  54
ATOM     54  S   UNL A   1      41.946  19.482  25.992  1.00  0.00     0.124 S 
ATOM     55  O   UNL A   1      40.524  19.348  25.697  1.00  0.00    -0.237 OA
ATOM     56  O   UNL A   1      42.823  19.631  24.833  1.00  0.00    -0.237 OA
ATOM     57  O   UNL A   1      42.456  18.598  27.039  1.00  0.00    -0.744 OA
ENDBRANCH  53  54
ENDBRANCH  25  48
BRANCH  37  58
ATOM     58  C   UNL A   1      47.862  26.722  30.819  1.00  0.00    -0.014 A 
ATOM     59  C   UNL A   1      48.917  27.041  29.947  1.00  0.00     0.010 A 
ATOM     60  C   UNL A   1      48.141  26.032  32.014  1.00  0.00     0.010 A 
ATOM     61  C   UNL A   1      50.228  26.669  30.261  1.00  0.00     0.020 A 
ATOM     62  C   UNL A   1      49.452  25.679  32.342  1.00  0.00     0.020 A 
ATOM     63  C   UNL A   1      50.487  25.996  31.461  1.00  0.00     0.054 A 
BRANCH  63  64
ATOM     64  S   UNL A   1      52.205  25.598  31.886  1.00  0.00     0.124 S 
ATOM     65  O   UNL A   1      52.902  25.879  30.634  1.00  0.00    -0.237 OA
ATOM     66  O   UNL A   1      52.487  26.520  32.983  1.00  0.00    -0.237 OA
ATOM     67  O   UNL A   1      52.149  24.188  32.266  1.00  0.00    -0.744 OA
ENDBRANCH  63  64
ENDBRANCH  37  58
ENDBRANCH  11  12
ENDBRANCH   4   6
ENDBRANCH   1   2
BRANCH   1  68
ATOM     68  C   UNL A   1      34.236  28.042  25.940  1.00  0.00     0.042 C 
BRANCH  68  69
ATOM     69  C   UNL A   1      33.507  28.562  24.711  1.00  0.00     0.118 C 
BRANCH  69  70
ATOM     70  N   UNL A   1      33.809  27.822  23.494  1.00  0.00    -0.352 N 
ATOM     71  C   UNL A   1      32.935  27.171  22.678  1.00  0.00     0.252 C 
ATOM     72  H   UNL A   1      34.757  27.788  23.229  1.00  0.00     0.163 HD
ATOM     73  O   UNL A   1      33.241  26.806  21.540  1.00  0.00    -0.269 OA
BRANCH  71  74
ATOM     74  C   UNL A   1      31.585  26.866  23.119  1.00  0.00     0.058 A 
ATOM     75  C   UNL A   1      31.332  25.662  23.785  1.00  0.00     0.007 A 
ATOM     76  C   UNL A   1      30.572  27.827  22.836  1.00  0.00     0.014 A 
ATOM     77  C   UNL A   1      29.997  25.498  24.149  1.00  0.00     0.120 A 
ATOM     78  C   UNL A   1      29.288  27.545  23.324  1.00  0.00     0.071 A 
ATOM     79  C   UNL A   1      30.785  29.051  22.146  1.00  0.00     0.011 A 
ATOM     80  N   UNL A   1      29.000  26.392  23.943  1.00  0.00    -0.256 NA
ATOM     81  C   UNL A   1      28.290  28.500  23.181  1.00  0.00     0.029 A 
ATOM     82  C   UNL A   1      29.769  29.993  22.011  1.00  0.00     0.001 A 
ATOM     83  C   UNL A   1      28.520  29.723  22.546  1.00  0.00     0.002 A 
BRANCH  75  84
ATOM     84  C   UNL A   1      32.289  24.685  24.370  1.00  0.00     0.031 C 
ATOM     85  C   UNL A   1      33.369  23.942  24.061  1.00  0.00     0.077 C 
ATOM     86  S   UNL A   1      34.156  23.122  25.424  1.00  0.00    -0.053 SA
ATOM     87  C   UNL A   1      34.235  23.573  22.913  1.00  0.00     0.227 C 
ATOM     88  C   UNL A   1      35.580  22.755  24.443  1.00  0.00     0.168 C 
ATOM     89  N   UNL A   1      35.369  22.980  23.108  1.00  0.00    -0.194 NA
ATOM     90  S   UNL A   1      36.999  22.201  25.128  1.00  0.00    -0.050 S 
BRANCH  87  91
ATOM     91  O   UNL A   1      33.845  23.736  21.656  1.00  0.00    -0.492 OA
ATOM     92  H   UNL A   1      33.022  23.387  21.372  1.00  0.00     0.295 HD
ENDBRANCH  87  91
ENDBRANCH  75  84
ENDBRANCH  71  74
ENDBRANCH  69  70
ENDBRANCH  68  69
ENDBRANCH   1  68
TORSDOF 15
ENDMDL
MODEL 2
REMARK VINA RESULT:     -11.7      3.036      9.412
REMARK SMILES O=C(NCCCNC(=O)c1c(/C=C2/SC(=S)N=C2O)cnc2ccccc12)c1ccc(-c2c3nc(c(-c4ccc(S(=O)(=O)[O-])cc4)c4ccc([nH]4)c(-c4ccc(S(=O)(=O)[O-])cc4)c4nc(c(-c5ccc(S(=O)(=O)[O-])cc5)c5ccc2[nH]5)C=C4)C=C3)cc1
REMARK SMILES IDX 4 1 3 2 1 3 2 4 28 6 29 7 87 8 30 9 86 10 31 11 32 12 33 13
REMARK SMILES IDX 80 14 34 15 85 16 79 17 81 18 35 19 84 20 78 21 77 22 36 24
REMARK SMILES IDX 66 25 47 26 65 27 48 28 51 29 64 30 82 31 49 32 50 33 63 35
REMARK SMILES IDX 83 36 52 37 37 38 38 39 46 40 39 41 45 42 40 43 41 44 42 45
REMARK SMILES IDX 43 46 44 47 67 48 68 49 76 50 69 51 75 52 70 53 71 54 72 55
REMARK SMILES IDX 73 56 74 57 53 58 54 59 62 60 55 61 61 62 56 63 57 64 58 65
REMARK SMILES IDX 59 66 60 67 5 68 6 69 7 70 8 71 9 73 10 74 11 75 27 76 20 77
REMARK SMILES IDX 22 78 26 79 21 80 23 81 25 82 24 83 12 84 13 85 14 86 18 87
REMARK SMILES IDX 15 88 17 89 16 90 19 91
REMARK H PARENT 3 5 81 23 51 34 7 72 19 92
REMARK Flexibility Score: inf
ROOT
ATOM      1  C   UNL A   1      37.105  23.783  24.802  1.00  0.00     0.118 C 
ENDROOT
BRANCH   1   2
ATOM      2  N   UNL A   1      37.887  22.757  25.475  1.00  0.00    -0.352 N 
ATOM      3  O   UNL A   1      39.565  21.818  26.623  1.00  0.00    -0.269 OA
ATOM      4  C   UNL A   1      38.953  22.844  26.336  1.00  0.00     0.251 C 
ATOM      5  H   UNL A   1      37.601  21.835  25.279  1.00  0.00     0.163 HD
BRANCH   4   6
ATOM      6  C   UNL A   1      39.393  24.144  26.890  1.00  0.00     0.039 A 
ATOM      7  C   UNL A   1      40.123  25.058  26.129  1.00  0.00     0.014 A 
ATOM      8  C   UNL A   1      39.011  24.480  28.193  1.00  0.00     0.014 A 
ATOM      9  C   UNL A   1      40.604  26.228  26.712  1.00  0.00     0.010 A 
ATOM     10  C   UNL A   1      39.416  25.696  28.750  1.00  0.00     0.010 A 
ATOM     11  C   UNL A   1      40.247  26.565  28.026  1.00  0.00    -0.014 A 
BRANCH  11  12
ATOM     12  C   UNL A   1      40.708  27.845  28.622  1.00  0.00     0.031 A 
ATOM     13  C   UNL A   1      42.114  27.990  29.133  1.00  0.00     0.074 A 
ATOM     14  C   UNL A   1      39.844  28.875  28.720  1.00  0.00     0.049 A 
ATOM     15  N   UNL A   1      42.667  29.005  29.748  1.00  0.00    -0.248 NA
ATOM     16  C   UNL A   1      43.014  26.843  28.939  1.00  0.00     0.031 C 
ATOM     17  C   UNL A   1      38.455  28.859  28.256  1.00  0.00     0.029 A 
ATOM     18  N   UNL A   1      40.005  30.131  29.245  1.00  0.00    -0.354 N 
ATOM     19  C   UNL A   1      43.967  28.610  30.041  1.00  0.00     0.074 A 
ATOM     20  C   UNL A   1      44.114  27.255  29.553  1.00  0.00     0.031 C 
ATOM     21  C   UNL A   1      37.897  30.053  28.499  1.00  0.00     0.029 A 
ATOM     22  C   UNL A   1      38.864  30.896  29.194  1.00  0.00     0.049 A 
ATOM     23  H   UNL A   1      40.855  30.454  29.623  1.00  0.00     0.167 HD
ATOM     24  C   UNL A   1      44.947  29.312  30.661  1.00  0.00     0.031 A 
ATOM     25  C   UNL A   1      38.607  32.126  29.678  1.00  0.00     0.031 A 
ATOM     26  C   UNL A   1      44.790  30.659  31.147  1.00  0.00     0.049 A 
ATOM     27  C   UNL A   1      39.695  32.876  30.389  1.00  0.00     0.074 A 
ATOM     28  C   UNL A   1      45.730  31.465  31.764  1.00  0.00     0.029 A 
ATOM     29  N   UNL A   1      43.616  31.395  31.077  1.00  0.00    -0.354 N 
ATOM     30  N   UNL A   1      40.926  32.495  30.636  1.00  0.00    -0.248 NA
ATOM     31  C   UNL A   1      39.365  34.219  30.883  1.00  0.00     0.031 C 
ATOM     32  C   UNL A   1      45.110  32.670  32.112  1.00  0.00     0.029 A 
ATOM     33  C   UNL A   1      43.800  32.637  31.660  1.00  0.00     0.049 A 
ATOM     34  H   UNL A   1      42.775  31.079  30.674  1.00  0.00     0.167 HD
ATOM     35  C   UNL A   1      41.526  33.561  31.294  1.00  0.00     0.074 A 
ATOM     36  C   UNL A   1      40.523  34.603  31.404  1.00  0.00     0.031 C 
ATOM     37  C   UNL A   1      42.794  33.666  31.759  1.00  0.00     0.031 A 
BRANCH  24  38
ATOM     38  C   UNL A   1      46.261  28.612  30.887  1.00  0.00    -0.014 A 
ATOM     39  C   UNL A   1      47.311  28.704  29.955  1.00  0.00     0.010 A 
ATOM     40  C   UNL A   1      46.449  27.850  32.055  1.00  0.00     0.010 A 
ATOM     41  C   UNL A   1      48.500  27.995  30.157  1.00  0.00     0.020 A 
ATOM     42  C   UNL A   1      47.646  27.162  32.273  1.00  0.00     0.020 A 
ATOM     43  C   UNL A   1      48.653  27.217  31.309  1.00  0.00     0.054 A 
BRANCH  43  44
ATOM     44  S   UNL A   1      50.192  26.282  31.533  1.00  0.00     0.124 S 
ATOM     45  O   UNL A   1      49.793  24.945  31.099  1.00  0.00    -0.237 OA
ATOM     46  O   UNL A   1      51.124  26.976  30.647  1.00  0.00    -0.237 OA
ATOM     47  O   UNL A   1      50.475  26.416  32.959  1.00  0.00    -0.744 OA
ENDBRANCH  43  44
ENDBRANCH  24  38
BRANCH  25  48
ATOM     48  C   UNL A   1      37.246  32.698  29.506  1.00  0.00    -0.014 A 
ATOM     49  C   UNL A   1      36.314  32.656  30.557  1.00  0.00     0.010 A 
ATOM     50  C   UNL A   1      36.909  33.371  28.316  1.00  0.00     0.010 A 
ATOM     51  C   UNL A   1      35.073  33.284  30.423  1.00  0.00     0.020 A 
ATOM     52  C   UNL A   1      35.679  34.021  28.189  1.00  0.00     0.020 A 
ATOM     53  C   UNL A   1      34.767  33.972  29.244  1.00  0.00     0.054 A 
BRANCH  53  54
ATOM     54  S   UNL A   1      33.193  34.867  29.134  1.00  0.00     0.124 S 
ATOM     55  O   UNL A   1      33.624  36.183  28.675  1.00  0.00    -0.237 OA
ATOM     56  O   UNL A   1      32.444  34.071  28.165  1.00  0.00    -0.237 OA
ATOM     57  O   UNL A   1      32.676  34.817  30.501  1.00  0.00    -0.744 OA
ENDBRANCH  53  54
ENDBRANCH  25  48
BRANCH  37  58
ATOM     58  C   UNL A   1      43.198  34.968  32.395  1.00  0.00    -0.014 A 
ATOM     59  C   UNL A   1      43.670  36.042  31.622  1.00  0.00     0.010 A 
ATOM     60  C   UNL A   1      43.014  35.143  33.779  1.00  0.00     0.010 A 
ATOM     61  C   UNL A   1      43.960  37.270  32.225  1.00  0.00     0.020 A 
ATOM     62  C   UNL A   1      43.280  36.375  34.382  1.00  0.00     0.020 A 
ATOM     63  C   UNL A   1      43.757  37.430  33.601  1.00  0.00     0.054 A 
BRANCH  63  64
ATOM     64  S   UNL A   1      44.060  39.055  34.346  1.00  0.00     0.124 S 
ATOM     65  O   UNL A   1      42.950  39.844  33.820  1.00  0.00    -0.237 OA
ATOM     66  O   UNL A   1      44.005  38.769  35.777  1.00  0.00    -0.237 OA
ATOM     67  O   UNL A   1      45.382  39.425  33.842  1.00  0.00    -0.744 OA
ENDBRANCH  63  64
ENDBRANCH  37  58
ENDBRANCH  11  12
ENDBRANCH   4   6
ENDBRANCH   1   2
BRANCH   1  68
ATOM     68  C   UNL A   1      35.686  23.907  25.344  1.00  0.00     0.042 C 
BRANCH  68  69
ATOM     69  C   UNL A   1      35.247  22.766  26.247  1.00  0.00     0.118 C 
BRANCH  69  70
ATOM     70  N   UNL A   1      33.996  23.021  26.947  1.00  0.00    -0.352 N 
ATOM     71  C   UNL A   1      32.736  22.699  26.544  1.00  0.00     0.252 C 
ATOM     72  H   UNL A   1      34.069  23.481  27.815  1.00  0.00     0.163 HD
ATOM     73  O   UNL A   1      31.773  22.711  27.314  1.00  0.00    -0.269 OA
BRANCH  71  74
ATOM     74  C   UNL A   1      32.463  22.329  25.166  1.00  0.00     0.058 A 
ATOM     75  C   UNL A   1      32.166  23.325  24.230  1.00  0.00     0.007 A 
ATOM     76  C   UNL A   1      32.508  20.943  24.841  1.00  0.00     0.014 A 
ATOM     77  C   UNL A   1      31.924  22.830  22.950  1.00  0.00     0.120 A 
ATOM     78  C   UNL A   1      32.304  20.609  23.494  1.00  0.00     0.071 A 
ATOM     79  C   UNL A   1      32.787  19.900  25.767  1.00  0.00     0.011 A 
ATOM     80  N   UNL A   1      31.992  21.530  22.573  1.00  0.00    -0.256 NA
ATOM     81  C   UNL A   1      32.455  19.286  23.099  1.00  0.00     0.029 A 
ATOM     82  C   UNL A   1      32.930  18.580  25.350  1.00  0.00     0.001 A 
ATOM     83  C   UNL A   1      32.779  18.274  24.006  1.00  0.00     0.002 A 
BRANCH  75  84
ATOM     84  C   UNL A   1      32.319  24.800  24.337  1.00  0.00     0.031 C 
ATOM     85  C   UNL A   1      31.972  25.851  25.107  1.00  0.00     0.077 C 
ATOM     86  S   UNL A   1      32.752  27.393  24.703  1.00  0.00    -0.053 SA
ATOM     87  C   UNL A   1      31.150  26.200  26.292  1.00  0.00     0.227 C 
ATOM     88  C   UNL A   1      32.223  28.114  26.228  1.00  0.00     0.168 C 
ATOM     89  N   UNL A   1      31.288  27.349  26.873  1.00  0.00    -0.194 NA
ATOM     90  S   UNL A   1      32.838  29.569  26.769  1.00  0.00    -0.050 S 
BRANCH  87  91
ATOM     91  O   UNL A   1      30.183  25.408  26.737  1.00  0.00    -0.492 OA
ATOM     92  H   UNL A   1      29.803  24.768  26.167  1.00  0.00     0.295 HD
ENDBRANCH  87  91
ENDBRANCH  75  84
ENDBRANCH  71  74
ENDBRANCH  69  70
ENDBRANCH  68  69
ENDBRANCH   1  68
TORSDOF 15
ENDMDL
MODEL 3
REMARK VINA RESULT:     -11.6      3.361      4.883
REMARK SMILES O=C(NCCCNC(=O)c1c(/C=C2/SC(=S)N=C2O)cnc2ccccc12)c1ccc(-c2c3nc(c(-c4ccc(S(=O)(=O)[O-])cc4)c4ccc([nH]4)c(-c4ccc(S(=O)(=O)[O-])cc4)c4nc(c(-c5ccc(S(=O)(=O)[O-])cc5)c5ccc2[nH]5)C=C4)C=C3)cc1
REMARK SMILES IDX 4 1 3 2 1 3 2 4 28 6 29 7 87 8 30 9 86 10 31 11 32 12 33 13
REMARK SMILES IDX 80 14 34 15 85 16 79 17 81 18 35 19 84 20 78 21 77 22 36 24
REMARK SMILES IDX 66 25 47 26 65 27 48 28 51 29 64 30 82 31 49 32 50 33 63 35
REMARK SMILES IDX 83 36 52 37 37 38 38 39 46 40 39 41 45 42 40 43 41 44 42 45
REMARK SMILES IDX 43 46 44 47 67 48 68 49 76 50 69 51 75 52 70 53 71 54 72 55
REMARK SMILES IDX 73 56 74 57 53 58 54 59 62 60 55 61 61 62 56 63 57 64 58 65
REMARK SMILES IDX 59 66 60 67 5 68 6 69 7 70 8 71 9 73 10 74 11 75 27 76 20 77
REMARK SMILES IDX 22 78 26 79 21 80 23 81 25 82 24 83 12 84 13 85 14 86 18 87
REMARK SMILES IDX 15 88 17 89 16 90 19 91
REMARK H PARENT 3 5 81 23 51 34 7 72 19 92
REMARK Flexibility Score: inf
ROOT
ATOM      1  C   UNL A   1      35.302  29.407  27.406  1.00  0.00     0.118 C 
ENDROOT
BRANCH   1   2
ATOM      2  N   UNL A   1      35.307  29.787  28.810  1.00  0.00    -0.352 N 
ATOM      3  O   UNL A   1      35.999  29.951  30.934  1.00  0.00    -0.269 OA
ATOM      4  C   UNL A   1      36.299  29.750  29.759  1.00  0.00     0.251 C 
ATOM      5  H   UNL A   1      34.446  30.133  29.139  1.00  0.00     0.163 HD
BRANCH   4   6
ATOM      6  C   UNL A   1      37.700  29.442  29.399  1.00  0.00     0.039 A 
ATOM      7  C   UNL A   1      38.195  29.665  28.112  1.00  0.00     0.014 A 
ATOM      8  C   UNL A   1      38.560  28.971  30.397  1.00  0.00     0.014 A 
ATOM      9  C   UNL A   1      39.490  29.273  27.783  1.00  0.00     0.010 A 
ATOM     10  C   UNL A   1      39.888  28.664  30.089  1.00  0.00     0.010 A 
ATOM     11  C   UNL A   1      40.354  28.778  28.770  1.00  0.00    -0.014 A 
BRANCH  11  12
ATOM     12  C   UNL A   1      41.755  28.422  28.428  1.00  0.00     0.031 A 
ATOM     13  C   UNL A   1      42.835  29.468  28.434  1.00  0.00     0.074 A 
ATOM     14  C   UNL A   1      42.049  27.151  28.091  1.00  0.00     0.049 A 
ATOM     15  N   UNL A   1      44.093  29.355  28.094  1.00  0.00    -0.248 NA
ATOM     16  C   UNL A   1      42.449  30.819  28.869  1.00  0.00     0.031 C 
ATOM     17  C   UNL A   1      41.090  26.045  28.052  1.00  0.00     0.029 A 
ATOM     18  N   UNL A   1      43.235  26.576  27.713  1.00  0.00    -0.354 N 
ATOM     19  C   UNL A   1      44.643  30.623  28.243  1.00  0.00     0.074 A 
ATOM     20  C   UNL A   1      43.576  31.494  28.687  1.00  0.00     0.031 C 
ATOM     21  C   UNL A   1      41.728  24.922  27.690  1.00  0.00     0.029 A 
ATOM     22  C   UNL A   1      43.124  25.240  27.408  1.00  0.00     0.049 A 
ATOM     23  H   UNL A   1      44.084  27.072  27.662  1.00  0.00     0.167 HD
ATOM     24  C   UNL A   1      45.921  31.024  28.029  1.00  0.00     0.031 A 
ATOM     25  C   UNL A   1      44.030  24.370  26.925  1.00  0.00     0.031 A 
ATOM     26  C   UNL A   1      46.976  30.152  27.583  1.00  0.00     0.049 A 
ATOM     27  C   UNL A   1      45.431  24.840  26.664  1.00  0.00     0.074 A 
ATOM     28  C   UNL A   1      48.308  30.455  27.362  1.00  0.00     0.029 A 
ATOM     29  N   UNL A   1      46.818  28.806  27.284  1.00  0.00    -0.354 N 
ATOM     30  N   UNL A   1      45.938  26.037  26.834  1.00  0.00    -0.248 NA
ATOM     31  C   UNL A   1      46.382  23.845  26.152  1.00  0.00     0.031 C 
ATOM     32  C   UNL A   1      48.944  29.305  26.882  1.00  0.00     0.029 A 
ATOM     33  C   UNL A   1      48.022  28.271  26.858  1.00  0.00     0.049 A 
ATOM     34  H   UNL A   1      45.973  28.306  27.360  1.00  0.00     0.167 HD
ATOM     35  C   UNL A   1      47.275  25.935  26.471  1.00  0.00     0.074 A 
ATOM     36  C   UNL A   1      47.498  24.558  26.076  1.00  0.00     0.031 C 
ATOM     37  C   UNL A   1      48.230  26.897  26.472  1.00  0.00     0.031 A 
BRANCH  24  38
ATOM     38  C   UNL A   1      46.229  32.485  28.231  1.00  0.00    -0.014 A 
ATOM     39  C   UNL A   1      46.648  32.980  29.479  1.00  0.00     0.010 A 
ATOM     40  C   UNL A   1      46.100  33.377  27.150  1.00  0.00     0.010 A 
ATOM     41  C   UNL A   1      46.869  34.349  29.659  1.00  0.00     0.020 A 
ATOM     42  C   UNL A   1      46.347  34.742  27.319  1.00  0.00     0.020 A 
ATOM     43  C   UNL A   1      46.703  35.223  28.580  1.00  0.00     0.054 A 
BRANCH  43  44
ATOM     44  S   UNL A   1      46.966  36.998  28.846  1.00  0.00     0.124 S 
ATOM     45  O   UNL A   1      48.086  36.996  29.785  1.00  0.00    -0.237 OA
ATOM     46  O   UNL A   1      47.274  37.485  27.504  1.00  0.00    -0.237 OA
ATOM     47  O   UNL A   1      45.693  37.459  29.396  1.00  0.00    -0.744 OA
ENDBRANCH  43  44
ENDBRANCH  24  38
BRANCH  25  48
ATOM     48  C   UNL A   1      43.610  22.970  26.650  1.00  0.00    -0.014 A 
ATOM     49  C   UNL A   1      44.017  22.320  25.473  1.00  0.00     0.010 A 
ATOM     50  C   UNL A   1      42.873  22.253  27.612  1.00  0.00     0.010 A 
ATOM     51  C   UNL A   1      43.703  20.973  25.268  1.00  0.00     0.020 A 
ATOM     52  C   UNL A   1      42.580  20.901  27.421  1.00  0.00     0.020 A 
ATOM     53  C   UNL A   1      42.996  20.269  26.248  1.00  0.00     0.054 A 
BRANCH  53  54
ATOM     54  S   UNL A   1      42.691  18.497  26.006  1.00  0.00     0.124 S 
ATOM     55  O   UNL A   1      43.555  18.193  24.871  1.00  0.00    -0.237 OA
ATOM     56  O   UNL A   1      43.103  17.928  27.287  1.00  0.00    -0.237 OA
ATOM     57  O   UNL A   1      41.255  18.431  25.738  1.00  0.00    -0.744 OA
ENDBRANCH  53  54
ENDBRANCH  25  48
BRANCH  37  58
ATOM     58  C   UNL A   1      49.624  26.495  26.075  1.00  0.00    -0.014 A 
ATOM     59  C   UNL A   1      50.123  26.764  24.789  1.00  0.00     0.010 A 
ATOM     60  C   UNL A   1      50.475  25.919  27.037  1.00  0.00     0.010 A 
ATOM     61  C   UNL A   1      51.449  26.457  24.469  1.00  0.00     0.020 A 
ATOM     62  C   UNL A   1      51.806  25.632  26.729  1.00  0.00     0.020 A 
ATOM     63  C   UNL A   1      52.284  25.898  25.444  1.00  0.00     0.054 A 
BRANCH  63  64
ATOM     64  S   UNL A   1      54.022  25.585  25.031  1.00  0.00     0.124 S 
ATOM     65  O   UNL A   1      54.721  26.275  26.112  1.00  0.00    -0.237 OA
ATOM     66  O   UNL A   1      54.103  24.127  25.060  1.00  0.00    -0.237 OA
ATOM     67  O   UNL A   1      54.176  26.184  23.707  1.00  0.00    -0.744 OA
ENDBRANCH  63  64
ENDBRANCH  37  58
ENDBRANCH  11  12
ENDBRANCH   4   6
ENDBRANCH   1   2
BRANCH   1  68
ATOM     68  C   UNL A   1      33.908  29.105  26.871  1.00  0.00     0.042 C 
BRANCH  68  69
ATOM     69  C   UNL A   1      33.783  27.786  26.124  1.00  0.00     0.118 C 
BRANCH  69  70
ATOM     70  N   UNL A   1      32.729  26.921  26.633  1.00  0.00    -0.352 N 
ATOM     71  C   UNL A   1      32.364  25.693  26.171  1.00  0.00     0.252 C 
ATOM     72  H   UNL A   1      32.218  27.263  27.403  1.00  0.00     0.163 HD
ATOM     73  O   UNL A   1      31.651  24.927  26.823  1.00  0.00    -0.269 OA
BRANCH  71  74
ATOM     74  C   UNL A   1      32.799  25.225  24.866  1.00  0.00     0.058 A 
ATOM     75  C   UNL A   1      32.033  25.525  23.735  1.00  0.00     0.007 A 
ATOM     76  C   UNL A   1      34.004  24.467  24.812  1.00  0.00     0.014 A 
ATOM     77  C   UNL A   1      32.564  25.014  22.552  1.00  0.00     0.120 A 
ATOM     78  C   UNL A   1      34.441  24.077  23.538  1.00  0.00     0.071 A 
ATOM     79  C   UNL A   1      34.800  24.126  25.940  1.00  0.00     0.011 A 
ATOM     80  N   UNL A   1      33.723  24.322  22.434  1.00  0.00    -0.256 NA
ATOM     81  C   UNL A   1      35.669  23.440  23.415  1.00  0.00     0.029 A 
ATOM     82  C   UNL A   1      36.026  23.483  25.794  1.00  0.00     0.001 A 
ATOM     83  C   UNL A   1      36.470  23.153  24.523  1.00  0.00     0.002 A 
BRANCH  75  84
ATOM     84  C   UNL A   1      30.914  26.492  23.579  1.00  0.00     0.031 C 
ATOM     85  C   UNL A   1      30.644  27.746  23.166  1.00  0.00     0.077 C 
ATOM     86  S   UNL A   1      28.924  28.171  23.065  1.00  0.00    -0.053 SA
ATOM     87  C   UNL A   1      31.315  28.977  22.679  1.00  0.00     0.227 C 
ATOM     88  C   UNL A   1      29.290  29.630  22.136  1.00  0.00     0.168 C 
ATOM     89  N   UNL A   1      30.627  29.932  22.141  1.00  0.00    -0.194 NA
ATOM     90  S   UNL A   1      28.094  30.498  21.358  1.00  0.00    -0.050 S 
BRANCH  87  91
ATOM     91  O   UNL A   1      32.610  29.194  22.866  1.00  0.00    -0.492 OA
ATOM     92  H   UNL A   1      33.214  29.061  22.161  1.00  0.00     0.295 HD
ENDBRANCH  87  91
ENDBRANCH  75  84
ENDBRANCH  71  74
ENDBRANCH  69  70
ENDBRANCH  68  69
ENDBRANCH   1  68
TORSDOF 15
ENDMDL
