MODEL 1
REMARK VINA RESULT:     -11.0      0.000      0.000
REMARK SMILES CCNC(=O)c1ccc(N[C@@H]2COC[C@@]2(C)C(=O)NCCCNC(=O)c2ccc(-c3c4nc(c(-c5ccc(S(=O)(=O)[O-])cc5)c5ccc([nH]5)c(-c5ccc(S(=O)(=O)[O-])cc5)c5nc(c(-c6ccc(S(=O)(=O)[O-])cc6)c6ccc3[nH]6)C=C5)C=C4)cc2)nn1
REMARK SMILES IDX 20 1 19 2 17 3 18 4 15 6 11 7 12 8 13 9 14 10 16 11 10 12
REMARK SMILES IDX 9 14 6 15 7 16 87 17 8 18 86 19 4 20 3 21 5 23 2 24 1 25
REMARK SMILES IDX 21 26 22 27 23 28 24 29 25 31 26 32 27 33 85 34 28 35 84 36
REMARK SMILES IDX 29 37 30 38 31 39 78 40 32 41 83 42 77 43 79 44 33 45 82 46
REMARK SMILES IDX 76 47 75 48 34 50 64 51 45 52 63 53 46 54 49 55 62 56 80 57
REMARK SMILES IDX 47 58 48 59 61 61 81 62 50 63 35 64 36 65 44 66 37 67 43 68
REMARK SMILES IDX 38 69 39 70 40 71 41 72 42 73 65 74 66 75 74 76 67 77 73 78
REMARK SMILES IDX 68 79 69 80 70 81 71 82 72 83 51 84 52 85 60 86 53 87 59 88
REMARK SMILES IDX 54 89 55 90 56 91 57 92 58 93
REMARK H PARENT 19 5 10 13 3 22 23 30 79 49 49 60
REMARK Flexibility Score: inf
ROOT
ATOM      1  C   UNL A   1      33.074  26.082  26.005  1.00  0.00     0.117 C 
ENDROOT
BRANCH   1   2
ATOM      2  N   UNL A   1      33.592  26.080  24.651  1.00  0.00    -0.355 N 
ATOM      3  C   UNL A   1      33.090  26.325  23.421  1.00  0.00     0.230 C 
ATOM      4  O   UNL A   1      33.949  26.323  22.525  1.00  0.00    -0.274 OA
ATOM      5  H   UNL A   1      34.547  25.842  24.620  1.00  0.00     0.163 HD
BRANCH   3   6
ATOM      6  C   UNL A   1      31.629  26.581  23.037  1.00  0.00     0.092 C 
ATOM      7  C   UNL A   1      30.476  26.005  23.853  1.00  0.00     0.124 C 
ATOM      8  C   UNL A   1      29.358  27.028  23.697  1.00  0.00     0.186 C 
ATOM      9  O   UNL A   1      30.009  28.305  23.610  1.00  0.00    -0.378 OA
ATOM     10  C   UNL A   1      31.394  28.086  23.291  1.00  0.00     0.179 C 
ATOM     11  C   UNL A   1      31.520  26.316  21.520  1.00  0.00     0.026 C 
BRANCH   7  12
ATOM     12  N   UNL A   1      30.152  24.597  23.621  1.00  0.00    -0.362 N 
ATOM     13  H   UNL A   1      29.329  24.402  23.117  1.00  0.00     0.162 HD
BRANCH  12  14
ATOM     14  C   UNL A   1      30.902  23.517  24.048  1.00  0.00     0.149 A 
ATOM     15  C   UNL A   1      32.222  21.252  24.821  1.00  0.00     0.150 A 
ATOM     16  C   UNL A   1      32.333  21.655  23.503  1.00  0.00     0.040 A 
ATOM     17  N   UNL A   1      31.499  21.939  25.722  1.00  0.00    -0.143 NA
ATOM     18  C   UNL A   1      31.670  22.821  23.121  1.00  0.00     0.051 A 
ATOM     19  N   UNL A   1      30.836  23.073  25.317  1.00  0.00    -0.132 NA
BRANCH  15  20
ATOM     20  C   UNL A   1      32.872  20.015  25.303  1.00  0.00     0.271 C 
ATOM     21  N   UNL A   1      34.184  20.055  25.715  1.00  0.00    -0.351 N 
ATOM     22  H   UNL A   1      34.592  19.183  25.921  1.00  0.00     0.163 HD
ATOM     23  O   UNL A   1      32.250  18.957  25.317  1.00  0.00    -0.267 OA
BRANCH  21  24
ATOM     24  C   UNL A   1      35.046  21.211  25.884  1.00  0.00     0.113 C 
ATOM     25  C   UNL A   1      35.963  21.389  24.688  1.00  0.00     0.027 C 
ENDBRANCH  21  24
ENDBRANCH  15  20
ENDBRANCH  12  14
ENDBRANCH   7  12
ENDBRANCH   3   6
ENDBRANCH   1   2
BRANCH   1  26
ATOM     26  C   UNL A   1      32.884  27.486  26.567  1.00  0.00     0.042 C 
BRANCH  26  27
ATOM     27  C   UNL A   1      34.020  28.447  26.229  1.00  0.00     0.118 C 
BRANCH  27  28
ATOM     28  N   UNL A   1      33.849  29.750  26.859  1.00  0.00    -0.352 N 
ATOM     29  C   UNL A   1      34.601  30.414  27.793  1.00  0.00     0.251 C 
ATOM     30  H   UNL A   1      33.050  30.240  26.560  1.00  0.00     0.163 HD
ATOM     31  O   UNL A   1      34.101  31.379  28.368  1.00  0.00    -0.269 OA
BRANCH  29  32
ATOM     32  C   UNL A   1      35.986  30.004  28.114  1.00  0.00     0.039 A 
ATOM     33  C   UNL A   1      36.260  29.514  29.395  1.00  0.00     0.014 A 
ATOM     34  C   UNL A   1      37.033  30.180  27.205  1.00  0.00     0.014 A 
ATOM     35  C   UNL A   1      37.567  29.165  29.746  1.00  0.00     0.010 A 
ATOM     36  C   UNL A   1      38.319  29.752  27.526  1.00  0.00     0.010 A 
ATOM     37  C   UNL A   1      38.605  29.259  28.805  1.00  0.00    -0.014 A 
BRANCH  37  38
ATOM     38  C   UNL A   1      39.993  28.863  29.155  1.00  0.00     0.031 A 
ATOM     39  C   UNL A   1      40.903  29.825  29.873  1.00  0.00     0.074 A 
ATOM     40  C   UNL A   1      40.448  27.649  28.786  1.00  0.00     0.049 A 
ATOM     41  N   UNL A   1      42.148  29.661  30.241  1.00  0.00    -0.248 NA
ATOM     42  C   UNL A   1      40.352  31.152  30.196  1.00  0.00     0.031 C 
ATOM     43  C   UNL A   1      39.680  26.647  28.041  1.00  0.00     0.029 A 
ATOM     44  N   UNL A   1      41.665  27.050  28.987  1.00  0.00    -0.354 N 
ATOM     45  C   UNL A   1      42.535  30.867  30.819  1.00  0.00     0.074 A 
ATOM     46  C   UNL A   1      41.409  31.768  30.707  1.00  0.00     0.031 C 
ATOM     47  C   UNL A   1      40.433  25.547  27.879  1.00  0.00     0.029 A 
ATOM     48  C   UNL A   1      41.744  25.776  28.477  1.00  0.00     0.049 A 
ATOM     49  H   UNL A   1      42.412  27.491  29.452  1.00  0.00     0.167 HD
ATOM     50  C   UNL A   1      43.712  31.188  31.408  1.00  0.00     0.031 A 
ATOM     51  C   UNL A   1      42.756  24.887  28.492  1.00  0.00     0.031 A 
ATOM     52  C   UNL A   1      44.821  30.282  31.537  1.00  0.00     0.049 A 
ATOM     53  C   UNL A   1      44.042  25.257  29.176  1.00  0.00     0.074 A 
ATOM     54  C   UNL A   1      46.035  30.490  32.169  1.00  0.00     0.029 A 
ATOM     55  N   UNL A   1      44.853  28.994  31.026  1.00  0.00    -0.354 N 
ATOM     56  N   UNL A   1      44.364  26.380  29.772  1.00  0.00    -0.248 NA
ATOM     57  C   UNL A   1      45.094  24.233  29.204  1.00  0.00     0.031 C 
ATOM     58  C   UNL A   1      46.816  29.341  32.004  1.00  0.00     0.029 A 
ATOM     59  C   UNL A   1      46.070  28.400  31.313  1.00  0.00     0.049 A 
ATOM     60  H   UNL A   1      44.118  28.564  30.532  1.00  0.00     0.167 HD
ATOM     61  C   UNL A   1      45.649  26.190  30.265  1.00  0.00     0.074 A 
ATOM     62  C   UNL A   1      46.036  24.838  29.915  1.00  0.00     0.031 C 
ATOM     63  C   UNL A   1      46.440  27.055  30.948  1.00  0.00     0.031 A 
BRANCH  50  64
ATOM     64  C   UNL A   1      43.854  32.583  31.961  1.00  0.00    -0.014 A 
ATOM     65  C   UNL A   1      43.543  32.868  33.304  1.00  0.00     0.010 A 
ATOM     66  C   UNL A   1      44.337  33.618  31.139  1.00  0.00     0.010 A 
ATOM     67  C   UNL A   1      43.669  34.168  33.800  1.00  0.00     0.020 A 
ATOM     68  C   UNL A   1      44.491  34.914  31.639  1.00  0.00     0.020 A 
ATOM     69  C   UNL A   1      44.137  35.185  32.962  1.00  0.00     0.054 A 
BRANCH  69  70
ATOM     70  S   UNL A   1      44.307  36.859  33.638  1.00  0.00     0.124 S 
ATOM     71  O   UNL A   1      45.453  37.370  32.889  1.00  0.00    -0.237 OA
ATOM     72  O   UNL A   1      43.022  37.471  33.312  1.00  0.00    -0.237 OA
ATOM     73  O   UNL A   1      44.545  36.635  35.063  1.00  0.00    -0.744 OA
ENDBRANCH  69  70
ENDBRANCH  50  64
BRANCH  51  74
ATOM     74  C   UNL A   1      42.577  23.552  27.864  1.00  0.00    -0.014 A 
ATOM     75  C   UNL A   1      42.912  23.347  26.513  1.00  0.00     0.010 A 
ATOM     76  C   UNL A   1      42.093  22.469  28.621  1.00  0.00     0.010 A 
ATOM     77  C   UNL A   1      42.753  22.088  25.928  1.00  0.00     0.020 A 
ATOM     78  C   UNL A   1      41.957  21.203  28.045  1.00  0.00     0.020 A 
ATOM     79  C   UNL A   1      42.278  21.023  26.699  1.00  0.00     0.054 A 
BRANCH  79  80
ATOM     80  S   UNL A   1      42.140  19.381  25.938  1.00  0.00     0.124 S 
ATOM     81  O   UNL A   1      42.664  18.515  26.988  1.00  0.00    -0.237 OA
ATOM     82  O   UNL A   1      40.706  19.272  25.679  1.00  0.00    -0.237 OA
ATOM     83  O   UNL A   1      42.971  19.492  24.740  1.00  0.00    -0.744 OA
ENDBRANCH  79  80
ENDBRANCH  51  74
BRANCH  63  84
ATOM     84  C   UNL A   1      47.791  26.554  31.380  1.00  0.00    -0.014 A 
ATOM     85  C   UNL A   1      47.958  25.879  32.602  1.00  0.00     0.010 A 
ATOM     86  C   UNL A   1      48.902  26.739  30.538  1.00  0.00     0.010 A 
ATOM     87  C   UNL A   1      49.223  25.435  32.994  1.00  0.00     0.020 A 
ATOM     88  C   UNL A   1      50.162  26.272  30.914  1.00  0.00     0.020 A 
ATOM     89  C   UNL A   1      50.319  25.640  32.150  1.00  0.00     0.054 A 
BRANCH  89  90
ATOM     90  S   UNL A   1      51.948  25.038  32.670  1.00  0.00     0.124 S 
ATOM     91  O   UNL A   1      51.677  23.631  32.949  1.00  0.00    -0.237 OA
ATOM     92  O   UNL A   1      52.779  25.297  31.496  1.00  0.00    -0.237 OA
ATOM     93  O   UNL A   1      52.261  25.856  33.840  1.00  0.00    -0.744 OA
ENDBRANCH  89  90
ENDBRANCH  63  84
ENDBRANCH  37  38
ENDBRANCH  29  32
ENDBRANCH  27  28
ENDBRANCH  26  27
ENDBRANCH   1  26
TORSDOF 17
ENDMDL
MODEL 2
REMARK VINA RESULT:     -11.0      2.484      8.702
REMARK SMILES CCNC(=O)c1ccc(N[C@@H]2COC[C@@]2(C)C(=O)NCCCNC(=O)c2ccc(-c3c4nc(c(-c5ccc(S(=O)(=O)[O-])cc5)c5ccc([nH]5)c(-c5ccc(S(=O)(=O)[O-])cc5)c5nc(c(-c6ccc(S(=O)(=O)[O-])cc6)c6ccc3[nH]6)C=C5)C=C4)cc2)nn1
REMARK SMILES IDX 20 1 19 2 17 3 18 4 15 6 11 7 12 8 13 9 14 10 16 11 10 12
REMARK SMILES IDX 9 14 6 15 7 16 87 17 8 18 86 19 4 20 3 21 5 23 2 24 1 25
REMARK SMILES IDX 21 26 22 27 23 28 24 29 25 31 26 32 27 33 85 34 28 35 84 36
REMARK SMILES IDX 29 37 30 38 31 39 78 40 32 41 83 42 77 43 79 44 33 45 82 46
REMARK SMILES IDX 76 47 75 48 34 50 64 51 45 52 63 53 46 54 49 55 62 56 80 57
REMARK SMILES IDX 47 58 48 59 61 61 81 62 50 63 35 64 36 65 44 66 37 67 43 68
REMARK SMILES IDX 38 69 39 70 40 71 41 72 42 73 65 74 66 75 74 76 67 77 73 78
REMARK SMILES IDX 68 79 69 80 70 81 71 82 72 83 51 84 52 85 60 86 53 87 59 88
REMARK SMILES IDX 54 89 55 90 56 91 57 92 58 93
REMARK H PARENT 19 5 10 13 3 22 23 30 79 49 49 60
REMARK Flexibility Score: inf
ROOT
ATOM      1  C   UNL A   1      34.312  24.898  25.323  1.00  0.00     0.117 C 
ENDROOT
BRANCH   1   2
ATOM      2  N   UNL A   1      34.322  25.212  23.908  1.00  0.00    -0.355 N 
ATOM      3  C   UNL A   1      33.467  25.789  23.037  1.00  0.00     0.230 C 
ATOM      4  O   UNL A   1      33.953  25.968  21.908  1.00  0.00    -0.274 OA
ATOM      5  H   UNL A   1      35.162  24.937  23.474  1.00  0.00     0.163 HD
BRANCH   3   6
ATOM      6  C   UNL A   1      32.016  26.215  23.287  1.00  0.00     0.092 C 
ATOM      7  C   UNL A   1      31.183  25.593  24.404  1.00  0.00     0.124 C 
ATOM      8  C   UNL A   1      30.235  26.708  24.830  1.00  0.00     0.186 C 
ATOM      9  O   UNL A   1      30.973  27.929  24.665  1.00  0.00    -0.378 OA
ATOM     10  C   UNL A   1      32.097  27.666  23.808  1.00  0.00     0.179 C 
ATOM     11  C   UNL A   1      31.316  26.225  21.911  1.00  0.00     0.026 C 
BRANCH   7  12
ATOM     12  N   UNL A   1      30.610  24.274  24.134  1.00  0.00    -0.362 N 
ATOM     13  H   UNL A   1      29.682  24.246  23.805  1.00  0.00     0.162 HD
BRANCH  12  14
ATOM     14  C   UNL A   1      31.259  23.065  24.299  1.00  0.00     0.149 A 
ATOM     15  C   UNL A   1      32.359  20.576  24.556  1.00  0.00     0.150 A 
ATOM     16  C   UNL A   1      32.383  21.175  23.311  1.00  0.00     0.040 A 
ATOM     17  N   UNL A   1      31.823  21.179  25.632  1.00  0.00    -0.143 NA
ATOM     18  C   UNL A   1      31.835  22.452  23.192  1.00  0.00     0.051 A 
ATOM     19  N   UNL A   1      31.268  22.429  25.485  1.00  0.00    -0.132 NA
BRANCH  15  20
ATOM     20  C   UNL A   1      32.894  19.215  24.764  1.00  0.00     0.271 C 
ATOM     21  N   UNL A   1      34.254  19.029  24.861  1.00  0.00    -0.351 N 
ATOM     22  H   UNL A   1      34.555  18.092  24.890  1.00  0.00     0.163 HD
ATOM     23  O   UNL A   1      32.132  18.254  24.830  1.00  0.00    -0.267 OA
BRANCH  21  24
ATOM     24  C   UNL A   1      35.303  20.031  24.926  1.00  0.00     0.113 C 
ATOM     25  C   UNL A   1      36.676  19.388  24.859  1.00  0.00     0.027 C 
ENDBRANCH  21  24
ENDBRANCH  15  20
ENDBRANCH  12  14
ENDBRANCH   7  12
ENDBRANCH   3   6
ENDBRANCH   1   2
BRANCH   1  26
ATOM     26  C   UNL A   1      35.301  23.801  25.697  1.00  0.00     0.042 C 
BRANCH  26  27
ATOM     27  C   UNL A   1      36.673  23.959  25.048  1.00  0.00     0.118 C 
BRANCH  27  28
ATOM     28  N   UNL A   1      37.600  22.909  25.451  1.00  0.00    -0.352 N 
ATOM     29  C   UNL A   1      38.818  22.963  26.078  1.00  0.00     0.251 C 
ATOM     30  H   UNL A   1      37.298  21.999  25.232  1.00  0.00     0.163 HD
ATOM     31  O   UNL A   1      39.531  21.961  26.060  1.00  0.00    -0.269 OA
BRANCH  29  32
ATOM     32  C   UNL A   1      39.283  24.183  26.774  1.00  0.00     0.039 A 
ATOM     33  C   UNL A   1      38.885  24.393  28.098  1.00  0.00     0.014 A 
ATOM     34  C   UNL A   1      40.028  25.165  26.114  1.00  0.00     0.014 A 
ATOM     35  C   UNL A   1      39.266  25.560  28.766  1.00  0.00     0.010 A 
ATOM     36  C   UNL A   1      40.480  26.286  26.807  1.00  0.00     0.010 A 
ATOM     37  C   UNL A   1      40.088  26.506  28.134  1.00  0.00    -0.014 A 
BRANCH  37  38
ATOM     38  C   UNL A   1      40.525  27.736  28.842  1.00  0.00     0.031 A 
ATOM     39  C   UNL A   1      41.898  27.816  29.457  1.00  0.00     0.074 A 
ATOM     40  C   UNL A   1      39.666  28.767  28.971  1.00  0.00     0.049 A 
ATOM     41  N   UNL A   1      42.444  28.797  30.129  1.00  0.00    -0.248 NA
ATOM     42  C   UNL A   1      42.761  26.630  29.321  1.00  0.00     0.031 C 
ATOM     43  C   UNL A   1      38.290  28.791  28.466  1.00  0.00     0.029 A 
ATOM     44  N   UNL A   1      39.822  29.993  29.566  1.00  0.00    -0.354 N 
ATOM     45  C   UNL A   1      43.702  28.341  30.512  1.00  0.00     0.074 A 
ATOM     46  C   UNL A   1      43.818  26.979  30.042  1.00  0.00     0.031 C 
ATOM     47  C   UNL A   1      37.742  29.985  28.741  1.00  0.00     0.029 A 
ATOM     48  C   UNL A   1      38.711  30.797  29.470  1.00  0.00     0.049 A 
ATOM     49  H   UNL A   1      40.650  30.271  30.018  1.00  0.00     0.167 HD
ATOM     50  C   UNL A   1      44.679  29.003  31.177  1.00  0.00     0.031 A 
ATOM     51  C   UNL A   1      38.495  32.050  29.914  1.00  0.00     0.031 A 
ATOM     52  C   UNL A   1      44.568  30.365  31.625  1.00  0.00     0.049 A 
ATOM     53  C   UNL A   1      39.605  32.773  30.625  1.00  0.00     0.074 A 
ATOM     54  C   UNL A   1      45.522  31.146  32.254  1.00  0.00     0.029 A 
ATOM     55  N   UNL A   1      43.435  31.151  31.489  1.00  0.00    -0.354 N 
ATOM     56  N   UNL A   1      40.809  32.346  30.920  1.00  0.00    -0.248 NA
ATOM     57  C   UNL A   1      39.332  34.154  31.044  1.00  0.00     0.031 C 
ATOM     58  C   UNL A   1      44.950  32.393  32.535  1.00  0.00     0.029 A 
ATOM     59  C   UNL A   1      43.658  32.404  32.036  1.00  0.00     0.049 A 
ATOM     60  H   UNL A   1      42.594  30.863  31.065  1.00  0.00     0.167 HD
ATOM     61  C   UNL A   1      41.445  33.413  31.543  1.00  0.00     0.074 A 
ATOM     62  C   UNL A   1      40.499  34.510  31.562  1.00  0.00     0.031 C 
ATOM     63  C   UNL A   1      42.700  33.481  32.053  1.00  0.00     0.031 A 
BRANCH  50  64
ATOM     64  C   UNL A   1      45.958  28.256  31.457  1.00  0.00    -0.014 A 
ATOM     65  C   UNL A   1      46.106  27.478  32.620  1.00  0.00     0.010 A 
ATOM     66  C   UNL A   1      47.015  28.303  30.529  1.00  0.00     0.010 A 
ATOM     67  C   UNL A   1      47.301  26.800  32.872  1.00  0.00     0.020 A 
ATOM     68  C   UNL A   1      48.202  27.603  30.764  1.00  0.00     0.020 A 
ATOM     69  C   UNL A   1      48.345  26.872  31.945  1.00  0.00     0.054 A 
BRANCH  69  70
ATOM     70  S   UNL A   1      49.878  25.967  32.290  1.00  0.00     0.124 S 
ATOM     71  O   UNL A   1      50.883  27.020  32.165  1.00  0.00    -0.237 OA
ATOM     72  O   UNL A   1      49.660  25.467  33.644  1.00  0.00    -0.237 OA
ATOM     73  O   UNL A   1      49.918  24.942  31.249  1.00  0.00    -0.744 OA
ENDBRANCH  69  70
ENDBRANCH  50  64
BRANCH  51  74
ATOM     74  C   UNL A   1      37.184  32.706  29.669  1.00  0.00    -0.014 A 
ATOM     75  C   UNL A   1      36.181  32.686  30.655  1.00  0.00     0.010 A 
ATOM     76  C   UNL A   1      36.940  33.378  28.457  1.00  0.00     0.010 A 
ATOM     77  C   UNL A   1      34.953  33.314  30.427  1.00  0.00     0.020 A 
ATOM     78  C   UNL A   1      35.723  34.027  28.236  1.00  0.00     0.020 A 
ATOM     79  C   UNL A   1      34.732  33.982  29.219  1.00  0.00     0.054 A 
BRANCH  79  80
ATOM     80  S   UNL A   1      33.155  34.845  28.968  1.00  0.00     0.124 S 
ATOM     81  O   UNL A   1      32.575  34.811  30.306  1.00  0.00    -0.237 OA
ATOM     82  O   UNL A   1      33.585  36.158  28.494  1.00  0.00    -0.237 OA
ATOM     83  O   UNL A   1      32.476  34.023  27.967  1.00  0.00    -0.744 OA
ENDBRANCH  79  80
ENDBRANCH  51  74
BRANCH  63  84
ATOM     84  C   UNL A   1      43.127  34.793  32.652  1.00  0.00    -0.014 A 
ATOM     85  C   UNL A   1      43.751  35.781  31.869  1.00  0.00     0.010 A 
ATOM     86  C   UNL A   1      42.874  35.051  34.011  1.00  0.00     0.010 A 
ATOM     87  C   UNL A   1      44.154  36.987  32.446  1.00  0.00     0.020 A 
ATOM     88  C   UNL A   1      43.251  36.267  34.585  1.00  0.00     0.020 A 
ATOM     89  C   UNL A   1      43.907  37.220  33.803  1.00  0.00     0.054 A 
BRANCH  89  90
ATOM     90  S   UNL A   1      44.422  38.801  34.526  1.00  0.00     0.124 S 
ATOM     91  O   UNL A   1      43.407  39.715  34.010  1.00  0.00    -0.237 OA
ATOM     92  O   UNL A   1      44.358  38.535  35.961  1.00  0.00    -0.237 OA
ATOM     93  O   UNL A   1      45.769  39.001  33.995  1.00  0.00    -0.744 OA
ENDBRANCH  89  90
ENDBRANCH  63  84
ENDBRANCH  37  38
ENDBRANCH  29  32
ENDBRANCH  27  28
ENDBRANCH  26  27
ENDBRANCH   1  26
TORSDOF 17
ENDMDL
MODEL 3
REMARK VINA RESULT:     -10.5      2.533      3.074
REMARK SMILES CCNC(=O)c1ccc(N[C@@H]2COC[C@@]2(C)C(=O)NCCCNC(=O)c2ccc(-c3c4nc(c(-c5ccc(S(=O)(=O)[O-])cc5)c5ccc([nH]5)c(-c5ccc(S(=O)(=O)[O-])cc5)c5nc(c(-c6ccc(S(=O)(=O)[O-])cc6)c6ccc3[nH]6)C=C5)C=C4)cc2)nn1
REMARK SMILES IDX 20 1 19 2 17 3 18 4 15 6 11 7 12 8 13 9 14 10 16 11 10 12
REMARK SMILES IDX 9 14 6 15 7 16 87 17 8 18 86 19 4 20 3 21 5 23 2 24 1 25
REMARK SMILES IDX 21 26 22 27 23 28 24 29 25 31 26 32 27 33 85 34 28 35 84 36
REMARK SMILES IDX 29 37 30 38 31 39 78 40 32 41 83 42 77 43 79 44 33 45 82 46
REMARK SMILES IDX 76 47 75 48 34 50 64 51 45 52 63 53 46 54 49 55 62 56 80 57
REMARK SMILES IDX 47 58 48 59 61 61 81 62 50 63 35 64 36 65 44 66 37 67 43 68
REMARK SMILES IDX 38 69 39 70 40 71 41 72 42 73 65 74 66 75 74 76 67 77 73 78
REMARK SMILES IDX 68 79 69 80 70 81 71 82 72 83 51 84 52 85 60 86 53 87 59 88
REMARK SMILES IDX 54 89 55 90 56 91 57 92 58 93
REMARK H PARENT 19 5 10 13 3 22 23 30 79 49 49 60
REMARK Flexibility Score: inf
ROOT
ATOM      1  C   UNL A   1      33.141  26.622  26.050  1.00  0.00     0.117 C 
ENDROOT
BRANCH   1   2
ATOM      2  N   UNL A   1      33.571  26.522  24.669  1.00  0.00    -0.355 N 
ATOM      3  C   UNL A   1      32.961  26.501  23.464  1.00  0.00     0.230 C 
ATOM      4  O   UNL A   1      33.752  26.525  22.507  1.00  0.00    -0.274 OA
ATOM      5  H   UNL A   1      34.550  26.454  24.590  1.00  0.00     0.163 HD
BRANCH   3   6
ATOM      6  C   UNL A   1      31.458  26.439  23.172  1.00  0.00     0.092 C 
ATOM      7  C   UNL A   1      30.502  25.660  24.070  1.00  0.00     0.124 C 
ATOM      8  C   UNL A   1      29.188  26.426  23.973  1.00  0.00     0.186 C 
ATOM      9  O   UNL A   1      29.554  27.807  23.826  1.00  0.00    -0.378 OA
ATOM     10  C   UNL A   1      30.932  27.870  23.420  1.00  0.00     0.179 C 
ATOM     11  C   UNL A   1      31.314  26.115  21.670  1.00  0.00     0.026 C 
BRANCH   7  12
ATOM     12  N   UNL A   1      30.464  24.210  23.881  1.00  0.00    -0.362 N 
ATOM     13  H   UNL A   1      29.621  23.821  23.553  1.00  0.00     0.162 HD
BRANCH  12  14
ATOM     14  C   UNL A   1      31.509  23.339  24.122  1.00  0.00     0.149 A 
ATOM     15  C   UNL A   1      33.428  21.455  24.615  1.00  0.00     0.150 A 
ATOM     16  C   UNL A   1      32.975  21.602  23.317  1.00  0.00     0.040 A 
ATOM     17  N   UNL A   1      32.963  22.208  25.626  1.00  0.00    -0.143 NA
ATOM     18  C   UNL A   1      32.008  22.577  23.071  1.00  0.00     0.051 A 
ATOM     19  N   UNL A   1      31.994  23.148  25.364  1.00  0.00    -0.132 NA
BRANCH  15  20
ATOM     20  C   UNL A   1      34.432  20.429  24.966  1.00  0.00     0.271 C 
ATOM     21  N   UNL A   1      34.021  19.148  25.251  1.00  0.00    -0.351 N 
ATOM     22  H   UNL A   1      34.720  18.539  25.582  1.00  0.00     0.163 HD
ATOM     23  O   UNL A   1      35.622  20.724  25.023  1.00  0.00    -0.267 OA
BRANCH  21  24
ATOM     24  C   UNL A   1      32.692  18.574  25.128  1.00  0.00     0.113 C 
ATOM     25  C   UNL A   1      32.680  17.124  25.575  1.00  0.00     0.027 C 
ENDBRANCH  21  24
ENDBRANCH  15  20
ENDBRANCH  12  14
ENDBRANCH   7  12
ENDBRANCH   3   6
ENDBRANCH   1   2
BRANCH   1  26
ATOM     26  C   UNL A   1      32.933  28.061  26.506  1.00  0.00     0.042 C 
BRANCH  26  27
ATOM     27  C   UNL A   1      34.031  29.019  26.051  1.00  0.00     0.118 C 
BRANCH  27  28
ATOM     28  N   UNL A   1      33.791  30.386  26.494  1.00  0.00    -0.352 N 
ATOM     29  C   UNL A   1      34.350  31.127  27.502  1.00  0.00     0.251 C 
ATOM     30  H   UNL A   1      33.103  30.862  25.976  1.00  0.00     0.163 HD
ATOM     31  O   UNL A   1      33.784  32.161  27.853  1.00  0.00    -0.269 OA
BRANCH  29  32
ATOM     32  C   UNL A   1      35.608  30.717  28.166  1.00  0.00     0.039 A 
ATOM     33  C   UNL A   1      35.564  29.679  29.102  1.00  0.00     0.014 A 
ATOM     34  C   UNL A   1      36.808  31.398  27.947  1.00  0.00     0.014 A 
ATOM     35  C   UNL A   1      36.725  29.301  29.782  1.00  0.00     0.010 A 
ATOM     36  C   UNL A   1      37.982  30.965  28.561  1.00  0.00     0.010 A 
ATOM     37  C   UNL A   1      37.950  29.926  29.500  1.00  0.00    -0.014 A 
BRANCH  37  38
ATOM     38  C   UNL A   1      39.197  29.514  30.193  1.00  0.00     0.031 A 
ATOM     39  C   UNL A   1      39.632  30.207  31.458  1.00  0.00     0.074 A 
ATOM     40  C   UNL A   1      39.962  28.542  29.658  1.00  0.00     0.049 A 
ATOM     41  N   UNL A   1      40.698  29.997  32.187  1.00  0.00    -0.248 NA
ATOM     42  C   UNL A   1      38.772  31.295  31.954  1.00  0.00     0.031 C 
ATOM     43  C   UNL A   1      39.676  27.830  28.409  1.00  0.00     0.029 A 
ATOM     44  N   UNL A   1      41.137  27.984  30.094  1.00  0.00    -0.354 N 
ATOM     45  C   UNL A   1      40.647  30.935  33.213  1.00  0.00     0.074 A 
ATOM     46  C   UNL A   1      39.474  31.749  32.983  1.00  0.00     0.031 C 
ATOM     47  C   UNL A   1      40.629  26.907  28.200  1.00  0.00     0.029 A 
ATOM     48  C   UNL A   1      41.610  26.984  29.278  1.00  0.00     0.049 A 
ATOM     49  H   UNL A   1      41.598  28.273  30.914  1.00  0.00     0.167 HD
ATOM     50  C   UNL A   1      41.489  31.094  34.263  1.00  0.00     0.031 A 
ATOM     51  C   UNL A   1      42.707  26.211  29.385  1.00  0.00     0.031 A 
ATOM     52  C   UNL A   1      42.643  30.270  34.501  1.00  0.00     0.049 A 
ATOM     53  C   UNL A   1      43.611  26.387  30.573  1.00  0.00     0.074 A 
ATOM     54  C   UNL A   1      43.526  30.309  35.566  1.00  0.00     0.029 A 
ATOM     55  N   UNL A   1      43.075  29.254  33.662  1.00  0.00    -0.354 N 
ATOM     56  N   UNL A   1      43.509  27.239  31.565  1.00  0.00    -0.248 NA
ATOM     57  C   UNL A   1      44.765  25.485  30.665  1.00  0.00     0.031 C 
ATOM     58  C   UNL A   1      44.516  29.343  35.349  1.00  0.00     0.029 A 
ATOM     59  C   UNL A   1      44.220  28.669  34.175  1.00  0.00     0.049 A 
ATOM     60  H   UNL A   1      42.632  28.987  32.824  1.00  0.00     0.167 HD
ATOM     61  C   UNL A   1      44.576  26.961  32.411  1.00  0.00     0.074 A 
ATOM     62  C   UNL A   1      45.297  25.850  31.823  1.00  0.00     0.031 C 
ATOM     63  C   UNL A   1      44.929  27.570  33.571  1.00  0.00     0.031 A 
BRANCH  50  64
ATOM     64  C   UNL A   1      41.185  32.204  35.236  1.00  0.00    -0.014 A 
ATOM     65  C   UNL A   1      40.413  31.969  36.389  1.00  0.00     0.010 A 
ATOM     66  C   UNL A   1      41.707  33.492  35.016  1.00  0.00     0.010 A 
ATOM     67  C   UNL A   1      40.129  33.010  37.276  1.00  0.00     0.020 A 
ATOM     68  C   UNL A   1      41.449  34.530  35.916  1.00  0.00     0.020 A 
ATOM     69  C   UNL A   1      40.644  34.286  37.031  1.00  0.00     0.054 A 
BRANCH  69  70
ATOM     70  S   UNL A   1      40.275  35.615  38.210  1.00  0.00     0.124 S 
ATOM     71  O   UNL A   1      41.481  35.627  39.035  1.00  0.00    -0.237 OA
ATOM     72  O   UNL A   1      40.098  36.775  37.343  1.00  0.00    -0.237 OA
ATOM     73  O   UNL A   1      39.064  35.152  38.885  1.00  0.00    -0.744 OA
ENDBRANCH  69  70
ENDBRANCH  50  64
BRANCH  51  74
ATOM     74  C   UNL A   1      42.990  25.181  28.351  1.00  0.00    -0.014 A 
ATOM     75  C   UNL A   1      43.675  25.523  27.171  1.00  0.00     0.010 A 
ATOM     76  C   UNL A   1      42.598  23.845  28.552  1.00  0.00     0.010 A 
ATOM     77  C   UNL A   1      43.950  24.551  26.205  1.00  0.00     0.020 A 
ATOM     78  C   UNL A   1      42.893  22.866  27.600  1.00  0.00     0.020 A 
ATOM     79  C   UNL A   1      43.559  23.227  26.427  1.00  0.00     0.054 A 
BRANCH  79  80
ATOM     80  S   UNL A   1      43.981  21.968  25.191  1.00  0.00     0.124 S 
ATOM     81  O   UNL A   1      43.913  22.728  23.948  1.00  0.00    -0.237 OA
ATOM     82  O   UNL A   1      45.317  21.549  25.608  1.00  0.00    -0.237 OA
ATOM     83  O   UNL A   1      42.940  20.957  25.368  1.00  0.00    -0.744 OA
ENDBRANCH  79  80
ENDBRANCH  51  74
BRANCH  63  84
ATOM     84  C   UNL A   1      46.134  27.028  34.290  1.00  0.00    -0.014 A 
ATOM     85  C   UNL A   1      46.014  25.991  35.232  1.00  0.00     0.010 A 
ATOM     86  C   UNL A   1      47.409  27.547  33.997  1.00  0.00     0.010 A 
ATOM     87  C   UNL A   1      47.142  25.512  35.901  1.00  0.00     0.020 A 
ATOM     88  C   UNL A   1      48.542  27.051  34.644  1.00  0.00     0.020 A 
ATOM     89  C   UNL A   1      48.399  26.050  35.607  1.00  0.00     0.054 A 
BRANCH  89  90
ATOM     90  S   UNL A   1      49.853  25.399  36.474  1.00  0.00     0.124 S 
ATOM     91  O   UNL A   1      50.434  24.515  35.469  1.00  0.00    -0.237 OA
ATOM     92  O   UNL A   1      50.620  26.607  36.769  1.00  0.00    -0.237 OA
ATOM     93  O   UNL A   1      49.286  24.728  37.642  1.00  0.00    -0.744 OA
ENDBRANCH  89  90
ENDBRANCH  63  84
ENDBRANCH  37  38
ENDBRANCH  29  32
ENDBRANCH  27  28
ENDBRANCH  26  27
ENDBRANCH   1  26
TORSDOF 17
ENDMDL
