MODEL 1
REMARK VINA RESULT:     -10.5      0.000      0.000
REMARK SMILES CCN1C(=O)/C(=C/N[C@H](CCSC)C(=O)NCCCNC(=O)c2ccc(-c3c4nc(c(-c5ccc(S(=O)(=O)[O-])cc5)c5ccc([nH]5)c(-c5ccc(S(=O)(=O)[O-])cc5)c5nc(c(-c6ccc(S(=O)(=O)[O-])cc6)c6ccc3[nH]6)C=C5)C=C4)cc2)C(=O)NC1=S
REMARK SMILES IDX 18 1 17 2 16 3 14 4 15 5 9 7 8 8 7 10 3 11 4 12 86 13 5 14
REMARK SMILES IDX 6 15 85 16 87 17 83 18 84 20 2 21 1 22 10 23 11 24 12 25
REMARK SMILES IDX 13 26 19 27 20 28 21 29 22 31 23 32 24 33 82 34 25 35 81 36
REMARK SMILES IDX 26 37 27 38 28 39 75 40 29 41 80 42 74 43 76 44 30 45 79 46
REMARK SMILES IDX 73 47 72 48 31 50 61 51 42 52 60 53 43 54 46 55 59 56 77 57
REMARK SMILES IDX 44 58 45 59 58 61 78 62 47 63 32 64 33 65 41 66 34 67 40 68
REMARK SMILES IDX 35 69 36 70 37 71 38 72 39 73 62 74 63 75 71 76 64 77 70 78
REMARK SMILES IDX 65 79 66 80 67 81 68 82 69 83 48 84 49 85 57 86 50 87 56 88
REMARK SMILES IDX 51 89 52 90 53 91 54 92 55 93
REMARK H PARENT 16 6 8 9 85 19 20 30 76 49 46 60
REMARK Flexibility Score: inf
ROOT
ATOM      1  C   UNL A   1      33.616  28.174  25.903  1.00  0.00     0.042 C 
ENDROOT
BRANCH   1   2
ATOM      2  C   UNL A   1      33.116  29.208  24.911  1.00  0.00     0.117 C 
BRANCH   2   3
ATOM      3  N   UNL A   1      33.699  29.037  23.591  1.00  0.00    -0.354 N 
ATOM      4  C   UNL A   1      33.519  28.041  22.670  1.00  0.00     0.242 C 
ATOM      5  O   UNL A   1      34.150  28.117  21.612  1.00  0.00    -0.273 OA
ATOM      6  H   UNL A   1      34.320  29.750  23.316  1.00  0.00     0.163 HD
BRANCH   4   7
ATOM      7  C   UNL A   1      32.555  26.862  22.950  1.00  0.00     0.169 C 
BRANCH   7   8
ATOM      8  N   UNL A   1      33.249  25.600  22.701  1.00  0.00    -0.379 N 
ATOM      9  H   UNL A   1      33.171  25.231  21.792  1.00  0.00     0.160 HD
BRANCH   8  10
ATOM     10  C   UNL A   1      33.996  24.872  23.588  1.00  0.00     0.098 C 
ATOM     11  N   UNL A   1      34.732  21.715  24.935  1.00  0.00    -0.285 N 
ATOM     12  C   UNL A   1      34.632  23.093  25.066  1.00  0.00     0.267 C 
ATOM     13  C   UNL A   1      33.613  20.949  24.600  1.00  0.00     0.182 C 
ATOM     14  O   UNL A   1      35.245  23.787  25.869  1.00  0.00    -0.268 OA
ATOM     15  C   UNL A   1      33.671  23.693  24.135  1.00  0.00     0.121 C 
ATOM     16  N   UNL A   1      32.511  21.630  24.140  1.00  0.00    -0.298 N 
ATOM     17  S   UNL A   1      33.481  19.279  24.699  1.00  0.00    -0.040 S 
ATOM     18  C   UNL A   1      32.457  22.950  23.779  1.00  0.00     0.264 C 
ATOM     19  H   UNL A   1      31.675  21.115  24.062  1.00  0.00     0.172 HD
ATOM     20  O   UNL A   1      31.512  23.427  23.165  1.00  0.00    -0.269 OA
BRANCH  11  21
ATOM     21  C   UNL A   1      36.012  21.071  25.274  1.00  0.00     0.125 C 
ATOM     22  C   UNL A   1      37.254  21.515  24.508  1.00  0.00     0.028 C 
ENDBRANCH  11  21
ENDBRANCH   8  10
ENDBRANCH   7   8
BRANCH   7  23
ATOM     23  C   UNL A   1      31.243  27.019  22.162  1.00  0.00     0.046 C 
BRANCH  23  24
ATOM     24  C   UNL A   1      30.050  27.684  22.854  1.00  0.00     0.072 C 
BRANCH  24  25
ATOM     25  S   UNL A   1      29.950  29.492  22.628  1.00  0.00    -0.165 SA
ATOM     26  C   UNL A   1      28.234  29.664  22.101  1.00  0.00     0.085 C 
ENDBRANCH  24  25
ENDBRANCH  23  24
ENDBRANCH   7  23
ENDBRANCH   4   7
ENDBRANCH   2   3
ENDBRANCH   1   2
BRANCH   1  27
ATOM     27  C   UNL A   1      33.353  28.546  27.352  1.00  0.00     0.118 C 
BRANCH  27  28
ATOM     28  N   UNL A   1      33.356  29.988  27.564  1.00  0.00    -0.352 N 
ATOM     29  C   UNL A   1      34.330  30.793  28.105  1.00  0.00     0.251 C 
ATOM     30  H   UNL A   1      32.537  30.455  27.278  1.00  0.00     0.163 HD
ATOM     31  O   UNL A   1      34.068  31.957  28.394  1.00  0.00    -0.269 OA
BRANCH  29  32
ATOM     32  C   UNL A   1      35.678  30.245  28.356  1.00  0.00     0.039 A 
ATOM     33  C   UNL A   1      36.623  30.261  27.328  1.00  0.00     0.014 A 
ATOM     34  C   UNL A   1      36.015  29.731  29.612  1.00  0.00     0.014 A 
ATOM     35  C   UNL A   1      37.928  29.838  27.585  1.00  0.00     0.010 A 
ATOM     36  C   UNL A   1      37.337  29.406  29.892  1.00  0.00     0.010 A 
ATOM     37  C   UNL A   1      38.307  29.453  28.882  1.00  0.00    -0.014 A 
BRANCH  37  38
ATOM     38  C   UNL A   1      39.711  29.102  29.207  1.00  0.00     0.031 A 
ATOM     39  C   UNL A   1      40.617  30.122  29.844  1.00  0.00     0.074 A 
ATOM     40  C   UNL A   1      40.191  27.891  28.863  1.00  0.00     0.049 A 
ATOM     41  N   UNL A   1      41.886  30.025  30.140  1.00  0.00    -0.248 NA
ATOM     42  C   UNL A   1      40.023  31.430  30.165  1.00  0.00     0.031 C 
ATOM     43  C   UNL A   1      39.423  26.829  28.207  1.00  0.00     0.029 A 
ATOM     44  N   UNL A   1      41.442  27.348  29.013  1.00  0.00    -0.354 N 
ATOM     45  C   UNL A   1      42.246  31.259  30.669  1.00  0.00     0.074 A 
ATOM     46  C   UNL A   1      41.077  32.107  30.597  1.00  0.00     0.031 C 
ATOM     47  C   UNL A   1      40.210  25.753  28.044  1.00  0.00     0.029 A 
ATOM     48  C   UNL A   1      41.549  26.063  28.533  1.00  0.00     0.049 A 
ATOM     49  H   UNL A   1      42.194  27.833  29.424  1.00  0.00     0.167 HD
ATOM     50  C   UNL A   1      43.436  31.646  31.189  1.00  0.00     0.031 A 
ATOM     51  C   UNL A   1      42.606  25.231  28.483  1.00  0.00     0.031 A 
ATOM     52  C   UNL A   1      44.596  30.799  31.256  1.00  0.00     0.049 A 
ATOM     53  C   UNL A   1      43.929  25.697  29.029  1.00  0.00     0.074 A 
ATOM     54  C   UNL A   1      45.835  31.078  31.806  1.00  0.00     0.029 A 
ATOM     55  N   UNL A   1      44.667  29.510  30.746  1.00  0.00    -0.354 N 
ATOM     56  N   UNL A   1      44.231  26.844  29.589  1.00  0.00    -0.248 NA
ATOM     57  C   UNL A   1      45.051  24.754  28.940  1.00  0.00     0.031 C 
ATOM     58  C   UNL A   1      46.672  29.982  31.573  1.00  0.00     0.029 A 
ATOM     59  C   UNL A   1      45.937  28.993  30.938  1.00  0.00     0.049 A 
ATOM     60  H   UNL A   1      43.922  29.032  30.313  1.00  0.00     0.167 HD
ATOM     61  C   UNL A   1      45.573  26.752  29.939  1.00  0.00     0.074 A 
ATOM     62  C   UNL A   1      46.017  25.429  29.546  1.00  0.00     0.031 C 
ATOM     63  C   UNL A   1      46.366  27.678  30.531  1.00  0.00     0.031 A 
BRANCH  50  64
ATOM     64  C   UNL A   1      43.538  33.056  31.713  1.00  0.00    -0.014 A 
ATOM     65  C   UNL A   1      43.236  33.358  33.054  1.00  0.00     0.010 A 
ATOM     66  C   UNL A   1      43.962  34.091  30.861  1.00  0.00     0.010 A 
ATOM     67  C   UNL A   1      43.305  34.674  33.518  1.00  0.00     0.020 A 
ATOM     68  C   UNL A   1      44.066  35.404  31.329  1.00  0.00     0.020 A 
ATOM     69  C   UNL A   1      43.716  35.690  32.651  1.00  0.00     0.054 A 
BRANCH  69  70
ATOM     70  S   UNL A   1      43.803  37.388  33.282  1.00  0.00     0.124 S 
ATOM     71  O   UNL A   1      42.574  37.480  34.067  1.00  0.00    -0.237 OA
ATOM     72  O   UNL A   1      45.042  37.377  34.056  1.00  0.00    -0.237 OA
ATOM     73  O   UNL A   1      43.832  38.207  32.074  1.00  0.00    -0.744 OA
ENDBRANCH  69  70
ENDBRANCH  50  64
BRANCH  51  74
ATOM     74  C   UNL A   1      42.452  23.868  27.906  1.00  0.00    -0.014 A 
ATOM     75  C   UNL A   1      42.531  23.670  26.515  1.00  0.00     0.010 A 
ATOM     76  C   UNL A   1      42.246  22.755  28.743  1.00  0.00     0.010 A 
ATOM     77  C   UNL A   1      42.396  22.388  25.973  1.00  0.00     0.020 A 
ATOM     78  C   UNL A   1      42.142  21.469  28.207  1.00  0.00     0.020 A 
ATOM     79  C   UNL A   1      42.207  21.295  26.823  1.00  0.00     0.054 A 
BRANCH  79  80
ATOM     80  S   UNL A   1      42.097  19.635  26.098  1.00  0.00     0.124 S 
ATOM     81  O   UNL A   1      40.688  19.560  25.725  1.00  0.00    -0.237 OA
ATOM     82  O   UNL A   1      43.043  19.714  24.988  1.00  0.00    -0.237 OA
ATOM     83  O   UNL A   1      42.503  18.756  27.192  1.00  0.00    -0.744 OA
ENDBRANCH  79  80
ENDBRANCH  51  74
BRANCH  63  84
ATOM     84  C   UNL A   1      47.796  27.291  30.808  1.00  0.00    -0.014 A 
ATOM     85  C   UNL A   1      48.154  26.626  31.994  1.00  0.00     0.010 A 
ATOM     86  C   UNL A   1      48.786  27.547  29.841  1.00  0.00     0.010 A 
ATOM     87  C   UNL A   1      49.480  26.250  32.221  1.00  0.00     0.020 A 
ATOM     88  C   UNL A   1      50.107  27.144  30.050  1.00  0.00     0.020 A 
ATOM     89  C   UNL A   1      50.447  26.508  31.245  1.00  0.00     0.054 A 
BRANCH  89  90
ATOM     90  S   UNL A   1      52.151  25.962  31.544  1.00  0.00     0.124 S 
ATOM     91  O   UNL A   1      52.583  26.877  32.597  1.00  0.00    -0.237 OA
ATOM     92  O   UNL A   1      51.974  24.572  31.952  1.00  0.00    -0.237 OA
ATOM     93  O   UNL A   1      52.807  26.148  30.251  1.00  0.00    -0.744 OA
ENDBRANCH  89  90
ENDBRANCH  63  84
ENDBRANCH  37  38
ENDBRANCH  29  32
ENDBRANCH  27  28
ENDBRANCH   1  27
TORSDOF 19
ENDMDL
MODEL 2
REMARK VINA RESULT:     -10.2      1.384      2.055
REMARK SMILES CCN1C(=O)/C(=C/N[C@H](CCSC)C(=O)NCCCNC(=O)c2ccc(-c3c4nc(c(-c5ccc(S(=O)(=O)[O-])cc5)c5ccc([nH]5)c(-c5ccc(S(=O)(=O)[O-])cc5)c5nc(c(-c6ccc(S(=O)(=O)[O-])cc6)c6ccc3[nH]6)C=C5)C=C4)cc2)C(=O)NC1=S
REMARK SMILES IDX 18 1 17 2 16 3 14 4 15 5 9 7 8 8 7 10 3 11 4 12 86 13 5 14
REMARK SMILES IDX 6 15 85 16 87 17 83 18 84 20 2 21 1 22 10 23 11 24 12 25
REMARK SMILES IDX 13 26 19 27 20 28 21 29 22 31 23 32 24 33 82 34 25 35 81 36
REMARK SMILES IDX 26 37 27 38 28 39 75 40 29 41 80 42 74 43 76 44 30 45 79 46
REMARK SMILES IDX 73 47 72 48 31 50 61 51 42 52 60 53 43 54 46 55 59 56 77 57
REMARK SMILES IDX 44 58 45 59 58 61 78 62 47 63 32 64 33 65 41 66 34 67 40 68
REMARK SMILES IDX 35 69 36 70 37 71 38 72 39 73 62 74 63 75 71 76 64 77 70 78
REMARK SMILES IDX 65 79 66 80 67 81 68 82 69 83 48 84 49 85 57 86 50 87 56 88
REMARK SMILES IDX 51 89 52 90 53 91 54 92 55 93
REMARK H PARENT 16 6 8 9 85 19 20 30 76 49 46 60
REMARK Flexibility Score: inf
ROOT
ATOM      1  C   UNL A   1      33.370  28.966  24.885  1.00  0.00     0.042 C 
ENDROOT
BRANCH   1   2
ATOM      2  C   UNL A   1      31.862  29.137  24.935  1.00  0.00     0.117 C 
BRANCH   2   3
ATOM      3  N   UNL A   1      31.240  28.959  23.634  1.00  0.00    -0.354 N 
ATOM      4  C   UNL A   1      30.860  27.814  22.987  1.00  0.00     0.242 C 
ATOM      5  O   UNL A   1      30.360  27.929  21.865  1.00  0.00    -0.273 OA
ATOM      6  H   UNL A   1      31.064  29.793  23.140  1.00  0.00     0.163 HD
BRANCH   4   7
ATOM      7  C   UNL A   1      31.051  26.427  23.646  1.00  0.00     0.169 C 
BRANCH   7   8
ATOM      8  N   UNL A   1      31.360  25.439  22.613  1.00  0.00    -0.379 N 
ATOM      9  H   UNL A   1      31.522  25.791  21.709  1.00  0.00     0.160 HD
BRANCH   8  10
ATOM     10  C   UNL A   1      31.451  24.081  22.761  1.00  0.00     0.098 C 
ATOM     11  N   UNL A   1      33.276  21.366  24.035  1.00  0.00    -0.285 N 
ATOM     12  C   UNL A   1      32.427  21.914  23.084  1.00  0.00     0.267 C 
ATOM     13  C   UNL A   1      34.551  21.897  24.241  1.00  0.00     0.182 C 
ATOM     14  O   UNL A   1      31.632  21.294  22.386  1.00  0.00    -0.268 OA
ATOM     15  C   UNL A   1      32.569  23.367  22.950  1.00  0.00     0.121 C 
ATOM     16  N   UNL A   1      34.809  23.125  23.679  1.00  0.00    -0.298 N 
ATOM     17  S   UNL A   1      35.800  21.190  25.110  1.00  0.00    -0.040 S 
ATOM     18  C   UNL A   1      33.894  23.976  23.116  1.00  0.00     0.264 C 
ATOM     19  H   UNL A   1      35.747  23.424  23.681  1.00  0.00     0.172 HD
ATOM     20  O   UNL A   1      34.155  25.141  22.848  1.00  0.00    -0.269 OA
BRANCH  11  21
ATOM     21  C   UNL A   1      32.849  20.143  24.734  1.00  0.00     0.125 C 
ATOM     22  C   UNL A   1      33.169  18.804  24.077  1.00  0.00     0.028 C 
ENDBRANCH  11  21
ENDBRANCH   8  10
ENDBRANCH   7   8
BRANCH   7  23
ATOM     23  C   UNL A   1      29.842  26.056  24.523  1.00  0.00     0.046 C 
BRANCH  23  24
ATOM     24  C   UNL A   1      30.097  25.571  25.952  1.00  0.00     0.072 C 
BRANCH  24  25
ATOM     25  S   UNL A   1      31.860  25.396  26.393  1.00  0.00    -0.165 SA
ATOM     26  C   UNL A   1      31.973  23.608  26.594  1.00  0.00     0.085 C 
ENDBRANCH  24  25
ENDBRANCH  23  24
ENDBRANCH   7  23
ENDBRANCH   4   7
ENDBRANCH   2   3
ENDBRANCH   1   2
BRANCH   1  27
ATOM     27  C   UNL A   1      34.025  28.951  26.255  1.00  0.00     0.118 C 
BRANCH  27  28
ATOM     28  N   UNL A   1      33.907  30.230  26.941  1.00  0.00    -0.352 N 
ATOM     29  C   UNL A   1      34.717  30.789  27.902  1.00  0.00     0.251 C 
ATOM     30  H   UNL A   1      33.131  30.777  26.678  1.00  0.00     0.163 HD
ATOM     31  O   UNL A   1      34.341  31.784  28.512  1.00  0.00    -0.269 OA
BRANCH  29  32
ATOM     32  C   UNL A   1      36.023  30.172  28.208  1.00  0.00     0.039 A 
ATOM     33  C   UNL A   1      37.027  30.185  27.237  1.00  0.00     0.014 A 
ATOM     34  C   UNL A   1      36.264  29.597  29.459  1.00  0.00     0.014 A 
ATOM     35  C   UNL A   1      38.296  29.694  27.551  1.00  0.00     0.010 A 
ATOM     36  C   UNL A   1      37.552  29.203  29.802  1.00  0.00     0.010 A 
ATOM     37  C   UNL A   1      38.581  29.244  28.851  1.00  0.00    -0.014 A 
BRANCH  37  38
ATOM     38  C   UNL A   1      39.948  28.819  29.242  1.00  0.00     0.031 A 
ATOM     39  C   UNL A   1      40.858  29.775  29.966  1.00  0.00     0.074 A 
ATOM     40  C   UNL A   1      40.394  27.600  28.882  1.00  0.00     0.049 A 
ATOM     41  N   UNL A   1      42.102  29.611  30.330  1.00  0.00    -0.248 NA
ATOM     42  C   UNL A   1      40.303  31.097  30.301  1.00  0.00     0.031 C 
ATOM     43  C   UNL A   1      39.620  26.597  28.145  1.00  0.00     0.029 A 
ATOM     44  N   UNL A   1      41.609  26.997  29.082  1.00  0.00    -0.354 N 
ATOM     45  C   UNL A   1      42.484  30.808  30.923  1.00  0.00     0.074 A 
ATOM     46  C   UNL A   1      41.358  31.711  30.817  1.00  0.00     0.031 C 
ATOM     47  C   UNL A   1      40.367  25.494  27.987  1.00  0.00     0.029 A 
ATOM     48  C   UNL A   1      41.688  25.726  28.562  1.00  0.00     0.049 A 
ATOM     49  H   UNL A   1      42.356  27.433  29.552  1.00  0.00     0.167 HD
ATOM     50  C   UNL A   1      43.657  31.123  31.524  1.00  0.00     0.031 A 
ATOM     51  C   UNL A   1      42.710  24.849  28.541  1.00  0.00     0.031 A 
ATOM     52  C   UNL A   1      44.774  30.222  31.625  1.00  0.00     0.049 A 
ATOM     53  C   UNL A   1      44.017  25.236  29.177  1.00  0.00     0.074 A 
ATOM     54  C   UNL A   1      45.990  30.426  32.254  1.00  0.00     0.029 A 
ATOM     55  N   UNL A   1      44.818  28.950  31.073  1.00  0.00    -0.354 N 
ATOM     56  N   UNL A   1      44.335  26.348  29.795  1.00  0.00    -0.248 NA
ATOM     57  C   UNL A   1      45.101  24.246  29.117  1.00  0.00     0.031 C 
ATOM     58  C   UNL A   1      46.790  29.303  32.029  1.00  0.00     0.029 A 
ATOM     59  C   UNL A   1      46.051  28.370  31.317  1.00  0.00     0.049 A 
ATOM     60  H   UNL A   1      44.080  28.522  30.581  1.00  0.00     0.167 HD
ATOM     61  C   UNL A   1      45.650  26.183  30.217  1.00  0.00     0.074 A 
ATOM     62  C   UNL A   1      46.058  24.856  29.801  1.00  0.00     0.031 C 
ATOM     63  C   UNL A   1      46.447  27.052  30.887  1.00  0.00     0.031 A 
BRANCH  50  64
ATOM     64  C   UNL A   1      43.789  32.508  32.104  1.00  0.00    -0.014 A 
ATOM     65  C   UNL A   1      43.415  32.779  33.434  1.00  0.00     0.010 A 
ATOM     66  C   UNL A   1      44.314  33.550  31.319  1.00  0.00     0.010 A 
ATOM     67  C   UNL A   1      43.515  34.075  33.949  1.00  0.00     0.020 A 
ATOM     68  C   UNL A   1      44.448  34.840  31.840  1.00  0.00     0.020 A 
ATOM     69  C   UNL A   1      44.027  35.098  33.147  1.00  0.00     0.054 A 
BRANCH  69  70
ATOM     70  S   UNL A   1      44.150  36.768  33.844  1.00  0.00     0.124 S 
ATOM     71  O   UNL A   1      43.931  36.516  35.266  1.00  0.00    -0.237 OA
ATOM     72  O   UNL A   1      45.507  37.166  33.479  1.00  0.00    -0.237 OA
ATOM     73  O   UNL A   1      43.084  37.505  33.171  1.00  0.00    -0.744 OA
ENDBRANCH  69  70
ENDBRANCH  50  64
BRANCH  51  74
ATOM     74  C   UNL A   1      42.530  23.514  27.906  1.00  0.00    -0.014 A 
ATOM     75  C   UNL A   1      42.817  23.331  26.541  1.00  0.00     0.010 A 
ATOM     76  C   UNL A   1      42.093  22.413  28.666  1.00  0.00     0.010 A 
ATOM     77  C   UNL A   1      42.658  22.075  25.946  1.00  0.00     0.020 A 
ATOM     78  C   UNL A   1      41.963  21.150  28.082  1.00  0.00     0.020 A 
ATOM     79  C   UNL A   1      42.237  20.992  26.722  1.00  0.00     0.054 A 
BRANCH  79  80
ATOM     80  S   UNL A   1      42.098  19.360  25.939  1.00  0.00     0.124 S 
ATOM     81  O   UNL A   1      40.667  19.274  25.668  1.00  0.00    -0.237 OA
ATOM     82  O   UNL A   1      42.958  19.501  24.767  1.00  0.00    -0.237 OA
ATOM     83  O   UNL A   1      42.598  18.446  26.964  1.00  0.00    -0.744 OA
ENDBRANCH  79  80
ENDBRANCH  51  74
BRANCH  63  84
ATOM     84  C   UNL A   1      47.840  26.591  31.230  1.00  0.00    -0.014 A 
ATOM     85  C   UNL A   1      48.906  26.763  30.330  1.00  0.00     0.010 A 
ATOM     86  C   UNL A   1      48.094  26.029  32.495  1.00  0.00     0.010 A 
ATOM     87  C   UNL A   1      50.196  26.354  30.676  1.00  0.00     0.020 A 
ATOM     88  C   UNL A   1      49.389  25.649  32.857  1.00  0.00     0.020 A 
ATOM     89  C   UNL A   1      50.430  25.804  31.940  1.00  0.00     0.054 A 
BRANCH  89  90
ATOM     90  S   UNL A   1      52.124  25.330  32.382  1.00  0.00     0.124 S 
ATOM     91  O   UNL A   1      52.083  23.878  32.234  1.00  0.00    -0.237 OA
ATOM     92  O   UNL A   1      52.924  26.042  31.389  1.00  0.00    -0.237 OA
ATOM     93  O   UNL A   1      52.272  25.812  33.755  1.00  0.00    -0.744 OA
ENDBRANCH  89  90
ENDBRANCH  63  84
ENDBRANCH  37  38
ENDBRANCH  29  32
ENDBRANCH  27  28
ENDBRANCH   1  27
TORSDOF 19
ENDMDL
MODEL 3
REMARK VINA RESULT:      -9.8      2.761      3.461
REMARK SMILES CCN1C(=O)/C(=C/N[C@H](CCSC)C(=O)NCCCNC(=O)c2ccc(-c3c4nc(c(-c5ccc(S(=O)(=O)[O-])cc5)c5ccc([nH]5)c(-c5ccc(S(=O)(=O)[O-])cc5)c5nc(c(-c6ccc(S(=O)(=O)[O-])cc6)c6ccc3[nH]6)C=C5)C=C4)cc2)C(=O)NC1=S
REMARK SMILES IDX 18 1 17 2 16 3 14 4 15 5 9 7 8 8 7 10 3 11 4 12 86 13 5 14
REMARK SMILES IDX 6 15 85 16 87 17 83 18 84 20 2 21 1 22 10 23 11 24 12 25
REMARK SMILES IDX 13 26 19 27 20 28 21 29 22 31 23 32 24 33 82 34 25 35 81 36
REMARK SMILES IDX 26 37 27 38 28 39 75 40 29 41 80 42 74 43 76 44 30 45 79 46
REMARK SMILES IDX 73 47 72 48 31 50 61 51 42 52 60 53 43 54 46 55 59 56 77 57
REMARK SMILES IDX 44 58 45 59 58 61 78 62 47 63 32 64 33 65 41 66 34 67 40 68
REMARK SMILES IDX 35 69 36 70 37 71 38 72 39 73 62 74 63 75 71 76 64 77 70 78
REMARK SMILES IDX 65 79 66 80 67 81 68 82 69 83 48 84 49 85 57 86 50 87 56 88
REMARK SMILES IDX 51 89 52 90 53 91 54 92 55 93
REMARK H PARENT 16 6 8 9 85 19 20 30 76 49 46 60
REMARK Flexibility Score: inf
ROOT
ATOM      1  C   UNL A   1      33.299  28.875  24.818  1.00  0.00     0.042 C 
ENDROOT
BRANCH   1   2
ATOM      2  C   UNL A   1      31.786  29.009  24.811  1.00  0.00     0.117 C 
BRANCH   2   3
ATOM      3  N   UNL A   1      31.214  28.761  23.500  1.00  0.00    -0.354 N 
ATOM      4  C   UNL A   1      30.902  27.579  22.883  1.00  0.00     0.242 C 
ATOM      5  O   UNL A   1      30.433  27.634  21.742  1.00  0.00    -0.273 OA
ATOM      6  H   UNL A   1      31.019  29.568  22.971  1.00  0.00     0.163 HD
BRANCH   4   7
ATOM      7  C   UNL A   1      31.129  26.224  23.596  1.00  0.00     0.169 C 
BRANCH   7   8
ATOM      8  N   UNL A   1      31.404  25.192  22.598  1.00  0.00    -0.379 N 
ATOM      9  H   UNL A   1      31.488  25.498  21.666  1.00  0.00     0.160 HD
BRANCH   8  10
ATOM     10  C   UNL A   1      31.559  23.849  22.811  1.00  0.00     0.098 C 
ATOM     11  N   UNL A   1      33.539  21.284  24.163  1.00  0.00    -0.285 N 
ATOM     12  C   UNL A   1      32.639  21.745  23.212  1.00  0.00     0.267 C 
ATOM     13  C   UNL A   1      34.794  21.879  24.302  1.00  0.00     0.182 C 
ATOM     14  O   UNL A   1      31.852  21.056  22.572  1.00  0.00    -0.268 OA
ATOM     15  C   UNL A   1      32.713  23.194  23.001  1.00  0.00     0.121 C 
ATOM     16  N   UNL A   1      34.981  23.086  23.671  1.00  0.00    -0.298 N 
ATOM     17  S   UNL A   1      36.098  21.272  25.166  1.00  0.00    -0.040 S 
ATOM     18  C   UNL A   1      34.014  23.867  23.095  1.00  0.00     0.264 C 
ATOM     19  H   UNL A   1      35.905  23.424  23.629  1.00  0.00     0.172 HD
ATOM     20  O   UNL A   1      34.215  25.026  22.760  1.00  0.00    -0.269 OA
BRANCH  11  21
ATOM     21  C   UNL A   1      33.187  20.081  24.936  1.00  0.00     0.125 C 
ATOM     22  C   UNL A   1      33.641  18.731  24.390  1.00  0.00     0.028 C 
ENDBRANCH  11  21
ENDBRANCH   8  10
ENDBRANCH   7   8
BRANCH   7  23
ATOM     23  C   UNL A   1      29.959  25.888  24.536  1.00  0.00     0.046 C 
BRANCH  23  24
ATOM     24  C   UNL A   1      30.271  25.243  25.890  1.00  0.00     0.072 C 
BRANCH  24  25
ATOM     25  S   UNL A   1      32.042  25.221  26.331  1.00  0.00    -0.165 SA
ATOM     26  C   UNL A   1      32.253  23.481  26.755  1.00  0.00     0.085 C 
ENDBRANCH  24  25
ENDBRANCH  23  24
ENDBRANCH   7  23
ENDBRANCH   4   7
ENDBRANCH   2   3
ENDBRANCH   1   2
BRANCH   1  27
ATOM     27  C   UNL A   1      33.919  29.073  26.190  1.00  0.00     0.118 C 
BRANCH  27  28
ATOM     28  N   UNL A   1      33.704  30.418  26.708  1.00  0.00    -0.352 N 
ATOM     29  C   UNL A   1      34.373  31.093  27.701  1.00  0.00     0.251 C 
ATOM     30  H   UNL A   1      32.970  30.918  26.283  1.00  0.00     0.163 HD
ATOM     31  O   UNL A   1      33.913  32.143  28.141  1.00  0.00    -0.269 OA
BRANCH  29  32
ATOM     32  C   UNL A   1      35.628  30.539  28.248  1.00  0.00     0.039 A 
ATOM     33  C   UNL A   1      36.848  30.963  27.719  1.00  0.00     0.014 A 
ATOM     34  C   UNL A   1      35.600  29.613  29.295  1.00  0.00     0.014 A 
ATOM     35  C   UNL A   1      38.041  30.521  28.295  1.00  0.00     0.010 A 
ATOM     36  C   UNL A   1      36.783  29.254  29.930  1.00  0.00     0.010 A 
ATOM     37  C   UNL A   1      38.016  29.701  29.436  1.00  0.00    -0.014 A 
BRANCH  37  38
ATOM     38  C   UNL A   1      39.265  29.304  30.132  1.00  0.00     0.031 A 
ATOM     39  C   UNL A   1      39.709  30.045  31.365  1.00  0.00     0.074 A 
ATOM     40  C   UNL A   1      40.034  28.328  29.614  1.00  0.00     0.049 A 
ATOM     41  N   UNL A   1      40.799  29.889  32.070  1.00  0.00    -0.248 NA
ATOM     42  C   UNL A   1      38.825  31.116  31.853  1.00  0.00     0.031 C 
ATOM     43  C   UNL A   1      39.730  27.561  28.402  1.00  0.00     0.029 A 
ATOM     44  N   UNL A   1      41.234  27.813  30.037  1.00  0.00    -0.354 N 
ATOM     45  C   UNL A   1      40.739  30.849  33.075  1.00  0.00     0.074 A 
ATOM     46  C   UNL A   1      39.535  31.620  32.851  1.00  0.00     0.031 C 
ATOM     47  C   UNL A   1      40.698  26.653  28.201  1.00  0.00     0.029 A 
ATOM     48  C   UNL A   1      41.717  26.806  29.235  1.00  0.00     0.049 A 
ATOM     49  H   UNL A   1      41.705  28.136  30.838  1.00  0.00     0.167 HD
ATOM     50  C   UNL A   1      41.595  31.055  34.104  1.00  0.00     0.031 A 
ATOM     51  C   UNL A   1      42.855  26.091  29.316  1.00  0.00     0.031 A 
ATOM     52  C   UNL A   1      42.792  30.287  34.319  1.00  0.00     0.049 A 
ATOM     53  C   UNL A   1      43.812  26.367  30.444  1.00  0.00     0.074 A 
ATOM     54  C   UNL A   1      43.702  30.384  35.357  1.00  0.00     0.029 A 
ATOM     55  N   UNL A   1      43.252  29.285  33.477  1.00  0.00    -0.354 N 
ATOM     56  N   UNL A   1      43.703  27.231  31.424  1.00  0.00    -0.248 NA
ATOM     57  C   UNL A   1      45.043  25.566  30.478  1.00  0.00     0.031 C 
ATOM     58  C   UNL A   1      44.744  29.486  35.109  1.00  0.00     0.029 A 
ATOM     59  C   UNL A   1      44.451  28.780  33.952  1.00  0.00     0.049 A 
ATOM     60  H   UNL A   1      42.793  28.978  32.661  1.00  0.00     0.167 HD
ATOM     61  C   UNL A   1      44.841  27.063  32.205  1.00  0.00     0.074 A 
ATOM     62  C   UNL A   1      45.613  26.000  31.593  1.00  0.00     0.031 C 
ATOM     63  C   UNL A   1      45.213  27.729  33.326  1.00  0.00     0.031 A 
BRANCH  50  64
ATOM     64  C   UNL A   1      41.268  32.170  35.065  1.00  0.00    -0.014 A 
ATOM     65  C   UNL A   1      41.709  33.486  34.830  1.00  0.00     0.010 A 
ATOM     66  C   UNL A   1      40.490  31.906  36.207  1.00  0.00     0.010 A 
ATOM     67  C   UNL A   1      41.424  34.503  35.745  1.00  0.00     0.020 A 
ATOM     68  C   UNL A   1      40.174  32.927  37.107  1.00  0.00     0.020 A 
ATOM     69  C   UNL A   1      40.662  34.216  36.881  1.00  0.00     0.054 A 
BRANCH  69  70
ATOM     70  S   UNL A   1      40.303  35.558  38.047  1.00  0.00     0.124 S 
ATOM     71  O   UNL A   1      39.142  35.032  38.761  1.00  0.00    -0.237 OA
ATOM     72  O   UNL A   1      41.535  35.640  38.827  1.00  0.00    -0.237 OA
ATOM     73  O   UNL A   1      40.036  36.706  37.185  1.00  0.00    -0.744 OA
ENDBRANCH  69  70
ENDBRANCH  50  64
BRANCH  51  74
ATOM     74  C   UNL A   1      43.144  25.038  28.304  1.00  0.00    -0.014 A 
ATOM     75  C   UNL A   1      43.757  25.371  27.083  1.00  0.00     0.010 A 
ATOM     76  C   UNL A   1      42.829  23.691  28.564  1.00  0.00     0.010 A 
ATOM     77  C   UNL A   1      44.038  24.381  26.137  1.00  0.00     0.020 A 
ATOM     78  C   UNL A   1      43.135  22.694  27.634  1.00  0.00     0.020 A 
ATOM     79  C   UNL A   1      43.730  23.048  26.421  1.00  0.00     0.054 A 
BRANCH  79  80
ATOM     80  S   UNL A   1      44.161  21.775  25.201  1.00  0.00     0.124 S 
ATOM     81  O   UNL A   1      43.118  20.778  25.421  1.00  0.00    -0.237 OA
ATOM     82  O   UNL A   1      44.081  22.508  23.941  1.00  0.00    -0.237 OA
ATOM     83  O   UNL A   1      45.508  21.368  25.594  1.00  0.00    -0.744 OA
ENDBRANCH  79  80
ENDBRANCH  51  74
BRANCH  63  84
ATOM     84  C   UNL A   1      46.508  27.317  33.978  1.00  0.00    -0.014 A 
ATOM     85  C   UNL A   1      47.721  27.946  33.649  1.00  0.00     0.010 A 
ATOM     86  C   UNL A   1      46.499  26.325  34.976  1.00  0.00     0.010 A 
ATOM     87  C   UNL A   1      48.907  27.570  34.284  1.00  0.00     0.020 A 
ATOM     88  C   UNL A   1      47.677  25.969  35.637  1.00  0.00     0.020 A 
ATOM     89  C   UNL A   1      48.877  26.587  35.278  1.00  0.00     0.054 A 
BRANCH  89  90
ATOM     90  S   UNL A   1      50.423  26.156  36.122  1.00  0.00     0.124 S 
ATOM     91  O   UNL A   1      50.699  27.367  36.889  1.00  0.00    -0.237 OA
ATOM     92  O   UNL A   1      50.040  24.986  36.909  1.00  0.00    -0.237 OA
ATOM     93  O   UNL A   1      51.353  25.886  35.027  1.00  0.00    -0.744 OA
ENDBRANCH  89  90
ENDBRANCH  63  84
ENDBRANCH  37  38
ENDBRANCH  29  32
ENDBRANCH  27  28
ENDBRANCH   1  27
TORSDOF 19
ENDMDL
