MODEL 1
REMARK VINA RESULT:      -9.8      0.000      0.000
REMARK SMILES CCC[N@H+]1CCC[C@H](CC(=O)NCCCNC(=O)c2ccc(-c3c4nc(c(-c5ccc(S(=O)(=O)[O-])cc5)c5ccc([nH]5)c(-c5ccc(S(=O)(=O)[O-])cc5)c5nc(c(-c6ccc(S(=O)(=O)[O-])cc6)c6ccc3[nH]6)C=C5)C=C4)cc2)C1
REMARK SMILES IDX 14 1 13 2 12 3 10 4 11 5 9 7 8 8 4 9 5 10 79 11 6 13 7 14
REMARK SMILES IDX 3 15 2 16 1 17 15 18 16 19 17 20 18 22 19 23 20 24 78 25
REMARK SMILES IDX 21 26 77 27 22 28 23 29 24 30 71 31 25 32 76 33 70 34 72 35
REMARK SMILES IDX 26 36 75 37 69 38 68 39 27 41 57 42 38 43 56 44 39 45 42 46
REMARK SMILES IDX 55 47 73 48 40 49 41 50 54 52 74 53 43 54 28 55 29 56 37 57
REMARK SMILES IDX 30 58 36 59 31 60 32 61 33 62 34 63 35 64 58 65 59 66 67 67
REMARK SMILES IDX 60 68 66 69 61 70 62 71 63 72 64 73 65 74 44 75 45 76 53 77
REMARK SMILES IDX 46 78 52 79 47 80 48 81 49 82 50 83 51 84
REMARK H PARENT 12 6 4 12 16 21 72 40 42 51
REMARK Flexibility Score: inf
ROOT
ATOM      1  C   UNL A   1      35.153  23.341  26.421  1.00  0.00     0.042 C 
ENDROOT
BRANCH   1   2
ATOM      2  C   UNL A   1      33.945  22.986  25.560  1.00  0.00     0.117 C 
BRANCH   2   3
ATOM      3  N   UNL A   1      32.739  22.919  26.366  1.00  0.00    -0.356 N 
ATOM      4  C   UNL A   1      31.723  23.817  26.496  1.00  0.00     0.220 C 
ATOM      5  O   UNL A   1      30.863  23.597  27.352  1.00  0.00    -0.275 OA
ATOM      6  H   UNL A   1      32.642  22.099  26.901  1.00  0.00     0.163 HD
BRANCH   4   7
ATOM      7  C   UNL A   1      31.632  25.035  25.594  1.00  0.00     0.109 C 
BRANCH   7   8
ATOM      8  C   UNL A   1      32.139  26.334  26.257  1.00  0.00     0.054 C 
ATOM      9  N   UNL A   1      31.550  27.930  24.386  1.00  0.00    -0.335 N 
ATOM     10  C   UNL A   1      32.987  28.108  24.078  1.00  0.00     0.262 C 
ATOM     11  C   UNL A   1      31.326  27.557  25.791  1.00  0.00     0.266 C 
ATOM     12  H   UNL A   1      31.164  27.154  23.847  1.00  0.00     0.348 HD
ATOM     13  C   UNL A   1      33.865  26.948  24.531  1.00  0.00     0.062 C 
ATOM     14  C   UNL A   1      33.610  26.652  26.000  1.00  0.00     0.016 C 
BRANCH   9  15
ATOM     15  C   UNL A   1      30.865  29.190  24.019  1.00  0.00     0.261 C 
BRANCH  15  16
ATOM     16  C   UNL A   1      29.561  29.101  23.211  1.00  0.00     0.058 C 
ATOM     17  C   UNL A   1      29.528  29.960  21.950  1.00  0.00     0.010 C 
ENDBRANCH  15  16
ENDBRANCH   9  15
ENDBRANCH   7   8
ENDBRANCH   4   7
ENDBRANCH   2   3
ENDBRANCH   1   2
BRANCH   1  18
ATOM     18  C   UNL A   1      36.369  23.781  25.629  1.00  0.00     0.118 C 
BRANCH  18  19
ATOM     19  N   UNL A   1      37.446  22.810  25.688  1.00  0.00    -0.352 N 
ATOM     20  C   UNL A   1      38.744  22.945  26.123  1.00  0.00     0.251 C 
ATOM     21  H   UNL A   1      37.210  21.911  25.365  1.00  0.00     0.163 HD
ATOM     22  O   UNL A   1      39.542  22.041  25.886  1.00  0.00    -0.269 OA
BRANCH  20  23
ATOM     23  C   UNL A   1      39.196  24.159  26.848  1.00  0.00     0.039 A 
ATOM     24  C   UNL A   1      39.992  25.089  26.169  1.00  0.00     0.014 A 
ATOM     25  C   UNL A   1      38.889  24.378  28.192  1.00  0.00     0.014 A 
ATOM     26  C   UNL A   1      40.429  26.246  26.821  1.00  0.00     0.010 A 
ATOM     27  C   UNL A   1      39.229  25.581  28.806  1.00  0.00     0.010 A 
ATOM     28  C   UNL A   1      40.026  26.520  28.137  1.00  0.00    -0.014 A 
BRANCH  28  29
ATOM     29  C   UNL A   1      40.459  27.755  28.844  1.00  0.00     0.031 A 
ATOM     30  C   UNL A   1      41.815  27.810  29.505  1.00  0.00     0.074 A 
ATOM     31  C   UNL A   1      39.618  28.804  28.944  1.00  0.00     0.049 A 
ATOM     32  N   UNL A   1      42.344  28.765  30.226  1.00  0.00    -0.248 NA
ATOM     33  C   UNL A   1      42.680  26.624  29.365  1.00  0.00     0.031 C 
ATOM     34  C   UNL A   1      38.261  28.861  28.395  1.00  0.00     0.029 A 
ATOM     35  N   UNL A   1      39.776  30.026  29.552  1.00  0.00    -0.354 N 
ATOM     36  C   UNL A   1      43.580  28.286  30.648  1.00  0.00     0.074 A 
ATOM     37  C   UNL A   1      43.707  26.938  30.142  1.00  0.00     0.031 C 
ATOM     38  C   UNL A   1      37.722  30.061  28.669  1.00  0.00     0.029 A 
ATOM     39  C   UNL A   1      38.674  30.844  29.448  1.00  0.00     0.049 A 
ATOM     40  H   UNL A   1      40.602  30.292  30.018  1.00  0.00     0.167 HD
ATOM     41  C   UNL A   1      44.533  28.917  31.371  1.00  0.00     0.031 A 
ATOM     42  C   UNL A   1      38.450  32.081  29.934  1.00  0.00     0.031 A 
ATOM     43  C   UNL A   1      44.425  30.274  31.835  1.00  0.00     0.049 A 
ATOM     44  C   UNL A   1      39.538  32.768  30.718  1.00  0.00     0.074 A 
ATOM     45  C   UNL A   1      45.372  31.030  32.503  1.00  0.00     0.029 A 
ATOM     46  N   UNL A   1      43.307  31.077  31.677  1.00  0.00    -0.354 N 
ATOM     47  N   UNL A   1      40.731  32.324  31.032  1.00  0.00    -0.248 NA
ATOM     48  C   UNL A   1      39.254  34.127  31.199  1.00  0.00     0.031 C 
ATOM     49  C   UNL A   1      44.807  32.274  32.796  1.00  0.00     0.029 A 
ATOM     50  C   UNL A   1      43.531  32.313  32.258  1.00  0.00     0.049 A 
ATOM     51  H   UNL A   1      42.477  30.810  31.219  1.00  0.00     0.167 HD
ATOM     52  C   UNL A   1      41.349  33.361  31.724  1.00  0.00     0.074 A 
ATOM     53  C   UNL A   1      40.406  34.458  31.765  1.00  0.00     0.031 C 
ATOM     54  C   UNL A   1      42.585  33.399  32.279  1.00  0.00     0.031 A 
BRANCH  41  55
ATOM     55  C   UNL A   1      45.791  28.157  31.706  1.00  0.00    -0.014 A 
ATOM     56  C   UNL A   1      45.859  27.326  32.839  1.00  0.00     0.010 A 
ATOM     57  C   UNL A   1      46.890  28.211  30.830  1.00  0.00     0.010 A 
ATOM     58  C   UNL A   1      47.010  26.577  33.099  1.00  0.00     0.020 A 
ATOM     59  C   UNL A   1      48.033  27.442  31.071  1.00  0.00     0.020 A 
ATOM     60  C   UNL A   1      48.088  26.637  32.210  1.00  0.00     0.054 A 
BRANCH  60  61
ATOM     61  S   UNL A   1      49.542  25.603  32.540  1.00  0.00     0.124 S 
ATOM     62  O   UNL A   1      49.005  24.615  33.471  1.00  0.00    -0.237 OA
ATOM     63  O   UNL A   1      49.881  25.097  31.213  1.00  0.00    -0.237 OA
ATOM     64  O   UNL A   1      50.509  26.537  33.113  1.00  0.00    -0.744 OA
ENDBRANCH  60  61
ENDBRANCH  41  55
BRANCH  42  65
ATOM     65  C   UNL A   1      37.141  32.754  29.705  1.00  0.00    -0.014 A 
ATOM     66  C   UNL A   1      36.882  33.435  28.502  1.00  0.00     0.010 A 
ATOM     67  C   UNL A   1      36.150  32.735  30.704  1.00  0.00     0.010 A 
ATOM     68  C   UNL A   1      35.674  34.115  28.318  1.00  0.00     0.020 A 
ATOM     69  C   UNL A   1      34.928  33.386  30.510  1.00  0.00     0.020 A 
ATOM     70  C   UNL A   1      34.706  34.090  29.326  1.00  0.00     0.054 A 
BRANCH  70  71
ATOM     71  S   UNL A   1      33.138  34.963  29.060  1.00  0.00     0.124 S 
ATOM     72  O   UNL A   1      32.539  34.920  30.390  1.00  0.00    -0.237 OA
ATOM     73  O   UNL A   1      33.581  36.278  28.605  1.00  0.00    -0.237 OA
ATOM     74  O   UNL A   1      32.466  34.156  28.044  1.00  0.00    -0.744 OA
ENDBRANCH  70  71
ENDBRANCH  42  65
BRANCH  54  75
ATOM     75  C   UNL A   1      43.009  34.680  32.944  1.00  0.00    -0.014 A 
ATOM     76  C   UNL A   1      42.768  34.907  34.310  1.00  0.00     0.010 A 
ATOM     77  C   UNL A   1      43.716  35.644  32.202  1.00  0.00     0.010 A 
ATOM     78  C   UNL A   1      43.200  36.091  34.914  1.00  0.00     0.020 A 
ATOM     79  C   UNL A   1      44.174  36.815  32.808  1.00  0.00     0.020 A 
ATOM     80  C   UNL A   1      43.900  37.037  34.159  1.00  0.00     0.054 A 
BRANCH  80  81
ATOM     81  S   UNL A   1      44.490  38.544  34.979  1.00  0.00     0.124 S 
ATOM     82  O   UNL A   1      45.892  38.581  34.571  1.00  0.00    -0.237 OA
ATOM     83  O   UNL A   1      43.640  39.579  34.397  1.00  0.00    -0.237 OA
ATOM     84  O   UNL A   1      44.259  38.280  36.397  1.00  0.00    -0.744 OA
ENDBRANCH  80  81
ENDBRANCH  54  75
ENDBRANCH  28  29
ENDBRANCH  20  23
ENDBRANCH  18  19
ENDBRANCH   1  18
TORSDOF 16
ENDMDL
MODEL 2
REMARK VINA RESULT:      -9.8      3.283      6.155
REMARK SMILES CCC[N@H+]1CCC[C@H](CC(=O)NCCCNC(=O)c2ccc(-c3c4nc(c(-c5ccc(S(=O)(=O)[O-])cc5)c5ccc([nH]5)c(-c5ccc(S(=O)(=O)[O-])cc5)c5nc(c(-c6ccc(S(=O)(=O)[O-])cc6)c6ccc3[nH]6)C=C5)C=C4)cc2)C1
REMARK SMILES IDX 14 1 13 2 12 3 10 4 11 5 9 7 8 8 4 9 5 10 79 11 6 13 7 14
REMARK SMILES IDX 3 15 2 16 1 17 15 18 16 19 17 20 18 22 19 23 20 24 78 25
REMARK SMILES IDX 21 26 77 27 22 28 23 29 24 30 71 31 25 32 76 33 70 34 72 35
REMARK SMILES IDX 26 36 75 37 69 38 68 39 27 41 57 42 38 43 56 44 39 45 42 46
REMARK SMILES IDX 55 47 73 48 40 49 41 50 54 52 74 53 43 54 28 55 29 56 37 57
REMARK SMILES IDX 30 58 36 59 31 60 32 61 33 62 34 63 35 64 58 65 59 66 67 67
REMARK SMILES IDX 60 68 66 69 61 70 62 71 63 72 64 73 65 74 44 75 45 76 53 77
REMARK SMILES IDX 46 78 52 79 47 80 48 81 49 82 50 83 51 84
REMARK H PARENT 12 6 4 12 16 21 72 40 42 51
REMARK Flexibility Score: inf
ROOT
ATOM      1  C   UNL A   1      40.998  20.106  26.432  1.00  0.00     0.042 C 
ENDROOT
BRANCH   1   2
ATOM      2  C   UNL A   1      42.436  19.812  26.850  1.00  0.00     0.117 C 
BRANCH   2   3
ATOM      3  N   UNL A   1      43.160  19.154  25.778  1.00  0.00    -0.356 N 
ATOM      4  C   UNL A   1      44.207  19.598  25.027  1.00  0.00     0.220 C 
ATOM      5  O   UNL A   1      44.571  18.905  24.074  1.00  0.00    -0.275 OA
ATOM      6  H   UNL A   1      42.846  18.246  25.560  1.00  0.00     0.163 HD
BRANCH   4   7
ATOM      7  C   UNL A   1      44.925  20.891  25.370  1.00  0.00     0.109 C 
BRANCH   7   8
ATOM      8  C   UNL A   1      44.645  22.037  24.373  1.00  0.00     0.054 C 
ATOM      9  N   UNL A   1      45.901  23.865  25.587  1.00  0.00    -0.335 N 
ATOM     10  C   UNL A   1      44.619  24.519  25.940  1.00  0.00     0.262 C 
ATOM     11  C   UNL A   1      45.794  23.062  24.359  1.00  0.00     0.266 C 
ATOM     12  H   UNL A   1      46.171  23.198  26.311  1.00  0.00     0.348 HD
ATOM     13  C   UNL A   1      43.425  23.573  25.951  1.00  0.00     0.062 C 
ATOM     14  C   UNL A   1      43.356  22.814  24.637  1.00  0.00     0.016 C 
BRANCH   9  15
ATOM     15  C   UNL A   1      46.920  24.933  25.479  1.00  0.00     0.261 C 
BRANCH  15  16
ATOM     16  C   UNL A   1      47.970  25.054  26.595  1.00  0.00     0.058 C 
ATOM     17  C   UNL A   1      47.412  24.964  28.012  1.00  0.00     0.010 C 
ENDBRANCH  15  16
ENDBRANCH   9  15
ENDBRANCH   7   8
ENDBRANCH   4   7
ENDBRANCH   2   3
ENDBRANCH   1   2
BRANCH   1  18
ATOM     18  C   UNL A   1      40.521  21.498  26.794  1.00  0.00     0.118 C 
BRANCH  18  19
ATOM     19  N   UNL A   1      39.400  21.927  25.977  1.00  0.00    -0.352 N 
ATOM     20  C   UNL A   1      38.712  23.118  25.963  1.00  0.00     0.251 C 
ATOM     21  H   UNL A   1      39.081  21.258  25.329  1.00  0.00     0.163 HD
ATOM     22  O   UNL A   1      37.661  23.184  25.330  1.00  0.00    -0.269 OA
BRANCH  20  23
ATOM     23  C   UNL A   1      39.202  24.305  26.709  1.00  0.00     0.039 A 
ATOM     24  C   UNL A   1      40.030  25.218  26.047  1.00  0.00     0.014 A 
ATOM     25  C   UNL A   1      38.901  24.510  28.056  1.00  0.00     0.014 A 
ATOM     26  C   UNL A   1      40.504  26.350  26.718  1.00  0.00     0.010 A 
ATOM     27  C   UNL A   1      39.280  25.691  28.690  1.00  0.00     0.010 A 
ATOM     28  C   UNL A   1      40.108  26.614  28.038  1.00  0.00    -0.014 A 
BRANCH  28  29
ATOM     29  C   UNL A   1      40.580  27.822  28.767  1.00  0.00     0.031 A 
ATOM     30  C   UNL A   1      41.953  27.836  29.394  1.00  0.00     0.074 A 
ATOM     31  C   UNL A   1      39.761  28.883  28.916  1.00  0.00     0.049 A 
ATOM     32  N   UNL A   1      42.517  28.762  30.127  1.00  0.00    -0.248 NA
ATOM     33  C   UNL A   1      42.793  26.640  29.201  1.00  0.00     0.031 C 
ATOM     34  C   UNL A   1      38.391  28.977  28.403  1.00  0.00     0.029 A 
ATOM     35  N   UNL A   1      39.955  30.085  29.552  1.00  0.00    -0.354 N 
ATOM     36  C   UNL A   1      43.754  28.251  30.504  1.00  0.00     0.074 A 
ATOM     37  C   UNL A   1      43.845  26.915  29.960  1.00  0.00     0.031 C 
ATOM     38  C   UNL A   1      37.881  30.179  28.722  1.00  0.00     0.029 A 
ATOM     39  C   UNL A   1      38.866  30.925  29.497  1.00  0.00     0.049 A 
ATOM     40  H   UNL A   1      40.797  30.324  30.004  1.00  0.00     0.167 HD
ATOM     41  C   UNL A   1      44.736  28.847  31.220  1.00  0.00     0.031 A 
ATOM     42  C   UNL A   1      38.676  32.151  30.022  1.00  0.00     0.031 A 
ATOM     43  C   UNL A   1      44.663  30.191  31.721  1.00  0.00     0.049 A 
ATOM     44  C   UNL A   1      39.795  32.798  30.795  1.00  0.00     0.074 A 
ATOM     45  C   UNL A   1      45.640  30.914  32.386  1.00  0.00     0.029 A 
ATOM     46  N   UNL A   1      43.557  31.018  31.614  1.00  0.00    -0.354 N 
ATOM     47  N   UNL A   1      40.988  32.326  31.067  1.00  0.00    -0.248 NA
ATOM     48  C   UNL A   1      39.548  34.148  31.320  1.00  0.00     0.031 C 
ATOM     49  C   UNL A   1      45.105  32.159  32.725  1.00  0.00     0.029 A 
ATOM     50  C   UNL A   1      43.817  32.234  32.221  1.00  0.00     0.049 A 
ATOM     51  H   UNL A   1      42.711  30.777  31.170  1.00  0.00     0.167 HD
ATOM     52  C   UNL A   1      41.641  33.332  31.771  1.00  0.00     0.074 A 
ATOM     53  C   UNL A   1      40.719  34.444  31.865  1.00  0.00     0.031 C 
ATOM     54  C   UNL A   1      42.891  33.334  32.296  1.00  0.00     0.031 A 
BRANCH  41  55
ATOM     55  C   UNL A   1      45.988  28.056  31.503  1.00  0.00    -0.014 A 
ATOM     56  C   UNL A   1      46.062  27.178  32.598  1.00  0.00     0.010 A 
ATOM     57  C   UNL A   1      47.074  28.132  30.611  1.00  0.00     0.010 A 
ATOM     58  C   UNL A   1      47.206  26.403  32.808  1.00  0.00     0.020 A 
ATOM     59  C   UNL A   1      48.209  27.339  30.802  1.00  0.00     0.020 A 
ATOM     60  C   UNL A   1      48.271  26.485  31.905  1.00  0.00     0.054 A 
BRANCH  60  61
ATOM     61  S   UNL A   1      49.715  25.420  32.169  1.00  0.00     0.124 S 
ATOM     62  O   UNL A   1      50.694  26.363  32.700  1.00  0.00    -0.237 OA
ATOM     63  O   UNL A   1      49.214  24.432  33.120  1.00  0.00    -0.237 OA
ATOM     64  O   UNL A   1      50.012  24.901  30.835  1.00  0.00    -0.744 OA
ENDBRANCH  60  61
ENDBRANCH  41  55
BRANCH  42  65
ATOM     65  C   UNL A   1      37.374  32.852  29.844  1.00  0.00    -0.014 A 
ATOM     66  C   UNL A   1      36.370  32.768  30.825  1.00  0.00     0.010 A 
ATOM     67  C   UNL A   1      37.122  33.593  28.674  1.00  0.00     0.010 A 
ATOM     68  C   UNL A   1      35.128  33.379  30.624  1.00  0.00     0.020 A 
ATOM     69  C   UNL A   1      35.893  34.233  28.484  1.00  0.00     0.020 A 
ATOM     70  C   UNL A   1      34.896  34.104  29.452  1.00  0.00     0.054 A 
BRANCH  70  71
ATOM     71  S   UNL A   1      33.285  34.904  29.218  1.00  0.00     0.124 S 
ATOM     72  O   UNL A   1      33.670  36.209  28.690  1.00  0.00    -0.237 OA
ATOM     73  O   UNL A   1      32.620  34.009  28.275  1.00  0.00    -0.237 OA
ATOM     74  O   UNL A   1      32.712  34.916  30.563  1.00  0.00    -0.744 OA
ENDBRANCH  70  71
ENDBRANCH  42  65
BRANCH  54  75
ATOM     75  C   UNL A   1      43.354  34.590  32.983  1.00  0.00    -0.014 A 
ATOM     76  C   UNL A   1      43.958  35.635  32.263  1.00  0.00     0.010 A 
ATOM     77  C   UNL A   1      43.122  34.749  34.362  1.00  0.00     0.010 A 
ATOM     78  C   UNL A   1      44.351  36.806  32.917  1.00  0.00     0.020 A 
ATOM     79  C   UNL A   1      43.486  35.929  35.013  1.00  0.00     0.020 A 
ATOM     80  C   UNL A   1      44.112  36.945  34.288  1.00  0.00     0.054 A 
BRANCH  80  81
ATOM     81  S   UNL A   1      44.589  38.493  35.104  1.00  0.00     0.124 S 
ATOM     82  O   UNL A   1      46.029  38.530  34.865  1.00  0.00    -0.237 OA
ATOM     83  O   UNL A   1      43.807  39.492  34.380  1.00  0.00    -0.237 OA
ATOM     84  O   UNL A   1      44.193  38.288  36.496  1.00  0.00    -0.744 OA
ENDBRANCH  80  81
ENDBRANCH  54  75
ENDBRANCH  28  29
ENDBRANCH  20  23
ENDBRANCH  18  19
ENDBRANCH   1  18
TORSDOF 16
ENDMDL
MODEL 3
REMARK VINA RESULT:      -9.7      3.812      4.967
REMARK SMILES CCC[N@H+]1CCC[C@H](CC(=O)NCCCNC(=O)c2ccc(-c3c4nc(c(-c5ccc(S(=O)(=O)[O-])cc5)c5ccc([nH]5)c(-c5ccc(S(=O)(=O)[O-])cc5)c5nc(c(-c6ccc(S(=O)(=O)[O-])cc6)c6ccc3[nH]6)C=C5)C=C4)cc2)C1
REMARK SMILES IDX 14 1 13 2 12 3 10 4 11 5 9 7 8 8 4 9 5 10 79 11 6 13 7 14
REMARK SMILES IDX 3 15 2 16 1 17 15 18 16 19 17 20 18 22 19 23 20 24 78 25
REMARK SMILES IDX 21 26 77 27 22 28 23 29 24 30 71 31 25 32 76 33 70 34 72 35
REMARK SMILES IDX 26 36 75 37 69 38 68 39 27 41 57 42 38 43 56 44 39 45 42 46
REMARK SMILES IDX 55 47 73 48 40 49 41 50 54 52 74 53 43 54 28 55 29 56 37 57
REMARK SMILES IDX 30 58 36 59 31 60 32 61 33 62 34 63 35 64 58 65 59 66 67 67
REMARK SMILES IDX 60 68 66 69 61 70 62 71 63 72 64 73 65 74 44 75 45 76 53 77
REMARK SMILES IDX 46 78 52 79 47 80 48 81 49 82 50 83 51 84
REMARK H PARENT 12 6 4 12 16 21 72 40 42 51
REMARK Flexibility Score: inf
ROOT
ATOM      1  C   UNL A   1      39.106  22.526  26.509  1.00  0.00     0.042 C 
ENDROOT
BRANCH   1   2
ATOM      2  C   UNL A   1      37.991  23.468  26.069  1.00  0.00     0.117 C 
BRANCH   2   3
ATOM      3  N   UNL A   1      37.745  23.346  24.643  1.00  0.00    -0.356 N 
ATOM      4  C   UNL A   1      36.576  23.153  23.970  1.00  0.00     0.220 C 
ATOM      5  O   UNL A   1      36.634  22.944  22.757  1.00  0.00    -0.275 OA
ATOM      6  H   UNL A   1      38.546  23.412  24.075  1.00  0.00     0.163 HD
BRANCH   4   7
ATOM      7  C   UNL A   1      35.238  23.224  24.685  1.00  0.00     0.109 C 
BRANCH   7   8
ATOM      8  C   UNL A   1      34.992  22.049  25.655  1.00  0.00     0.054 C 
ATOM      9  N   UNL A   1      33.087  20.958  24.399  1.00  0.00    -0.335 N 
ATOM     10  C   UNL A   1      32.140  21.384  25.454  1.00  0.00     0.262 C 
ATOM     11  C   UNL A   1      34.458  20.810  24.911  1.00  0.00     0.266 C 
ATOM     12  H   UNL A   1      33.156  21.673  23.674  1.00  0.00     0.348 HD
ATOM     13  C   UNL A   1      32.608  22.593  26.255  1.00  0.00     0.062 C 
ATOM     14  C   UNL A   1      34.010  22.347  26.787  1.00  0.00     0.016 C 
BRANCH   9  15
ATOM     15  C   UNL A   1      32.560  19.702  23.821  1.00  0.00     0.261 C 
BRANCH  15  16
ATOM     16  C   UNL A   1      33.226  18.377  24.225  1.00  0.00     0.058 C 
ATOM     17  C   UNL A   1      32.538  17.636  25.366  1.00  0.00     0.010 C 
ENDBRANCH  15  16
ENDBRANCH   9  15
ENDBRANCH   7   8
ENDBRANCH   4   7
ENDBRANCH   2   3
ENDBRANCH   1   2
BRANCH   1  18
ATOM     18  C   UNL A   1      40.304  23.227  27.118  1.00  0.00     0.118 C 
BRANCH  18  19
ATOM     19  N   UNL A   1      41.131  23.877  26.116  1.00  0.00    -0.352 N 
ATOM     20  C   UNL A   1      41.545  25.184  26.015  1.00  0.00     0.251 C 
ATOM     21  H   UNL A   1      41.446  23.287  25.394  1.00  0.00     0.163 HD
ATOM     22  O   UNL A   1      42.069  25.558  24.968  1.00  0.00    -0.269 OA
BRANCH  20  23
ATOM     23  C   UNL A   1      41.353  26.146  27.129  1.00  0.00     0.039 A 
ATOM     24  C   UNL A   1      40.347  25.893  28.068  1.00  0.00     0.014 A 
ATOM     25  C   UNL A   1      42.111  27.313  27.241  1.00  0.00     0.014 A 
ATOM     26  C   UNL A   1      40.143  26.776  29.134  1.00  0.00     0.010 A 
ATOM     27  C   UNL A   1      41.984  28.131  28.361  1.00  0.00     0.010 A 
ATOM     28  C   UNL A   1      40.981  27.888  29.309  1.00  0.00    -0.014 A 
BRANCH  28  29
ATOM     29  C   UNL A   1      40.799  28.830  30.446  1.00  0.00     0.031 A 
ATOM     30  C   UNL A   1      41.648  28.689  31.686  1.00  0.00     0.074 A 
ATOM     31  C   UNL A   1      39.836  29.773  30.393  1.00  0.00     0.049 A 
ATOM     32  N   UNL A   1      41.593  29.363  32.805  1.00  0.00    -0.248 NA
ATOM     33  C   UNL A   1      42.674  27.631  31.681  1.00  0.00     0.031 C 
ATOM     34  C   UNL A   1      38.913  29.982  29.274  1.00  0.00     0.029 A 
ATOM     35  N   UNL A   1      39.466  30.730  31.306  1.00  0.00    -0.354 N 
ATOM     36  C   UNL A   1      42.548  28.794  33.642  1.00  0.00     0.074 A 
ATOM     37  C   UNL A   1      43.139  27.690  32.921  1.00  0.00     0.031 C 
ATOM     38  C   UNL A   1      38.102  31.016  29.558  1.00  0.00     0.029 A 
ATOM     39  C   UNL A   1      38.416  31.517  30.891  1.00  0.00     0.049 A 
ATOM     40  H   UNL A   1      39.911  30.842  32.177  1.00  0.00     0.167 HD
ATOM     41  C   UNL A   1      42.916  29.170  34.888  1.00  0.00     0.031 A 
ATOM     42  C   UNL A   1      37.771  32.521  31.517  1.00  0.00     0.031 A 
ATOM     43  C   UNL A   1      42.360  30.297  35.586  1.00  0.00     0.049 A 
ATOM     44  C   UNL A   1      38.217  32.931  32.895  1.00  0.00     0.074 A 
ATOM     45  C   UNL A   1      42.726  30.808  36.820  1.00  0.00     0.029 A 
ATOM     46  N   UNL A   1      41.324  31.087  35.116  1.00  0.00    -0.354 N 
ATOM     47  N   UNL A   1      39.179  32.431  33.632  1.00  0.00    -0.248 NA
ATOM     48  C   UNL A   1      37.500  34.051  33.521  1.00  0.00     0.031 C 
ATOM     49  C   UNL A   1      41.877  31.877  37.117  1.00  0.00     0.029 A 
ATOM     50  C   UNL A   1      41.021  32.067  36.044  1.00  0.00     0.049 A 
ATOM     51  H   UNL A   1      40.872  30.970  34.249  1.00  0.00     0.167 HD
ATOM     52  C   UNL A   1      39.200  33.193  34.796  1.00  0.00     0.074 A 
ATOM     53  C   UNL A   1      38.168  34.199  34.656  1.00  0.00     0.031 C 
ATOM     54  C   UNL A   1      39.999  33.068  35.884  1.00  0.00     0.031 A 
BRANCH  41  55
ATOM     55  C   UNL A   1      43.981  28.365  35.587  1.00  0.00    -0.014 A 
ATOM     56  C   UNL A   1      43.648  27.258  36.389  1.00  0.00     0.010 A 
ATOM     57  C   UNL A   1      45.338  28.670  35.372  1.00  0.00     0.010 A 
ATOM     58  C   UNL A   1      44.651  26.482  36.976  1.00  0.00     0.020 A 
ATOM     59  C   UNL A   1      46.345  27.880  35.935  1.00  0.00     0.020 A 
ATOM     60  C   UNL A   1      45.994  26.796  36.741  1.00  0.00     0.054 A 
BRANCH  60  61
ATOM     61  S   UNL A   1      47.273  25.732  37.464  1.00  0.00     0.124 S 
ATOM     62  O   UNL A   1      48.330  25.804  36.460  1.00  0.00    -0.237 OA
ATOM     63  O   UNL A   1      47.563  26.398  38.731  1.00  0.00    -0.237 OA
ATOM     64  O   UNL A   1      46.616  24.432  37.585  1.00  0.00    -0.744 OA
ENDBRANCH  60  61
ENDBRANCH  41  55
BRANCH  42  65
ATOM     65  C   UNL A   1      36.627  33.208  30.854  1.00  0.00    -0.014 A 
ATOM     66  C   UNL A   1      36.799  33.874  29.627  1.00  0.00     0.010 A 
ATOM     67  C   UNL A   1      35.358  33.219  31.463  1.00  0.00     0.010 A 
ATOM     68  C   UNL A   1      35.736  34.568  29.041  1.00  0.00     0.020 A 
ATOM     69  C   UNL A   1      34.284  33.884  30.863  1.00  0.00     0.020 A 
ATOM     70  C   UNL A   1      34.485  34.572  29.665  1.00  0.00     0.054 A 
BRANCH  70  71
ATOM     71  S   UNL A   1      33.114  35.462  28.880  1.00  0.00     0.124 S 
ATOM     72  O   UNL A   1      33.815  36.512  28.147  1.00  0.00    -0.237 OA
ATOM     73  O   UNL A   1      32.490  34.426  28.062  1.00  0.00    -0.237 OA
ATOM     74  O   UNL A   1      32.310  35.918  30.012  1.00  0.00    -0.744 OA
ENDBRANCH  70  71
ENDBRANCH  42  65
BRANCH  54  75
ATOM     75  C   UNL A   1      39.820  34.068  36.995  1.00  0.00    -0.014 A 
ATOM     76  C   UNL A   1      40.358  35.363  36.904  1.00  0.00     0.010 A 
ATOM     77  C   UNL A   1      39.047  33.722  38.118  1.00  0.00     0.010 A 
ATOM     78  C   UNL A   1      40.153  36.285  37.933  1.00  0.00     0.020 A 
ATOM     79  C   UNL A   1      38.815  34.650  39.135  1.00  0.00     0.020 A 
ATOM     80  C   UNL A   1      39.382  35.922  39.042  1.00  0.00     0.054 A 
BRANCH  80  81
ATOM     81  S   UNL A   1      39.091  37.153  40.342  1.00  0.00     0.124 S 
ATOM     82  O   UNL A   1      40.442  37.389  40.843  1.00  0.00    -0.237 OA
ATOM     83  O   UNL A   1      38.492  38.262  39.606  1.00  0.00    -0.237 OA
ATOM     84  O   UNL A   1      38.192  36.471  41.271  1.00  0.00    -0.744 OA
ENDBRANCH  80  81
ENDBRANCH  54  75
ENDBRANCH  28  29
ENDBRANCH  20  23
ENDBRANCH  18  19
ENDBRANCH   1  18
TORSDOF 16
ENDMDL
