MODEL 1
REMARK VINA RESULT:     -11.2      0.000      0.000
REMARK SMILES O=C(NCCCNC(=O)[C@@H]1CS[C@H](c2ncc(-c3ccccc3)s2)[NH2+]1)c1ccc(-c2c3nc(c(-c4ccc(S(=O)(=O)[O-])cc4)c4ccc([nH]4)c(-c4ccc(S(=O)(=O)[O-])cc4)c4nc(c(-c5ccc(S(=O)(=O)[O-])cc5)c5ccc2[nH]5)C=C4)C=C3)cc1
REMARK SMILES IDX 4 1 3 2 1 3 2 4 26 6 27 7 85 8 28 9 84 10 29 11 30 12 31 13
REMARK SMILES IDX 78 14 32 15 83 16 77 17 79 18 33 19 82 20 76 21 75 22 34 24
REMARK SMILES IDX 64 25 45 26 63 27 46 28 49 29 62 30 80 31 47 32 48 33 61 35
REMARK SMILES IDX 81 36 50 37 35 38 36 39 44 40 37 41 43 42 38 43 39 44 40 45
REMARK SMILES IDX 41 46 42 47 65 48 66 49 74 50 67 51 73 52 68 53 69 54 70 55
REMARK SMILES IDX 71 56 72 57 51 58 52 59 60 60 53 61 59 62 54 63 55 64 56 65
REMARK SMILES IDX 57 66 58 67 5 68 6 69 7 70 8 71 9 73 10 74 11 75 25 76 12 77
REMARK SMILES IDX 13 78 14 81 15 82 24 83 16 84 17 85 18 86 19 87 23 88 20 89
REMARK SMILES IDX 22 90 21 91
REMARK H PARENT 3 5 79 23 49 34 7 72 25 79 25 80
REMARK Flexibility Score: inf
ROOT
ATOM      1  C   UNL A   1      33.631  28.420  27.260  1.00  0.00     0.118 C 
ENDROOT
BRANCH   1   2
ATOM      2  N   UNL A   1      33.566  29.845  27.551  1.00  0.00    -0.352 N 
ATOM      3  O   UNL A   1      34.169  31.785  28.517  1.00  0.00    -0.269 OA
ATOM      4  C   UNL A   1      34.494  30.655  28.156  1.00  0.00     0.251 C 
ATOM      5  H   UNL A   1      32.735  30.293  27.272  1.00  0.00     0.163 HD
BRANCH   4   6
ATOM      6  C   UNL A   1      35.869  30.168  28.377  1.00  0.00     0.039 A 
ATOM      7  C   UNL A   1      36.818  30.245  27.354  1.00  0.00     0.014 A 
ATOM      8  C   UNL A   1      36.230  29.670  29.632  1.00  0.00     0.014 A 
ATOM      9  C   UNL A   1      38.087  29.715  27.545  1.00  0.00     0.010 A 
ATOM     10  C   UNL A   1      37.536  29.222  29.852  1.00  0.00     0.010 A 
ATOM     11  C   UNL A   1      38.472  29.232  28.807  1.00  0.00    -0.014 A 
BRANCH  11  12
ATOM     12  C   UNL A   1      39.894  28.880  29.037  1.00  0.00     0.031 A 
ATOM     13  C   UNL A   1      40.454  27.550  28.624  1.00  0.00     0.074 A 
ATOM     14  C   UNL A   1      40.682  29.801  29.630  1.00  0.00     0.049 A 
ATOM     15  N   UNL A   1      41.677  27.102  28.756  1.00  0.00    -0.248 NA
ATOM     16  C   UNL A   1      39.533  26.594  27.987  1.00  0.00     0.031 C 
ATOM     17  C   UNL A   1      40.236  31.123  30.089  1.00  0.00     0.029 A 
ATOM     18  N   UNL A   1      42.016  29.780  29.942  1.00  0.00    -0.354 N 
ATOM     19  C   UNL A   1      41.671  25.811  28.243  1.00  0.00     0.074 A 
ATOM     20  C   UNL A   1      40.319  25.540  27.804  1.00  0.00     0.031 C 
ATOM     21  C   UNL A   1      41.283  31.795  30.585  1.00  0.00     0.029 A 
ATOM     22  C   UNL A   1      42.456  30.931  30.553  1.00  0.00     0.049 A 
ATOM     23  H   UNL A   1      42.604  29.015  29.748  1.00  0.00     0.167 HD
ATOM     24  C   UNL A   1      42.702  24.938  28.151  1.00  0.00     0.031 A 
ATOM     25  C   UNL A   1      43.658  31.250  31.065  1.00  0.00     0.031 A 
ATOM     26  C   UNL A   1      44.045  25.226  28.589  1.00  0.00     0.049 A 
ATOM     27  C   UNL A   1      44.767  30.242  30.981  1.00  0.00     0.074 A 
ATOM     28  C   UNL A   1      45.171  24.427  28.480  1.00  0.00     0.029 A 
ATOM     29  N   UNL A   1      44.443  26.391  29.228  1.00  0.00    -0.354 N 
ATOM     30  N   UNL A   1      44.758  29.056  30.422  1.00  0.00    -0.248 NA
ATOM     31  C   UNL A   1      46.047  30.613  31.599  1.00  0.00     0.031 C 
ATOM     32  C   UNL A   1      46.232  25.078  29.117  1.00  0.00     0.029 A 
ATOM     33  C   UNL A   1      45.785  26.311  29.563  1.00  0.00     0.049 A 
ATOM     34  H   UNL A   1      43.859  27.160  29.417  1.00  0.00     0.167 HD
ATOM     35  C   UNL A   1      46.033  28.542  30.614  1.00  0.00     0.074 A 
ATOM     36  C   UNL A   1      46.797  29.560  31.306  1.00  0.00     0.031 C 
ATOM     37  C   UNL A   1      46.527  27.331  30.258  1.00  0.00     0.031 A 
BRANCH  24  38
ATOM     38  C   UNL A   1      42.437  23.569  27.582  1.00  0.00    -0.014 A 
ATOM     39  C   UNL A   1      42.684  23.278  26.231  1.00  0.00     0.010 A 
ATOM     40  C   UNL A   1      42.050  22.527  28.447  1.00  0.00     0.010 A 
ATOM     41  C   UNL A   1      42.546  21.970  25.753  1.00  0.00     0.020 A 
ATOM     42  C   UNL A   1      41.933  21.215  27.979  1.00  0.00     0.020 A 
ATOM     43  C   UNL A   1      42.178  20.945  26.631  1.00  0.00     0.054 A 
BRANCH  43  44
ATOM     44  S   UNL A   1      42.082  19.248  25.997  1.00  0.00     0.124 S 
ATOM     45  O   UNL A   1      42.968  19.309  24.838  1.00  0.00    -0.237 OA
ATOM     46  O   UNL A   1      42.575  18.459  27.123  1.00  0.00    -0.237 OA
ATOM     47  O   UNL A   1      40.665  19.071  25.689  1.00  0.00    -0.744 OA
ENDBRANCH  43  44
ENDBRANCH  24  38
BRANCH  25  48
ATOM     48  C   UNL A   1      43.854  32.553  31.758  1.00  0.00    -0.014 A 
ATOM     49  C   UNL A   1      44.311  33.683  31.058  1.00  0.00     0.010 A 
ATOM     50  C   UNL A   1      43.597  32.660  33.138  1.00  0.00     0.010 A 
ATOM     51  C   UNL A   1      44.546  34.884  31.734  1.00  0.00     0.020 A 
ATOM     52  C   UNL A   1      43.794  33.869  33.809  1.00  0.00     0.020 A 
ATOM     53  C   UNL A   1      44.290  34.967  33.106  1.00  0.00     0.054 A 
BRANCH  53  54
ATOM     54  S   UNL A   1      44.595  36.535  33.964  1.00  0.00     0.124 S 
ATOM     55  O   UNL A   1      45.538  37.191  33.064  1.00  0.00    -0.237 OA
ATOM     56  O   UNL A   1      43.261  37.128  34.024  1.00  0.00    -0.237 OA
ATOM     57  O   UNL A   1      45.143  36.120  35.252  1.00  0.00    -0.744 OA
ENDBRANCH  53  54
ENDBRANCH  25  48
BRANCH  37  58
ATOM     58  C   UNL A   1      47.964  27.048  30.603  1.00  0.00    -0.014 A 
ATOM     59  C   UNL A   1      48.995  27.329  29.690  1.00  0.00     0.010 A 
ATOM     60  C   UNL A   1      48.290  26.536  31.872  1.00  0.00     0.010 A 
ATOM     61  C   UNL A   1      50.326  27.071  30.028  1.00  0.00     0.020 A 
ATOM     62  C   UNL A   1      49.621  26.307  32.225  1.00  0.00     0.020 A 
ATOM     63  C   UNL A   1      50.630  26.563  31.295  1.00  0.00     0.054 A 
BRANCH  63  64
ATOM     64  S   UNL A   1      52.370  26.282  31.724  1.00  0.00     0.124 S 
ATOM     65  O   UNL A   1      52.596  27.295  32.751  1.00  0.00    -0.237 OA
ATOM     66  O   UNL A   1      52.363  24.899  32.195  1.00  0.00    -0.237 OA
ATOM     67  O   UNL A   1      53.077  26.502  30.465  1.00  0.00    -0.744 OA
ENDBRANCH  63  64
ENDBRANCH  37  58
ENDBRANCH  11  12
ENDBRANCH   4   6
ENDBRANCH   1   2
BRANCH   1  68
ATOM     68  C   UNL A   1      33.773  28.139  25.766  1.00  0.00     0.042 C 
BRANCH  68  69
ATOM     69  C   UNL A   1      32.839  27.041  25.267  1.00  0.00     0.118 C 
BRANCH  69  70
ATOM     70  N   UNL A   1      31.981  27.539  24.209  1.00  0.00    -0.351 N 
ATOM     71  C   UNL A   1      30.871  26.979  23.650  1.00  0.00     0.279 C 
ATOM     72  H   UNL A   1      32.239  28.413  23.838  1.00  0.00     0.163 HD
ATOM     73  O   UNL A   1      30.537  27.391  22.537  1.00  0.00    -0.268 OA
BRANCH  71  74
ATOM     74  C   UNL A   1      30.075  25.908  24.416  1.00  0.00     0.284 C 
ATOM     75  C   UNL A   1      30.522  25.853  25.877  1.00  0.00     0.151 C 
ATOM     76  N   UNL A   1      30.219  24.588  23.718  1.00  0.00    -0.319 N 
ATOM     77  S   UNL A   1      30.483  24.096  26.264  1.00  0.00    -0.085 SA
ATOM     78  C   UNL A   1      30.999  23.670  24.574  1.00  0.00     0.303 C 
ATOM     79  H   UNL A   1      30.706  24.723  22.831  1.00  0.00     0.348 HD
ATOM     80  H   UNL A   1      29.298  24.192  23.539  1.00  0.00     0.348 HD
BRANCH  78  81
ATOM     81  C   UNL A   1      32.509  23.731  24.389  1.00  0.00     0.162 A 
ATOM     82  N   UNL A   1      33.127  24.125  23.286  1.00  0.00    -0.242 NA
ATOM     83  S   UNL A   1      33.577  23.363  25.701  1.00  0.00    -0.112 S 
ATOM     84  C   UNL A   1      34.488  23.918  23.409  1.00  0.00     0.132 A 
ATOM     85  C   UNL A   1      34.905  23.413  24.620  1.00  0.00     0.055 A 
BRANCH  85  86
ATOM     86  C   UNL A   1      36.215  22.944  25.044  1.00  0.00    -0.007 A 
ATOM     87  C   UNL A   1      36.619  21.640  24.723  1.00  0.00     0.009 A 
ATOM     88  C   UNL A   1      37.085  23.775  25.757  1.00  0.00     0.009 A 
ATOM     89  C   UNL A   1      37.871  21.169  25.120  1.00  0.00     0.001 A 
ATOM     90  C   UNL A   1      38.336  23.300  26.159  1.00  0.00     0.001 A 
ATOM     91  C   UNL A   1      38.727  21.998  25.842  1.00  0.00     0.000 A 
ENDBRANCH  85  86
ENDBRANCH  78  81
ENDBRANCH  71  74
ENDBRANCH  69  70
ENDBRANCH  68  69
ENDBRANCH   1  68
TORSDOF 15
ENDMDL
MODEL 2
REMARK VINA RESULT:     -11.1      1.794      2.381
REMARK SMILES O=C(NCCCNC(=O)[C@@H]1CS[C@H](c2ncc(-c3ccccc3)s2)[NH2+]1)c1ccc(-c2c3nc(c(-c4ccc(S(=O)(=O)[O-])cc4)c4ccc([nH]4)c(-c4ccc(S(=O)(=O)[O-])cc4)c4nc(c(-c5ccc(S(=O)(=O)[O-])cc5)c5ccc2[nH]5)C=C4)C=C3)cc1
REMARK SMILES IDX 4 1 3 2 1 3 2 4 26 6 27 7 85 8 28 9 84 10 29 11 30 12 31 13
REMARK SMILES IDX 78 14 32 15 83 16 77 17 79 18 33 19 82 20 76 21 75 22 34 24
REMARK SMILES IDX 64 25 45 26 63 27 46 28 49 29 62 30 80 31 47 32 48 33 61 35
REMARK SMILES IDX 81 36 50 37 35 38 36 39 44 40 37 41 43 42 38 43 39 44 40 45
REMARK SMILES IDX 41 46 42 47 65 48 66 49 74 50 67 51 73 52 68 53 69 54 70 55
REMARK SMILES IDX 71 56 72 57 51 58 52 59 60 60 53 61 59 62 54 63 55 64 56 65
REMARK SMILES IDX 57 66 58 67 5 68 6 69 7 70 8 71 9 73 10 74 11 75 25 76 12 77
REMARK SMILES IDX 13 78 14 81 15 82 24 83 16 84 17 85 18 86 19 87 23 88 20 89
REMARK SMILES IDX 22 90 21 91
REMARK H PARENT 3 5 79 23 49 34 7 72 25 79 25 80
REMARK Flexibility Score: inf
ROOT
ATOM      1  C   UNL A   1      33.711  28.566  27.242  1.00  0.00     0.118 C 
ENDROOT
BRANCH   1   2
ATOM      2  N   UNL A   1      33.642  29.969  27.626  1.00  0.00    -0.352 N 
ATOM      3  O   UNL A   1      34.236  31.841  28.723  1.00  0.00    -0.269 OA
ATOM      4  C   UNL A   1      34.564  30.739  28.290  1.00  0.00     0.251 C 
ATOM      5  H   UNL A   1      32.812  30.434  27.372  1.00  0.00     0.163 HD
BRANCH   4   6
ATOM      6  C   UNL A   1      35.939  30.239  28.487  1.00  0.00     0.039 A 
ATOM      7  C   UNL A   1      36.893  30.381  27.476  1.00  0.00     0.014 A 
ATOM      8  C   UNL A   1      36.293  29.662  29.710  1.00  0.00     0.014 A 
ATOM      9  C   UNL A   1      38.162  29.841  27.640  1.00  0.00     0.010 A 
ATOM     10  C   UNL A   1      37.599  29.202  29.908  1.00  0.00     0.010 A 
ATOM     11  C   UNL A   1      38.540  29.280  28.871  1.00  0.00    -0.014 A 
BRANCH  11  12
ATOM     12  C   UNL A   1      39.962  28.914  29.087  1.00  0.00     0.031 A 
ATOM     13  C   UNL A   1      40.505  27.580  28.665  1.00  0.00     0.074 A 
ATOM     14  C   UNL A   1      40.763  29.827  29.674  1.00  0.00     0.049 A 
ATOM     15  N   UNL A   1      41.726  27.122  28.785  1.00  0.00    -0.248 NA
ATOM     16  C   UNL A   1      39.570  26.634  28.036  1.00  0.00     0.031 C 
ATOM     17  C   UNL A   1      40.334  31.152  30.139  1.00  0.00     0.029 A 
ATOM     18  N   UNL A   1      42.100  29.794  29.972  1.00  0.00    -0.354 N 
ATOM     19  C   UNL A   1      41.703  25.831  28.269  1.00  0.00     0.074 A 
ATOM     20  C   UNL A   1      40.345  25.573  27.843  1.00  0.00     0.031 C 
ATOM     21  C   UNL A   1      41.392  31.814  30.626  1.00  0.00     0.029 A 
ATOM     22  C   UNL A   1      42.556  30.940  30.580  1.00  0.00     0.049 A 
ATOM     23  H   UNL A   1      42.680  29.024  29.771  1.00  0.00     0.167 HD
ATOM     24  C   UNL A   1      42.726  24.949  28.166  1.00  0.00     0.031 A 
ATOM     25  C   UNL A   1      43.766  31.247  31.082  1.00  0.00     0.031 A 
ATOM     26  C   UNL A   1      44.075  25.224  28.590  1.00  0.00     0.049 A 
ATOM     27  C   UNL A   1      44.866  30.230  30.985  1.00  0.00     0.074 A 
ATOM     28  C   UNL A   1      45.194  24.416  28.469  1.00  0.00     0.029 A 
ATOM     29  N   UNL A   1      44.490  26.384  29.228  1.00  0.00    -0.354 N 
ATOM     30  N   UNL A   1      44.841  29.045  30.424  1.00  0.00    -0.248 NA
ATOM     31  C   UNL A   1      46.155  30.588  31.590  1.00  0.00     0.031 C 
ATOM     32  C   UNL A   1      46.266  25.056  29.097  1.00  0.00     0.029 A 
ATOM     33  C   UNL A   1      45.835  26.292  29.549  1.00  0.00     0.049 A 
ATOM     34  H   UNL A   1      43.915  27.158  29.424  1.00  0.00     0.167 HD
ATOM     35  C   UNL A   1      46.113  28.519  30.602  1.00  0.00     0.074 A 
ATOM     36  C   UNL A   1      46.893  29.529  31.288  1.00  0.00     0.031 C 
ATOM     37  C   UNL A   1      46.592  27.304  30.239  1.00  0.00     0.031 A 
BRANCH  24  38
ATOM     38  C   UNL A   1      42.442  23.584  27.597  1.00  0.00    -0.014 A 
ATOM     39  C   UNL A   1      42.655  23.299  26.238  1.00  0.00     0.010 A 
ATOM     40  C   UNL A   1      42.075  22.538  28.467  1.00  0.00     0.010 A 
ATOM     41  C   UNL A   1      42.502  21.994  25.757  1.00  0.00     0.020 A 
ATOM     42  C   UNL A   1      41.943  21.229  27.995  1.00  0.00     0.020 A 
ATOM     43  C   UNL A   1      42.153  20.966  26.639  1.00  0.00     0.054 A 
BRANCH  43  44
ATOM     44  S   UNL A   1      42.037  19.272  26.000  1.00  0.00     0.124 S 
ATOM     45  O   UNL A   1      42.560  18.491  27.117  1.00  0.00    -0.237 OA
ATOM     46  O   UNL A   1      40.605  19.124  25.748  1.00  0.00    -0.237 OA
ATOM     47  O   UNL A   1      42.877  19.291  24.806  1.00  0.00    -0.744 OA
ENDBRANCH  43  44
ENDBRANCH  24  38
BRANCH  25  48
ATOM     48  C   UNL A   1      43.980  32.547  31.775  1.00  0.00    -0.014 A 
ATOM     49  C   UNL A   1      44.499  33.658  31.086  1.00  0.00     0.010 A 
ATOM     50  C   UNL A   1      43.679  32.671  33.145  1.00  0.00     0.010 A 
ATOM     51  C   UNL A   1      44.749  34.854  31.765  1.00  0.00     0.020 A 
ATOM     52  C   UNL A   1      43.892  33.876  33.816  1.00  0.00     0.020 A 
ATOM     53  C   UNL A   1      44.448  34.953  33.127  1.00  0.00     0.054 A 
BRANCH  53  54
ATOM     54  S   UNL A   1      44.774  36.515  33.987  1.00  0.00     0.124 S 
ATOM     55  O   UNL A   1      45.029  36.060  35.349  1.00  0.00    -0.237 OA
ATOM     56  O   UNL A   1      45.933  37.038  33.266  1.00  0.00    -0.237 OA
ATOM     57  O   UNL A   1      43.540  37.274  33.800  1.00  0.00    -0.744 OA
ENDBRANCH  53  54
ENDBRANCH  25  48
BRANCH  37  58
ATOM     58  C   UNL A   1      48.031  27.008  30.569  1.00  0.00    -0.014 A 
ATOM     59  C   UNL A   1      49.063  27.362  29.683  1.00  0.00     0.010 A 
ATOM     60  C   UNL A   1      48.355  26.408  31.800  1.00  0.00     0.010 A 
ATOM     61  C   UNL A   1      50.394  27.090  30.008  1.00  0.00     0.020 A 
ATOM     62  C   UNL A   1      49.687  26.164  32.141  1.00  0.00     0.020 A 
ATOM     63  C   UNL A   1      50.697  26.495  31.236  1.00  0.00     0.054 A 
BRANCH  63  64
ATOM     64  S   UNL A   1      52.437  26.196  31.652  1.00  0.00     0.124 S 
ATOM     65  O   UNL A   1      52.381  24.868  32.255  1.00  0.00    -0.237 OA
ATOM     66  O   UNL A   1      53.094  26.268  30.348  1.00  0.00    -0.237 OA
ATOM     67  O   UNL A   1      52.765  27.284  32.569  1.00  0.00    -0.744 OA
ENDBRANCH  63  64
ENDBRANCH  37  58
ENDBRANCH  11  12
ENDBRANCH   4   6
ENDBRANCH   1   2
BRANCH   1  68
ATOM     68  C   UNL A   1      32.732  28.223  26.122  1.00  0.00     0.042 C 
BRANCH  68  69
ATOM     69  C   UNL A   1      31.465  27.534  26.618  1.00  0.00     0.118 C 
BRANCH  69  70
ATOM     70  N   UNL A   1      31.716  26.131  26.891  1.00  0.00    -0.351 N 
ATOM     71  C   UNL A   1      31.892  25.092  26.026  1.00  0.00     0.279 C 
ATOM     72  H   UNL A   1      31.768  25.894  27.845  1.00  0.00     0.163 HD
ATOM     73  O   UNL A   1      31.715  23.957  26.474  1.00  0.00    -0.268 OA
BRANCH  71  74
ATOM     74  C   UNL A   1      32.324  25.358  24.574  1.00  0.00     0.284 C 
ATOM     75  C   UNL A   1      31.520  24.485  23.609  1.00  0.00     0.151 C 
ATOM     76  N   UNL A   1      33.804  25.144  24.450  1.00  0.00    -0.319 N 
ATOM     77  S   UNL A   1      32.728  24.013  22.362  1.00  0.00    -0.085 SA
ATOM     78  C   UNL A   1      34.052  23.957  23.605  1.00  0.00     0.303 C 
ATOM     79  H   UNL A   1      34.205  24.994  25.376  1.00  0.00     0.348 HD
ATOM     80  H   UNL A   1      34.234  25.964  24.025  1.00  0.00     0.348 HD
BRANCH  78  81
ATOM     81  C   UNL A   1      34.103  22.628  24.348  1.00  0.00     0.162 A 
ATOM     82  N   UNL A   1      34.812  22.393  25.442  1.00  0.00    -0.242 NA
ATOM     83  S   UNL A   1      33.119  21.295  23.846  1.00  0.00    -0.112 S 
ATOM     84  C   UNL A   1      34.745  21.051  25.766  1.00  0.00     0.132 A 
ATOM     85  C   UNL A   1      33.949  20.280  24.948  1.00  0.00     0.055 A 
BRANCH  85  86
ATOM     86  C   UNL A   1      33.764  18.839  24.901  1.00  0.00    -0.007 A 
ATOM     87  C   UNL A   1      32.644  18.264  25.520  1.00  0.00     0.009 A 
ATOM     88  C   UNL A   1      34.680  18.014  24.239  1.00  0.00     0.009 A 
ATOM     89  C   UNL A   1      32.449  16.884  25.488  1.00  0.00     0.001 A 
ATOM     90  C   UNL A   1      34.485  16.630  24.213  1.00  0.00     0.001 A 
ATOM     91  C   UNL A   1      33.372  16.067  24.838  1.00  0.00     0.000 A 
ENDBRANCH  85  86
ENDBRANCH  78  81
ENDBRANCH  71  74
ENDBRANCH  69  70
ENDBRANCH  68  69
ENDBRANCH   1  68
TORSDOF 15
ENDMDL
MODEL 3
REMARK VINA RESULT:     -11.0      2.579      9.103
REMARK SMILES O=C(NCCCNC(=O)[C@@H]1CS[C@H](c2ncc(-c3ccccc3)s2)[NH2+]1)c1ccc(-c2c3nc(c(-c4ccc(S(=O)(=O)[O-])cc4)c4ccc([nH]4)c(-c4ccc(S(=O)(=O)[O-])cc4)c4nc(c(-c5ccc(S(=O)(=O)[O-])cc5)c5ccc2[nH]5)C=C4)C=C3)cc1
REMARK SMILES IDX 4 1 3 2 1 3 2 4 26 6 27 7 85 8 28 9 84 10 29 11 30 12 31 13
REMARK SMILES IDX 78 14 32 15 83 16 77 17 79 18 33 19 82 20 76 21 75 22 34 24
REMARK SMILES IDX 64 25 45 26 63 27 46 28 49 29 62 30 80 31 47 32 48 33 61 35
REMARK SMILES IDX 81 36 50 37 35 38 36 39 44 40 37 41 43 42 38 43 39 44 40 45
REMARK SMILES IDX 41 46 42 47 65 48 66 49 74 50 67 51 73 52 68 53 69 54 70 55
REMARK SMILES IDX 71 56 72 57 51 58 52 59 60 60 53 61 59 62 54 63 55 64 56 65
REMARK SMILES IDX 57 66 58 67 5 68 6 69 7 70 8 71 9 73 10 74 11 75 25 76 12 77
REMARK SMILES IDX 13 78 14 81 15 82 24 83 16 84 17 85 18 86 19 87 23 88 20 89
REMARK SMILES IDX 22 90 21 91
REMARK H PARENT 3 5 79 23 49 34 7 72 25 79 25 80
REMARK Flexibility Score: inf
ROOT
ATOM      1  C   UNL A   1      36.732  23.464  25.673  1.00  0.00     0.118 C 
ENDROOT
BRANCH   1   2
ATOM      2  N   UNL A   1      37.851  22.546  25.831  1.00  0.00    -0.352 N 
ATOM      3  O   UNL A   1      39.998  21.937  26.114  1.00  0.00    -0.269 OA
ATOM      4  C   UNL A   1      39.130  22.796  26.260  1.00  0.00     0.251 C 
ATOM      5  H   UNL A   1      37.662  21.608  25.597  1.00  0.00     0.163 HD
BRANCH   4   6
ATOM      6  C   UNL A   1      39.460  24.091  26.887  1.00  0.00     0.039 A 
ATOM      7  C   UNL A   1      39.126  24.335  28.221  1.00  0.00     0.014 A 
ATOM      8  C   UNL A   1      40.151  25.056  26.149  1.00  0.00     0.014 A 
ATOM      9  C   UNL A   1      39.371  25.582  28.780  1.00  0.00     0.010 A 
ATOM     10  C   UNL A   1      40.481  26.279  26.742  1.00  0.00     0.010 A 
ATOM     11  C   UNL A   1      40.085  26.554  28.059  1.00  0.00    -0.014 A 
BRANCH  11  12
ATOM     12  C   UNL A   1      40.523  27.788  28.758  1.00  0.00     0.031 A 
ATOM     13  C   UNL A   1      39.592  28.947  28.967  1.00  0.00     0.074 A 
ATOM     14  C   UNL A   1      41.793  27.837  29.210  1.00  0.00     0.049 A 
ATOM     15  N   UNL A   1      39.832  30.088  29.563  1.00  0.00    -0.248 NA
ATOM     16  C   UNL A   1      38.223  28.822  28.442  1.00  0.00     0.031 C 
ATOM     17  C   UNL A   1      42.789  26.771  29.045  1.00  0.00     0.029 A 
ATOM     18  N   UNL A   1      42.465  28.808  29.904  1.00  0.00    -0.354 N 
ATOM     19  C   UNL A   1      38.657  30.825  29.467  1.00  0.00     0.074 A 
ATOM     20  C   UNL A   1      37.706  30.007  28.746  1.00  0.00     0.031 C 
ATOM     21  C   UNL A   1      43.927  27.131  29.654  1.00  0.00     0.029 A 
ATOM     22  C   UNL A   1      43.771  28.478  30.185  1.00  0.00     0.049 A 
ATOM     23  H   UNL A   1      42.054  29.660  30.177  1.00  0.00     0.167 HD
ATOM     24  C   UNL A   1      38.405  32.070  29.937  1.00  0.00     0.031 A 
ATOM     25  C   UNL A   1      44.750  29.190  30.772  1.00  0.00     0.031 A 
ATOM     26  C   UNL A   1      39.363  32.869  30.658  1.00  0.00     0.049 A 
ATOM     27  C   UNL A   1      44.445  30.581  31.246  1.00  0.00     0.074 A 
ATOM     28  C   UNL A   1      39.180  34.118  31.229  1.00  0.00     0.029 A 
ATOM     29  N   UNL A   1      40.682  32.513  30.896  1.00  0.00    -0.354 N 
ATOM     30  N   UNL A   1      43.305  31.228  31.212  1.00  0.00    -0.248 NA
ATOM     31  C   UNL A   1      45.557  31.339  31.834  1.00  0.00     0.031 C 
ATOM     32  C   UNL A   1      40.405  34.545  31.748  1.00  0.00     0.029 A 
ATOM     33  C   UNL A   1      41.336  33.537  31.562  1.00  0.00     0.049 A 
ATOM     34  H   UNL A   1      41.093  31.659  30.631  1.00  0.00     0.167 HD
ATOM     35  C   UNL A   1      43.561  32.468  31.782  1.00  0.00     0.074 A 
ATOM     36  C   UNL A   1      44.953  32.466  32.185  1.00  0.00     0.031 C 
ATOM     37  C   UNL A   1      42.723  33.520  31.949  1.00  0.00     0.031 A 
BRANCH  24  38
ATOM     38  C   UNL A   1      37.052  32.677  29.675  1.00  0.00    -0.014 A 
ATOM     39  C   UNL A   1      36.028  32.623  30.636  1.00  0.00     0.010 A 
ATOM     40  C   UNL A   1      36.846  33.419  28.496  1.00  0.00     0.010 A 
ATOM     41  C   UNL A   1      34.821  33.298  30.420  1.00  0.00     0.020 A 
ATOM     42  C   UNL A   1      35.651  34.113  28.287  1.00  0.00     0.020 A 
ATOM     43  C   UNL A   1      34.643  34.044  29.251  1.00  0.00     0.054 A 
BRANCH  43  44
ATOM     44  S   UNL A   1      33.097  34.969  29.035  1.00  0.00     0.124 S 
ATOM     45  O   UNL A   1      32.539  34.941  30.385  1.00  0.00    -0.237 OA
ATOM     46  O   UNL A   1      33.568  36.275  28.578  1.00  0.00    -0.237 OA
ATOM     47  O   UNL A   1      32.361  34.193  28.042  1.00  0.00    -0.744 OA
ENDBRANCH  43  44
ENDBRANCH  24  38
BRANCH  25  48
ATOM     48  C   UNL A   1      46.122  28.623  30.883  1.00  0.00    -0.014 A 
ATOM     49  C   UNL A   1      47.066  28.806  29.858  1.00  0.00     0.010 A 
ATOM     50  C   UNL A   1      46.483  27.875  32.020  1.00  0.00     0.010 A 
ATOM     51  C   UNL A   1      48.331  28.218  29.951  1.00  0.00     0.020 A 
ATOM     52  C   UNL A   1      47.758  27.318  32.133  1.00  0.00     0.020 A 
ATOM     53  C   UNL A   1      48.667  27.474  31.086  1.00  0.00     0.054 A 
BRANCH  53  54
ATOM     54  S   UNL A   1      50.314  26.725  31.190  1.00  0.00     0.124 S 
ATOM     55  O   UNL A   1      50.966  27.570  32.186  1.00  0.00    -0.237 OA
ATOM     56  O   UNL A   1      50.016  25.360  31.616  1.00  0.00    -0.237 OA
ATOM     57  O   UNL A   1      50.832  26.846  29.830  1.00  0.00    -0.744 OA
ENDBRANCH  53  54
ENDBRANCH  25  48
BRANCH  37  58
ATOM     58  C   UNL A   1      43.289  34.750  32.606  1.00  0.00    -0.014 A 
ATOM     59  C   UNL A   1      43.805  35.807  31.837  1.00  0.00     0.010 A 
ATOM     60  C   UNL A   1      43.264  34.867  34.008  1.00  0.00     0.010 A 
ATOM     61  C   UNL A   1      44.317  36.948  32.460  1.00  0.00     0.020 A 
ATOM     62  C   UNL A   1      43.746  36.018  34.632  1.00  0.00     0.020 A 
ATOM     63  C   UNL A   1      44.282  37.046  33.854  1.00  0.00     0.054 A 
BRANCH  63  64
ATOM     64  S   UNL A   1      44.911  38.558  34.635  1.00  0.00     0.124 S 
ATOM     65  O   UNL A   1      44.153  38.593  35.882  1.00  0.00    -0.237 OA
ATOM     66  O   UNL A   1      46.338  38.276  34.774  1.00  0.00    -0.237 OA
ATOM     67  O   UNL A   1      44.579  39.607  33.675  1.00  0.00    -0.744 OA
ENDBRANCH  63  64
ENDBRANCH  37  58
ENDBRANCH  11  12
ENDBRANCH   4   6
ENDBRANCH   1   2
BRANCH   1  68
ATOM     68  C   UNL A   1      35.476  22.976  26.392  1.00  0.00     0.042 C 
BRANCH  68  69
ATOM     69  C   UNL A   1      34.219  23.748  26.003  1.00  0.00     0.118 C 
BRANCH  69  70
ATOM     70  N   UNL A   1      33.131  23.449  26.915  1.00  0.00    -0.351 N 
ATOM     71  C   UNL A   1      31.819  23.189  26.651  1.00  0.00     0.279 C 
ATOM     72  H   UNL A   1      33.376  23.432  27.867  1.00  0.00     0.163 HD
ATOM     73  O   UNL A   1      31.022  23.337  27.580  1.00  0.00    -0.268 OA
BRANCH  71  74
ATOM     74  C   UNL A   1      31.391  22.701  25.256  1.00  0.00     0.284 C 
ATOM     75  C   UNL A   1      32.619  22.438  24.382  1.00  0.00     0.151 C 
ATOM     76  N   UNL A   1      30.452  23.699  24.647  1.00  0.00    -0.319 N 
ATOM     77  S   UNL A   1      32.108  23.012  22.755  1.00  0.00    -0.085 SA
ATOM     78  C   UNL A   1      31.111  24.341  23.490  1.00  0.00     0.303 C 
ATOM     79  H   UNL A   1      30.212  24.408  25.341  1.00  0.00     0.348 HD
ATOM     80  H   UNL A   1      29.602  23.228  24.341  1.00  0.00     0.348 HD
BRANCH  78  81
ATOM     81  C   UNL A   1      31.933  25.581  23.815  1.00  0.00     0.162 A 
ATOM     82  N   UNL A   1      33.150  25.831  23.356  1.00  0.00    -0.242 NA
ATOM     83  S   UNL A   1      31.267  26.858  24.776  1.00  0.00    -0.112 S 
ATOM     84  C   UNL A   1      33.658  26.964  23.962  1.00  0.00     0.132 A 
ATOM     85  C   UNL A   1      32.810  27.599  24.841  1.00  0.00     0.055 A 
BRANCH  85  86
ATOM     86  C   UNL A   1      33.054  28.709  25.749  1.00  0.00    -0.007 A 
ATOM     87  C   UNL A   1      34.282  28.797  26.420  1.00  0.00     0.009 A 
ATOM     88  C   UNL A   1      32.087  29.698  25.957  1.00  0.00     0.009 A 
ATOM     89  C   UNL A   1      34.536  29.852  27.296  1.00  0.00     0.001 A 
ATOM     90  C   UNL A   1      32.341  30.752  26.840  1.00  0.00     0.001 A 
ATOM     91  C   UNL A   1      33.563  30.827  27.509  1.00  0.00     0.000 A 
ENDBRANCH  85  86
ENDBRANCH  78  81
ENDBRANCH  71  74
ENDBRANCH  69  70
ENDBRANCH  68  69
ENDBRANCH   1  68
TORSDOF 15
ENDMDL
