MODEL 1
REMARK VINA RESULT:     -11.9      0.000      0.000
REMARK SMILES COc1ccc(CC(=O)Nc2ccc(N3CC[NH+](C)CC3)cc2C(=O)NCCCNC(=O)c2ccc(-c3c4nc(c(-c5ccc(S(=O)(=O)[O-])cc5)c5ccc([nH]5)c(-c5ccc(S(=O)(=O)[O-])cc5)c5nc(c(-c6ccc(S(=O)(=O)[O-])cc6)c6ccc3[nH]6)C=C5)C=C4)cc2)cc1
REMARK SMILES IDX 27 1 26 2 24 3 25 4 23 6 11 7 12 8 13 9 22 10 14 11 10 12
REMARK SMILES IDX 8 13 9 14 7 16 6 17 3 18 4 19 94 20 5 21 93 22 2 23 1 24
REMARK SMILES IDX 15 25 16 26 21 27 17 28 20 29 18 30 19 31 28 33 29 34 30 35
REMARK SMILES IDX 31 36 32 38 33 39 34 40 92 41 35 42 91 43 36 44 37 45 38 46
REMARK SMILES IDX 85 47 39 48 90 49 84 50 86 51 40 52 89 53 83 54 82 55 41 57
REMARK SMILES IDX 71 58 52 59 70 60 53 61 56 62 69 63 87 64 54 65 55 66 68 68
REMARK SMILES IDX 88 69 57 70 42 71 43 72 51 73 44 74 50 75 45 76 46 77 47 78
REMARK SMILES IDX 48 79 49 80 72 81 73 82 81 83 74 84 80 85 75 86 76 87 77 88
REMARK SMILES IDX 78 89 79 90 58 91 59 92 67 93 60 94 66 95 61 96 62 97 63 98
REMARK SMILES IDX 64 99 65 100
REMARK H PARENT 26 5 10 15 18 32 30 37 86 56 56 67
REMARK Flexibility Score: inf
ROOT
ATOM      1  C   UNL A   1      32.324  26.472  26.288  1.00  0.00     0.118 C 
ENDROOT
BRANCH   1   2
ATOM      2  N   UNL A   1      31.369  25.538  26.856  1.00  0.00    -0.352 N 
ATOM      3  C   UNL A   1      30.951  24.280  26.511  1.00  0.00     0.253 C 
ATOM      4  O   UNL A   1      29.986  23.857  27.155  1.00  0.00    -0.269 OA
ATOM      5  H   UNL A   1      30.925  25.884  27.663  1.00  0.00     0.163 HD
BRANCH   3   6
ATOM      6  C   UNL A   1      31.481  23.455  25.377  1.00  0.00     0.065 A 
ATOM      7  C   UNL A   1      31.447  23.731  24.007  1.00  0.00     0.054 A 
ATOM      8  C   UNL A   1      31.621  22.676  23.111  1.00  0.00     0.029 A 
ATOM      9  C   UNL A   1      32.104  21.442  23.552  1.00  0.00     0.028 A 
ATOM     10  C   UNL A   1      32.035  22.210  25.785  1.00  0.00     0.042 A 
ATOM     11  C   UNL A   1      32.443  21.215  24.888  1.00  0.00     0.038 A 
BRANCH   7  12
ATOM     12  N   UNL A   1      31.264  24.980  23.405  1.00  0.00    -0.325 N 
ATOM     13  C   UNL A   1      32.182  25.833  22.847  1.00  0.00     0.228 C 
ATOM     14  O   UNL A   1      31.798  26.972  22.558  1.00  0.00    -0.274 OA
ATOM     15  H   UNL A   1      30.332  25.295  23.378  1.00  0.00     0.169 HD
BRANCH  13  16
ATOM     16  C   UNL A   1      33.540  25.355  22.379  1.00  0.00     0.135 C 
BRANCH  16  17
ATOM     17  C   UNL A   1      34.410  24.588  23.333  1.00  0.00    -0.038 A 
ATOM     18  C   UNL A   1      36.117  23.134  25.041  1.00  0.00     0.118 A 
ATOM     19  C   UNL A   1      35.443  24.269  25.503  1.00  0.00     0.047 A 
ATOM     20  C   UNL A   1      35.949  22.738  23.715  1.00  0.00     0.047 A 
ATOM     21  C   UNL A   1      34.598  24.996  24.657  1.00  0.00     0.008 A 
ATOM     22  C   UNL A   1      35.110  23.464  22.868  1.00  0.00     0.008 A 
BRANCH  18  23
ATOM     23  O   UNL A   1      36.898  22.501  25.970  1.00  0.00    -0.497 OA
ATOM     24  C   UNL A   1      38.010  21.769  25.471  1.00  0.00     0.278 C 
ENDBRANCH  18  23
ENDBRANCH  16  17
ENDBRANCH  13  16
ENDBRANCH   7  12
BRANCH  11  25
ATOM     25  N   UNL A   1      33.164  20.104  25.274  1.00  0.00    -0.360 N 
ATOM     26  C   UNL A   1      34.504  19.754  24.766  1.00  0.00     0.178 C 
ATOM     27  C   UNL A   1      32.644  19.165  26.283  1.00  0.00     0.178 C 
ATOM     28  C   UNL A   1      34.559  18.270  24.318  1.00  0.00     0.283 C 
ATOM     29  C   UNL A   1      32.732  17.709  25.775  1.00  0.00     0.283 C 
ATOM     30  N   UNL A   1      34.098  17.329  25.366  1.00  0.00    -0.334 N 
ATOM     31  C   UNL A   1      34.120  15.950  24.881  1.00  0.00     0.332 C 
ATOM     32  H   UNL A   1      34.728  17.382  26.166  1.00  0.00     0.347 HD
ENDBRANCH  11  25
ENDBRANCH   3   6
ENDBRANCH   1   2
BRANCH   1  33
ATOM     33  C   UNL A   1      32.568  27.676  27.185  1.00  0.00     0.042 C 
BRANCH  33  34
ATOM     34  C   UNL A   1      33.485  28.703  26.516  1.00  0.00     0.118 C 
BRANCH  34  35
ATOM     35  N   UNL A   1      33.476  30.013  27.161  1.00  0.00    -0.352 N 
ATOM     36  C   UNL A   1      34.441  30.657  27.906  1.00  0.00     0.251 C 
ATOM     37  H   UNL A   1      32.640  30.521  27.045  1.00  0.00     0.163 HD
ATOM     38  O   UNL A   1      34.198  31.737  28.430  1.00  0.00    -0.269 OA
BRANCH  36  39
ATOM     39  C   UNL A   1      35.757  30.018  28.130  1.00  0.00     0.039 A 
ATOM     40  C   UNL A   1      36.749  30.159  27.155  1.00  0.00     0.014 A 
ATOM     41  C   UNL A   1      36.031  29.315  29.300  1.00  0.00     0.014 A 
ATOM     42  C   UNL A   1      38.043  29.696  27.410  1.00  0.00     0.010 A 
ATOM     43  C   UNL A   1      37.342  28.964  29.602  1.00  0.00     0.010 A 
ATOM     44  C   UNL A   1      38.368  29.156  28.665  1.00  0.00    -0.014 A 
BRANCH  44  45
ATOM     45  C   UNL A   1      39.765  28.795  29.027  1.00  0.00     0.031 A 
ATOM     46  C   UNL A   1      40.660  29.808  29.695  1.00  0.00     0.074 A 
ATOM     47  C   UNL A   1      40.264  27.594  28.664  1.00  0.00     0.049 A 
ATOM     48  N   UNL A   1      41.940  29.735  29.955  1.00  0.00    -0.248 NA
ATOM     49  C   UNL A   1      40.043  31.089  30.077  1.00  0.00     0.031 C 
ATOM     50  C   UNL A   1      39.530  26.543  27.953  1.00  0.00     0.029 A 
ATOM     51  N   UNL A   1      41.516  27.058  28.837  1.00  0.00    -0.354 N 
ATOM     52  C   UNL A   1      42.290  30.973  30.481  1.00  0.00     0.074 A 
ATOM     53  C   UNL A   1      41.097  31.791  30.463  1.00  0.00     0.031 C 
ATOM     54  C   UNL A   1      40.331  25.478  27.788  1.00  0.00     0.029 A 
ATOM     55  C   UNL A   1      41.647  25.783  28.337  1.00  0.00     0.049 A 
ATOM     56  H   UNL A   1      42.254  27.541  29.277  1.00  0.00     0.167 HD
ATOM     57  C   UNL A   1      43.489  31.389  30.955  1.00  0.00     0.031 A 
ATOM     58  C   UNL A   1      42.706  24.951  28.321  1.00  0.00     0.031 A 
ATOM     59  C   UNL A   1      44.657  30.557  31.029  1.00  0.00     0.049 A 
ATOM     60  C   UNL A   1      44.005  25.406  28.925  1.00  0.00     0.074 A 
ATOM     61  C   UNL A   1      45.898  30.858  31.564  1.00  0.00     0.029 A 
ATOM     62  N   UNL A   1      44.724  29.250  30.572  1.00  0.00    -0.354 N 
ATOM     63  N   UNL A   1      44.302  26.566  29.458  1.00  0.00    -0.248 NA
ATOM     64  C   UNL A   1      45.108  24.435  28.933  1.00  0.00     0.031 C 
ATOM     65  C   UNL A   1      46.723  29.738  31.411  1.00  0.00     0.029 A 
ATOM     66  C   UNL A   1      45.984  28.729  30.814  1.00  0.00     0.049 A 
ATOM     67  H   UNL A   1      43.986  28.763  30.141  1.00  0.00     0.167 HD
ATOM     68  C   UNL A   1      45.620  26.458  29.885  1.00  0.00     0.074 A 
ATOM     69  C   UNL A   1      46.057  25.116  29.561  1.00  0.00     0.031 C 
ATOM     70  C   UNL A   1      46.397  27.388  30.490  1.00  0.00     0.031 A 
BRANCH  57  71
ATOM     71  C   UNL A   1      43.582  32.811  31.441  1.00  0.00    -0.014 A 
ATOM     72  C   UNL A   1      44.047  33.837  30.597  1.00  0.00     0.010 A 
ATOM     73  C   UNL A   1      43.195  33.129  32.755  1.00  0.00     0.010 A 
ATOM     74  C   UNL A   1      44.174  35.142  31.074  1.00  0.00     0.020 A 
ATOM     75  C   UNL A   1      43.294  34.442  33.227  1.00  0.00     0.020 A 
ATOM     76  C   UNL A   1      43.806  35.435  32.390  1.00  0.00     0.054 A 
BRANCH  76  77
ATOM     77  S   UNL A   1      43.978  37.139  32.987  1.00  0.00     0.124 S 
ATOM     78  O   UNL A   1      45.320  37.121  33.562  1.00  0.00    -0.237 OA
ATOM     79  O   UNL A   1      43.830  37.927  31.766  1.00  0.00    -0.237 OA
ATOM     80  O   UNL A   1      42.889  37.280  33.950  1.00  0.00    -0.744 OA
ENDBRANCH  76  77
ENDBRANCH  57  71
BRANCH  58  81
ATOM     81  C   UNL A   1      42.569  23.587  27.746  1.00  0.00    -0.014 A 
ATOM     82  C   UNL A   1      42.921  23.346  26.406  1.00  0.00     0.010 A 
ATOM     83  C   UNL A   1      42.108  22.517  28.534  1.00  0.00     0.010 A 
ATOM     84  C   UNL A   1      42.801  22.066  25.859  1.00  0.00     0.020 A 
ATOM     85  C   UNL A   1      42.006  21.230  27.997  1.00  0.00     0.020 A 
ATOM     86  C   UNL A   1      42.343  21.015  26.659  1.00  0.00     0.054 A 
BRANCH  86  87
ATOM     87  S   UNL A   1      42.251  19.348  25.947  1.00  0.00     0.124 S 
ATOM     88  O   UNL A   1      43.117  19.470  24.779  1.00  0.00    -0.237 OA
ATOM     89  O   UNL A   1      42.762  18.510  27.029  1.00  0.00    -0.237 OA
ATOM     90  O   UNL A   1      40.828  19.179  25.661  1.00  0.00    -0.744 OA
ENDBRANCH  86  87
ENDBRANCH  58  81
BRANCH  70  91
ATOM     91  C   UNL A   1      47.791  26.976  30.873  1.00  0.00    -0.014 A 
ATOM     92  C   UNL A   1      48.054  26.382  32.121  1.00  0.00     0.010 A 
ATOM     93  C   UNL A   1      48.840  27.137  29.951  1.00  0.00     0.010 A 
ATOM     94  C   UNL A   1      49.350  25.981  32.449  1.00  0.00     0.020 A 
ATOM     95  C   UNL A   1      50.134  26.719  30.269  1.00  0.00     0.020 A 
ATOM     96  C   UNL A   1      50.383  26.154  31.522  1.00  0.00     0.054 A 
BRANCH  96  97
ATOM     97  S   UNL A   1      52.052  25.584  31.950  1.00  0.00     0.124 S 
ATOM     98  O   UNL A   1      51.835  24.158  32.176  1.00  0.00    -0.237 OA
ATOM     99  O   UNL A   1      52.825  25.920  30.756  1.00  0.00    -0.237 OA
ATOM    100  O   UNL A   1      52.387  26.362  33.140  1.00  0.00    -0.744 OA
ENDBRANCH  96  97
ENDBRANCH  70  91
ENDBRANCH  44  45
ENDBRANCH  36  39
ENDBRANCH  34  35
ENDBRANCH  33  34
ENDBRANCH   1  33
TORSDOF 18
ENDMDL
MODEL 2
REMARK VINA RESULT:     -11.8      0.527      7.868
REMARK SMILES COc1ccc(CC(=O)Nc2ccc(N3CC[NH+](C)CC3)cc2C(=O)NCCCNC(=O)c2ccc(-c3c4nc(c(-c5ccc(S(=O)(=O)[O-])cc5)c5ccc([nH]5)c(-c5ccc(S(=O)(=O)[O-])cc5)c5nc(c(-c6ccc(S(=O)(=O)[O-])cc6)c6ccc3[nH]6)C=C5)C=C4)cc2)cc1
REMARK SMILES IDX 27 1 26 2 24 3 25 4 23 6 11 7 12 8 13 9 22 10 14 11 10 12
REMARK SMILES IDX 8 13 9 14 7 16 6 17 3 18 4 19 94 20 5 21 93 22 2 23 1 24
REMARK SMILES IDX 15 25 16 26 21 27 17 28 20 29 18 30 19 31 28 33 29 34 30 35
REMARK SMILES IDX 31 36 32 38 33 39 34 40 92 41 35 42 91 43 36 44 37 45 38 46
REMARK SMILES IDX 85 47 39 48 90 49 84 50 86 51 40 52 89 53 83 54 82 55 41 57
REMARK SMILES IDX 71 58 52 59 70 60 53 61 56 62 69 63 87 64 54 65 55 66 68 68
REMARK SMILES IDX 88 69 57 70 42 71 43 72 51 73 44 74 50 75 45 76 46 77 47 78
REMARK SMILES IDX 48 79 49 80 72 81 73 82 81 83 74 84 80 85 75 86 76 87 77 88
REMARK SMILES IDX 78 89 79 90 58 91 59 92 67 93 60 94 66 95 61 96 62 97 63 98
REMARK SMILES IDX 64 99 65 100
REMARK H PARENT 26 5 10 15 18 32 30 37 86 56 56 67
REMARK Flexibility Score: inf
ROOT
ATOM      1  C   UNL A   1      32.046  26.239  26.279  1.00  0.00     0.118 C 
ENDROOT
BRANCH   1   2
ATOM      2  N   UNL A   1      31.155  25.253  26.862  1.00  0.00    -0.352 N 
ATOM      3  C   UNL A   1      30.805  23.972  26.526  1.00  0.00     0.253 C 
ATOM      4  O   UNL A   1      29.875  23.496  27.185  1.00  0.00    -0.269 OA
ATOM      5  H   UNL A   1      30.703  25.576  27.675  1.00  0.00     0.163 HD
BRANCH   3   6
ATOM      6  C   UNL A   1      31.366  23.175  25.388  1.00  0.00     0.065 A 
ATOM      7  C   UNL A   1      31.327  23.461  24.020  1.00  0.00     0.054 A 
ATOM      8  C   UNL A   1      31.539  22.420  23.115  1.00  0.00     0.029 A 
ATOM      9  C   UNL A   1      32.064  21.200  23.547  1.00  0.00     0.028 A 
ATOM     10  C   UNL A   1      31.962  21.947  25.787  1.00  0.00     0.042 A 
ATOM     11  C   UNL A   1      32.407  20.974  24.883  1.00  0.00     0.038 A 
BRANCH   7  12
ATOM     12  N   UNL A   1      31.103  24.708  23.427  1.00  0.00    -0.325 N 
ATOM     13  C   UNL A   1      31.986  25.577  22.839  1.00  0.00     0.228 C 
ATOM     14  O   UNL A   1      31.574  26.710  22.566  1.00  0.00    -0.274 OA
ATOM     15  H   UNL A   1      30.165  25.008  23.433  1.00  0.00     0.169 HD
BRANCH  13  16
ATOM     16  C   UNL A   1      33.334  25.123  22.323  1.00  0.00     0.135 C 
BRANCH  16  17
ATOM     17  C   UNL A   1      34.301  24.481  23.277  1.00  0.00    -0.038 A 
ATOM     18  C   UNL A   1      36.045  23.299  25.148  1.00  0.00     0.118 A 
ATOM     19  C   UNL A   1      35.851  22.721  23.891  1.00  0.00     0.047 A 
ATOM     20  C   UNL A   1      35.349  24.461  25.476  1.00  0.00     0.047 A 
ATOM     21  C   UNL A   1      34.983  23.302  22.959  1.00  0.00     0.008 A 
ATOM     22  C   UNL A   1      34.479  25.041  24.551  1.00  0.00     0.008 A 
BRANCH  18  23
ATOM     23  O   UNL A   1      36.932  22.644  25.960  1.00  0.00    -0.497 OA
ATOM     24  C   UNL A   1      37.804  21.715  25.329  1.00  0.00     0.278 C 
ENDBRANCH  18  23
ENDBRANCH  16  17
ENDBRANCH  13  16
ENDBRANCH   7  12
BRANCH  11  25
ATOM     25  N   UNL A   1      33.165  19.886  25.261  1.00  0.00    -0.360 N 
ATOM     26  C   UNL A   1      34.507  19.572  24.735  1.00  0.00     0.178 C 
ATOM     27  C   UNL A   1      32.686  18.936  26.281  1.00  0.00     0.178 C 
ATOM     28  C   UNL A   1      34.598  18.088  24.291  1.00  0.00     0.283 C 
ATOM     29  C   UNL A   1      32.809  17.481  25.777  1.00  0.00     0.283 C 
ATOM     30  N   UNL A   1      34.179  17.138  25.349  1.00  0.00    -0.334 N 
ATOM     31  C   UNL A   1      34.233  15.759  24.869  1.00  0.00     0.332 C 
ATOM     32  H   UNL A   1      34.819  17.212  26.139  1.00  0.00     0.347 HD
ENDBRANCH  11  25
ENDBRANCH   3   6
ENDBRANCH   1   2
BRANCH   1  33
ATOM     33  C   UNL A   1      31.980  27.582  26.992  1.00  0.00     0.042 C 
BRANCH  33  34
ATOM     34  C   UNL A   1      33.366  28.213  27.137  1.00  0.00     0.118 C 
BRANCH  34  35
ATOM     35  N   UNL A   1      33.337  29.625  27.508  1.00  0.00    -0.352 N 
ATOM     36  C   UNL A   1      34.328  30.450  27.996  1.00  0.00     0.251 C 
ATOM     37  H   UNL A   1      32.462  30.062  27.388  1.00  0.00     0.163 HD
ATOM     38  O   UNL A   1      34.068  31.602  28.320  1.00  0.00    -0.269 OA
BRANCH  36  39
ATOM     39  C   UNL A   1      35.699  29.929  28.191  1.00  0.00     0.039 A 
ATOM     40  C   UNL A   1      36.615  30.032  27.141  1.00  0.00     0.014 A 
ATOM     41  C   UNL A   1      36.097  29.373  29.404  1.00  0.00     0.014 A 
ATOM     42  C   UNL A   1      37.954  29.688  27.350  1.00  0.00     0.010 A 
ATOM     43  C   UNL A   1      37.447  29.146  29.649  1.00  0.00     0.010 A 
ATOM     44  C   UNL A   1      38.395  29.307  28.628  1.00  0.00    -0.014 A 
BRANCH  44  45
ATOM     45  C   UNL A   1      39.835  29.082  28.927  1.00  0.00     0.031 A 
ATOM     46  C   UNL A   1      40.484  27.767  28.576  1.00  0.00     0.074 A 
ATOM     47  C   UNL A   1      40.534  30.015  29.607  1.00  0.00     0.049 A 
ATOM     48  N   UNL A   1      41.678  27.327  28.884  1.00  0.00    -0.248 NA
ATOM     49  C   UNL A   1      39.667  26.804  27.819  1.00  0.00     0.031 C 
ATOM     50  C   UNL A   1      40.013  31.305  30.069  1.00  0.00     0.029 A 
ATOM     51  N   UNL A   1      41.838  30.017  30.038  1.00  0.00    -0.354 N 
ATOM     52  C   UNL A   1      41.734  26.023  28.406  1.00  0.00     0.074 A 
ATOM     53  C   UNL A   1      40.441  25.730  27.825  1.00  0.00     0.031 C 
ATOM     54  C   UNL A   1      40.995  31.986  30.681  1.00  0.00     0.029 A 
ATOM     55  C   UNL A   1      42.202  31.168  30.697  1.00  0.00     0.049 A 
ATOM     56  H   UNL A   1      42.456  29.264  29.890  1.00  0.00     0.167 HD
ATOM     57  C   UNL A   1      42.771  25.152  28.427  1.00  0.00     0.031 A 
ATOM     58  C   UNL A   1      43.375  31.528  31.253  1.00  0.00     0.031 A 
ATOM     59  C   UNL A   1      44.073  25.464  28.948  1.00  0.00     0.049 A 
ATOM     60  C   UNL A   1      44.536  30.575  31.195  1.00  0.00     0.074 A 
ATOM     61  C   UNL A   1      45.213  24.679  28.947  1.00  0.00     0.029 A 
ATOM     62  N   UNL A   1      44.415  26.667  29.546  1.00  0.00    -0.354 N 
ATOM     63  N   UNL A   1      44.581  29.363  30.699  1.00  0.00    -0.248 NA
ATOM     64  C   UNL A   1      45.807  31.044  31.764  1.00  0.00     0.031 C 
ATOM     65  C   UNL A   1      46.241  25.402  29.564  1.00  0.00     0.029 A 
ATOM     66  C   UNL A   1      45.749  26.648  29.916  1.00  0.00     0.049 A 
ATOM     67  H   UNL A   1      43.801  27.424  29.686  1.00  0.00     0.167 HD
ATOM     68  C   UNL A   1      45.889  28.931  30.876  1.00  0.00     0.074 A 
ATOM     69  C   UNL A   1      46.607  30.017  31.512  1.00  0.00     0.031 C 
ATOM     70  C   UNL A   1      46.446  27.742  30.542  1.00  0.00     0.031 A 
BRANCH  57  71
ATOM     71  C   UNL A   1      42.532  23.780  27.857  1.00  0.00    -0.014 A 
ATOM     72  C   UNL A   1      41.898  22.778  28.617  1.00  0.00     0.010 A 
ATOM     73  C   UNL A   1      42.937  23.486  26.543  1.00  0.00     0.010 A 
ATOM     74  C   UNL A   1      41.724  21.496  28.093  1.00  0.00     0.020 A 
ATOM     75  C   UNL A   1      42.739  22.211  26.005  1.00  0.00     0.020 A 
ATOM     76  C   UNL A   1      42.155  21.217  26.793  1.00  0.00     0.054 A 
BRANCH  76  77
ATOM     77  S   UNL A   1      41.917  19.545  26.133  1.00  0.00     0.124 S 
ATOM     78  O   UNL A   1      40.482  19.529  25.865  1.00  0.00    -0.237 OA
ATOM     79  O   UNL A   1      42.776  19.538  24.952  1.00  0.00    -0.237 OA
ATOM     80  O   UNL A   1      42.358  18.677  27.223  1.00  0.00    -0.744 OA
ENDBRANCH  76  77
ENDBRANCH  57  71
BRANCH  58  81
ATOM     81  C   UNL A   1      43.519  32.869  31.879  1.00  0.00    -0.014 A 
ATOM     82  C   UNL A   1      43.316  33.028  33.261  1.00  0.00     0.010 A 
ATOM     83  C   UNL A   1      43.880  33.988  31.107  1.00  0.00     0.010 A 
ATOM     84  C   UNL A   1      43.456  34.284  33.859  1.00  0.00     0.020 A 
ATOM     85  C   UNL A   1      44.041  35.241  31.704  1.00  0.00     0.020 A 
ATOM     86  C   UNL A   1      43.816  35.383  33.076  1.00  0.00     0.054 A 
BRANCH  86  87
ATOM     87  S   UNL A   1      44.051  36.994  33.880  1.00  0.00     0.124 S 
ATOM     88  O   UNL A   1      44.868  36.638  35.036  1.00  0.00    -0.237 OA
ATOM     89  O   UNL A   1      44.726  37.773  32.845  1.00  0.00    -0.237 OA
ATOM     90  O   UNL A   1      42.688  37.425  34.182  1.00  0.00    -0.744 OA
ENDBRANCH  86  87
ENDBRANCH  58  81
BRANCH  70  91
ATOM     91  C   UNL A   1      47.911  27.564  30.827  1.00  0.00    -0.014 A 
ATOM     92  C   UNL A   1      48.351  27.030  32.051  1.00  0.00     0.010 A 
ATOM     93  C   UNL A   1      48.855  27.887  29.836  1.00  0.00     0.010 A 
ATOM     94  C   UNL A   1      49.715  26.847  32.288  1.00  0.00     0.020 A 
ATOM     95  C   UNL A   1      50.218  27.686  30.062  1.00  0.00     0.020 A 
ATOM     96  C   UNL A   1      50.640  27.178  31.293  1.00  0.00     0.054 A 
BRANCH  96  97
ATOM     97  S   UNL A   1      52.404  26.889  31.604  1.00  0.00     0.124 S 
ATOM     98  O   UNL A   1      52.874  26.449  30.293  1.00  0.00    -0.237 OA
ATOM     99  O   UNL A   1      52.877  28.203  32.032  1.00  0.00    -0.237 OA
ATOM    100  O   UNL A   1      52.408  25.864  32.645  1.00  0.00    -0.744 OA
ENDBRANCH  96  97
ENDBRANCH  70  91
ENDBRANCH  44  45
ENDBRANCH  36  39
ENDBRANCH  34  35
ENDBRANCH  33  34
ENDBRANCH   1  33
TORSDOF 18
ENDMDL
MODEL 3
REMARK VINA RESULT:     -11.1      3.331      8.070
REMARK SMILES COc1ccc(CC(=O)Nc2ccc(N3CC[NH+](C)CC3)cc2C(=O)NCCCNC(=O)c2ccc(-c3c4nc(c(-c5ccc(S(=O)(=O)[O-])cc5)c5ccc([nH]5)c(-c5ccc(S(=O)(=O)[O-])cc5)c5nc(c(-c6ccc(S(=O)(=O)[O-])cc6)c6ccc3[nH]6)C=C5)C=C4)cc2)cc1
REMARK SMILES IDX 27 1 26 2 24 3 25 4 23 6 11 7 12 8 13 9 22 10 14 11 10 12
REMARK SMILES IDX 8 13 9 14 7 16 6 17 3 18 4 19 94 20 5 21 93 22 2 23 1 24
REMARK SMILES IDX 15 25 16 26 21 27 17 28 20 29 18 30 19 31 28 33 29 34 30 35
REMARK SMILES IDX 31 36 32 38 33 39 34 40 92 41 35 42 91 43 36 44 37 45 38 46
REMARK SMILES IDX 85 47 39 48 90 49 84 50 86 51 40 52 89 53 83 54 82 55 41 57
REMARK SMILES IDX 71 58 52 59 70 60 53 61 56 62 69 63 87 64 54 65 55 66 68 68
REMARK SMILES IDX 88 69 57 70 42 71 43 72 51 73 44 74 50 75 45 76 46 77 47 78
REMARK SMILES IDX 48 79 49 80 72 81 73 82 81 83 74 84 80 85 75 86 76 87 77 88
REMARK SMILES IDX 78 89 79 90 58 91 59 92 67 93 60 94 66 95 61 96 62 97 63 98
REMARK SMILES IDX 64 99 65 100
REMARK H PARENT 26 5 10 15 18 32 30 37 86 56 56 67
REMARK Flexibility Score: inf
ROOT
ATOM      1  C   UNL A   1      36.839  23.199  24.836  1.00  0.00     0.118 C 
ENDROOT
BRANCH   1   2
ATOM      2  N   UNL A   1      36.030  23.249  23.633  1.00  0.00    -0.352 N 
ATOM      3  C   UNL A   1      34.781  23.733  23.347  1.00  0.00     0.253 C 
ATOM      4  O   UNL A   1      34.354  23.445  22.224  1.00  0.00    -0.269 OA
ATOM      5  H   UNL A   1      36.475  22.846  22.852  1.00  0.00     0.163 HD
BRANCH   3   6
ATOM      6  C   UNL A   1      33.879  24.460  24.298  1.00  0.00     0.065 A 
ATOM      7  C   UNL A   1      33.427  24.053  25.557  1.00  0.00     0.054 A 
ATOM      8  C   UNL A   1      32.298  24.673  26.093  1.00  0.00     0.029 A 
ATOM      9  C   UNL A   1      31.808  25.857  25.536  1.00  0.00     0.028 A 
ATOM     10  C   UNL A   1      33.398  25.701  23.796  1.00  0.00     0.042 A 
ATOM     11  C   UNL A   1      32.424  26.471  24.443  1.00  0.00     0.038 A 
BRANCH   7  12
ATOM     12  N   UNL A   1      33.994  23.072  26.377  1.00  0.00    -0.325 N 
ATOM     13  C   UNL A   1      33.853  21.708  26.348  1.00  0.00     0.228 C 
ATOM     14  O   UNL A   1      34.300  21.069  27.307  1.00  0.00    -0.274 OA
ATOM     15  H   UNL A   1      34.588  23.414  27.084  1.00  0.00     0.169 HD
BRANCH  13  16
ATOM     16  C   UNL A   1      33.389  20.977  25.107  1.00  0.00     0.135 C 
BRANCH  16  17
ATOM     17  C   UNL A   1      33.495  19.479  25.061  1.00  0.00    -0.038 A 
ATOM     18  C   UNL A   1      33.803  16.679  24.999  1.00  0.00     0.118 A 
ATOM     19  C   UNL A   1      32.677  17.259  25.590  1.00  0.00     0.047 A 
ATOM     20  C   UNL A   1      34.785  17.504  24.455  1.00  0.00     0.047 A 
ATOM     21  C   UNL A   1      32.522  18.650  25.627  1.00  0.00     0.008 A 
ATOM     22  C   UNL A   1      34.635  18.891  24.494  1.00  0.00     0.008 A 
BRANCH  18  23
ATOM     23  O   UNL A   1      33.827  15.310  25.011  1.00  0.00    -0.497 OA
ATOM     24  C   UNL A   1      32.671  14.658  25.523  1.00  0.00     0.278 C 
ENDBRANCH  18  23
ENDBRANCH  16  17
ENDBRANCH  13  16
ENDBRANCH   7  12
BRANCH  11  25
ATOM     25  N   UNL A   1      32.110  27.761  24.066  1.00  0.00    -0.360 N 
ATOM     26  C   UNL A   1      31.387  28.730  24.910  1.00  0.00     0.178 C 
ATOM     27  C   UNL A   1      32.517  28.296  22.755  1.00  0.00     0.178 C 
ATOM     28  C   UNL A   1      30.226  29.395  24.124  1.00  0.00     0.283 C 
ATOM     29  C   UNL A   1      31.317  28.945  22.030  1.00  0.00     0.283 C 
ATOM     30  N   UNL A   1      30.659  29.990  22.838  1.00  0.00    -0.334 N 
ATOM     31  C   UNL A   1      29.525  30.558  22.112  1.00  0.00     0.332 C 
ATOM     32  H   UNL A   1      31.314  30.749  23.023  1.00  0.00     0.347 HD
ENDBRANCH  11  25
ENDBRANCH   3   6
ENDBRANCH   1   2
BRANCH   1  33
ATOM     33  C   UNL A   1      37.396  21.809  25.110  1.00  0.00     0.042 C 
BRANCH  33  34
ATOM     34  C   UNL A   1      38.718  21.871  25.877  1.00  0.00     0.118 C 
BRANCH  34  35
ATOM     35  N   UNL A   1      39.450  20.607  25.897  1.00  0.00    -0.352 N 
ATOM     36  C   UNL A   1      40.778  20.338  26.149  1.00  0.00     0.251 C 
ATOM     37  H   UNL A   1      38.901  19.813  25.697  1.00  0.00     0.163 HD
ATOM     38  O   UNL A   1      41.210  19.198  26.037  1.00  0.00    -0.269 OA
BRANCH  36  39
ATOM     39  C   UNL A   1      41.707  21.438  26.495  1.00  0.00     0.039 A 
ATOM     40  C   UNL A   1      42.076  22.346  25.499  1.00  0.00     0.014 A 
ATOM     41  C   UNL A   1      42.187  21.600  27.792  1.00  0.00     0.014 A 
ATOM     42  C   UNL A   1      42.827  23.477  25.833  1.00  0.00     0.010 A 
ATOM     43  C   UNL A   1      42.829  22.781  28.147  1.00  0.00     0.010 A 
ATOM     44  C   UNL A   1      43.152  23.739  27.174  1.00  0.00    -0.014 A 
BRANCH  44  45
ATOM     45  C   UNL A   1      43.815  25.005  27.589  1.00  0.00     0.031 A 
ATOM     46  C   UNL A   1      43.007  26.113  28.215  1.00  0.00     0.074 A 
ATOM     47  C   UNL A   1      45.120  25.202  27.309  1.00  0.00     0.049 A 
ATOM     48  N   UNL A   1      43.369  27.336  28.508  1.00  0.00    -0.248 NA
ATOM     49  C   UNL A   1      41.594  25.821  28.507  1.00  0.00     0.031 C 
ATOM     50  C   UNL A   1      46.007  24.241  26.645  1.00  0.00     0.029 A 
ATOM     51  N   UNL A   1      45.930  26.286  27.541  1.00  0.00    -0.354 N 
ATOM     52  C   UNL A   1      42.221  27.970  28.967  1.00  0.00     0.074 A 
ATOM     53  C   UNL A   1      41.143  27.010  28.875  1.00  0.00     0.031 C 
ATOM     54  C   UNL A   1      47.241  24.763  26.561  1.00  0.00     0.029 A 
ATOM     55  C   UNL A   1      47.228  26.109  27.120  1.00  0.00     0.049 A 
ATOM     56  H   UNL A   1      45.612  27.115  27.968  1.00  0.00     0.167 HD
ATOM     57  C   UNL A   1      42.077  29.230  29.443  1.00  0.00     0.031 A 
ATOM     58  C   UNL A   1      48.290  26.935  27.177  1.00  0.00     0.031 A 
ATOM     59  C   UNL A   1      43.160  30.163  29.592  1.00  0.00     0.049 A 
ATOM     60  C   UNL A   1      48.124  28.301  27.782  1.00  0.00     0.074 A 
ATOM     61  C   UNL A   1      43.133  31.435  30.135  1.00  0.00     0.029 A 
ATOM     62  N   UNL A   1      44.470  29.916  29.215  1.00  0.00    -0.354 N 
ATOM     63  N   UNL A   1      47.039  28.865  28.252  1.00  0.00    -0.248 NA
ATOM     64  C   UNL A   1      49.329  29.137  27.872  1.00  0.00     0.031 C 
ATOM     65  C   UNL A   1      44.426  31.966  30.068  1.00  0.00     0.029 A 
ATOM     66  C   UNL A   1      45.263  31.010  29.515  1.00  0.00     0.049 A 
ATOM     67  H   UNL A   1      44.791  29.084  28.797  1.00  0.00     0.167 HD
ATOM     68  C   UNL A   1      47.433  30.115  28.714  1.00  0.00     0.074 A 
ATOM     69  C   UNL A   1      48.859  30.218  28.480  1.00  0.00     0.031 C 
ATOM     70  C   UNL A   1      46.682  31.090  29.281  1.00  0.00     0.031 A 
BRANCH  57  71
ATOM     71  C   UNL A   1      40.692  29.661  29.846  1.00  0.00    -0.014 A 
ATOM     72  C   UNL A   1      39.772  30.134  28.890  1.00  0.00     0.010 A 
ATOM     73  C   UNL A   1      40.300  29.587  31.194  1.00  0.00     0.010 A 
ATOM     74  C   UNL A   1      38.508  30.575  29.284  1.00  0.00     0.020 A 
ATOM     75  C   UNL A   1      39.023  30.001  31.587  1.00  0.00     0.020 A 
ATOM     76  C   UNL A   1      38.144  30.515  30.631  1.00  0.00     0.054 A 
BRANCH  76  77
ATOM     77  S   UNL A   1      36.495  31.092  31.118  1.00  0.00     0.124 S 
ATOM     78  O   UNL A   1      35.763  31.006  29.858  1.00  0.00    -0.237 OA
ATOM     79  O   UNL A   1      36.101  30.124  32.139  1.00  0.00    -0.237 OA
ATOM     80  O   UNL A   1      36.734  32.446  31.611  1.00  0.00    -0.744 OA
ENDBRANCH  76  77
ENDBRANCH  57  71
BRANCH  58  81
ATOM     81  C   UNL A   1      49.614  26.477  26.681  1.00  0.00    -0.014 A 
ATOM     82  C   UNL A   1      50.498  25.807  27.545  1.00  0.00     0.010 A 
ATOM     83  C   UNL A   1      49.993  26.686  25.343  1.00  0.00     0.010 A 
ATOM     84  C   UNL A   1      51.743  25.367  27.085  1.00  0.00     0.020 A 
ATOM     85  C   UNL A   1      51.228  26.229  24.873  1.00  0.00     0.020 A 
ATOM     86  C   UNL A   1      52.100  25.582  25.752  1.00  0.00     0.054 A 
BRANCH  86  87
ATOM     87  S   UNL A   1      53.696  24.950  25.158  1.00  0.00     0.124 S 
ATOM     88  O   UNL A   1      53.432  23.519  25.049  1.00  0.00    -0.237 OA
ATOM     89  O   UNL A   1      53.870  25.660  23.893  1.00  0.00    -0.237 OA
ATOM     90  O   UNL A   1      54.628  25.339  26.214  1.00  0.00    -0.744 OA
ENDBRANCH  86  87
ENDBRANCH  58  81
BRANCH  70  91
ATOM     91  C   UNL A   1      47.392  32.340  29.719  1.00  0.00    -0.014 A 
ATOM     92  C   UNL A   1      47.516  33.443  28.855  1.00  0.00     0.010 A 
ATOM     93  C   UNL A   1      47.896  32.428  31.029  1.00  0.00     0.010 A 
ATOM     94  C   UNL A   1      48.156  34.606  29.289  1.00  0.00     0.020 A 
ATOM     95  C   UNL A   1      48.519  33.597  31.471  1.00  0.00     0.020 A 
ATOM     96  C   UNL A   1      48.655  34.675  30.593  1.00  0.00     0.054 A 
BRANCH  96  97
ATOM     97  S   UNL A   1      49.443  36.211  31.151  1.00  0.00     0.124 S 
ATOM     98  O   UNL A   1      50.206  35.756  32.310  1.00  0.00    -0.237 OA
ATOM     99  O   UNL A   1      50.238  36.608  29.991  1.00  0.00    -0.237 OA
ATOM    100  O   UNL A   1      48.313  37.088  31.452  1.00  0.00    -0.744 OA
ENDBRANCH  96  97
ENDBRANCH  70  91
ENDBRANCH  44  45
ENDBRANCH  36  39
ENDBRANCH  34  35
ENDBRANCH  33  34
ENDBRANCH   1  33
TORSDOF 18
ENDMDL
