MODEL 1
REMARK VINA RESULT:     -13.3      0.000      0.000
REMARK SMILES O=C(NCCCNC(=O)c1[nH]ncc1C[N@H+]1CCC[C@H](C(=O)c2ccc3ccccc3c2)C1)c1ccc(-c2c3nc(c(-c4ccc(S(=O)(=O)[O-])cc4)c4ccc([nH]4)c(-c4ccc(S(=O)(=O)[O-])cc4)c4nc(c(-c5ccc(S(=O)(=O)[O-])cc5)c5ccc2[nH]5)C=C4)C=C3)cc1
REMARK SMILES IDX 5 1 4 2 3 3 1 4 2 5 34 7 35 8 93 9 36 10 92 11 37 12 38 13
REMARK SMILES IDX 39 14 86 15 40 16 91 17 85 18 87 19 41 20 90 21 84 22 83 23
REMARK SMILES IDX 42 25 72 26 53 27 71 28 54 29 57 30 70 31 88 32 55 33 56 34
REMARK SMILES IDX 69 36 89 37 58 38 43 39 44 40 52 41 45 42 51 43 46 44 47 45
REMARK SMILES IDX 48 46 49 47 50 48 73 49 74 50 82 51 75 52 81 53 76 54 77 55
REMARK SMILES IDX 78 56 79 57 80 58 59 59 60 60 68 61 61 62 67 63 62 64 63 65
REMARK SMILES IDX 64 66 65 67 66 68 6 69 7 70 8 71 9 73 10 74 11 75 14 76
REMARK SMILES IDX 12 77 13 79 15 80 16 81 17 82 33 83 18 85 20 86 19 87 21 88
REMARK SMILES IDX 22 89 23 90 24 91 32 92 25 93 31 94 26 95 30 96 27 97 29 98
REMARK SMILES IDX 28 99
REMARK H PARENT 3 6 87 24 57 35 7 72 11 78 16 84
REMARK Flexibility Score: inf
ROOT
ATOM      1  C   UNL A   1      37.265  23.296  25.362  1.00  0.00     0.042 C 
ENDROOT
BRANCH   1   2
ATOM      2  C   UNL A   1      38.148  23.849  26.475  1.00  0.00     0.118 C 
BRANCH   2   3
ATOM      3  N   UNL A   1      39.565  23.754  26.156  1.00  0.00    -0.352 N 
ATOM      4  O   UNL A   1      41.686  24.429  25.906  1.00  0.00    -0.269 OA
ATOM      5  C   UNL A   1      40.616  24.565  26.497  1.00  0.00     0.251 C 
ATOM      6  H   UNL A   1      39.808  22.977  25.602  1.00  0.00     0.163 HD
BRANCH   5   7
ATOM      7  C   UNL A   1      40.484  25.600  27.549  1.00  0.00     0.039 A 
ATOM      8  C   UNL A   1      39.539  25.486  28.570  1.00  0.00     0.014 A 
ATOM      9  C   UNL A   1      41.390  26.667  27.561  1.00  0.00     0.014 A 
ATOM     10  C   UNL A   1      39.420  26.492  29.528  1.00  0.00     0.010 A 
ATOM     11  C   UNL A   1      41.318  27.637  28.564  1.00  0.00     0.010 A 
ATOM     12  C   UNL A   1      40.317  27.570  29.543  1.00  0.00    -0.014 A 
BRANCH  12  13
ATOM     13  C   UNL A   1      40.238  28.579  30.628  1.00  0.00     0.031 A 
ATOM     14  C   UNL A   1      41.160  28.518  31.812  1.00  0.00     0.074 A 
ATOM     15  C   UNL A   1      39.319  29.560  30.544  1.00  0.00     0.049 A 
ATOM     16  N   UNL A   1      41.214  29.311  32.853  1.00  0.00    -0.248 NA
ATOM     17  C   UNL A   1      42.140  27.421  31.840  1.00  0.00     0.031 C 
ATOM     18  C   UNL A   1      38.350  29.716  29.456  1.00  0.00     0.029 A 
ATOM     19  N   UNL A   1      39.052  30.613  31.380  1.00  0.00    -0.354 N 
ATOM     20  C   UNL A   1      42.208  28.793  33.674  1.00  0.00     0.074 A 
ATOM     21  C   UNL A   1      42.728  27.614  33.013  1.00  0.00     0.031 C 
ATOM     22  C   UNL A   1      37.616  30.816  29.676  1.00  0.00     0.029 A 
ATOM     23  C   UNL A   1      38.031  31.419  30.939  1.00  0.00     0.049 A 
ATOM     24  H   UNL A   1      39.545  30.777  32.217  1.00  0.00     0.167 HD
ATOM     25  C   UNL A   1      42.645  29.255  34.870  1.00  0.00     0.031 A 
ATOM     26  C   UNL A   1      37.474  32.514  31.490  1.00  0.00     0.031 A 
ATOM     27  C   UNL A   1      42.145  30.435  35.519  1.00  0.00     0.049 A 
ATOM     28  C   UNL A   1      37.990  33.023  32.801  1.00  0.00     0.074 A 
ATOM     29  C   UNL A   1      42.561  31.006  36.711  1.00  0.00     0.029 A 
ATOM     30  N   UNL A   1      41.113  31.226  35.035  1.00  0.00    -0.354 N 
ATOM     31  N   UNL A   1      38.955  32.538  33.543  1.00  0.00    -0.248 NA
ATOM     32  C   UNL A   1      37.340  34.219  33.352  1.00  0.00     0.031 C 
ATOM     33  C   UNL A   1      41.763  32.131  36.958  1.00  0.00     0.029 A 
ATOM     34  C   UNL A   1      40.867  32.270  35.910  1.00  0.00     0.049 A 
ATOM     35  H   UNL A   1      40.629  31.068  34.193  1.00  0.00     0.167 HD
ATOM     36  C   UNL A   1      39.029  33.367  34.654  1.00  0.00     0.074 A 
ATOM     37  C   UNL A   1      38.022  34.394  34.479  1.00  0.00     0.031 C 
ATOM     38  C   UNL A   1      39.855  33.278  35.725  1.00  0.00     0.031 A 
BRANCH  25  39
ATOM     39  C   UNL A   1      43.708  28.448  35.561  1.00  0.00    -0.014 A 
ATOM     40  C   UNL A   1      45.066  28.800  35.458  1.00  0.00     0.010 A 
ATOM     41  C   UNL A   1      43.342  27.321  36.317  1.00  0.00     0.010 A 
ATOM     42  C   UNL A   1      46.046  28.006  36.059  1.00  0.00     0.020 A 
ATOM     43  C   UNL A   1      44.319  26.532  36.931  1.00  0.00     0.020 A 
ATOM     44  C   UNL A   1      45.667  26.867  36.778  1.00  0.00     0.054 A 
BRANCH  44  45
ATOM     45  S   UNL A   1      46.950  25.831  37.533  1.00  0.00     0.124 S 
ATOM     46  O   UNL A   1      47.280  26.593  38.734  1.00  0.00    -0.237 OA
ATOM     47  O   UNL A   1      46.258  24.565  37.764  1.00  0.00    -0.237 OA
ATOM     48  O   UNL A   1      47.996  25.785  36.514  1.00  0.00    -0.744 OA
ENDBRANCH  44  45
ENDBRANCH  25  39
BRANCH  26  49
ATOM     49  C   UNL A   1      36.354  33.179  30.779  1.00  0.00    -0.014 A 
ATOM     50  C   UNL A   1      35.072  33.216  31.351  1.00  0.00     0.010 A 
ATOM     51  C   UNL A   1      36.598  33.878  29.582  1.00  0.00     0.010 A 
ATOM     52  C   UNL A   1      34.055  33.965  30.750  1.00  0.00     0.020 A 
ATOM     53  C   UNL A   1      35.588  34.639  28.989  1.00  0.00     0.020 A 
ATOM     54  C   UNL A   1      34.323  34.680  29.579  1.00  0.00     0.054 A 
BRANCH  54  55
ATOM     55  S   UNL A   1      33.038  35.760  28.887  1.00  0.00     0.124 S 
ATOM     56  O   UNL A   1      33.832  36.802  28.245  1.00  0.00    -0.237 OA
ATOM     57  O   UNL A   1      32.315  34.867  27.985  1.00  0.00    -0.237 OA
ATOM     58  O   UNL A   1      32.284  36.179  30.066  1.00  0.00    -0.744 OA
ENDBRANCH  54  55
ENDBRANCH  26  49
BRANCH  38  59
ATOM     59  C   UNL A   1      39.700  34.317  36.797  1.00  0.00    -0.014 A 
ATOM     60  C   UNL A   1      38.908  34.060  37.929  1.00  0.00     0.010 A 
ATOM     61  C   UNL A   1      40.403  35.531  36.704  1.00  0.00     0.010 A 
ATOM     62  C   UNL A   1      38.810  35.009  38.949  1.00  0.00     0.020 A 
ATOM     63  C   UNL A   1      40.315  36.477  37.728  1.00  0.00     0.020 A 
ATOM     64  C   UNL A   1      39.512  36.213  38.841  1.00  0.00     0.054 A 
BRANCH  64  65
ATOM     65  S   UNL A   1      39.425  37.411  40.201  1.00  0.00     0.124 S 
ATOM     66  O   UNL A   1      40.832  37.743  40.403  1.00  0.00    -0.237 OA
ATOM     67  O   UNL A   1      38.602  38.481  39.644  1.00  0.00    -0.237 OA
ATOM     68  O   UNL A   1      38.800  36.654  41.284  1.00  0.00    -0.744 OA
ENDBRANCH  64  65
ENDBRANCH  38  59
ENDBRANCH  12  13
ENDBRANCH   5   7
ENDBRANCH   2   3
ENDBRANCH   1   2
BRANCH   1  69
ATOM     69  C   UNL A   1      36.417  22.101  25.782  1.00  0.00     0.118 C 
BRANCH  69  70
ATOM     70  N   UNL A   1      35.447  22.446  26.812  1.00  0.00    -0.351 N 
ATOM     71  C   UNL A   1      34.106  22.170  26.878  1.00  0.00     0.269 C 
ATOM     72  H   UNL A   1      35.809  22.955  27.574  1.00  0.00     0.163 HD
ATOM     73  O   UNL A   1      33.416  22.815  27.663  1.00  0.00    -0.268 OA
BRANCH  71  74
ATOM     74  C   UNL A   1      33.548  21.173  26.012  1.00  0.00     0.131 A 
ATOM     75  N   UNL A   1      33.223  19.926  26.470  1.00  0.00    -0.272 N 
ATOM     76  C   UNL A   1      33.314  21.142  24.640  1.00  0.00     0.057 A 
ATOM     77  N   UNL A   1      32.666  19.135  25.540  1.00  0.00    -0.183 NA
ATOM     78  H   UNL A   1      33.383  19.635  27.397  1.00  0.00     0.190 HD
ATOM     79  C   UNL A   1      32.713  19.877  24.432  1.00  0.00     0.145 A 
BRANCH  76  80
ATOM     80  C   UNL A   1      33.613  22.207  23.634  1.00  0.00     0.303 C 
BRANCH  80  81
ATOM     81  N   UNL A   1      32.741  23.384  23.696  1.00  0.00    -0.330 N 
ATOM     82  C   UNL A   1      32.736  24.196  22.479  1.00  0.00     0.262 C 
ATOM     83  C   UNL A   1      31.395  23.101  24.187  1.00  0.00     0.274 C 
ATOM     84  H   UNL A   1      33.179  23.970  24.406  1.00  0.00     0.348 HD
ATOM     85  C   UNL A   1      32.105  25.555  22.759  1.00  0.00     0.062 C 
ATOM     86  C   UNL A   1      30.626  24.386  24.509  1.00  0.00     0.116 C 
ATOM     87  C   UNL A   1      30.724  25.441  23.402  1.00  0.00     0.023 C 
BRANCH  86  88
ATOM     88  C   UNL A   1      30.902  24.873  25.933  1.00  0.00     0.171 C 
ATOM     89  O   UNL A   1      30.383  24.329  26.908  1.00  0.00    -0.294 OA
BRANCH  88  90
ATOM     90  C   UNL A   1      31.867  25.961  26.199  1.00  0.00     0.019 A 
ATOM     91  C   UNL A   1      33.229  25.767  25.983  1.00  0.00     0.012 A 
ATOM     92  C   UNL A   1      31.379  27.225  26.549  1.00  0.00     0.020 A 
ATOM     93  C   UNL A   1      34.120  26.821  26.193  1.00  0.00     0.009 A 
ATOM     94  C   UNL A   1      32.264  28.300  26.740  1.00  0.00    -0.018 A 
ATOM     95  C   UNL A   1      33.654  28.091  26.573  1.00  0.00    -0.018 A 
ATOM     96  C   UNL A   1      31.802  29.581  27.084  1.00  0.00     0.009 A 
ATOM     97  C   UNL A   1      34.541  29.160  26.774  1.00  0.00     0.009 A 
ATOM     98  C   UNL A   1      32.697  30.636  27.273  1.00  0.00     0.001 A 
ATOM     99  C   UNL A   1      34.064  30.425  27.122  1.00  0.00     0.001 A 
ENDBRANCH  88  90
ENDBRANCH  86  88
ENDBRANCH  80  81
ENDBRANCH  76  80
ENDBRANCH  71  74
ENDBRANCH  69  70
ENDBRANCH   1  69
TORSDOF 17
ENDMDL
MODEL 2
REMARK VINA RESULT:     -12.7      3.275      9.521
REMARK SMILES O=C(NCCCNC(=O)c1[nH]ncc1C[N@H+]1CCC[C@H](C(=O)c2ccc3ccccc3c2)C1)c1ccc(-c2c3nc(c(-c4ccc(S(=O)(=O)[O-])cc4)c4ccc([nH]4)c(-c4ccc(S(=O)(=O)[O-])cc4)c4nc(c(-c5ccc(S(=O)(=O)[O-])cc5)c5ccc2[nH]5)C=C4)C=C3)cc1
REMARK SMILES IDX 5 1 4 2 3 3 1 4 2 5 34 7 35 8 93 9 36 10 92 11 37 12 38 13
REMARK SMILES IDX 39 14 86 15 40 16 91 17 85 18 87 19 41 20 90 21 84 22 83 23
REMARK SMILES IDX 42 25 72 26 53 27 71 28 54 29 57 30 70 31 88 32 55 33 56 34
REMARK SMILES IDX 69 36 89 37 58 38 43 39 44 40 52 41 45 42 51 43 46 44 47 45
REMARK SMILES IDX 48 46 49 47 50 48 73 49 74 50 82 51 75 52 81 53 76 54 77 55
REMARK SMILES IDX 78 56 79 57 80 58 59 59 60 60 68 61 61 62 67 63 62 64 63 65
REMARK SMILES IDX 64 66 65 67 66 68 6 69 7 70 8 71 9 73 10 74 11 75 14 76
REMARK SMILES IDX 12 77 13 79 15 80 16 81 17 82 33 83 18 85 20 86 19 87 21 88
REMARK SMILES IDX 22 89 23 90 24 91 32 92 25 93 31 94 26 95 30 96 27 97 29 98
REMARK SMILES IDX 28 99
REMARK H PARENT 3 6 87 24 57 35 7 72 11 78 16 84
REMARK Flexibility Score: inf
ROOT
ATOM      1  C   UNL A   1      33.957  27.575  25.612  1.00  0.00     0.042 C 
ENDROOT
BRANCH   1   2
ATOM      2  C   UNL A   1      33.615  28.133  26.989  1.00  0.00     0.118 C 
BRANCH   2   3
ATOM      3  N   UNL A   1      33.528  29.586  26.991  1.00  0.00    -0.352 N 
ATOM      4  O   UNL A   1      33.913  31.688  27.663  1.00  0.00    -0.269 OA
ATOM      5  C   UNL A   1      34.322  30.531  27.589  1.00  0.00     0.251 C 
ATOM      6  H   UNL A   1      32.772  29.951  26.476  1.00  0.00     0.163 HD
BRANCH   5   7
ATOM      7  C   UNL A   1      35.647  30.182  28.152  1.00  0.00     0.039 A 
ATOM      8  C   UNL A   1      36.829  30.461  27.462  1.00  0.00     0.014 A 
ATOM      9  C   UNL A   1      35.709  29.644  29.442  1.00  0.00     0.014 A 
ATOM     10  C   UNL A   1      38.059  30.093  28.006  1.00  0.00     0.010 A 
ATOM     11  C   UNL A   1      36.947  29.343  30.018  1.00  0.00     0.010 A 
ATOM     12  C   UNL A   1      38.132  29.544  29.295  1.00  0.00    -0.014 A 
BRANCH  12  13
ATOM     13  C   UNL A   1      39.456  29.251  29.897  1.00  0.00     0.031 A 
ATOM     14  C   UNL A   1      39.966  30.040  31.069  1.00  0.00     0.074 A 
ATOM     15  C   UNL A   1      40.207  28.262  29.376  1.00  0.00     0.049 A 
ATOM     16  N   UNL A   1      41.105  29.923  31.704  1.00  0.00    -0.248 NA
ATOM     17  C   UNL A   1      39.094  31.105  31.587  1.00  0.00     0.031 C 
ATOM     18  C   UNL A   1      39.833  27.437  28.224  1.00  0.00     0.029 A 
ATOM     19  N   UNL A   1      41.434  27.777  29.748  1.00  0.00    -0.354 N 
ATOM     20  C   UNL A   1      41.102  30.916  32.675  1.00  0.00     0.074 A 
ATOM     21  C   UNL A   1      39.849  31.631  32.542  1.00  0.00     0.031 C 
ATOM     22  C   UNL A   1      40.796  26.531  28.002  1.00  0.00     0.029 A 
ATOM     23  C   UNL A   1      41.873  26.737  28.966  1.00  0.00     0.049 A 
ATOM     24  H   UNL A   1      41.952  28.141  30.503  1.00  0.00     0.167 HD
ATOM     25  C   UNL A   1      42.056  31.209  33.591  1.00  0.00     0.031 A 
ATOM     26  C   UNL A   1      43.019  26.030  29.004  1.00  0.00     0.031 A 
ATOM     27  C   UNL A   1      43.291  30.489  33.738  1.00  0.00     0.049 A 
ATOM     28  C   UNL A   1      44.049  26.353  30.041  1.00  0.00     0.074 A 
ATOM     29  C   UNL A   1      44.297  30.684  34.670  1.00  0.00     0.029 A 
ATOM     30  N   UNL A   1      43.694  29.437  32.929  1.00  0.00    -0.354 N 
ATOM     31  N   UNL A   1      44.010  27.274  30.974  1.00  0.00    -0.248 NA
ATOM     32  C   UNL A   1      45.279  25.549  30.031  1.00  0.00     0.031 C 
ATOM     33  C   UNL A   1      45.320  29.763  34.409  1.00  0.00     0.029 A 
ATOM     34  C   UNL A   1      44.939  28.983  33.328  1.00  0.00     0.049 A 
ATOM     35  H   UNL A   1      43.170  29.068  32.183  1.00  0.00     0.167 HD
ATOM     36  C   UNL A   1      45.211  27.166  31.661  1.00  0.00     0.074 A 
ATOM     37  C   UNL A   1      45.949  26.079  31.048  1.00  0.00     0.031 C 
ATOM     38  C   UNL A   1      45.663  27.907  32.702  1.00  0.00     0.031 A 
BRANCH  25  39
ATOM     39  C   UNL A   1      41.797  32.386  34.488  1.00  0.00    -0.014 A 
ATOM     40  C   UNL A   1      41.114  32.233  35.707  1.00  0.00     0.010 A 
ATOM     41  C   UNL A   1      42.239  33.664  34.100  1.00  0.00     0.010 A 
ATOM     42  C   UNL A   1      40.830  33.347  36.501  1.00  0.00     0.020 A 
ATOM     43  C   UNL A   1      41.970  34.779  34.899  1.00  0.00     0.020 A 
ATOM     44  C   UNL A   1      41.246  34.616  36.083  1.00  0.00     0.054 A 
BRANCH  44  45
ATOM     45  S   UNL A   1      40.851  36.058  37.110  1.00  0.00     0.124 S 
ATOM     46  O   UNL A   1      42.132  36.760  37.143  1.00  0.00    -0.237 OA
ATOM     47  O   UNL A   1      39.791  36.721  36.354  1.00  0.00    -0.237 OA
ATOM     48  O   UNL A   1      40.429  35.469  38.378  1.00  0.00    -0.744 OA
ENDBRANCH  44  45
ENDBRANCH  25  39
BRANCH  26  49
ATOM     49  C   UNL A   1      43.226  24.954  28.004  1.00  0.00    -0.014 A 
ATOM     50  C   UNL A   1      43.611  25.269  26.690  1.00  0.00     0.010 A 
ATOM     51  C   UNL A   1      43.153  23.605  28.398  1.00  0.00     0.010 A 
ATOM     52  C   UNL A   1      43.944  24.252  25.792  1.00  0.00     0.020 A 
ATOM     53  C   UNL A   1      43.501  22.587  27.506  1.00  0.00     0.020 A 
ATOM     54  C   UNL A   1      43.898  22.918  26.209  1.00  0.00     0.054 A 
BRANCH  54  55
ATOM     55  S   UNL A   1      44.469  21.616  25.079  1.00  0.00     0.124 S 
ATOM     56  O   UNL A   1      44.398  22.286  23.785  1.00  0.00    -0.237 OA
ATOM     57  O   UNL A   1      45.814  21.328  25.571  1.00  0.00    -0.237 OA
ATOM     58  O   UNL A   1      43.499  20.544  25.287  1.00  0.00    -0.744 OA
ENDBRANCH  54  55
ENDBRANCH  26  49
BRANCH  38  59
ATOM     59  C   UNL A   1      47.022  27.572  33.243  1.00  0.00    -0.014 A 
ATOM     60  C   UNL A   1      47.167  26.601  34.250  1.00  0.00     0.010 A 
ATOM     61  C   UNL A   1      48.165  28.180  32.698  1.00  0.00     0.010 A 
ATOM     62  C   UNL A   1      48.438  26.254  34.713  1.00  0.00     0.020 A 
ATOM     63  C   UNL A   1      49.437  27.826  33.151  1.00  0.00     0.020 A 
ATOM     64  C   UNL A   1      49.566  26.870  34.163  1.00  0.00     0.054 A 
BRANCH  64  65
ATOM     65  S   UNL A   1      51.214  26.365  34.730  1.00  0.00     0.124 S 
ATOM     66  O   UNL A   1      51.518  25.259  33.827  1.00  0.00    -0.237 OA
ATOM     67  O   UNL A   1      52.012  27.573  34.536  1.00  0.00    -0.237 OA
ATOM     68  O   UNL A   1      50.994  25.990  36.126  1.00  0.00    -0.744 OA
ENDBRANCH  64  65
ENDBRANCH  38  59
ENDBRANCH  12  13
ENDBRANCH   5   7
ENDBRANCH   2   3
ENDBRANCH   1   2
BRANCH   1  69
ATOM     69  C   UNL A   1      33.906  28.611  24.495  1.00  0.00     0.118 C 
BRANCH  69  70
ATOM     70  N   UNL A   1      33.985  28.003  23.174  1.00  0.00    -0.351 N 
ATOM     71  C   UNL A   1      32.983  27.532  22.367  1.00  0.00     0.269 C 
ATOM     72  H   UNL A   1      34.895  27.917  22.807  1.00  0.00     0.163 HD
ATOM     73  O   UNL A   1      33.282  26.779  21.444  1.00  0.00    -0.268 OA
BRANCH  71  74
ATOM     74  C   UNL A   1      31.624  27.898  22.644  1.00  0.00     0.131 A 
ATOM     75  N   UNL A   1      31.239  29.207  22.734  1.00  0.00    -0.272 N 
ATOM     76  C   UNL A   1      30.494  27.152  22.965  1.00  0.00     0.057 A 
ATOM     77  N   UNL A   1      29.924  29.372  22.948  1.00  0.00    -0.183 NA
ATOM     78  H   UNL A   1      31.868  29.960  22.651  1.00  0.00     0.190 HD
ATOM     79  C   UNL A   1      29.472  28.124  23.079  1.00  0.00     0.145 A 
BRANCH  76  80
ATOM     80  C   UNL A   1      30.392  25.669  23.130  1.00  0.00     0.303 C 
BRANCH  80  81
ATOM     81  N   UNL A   1      31.250  25.097  24.172  1.00  0.00    -0.330 N 
ATOM     82  C   UNL A   1      30.700  25.188  25.524  1.00  0.00     0.262 C 
ATOM     83  C   UNL A   1      31.756  23.764  23.860  1.00  0.00     0.274 C 
ATOM     84  H   UNL A   1      32.065  25.710  24.173  1.00  0.00     0.348 HD
ATOM     85  C   UNL A   1      31.790  24.908  26.553  1.00  0.00     0.062 C 
ATOM     86  C   UNL A   1      32.867  23.336  24.824  1.00  0.00     0.116 C 
ATOM     87  C   UNL A   1      32.519  23.590  26.295  1.00  0.00     0.023 C 
BRANCH  86  88
ATOM     88  C   UNL A   1      34.242  23.823  24.361  1.00  0.00     0.171 C 
ATOM     89  O   UNL A   1      34.363  24.836  23.670  1.00  0.00    -0.294 OA
BRANCH  88  90
ATOM     90  C   UNL A   1      35.482  23.147  24.793  1.00  0.00     0.019 A 
ATOM     91  C   UNL A   1      35.773  21.856  24.357  1.00  0.00     0.012 A 
ATOM     92  C   UNL A   1      36.418  23.868  25.542  1.00  0.00     0.020 A 
ATOM     93  C   UNL A   1      36.973  21.251  24.735  1.00  0.00     0.009 A 
ATOM     94  C   UNL A   1      37.640  23.278  25.910  1.00  0.00    -0.018 A 
ATOM     95  C   UNL A   1      37.914  21.947  25.512  1.00  0.00    -0.018 A 
ATOM     96  C   UNL A   1      38.601  23.980  26.655  1.00  0.00     0.009 A 
ATOM     97  C   UNL A   1      39.129  21.352  25.887  1.00  0.00     0.009 A 
ATOM     98  C   UNL A   1      39.808  23.376  27.013  1.00  0.00     0.001 A 
ATOM     99  C   UNL A   1      40.070  22.063  26.633  1.00  0.00     0.001 A 
ENDBRANCH  88  90
ENDBRANCH  86  88
ENDBRANCH  80  81
ENDBRANCH  76  80
ENDBRANCH  71  74
ENDBRANCH  69  70
ENDBRANCH   1  69
TORSDOF 17
ENDMDL
MODEL 3
REMARK VINA RESULT:     -12.6      1.157      8.010
REMARK SMILES O=C(NCCCNC(=O)c1[nH]ncc1C[N@H+]1CCC[C@H](C(=O)c2ccc3ccccc3c2)C1)c1ccc(-c2c3nc(c(-c4ccc(S(=O)(=O)[O-])cc4)c4ccc([nH]4)c(-c4ccc(S(=O)(=O)[O-])cc4)c4nc(c(-c5ccc(S(=O)(=O)[O-])cc5)c5ccc2[nH]5)C=C4)C=C3)cc1
REMARK SMILES IDX 5 1 4 2 3 3 1 4 2 5 34 7 35 8 93 9 36 10 92 11 37 12 38 13
REMARK SMILES IDX 39 14 86 15 40 16 91 17 85 18 87 19 41 20 90 21 84 22 83 23
REMARK SMILES IDX 42 25 72 26 53 27 71 28 54 29 57 30 70 31 88 32 55 33 56 34
REMARK SMILES IDX 69 36 89 37 58 38 43 39 44 40 52 41 45 42 51 43 46 44 47 45
REMARK SMILES IDX 48 46 49 47 50 48 73 49 74 50 82 51 75 52 81 53 76 54 77 55
REMARK SMILES IDX 78 56 79 57 80 58 59 59 60 60 68 61 61 62 67 63 62 64 63 65
REMARK SMILES IDX 64 66 65 67 66 68 6 69 7 70 8 71 9 73 10 74 11 75 14 76
REMARK SMILES IDX 12 77 13 79 15 80 16 81 17 82 33 83 18 85 20 86 19 87 21 88
REMARK SMILES IDX 22 89 23 90 24 91 32 92 25 93 31 94 26 95 30 96 27 97 29 98
REMARK SMILES IDX 28 99
REMARK H PARENT 3 6 87 24 57 35 7 72 11 78 16 84
REMARK Flexibility Score: inf
ROOT
ATOM      1  C   UNL A   1      38.510  22.869  26.271  1.00  0.00     0.042 C 
ENDROOT
BRANCH   1   2
ATOM      2  C   UNL A   1      39.566  23.679  27.015  1.00  0.00     0.118 C 
BRANCH   2   3
ATOM      3  N   UNL A   1      40.513  24.316  26.112  1.00  0.00    -0.352 N 
ATOM      4  O   UNL A   1      41.655  25.978  25.137  1.00  0.00    -0.269 OA
ATOM      5  C   UNL A   1      41.076  25.566  26.140  1.00  0.00     0.251 C 
ATOM      6  H   UNL A   1      40.796  23.755  25.354  1.00  0.00     0.163 HD
BRANCH   5   7
ATOM      7  C   UNL A   1      40.991  26.425  27.344  1.00  0.00     0.039 A 
ATOM      8  C   UNL A   1      41.771  27.576  27.476  1.00  0.00     0.014 A 
ATOM      9  C   UNL A   1      40.041  26.117  28.324  1.00  0.00     0.014 A 
ATOM     10  C   UNL A   1      41.689  28.347  28.634  1.00  0.00     0.010 A 
ATOM     11  C   UNL A   1      39.907  26.931  29.452  1.00  0.00     0.010 A 
ATOM     12  C   UNL A   1      40.746  28.041  29.628  1.00  0.00    -0.014 A 
BRANCH  12  13
ATOM     13  C   UNL A   1      40.605  28.929  30.808  1.00  0.00     0.031 A 
ATOM     14  C   UNL A   1      39.532  29.979  30.863  1.00  0.00     0.074 A 
ATOM     15  C   UNL A   1      41.460  28.788  31.840  1.00  0.00     0.049 A 
ATOM     16  N   UNL A   1      39.280  30.846  31.811  1.00  0.00    -0.248 NA
ATOM     17  C   UNL A   1      38.634  30.078  29.702  1.00  0.00     0.031 C 
ATOM     18  C   UNL A   1      42.558  27.821  31.897  1.00  0.00     0.029 A 
ATOM     19  N   UNL A   1      41.535  29.449  33.037  1.00  0.00    -0.354 N 
ATOM     20  C   UNL A   1      38.218  31.614  31.351  1.00  0.00     0.074 A 
ATOM     21  C   UNL A   1      37.876  31.113  30.036  1.00  0.00     0.031 C 
ATOM     22  C   UNL A   1      43.179  27.932  33.081  1.00  0.00     0.029 A 
ATOM     23  C   UNL A   1      42.552  29.004  33.846  1.00  0.00     0.049 A 
ATOM     24  H   UNL A   1      40.920  30.175  33.294  1.00  0.00     0.167 HD
ATOM     25  C   UNL A   1      37.588  32.643  31.966  1.00  0.00     0.031 A 
ATOM     26  C   UNL A   1      42.951  29.417  35.064  1.00  0.00     0.031 A 
ATOM     27  C   UNL A   1      37.911  33.129  33.279  1.00  0.00     0.049 A 
ATOM     28  C   UNL A   1      42.224  30.540  35.737  1.00  0.00     0.074 A 
ATOM     29  C   UNL A   1      37.295  34.137  34.002  1.00  0.00     0.029 A 
ATOM     30  N   UNL A   1      38.945  32.646  34.067  1.00  0.00    -0.354 N 
ATOM     31  N   UNL A   1      41.198  31.228  35.299  1.00  0.00    -0.248 NA
ATOM     32  C   UNL A   1      42.708  30.946  37.063  1.00  0.00     0.031 C 
ATOM     33  C   UNL A   1      37.973  34.278  35.220  1.00  0.00     0.029 A 
ATOM     34  C   UNL A   1      38.997  33.344  35.261  1.00  0.00     0.049 A 
ATOM     35  H   UNL A   1      39.552  31.914  33.814  1.00  0.00     0.167 HD
ATOM     36  C   UNL A   1      40.914  32.155  36.293  1.00  0.00     0.074 A 
ATOM     37  C   UNL A   1      41.865  31.928  37.363  1.00  0.00     0.031 C 
ATOM     38  C   UNL A   1      39.955  33.112  36.311  1.00  0.00     0.031 A 
BRANCH  25  39
ATOM     39  C   UNL A   1      36.494  33.327  31.194  1.00  0.00    -0.014 A 
ATOM     40  C   UNL A   1      36.779  34.061  30.029  1.00  0.00     0.010 A 
ATOM     41  C   UNL A   1      35.166  33.240  31.647  1.00  0.00     0.010 A 
ATOM     42  C   UNL A   1      35.758  34.739  29.357  1.00  0.00     0.020 A 
ATOM     43  C   UNL A   1      34.141  33.904  30.969  1.00  0.00     0.020 A 
ATOM     44  C   UNL A   1      34.448  34.669  29.842  1.00  0.00     0.054 A 
BRANCH  44  45
ATOM     45  S   UNL A   1      33.136  35.574  28.974  1.00  0.00     0.124 S 
ATOM     46  O   UNL A   1      33.908  36.527  28.179  1.00  0.00    -0.237 OA
ATOM     47  O   UNL A   1      32.461  34.525  28.213  1.00  0.00    -0.237 OA
ATOM     48  O   UNL A   1      32.348  36.156  30.057  1.00  0.00    -0.744 OA
ENDBRANCH  44  45
ENDBRANCH  25  39
BRANCH  26  49
ATOM     49  C   UNL A   1      44.113  28.746  35.699  1.00  0.00    -0.014 A 
ATOM     50  C   UNL A   1      43.925  27.604  36.496  1.00  0.00     0.010 A 
ATOM     51  C   UNL A   1      45.420  29.180  35.410  1.00  0.00     0.010 A 
ATOM     52  C   UNL A   1      45.028  26.891  36.974  1.00  0.00     0.020 A 
ATOM     53  C   UNL A   1      46.523  28.460  35.873  1.00  0.00     0.020 A 
ATOM     54  C   UNL A   1      46.321  27.318  36.650  1.00  0.00     0.054 A 
BRANCH  54  55
ATOM     55  S   UNL A   1      47.740  26.305  37.156  1.00  0.00     0.124 S 
ATOM     56  O   UNL A   1      48.443  27.202  38.067  1.00  0.00    -0.237 OA
ATOM     57  O   UNL A   1      47.106  25.144  37.774  1.00  0.00    -0.237 OA
ATOM     58  O   UNL A   1      48.422  26.030  35.893  1.00  0.00    -0.744 OA
ENDBRANCH  54  55
ENDBRANCH  26  49
BRANCH  38  59
ATOM     59  C   UNL A   1      39.887  33.991  37.525  1.00  0.00    -0.014 A 
ATOM     60  C   UNL A   1      40.630  35.184  37.583  1.00  0.00     0.010 A 
ATOM     61  C   UNL A   1      39.028  33.659  38.586  1.00  0.00     0.010 A 
ATOM     62  C   UNL A   1      40.523  36.026  38.692  1.00  0.00     0.020 A 
ATOM     63  C   UNL A   1      38.912  34.504  39.691  1.00  0.00     0.020 A 
ATOM     64  C   UNL A   1      39.666  35.680  39.741  1.00  0.00     0.054 A 
BRANCH  64  65
ATOM     65  S   UNL A   1      39.490  36.813  41.148  1.00  0.00     0.124 S 
ATOM     66  O   UNL A   1      38.734  37.913  40.557  1.00  0.00    -0.237 OA
ATOM     67  O   UNL A   1      38.766  36.008  42.128  1.00  0.00    -0.237 OA
ATOM     68  O   UNL A   1      40.872  37.126  41.509  1.00  0.00    -0.744 OA
ENDBRANCH  64  65
ENDBRANCH  38  59
ENDBRANCH  12  13
ENDBRANCH   5   7
ENDBRANCH   2   3
ENDBRANCH   1   2
BRANCH   1  69
ATOM     69  C   UNL A   1      37.277  23.674  25.879  1.00  0.00     0.118 C 
BRANCH  69  70
ATOM     70  N   UNL A   1      37.071  23.702  24.438  1.00  0.00    -0.351 N 
ATOM     71  C   UNL A   1      36.269  22.915  23.653  1.00  0.00     0.269 C 
ATOM     72  H   UNL A   1      37.586  24.389  23.955  1.00  0.00     0.163 HD
ATOM     73  O   UNL A   1      36.478  22.892  22.443  1.00  0.00    -0.268 OA
BRANCH  71  74
ATOM     74  C   UNL A   1      35.245  22.121  24.266  1.00  0.00     0.131 A 
ATOM     75  N   UNL A   1      35.530  21.225  25.259  1.00  0.00    -0.272 N 
ATOM     76  C   UNL A   1      33.887  21.966  24.000  1.00  0.00     0.057 A 
ATOM     77  N   UNL A   1      34.450  20.602  25.755  1.00  0.00    -0.183 NA
ATOM     78  H   UNL A   1      36.445  21.050  25.579  1.00  0.00     0.190 HD
ATOM     79  C   UNL A   1      33.452  21.060  24.997  1.00  0.00     0.145 A 
BRANCH  76  80
ATOM     80  C   UNL A   1      33.083  22.622  22.923  1.00  0.00     0.303 C 
BRANCH  80  81
ATOM     81  N   UNL A   1      32.845  24.056  23.109  1.00  0.00    -0.330 N 
ATOM     82  C   UNL A   1      33.000  24.857  21.895  1.00  0.00     0.262 C 
ATOM     83  C   UNL A   1      31.614  24.364  23.831  1.00  0.00     0.274 C 
ATOM     84  H   UNL A   1      33.606  24.348  23.722  1.00  0.00     0.348 HD
ATOM     85  C   UNL A   1      33.090  26.336  22.252  1.00  0.00     0.062 C 
ATOM     86  C   UNL A   1      31.556  25.836  24.255  1.00  0.00     0.116 C 
ATOM     87  C   UNL A   1      31.928  26.803  23.126  1.00  0.00     0.023 C 
BRANCH  86  88
ATOM     88  C   UNL A   1      32.249  26.068  25.600  1.00  0.00     0.171 C 
ATOM     89  O   UNL A   1      32.650  25.127  26.285  1.00  0.00    -0.294 OA
BRANCH  88  90
ATOM     90  C   UNL A   1      32.538  27.432  26.089  1.00  0.00     0.019 A 
ATOM     91  C   UNL A   1      31.500  28.297  26.430  1.00  0.00     0.012 A 
ATOM     92  C   UNL A   1      33.868  27.797  26.325  1.00  0.00     0.020 A 
ATOM     93  C   UNL A   1      31.792  29.564  26.937  1.00  0.00     0.009 A 
ATOM     94  C   UNL A   1      34.173  29.062  26.858  1.00  0.00    -0.018 A 
ATOM     95  C   UNL A   1      33.122  29.961  27.154  1.00  0.00    -0.018 A 
ATOM     96  C   UNL A   1      35.499  29.452  27.112  1.00  0.00     0.009 A 
ATOM     97  C   UNL A   1      33.425  31.229  27.676  1.00  0.00     0.009 A 
ATOM     98  C   UNL A   1      35.783  30.714  27.638  1.00  0.00     0.001 A 
ATOM     99  C   UNL A   1      34.748  31.602  27.916  1.00  0.00     0.001 A 
ENDBRANCH  88  90
ENDBRANCH  86  88
ENDBRANCH  80  81
ENDBRANCH  76  80
ENDBRANCH  71  74
ENDBRANCH  69  70
ENDBRANCH   1  69
TORSDOF 17
ENDMDL
