MODEL 1
REMARK VINA RESULT:     -10.7      0.000      0.000
REMARK SMILES O=C(NCCCNC(=O)C1CC[NH+]([C@H]2CC(=O)N(c3ccc4c(c3)OCCO4)C2=O)CC1)c1ccc(-c2c3nc(c(-c4ccc(S(=O)(=O)[O-])cc4)c4ccc([nH]4)c(-c4ccc(S(=O)(=O)[O-])cc4)c4nc(c(-c5ccc(S(=O)(=O)[O-])cc5)c5ccc2[nH]5)C=C4)C=C3)cc1
REMARK SMILES IDX 4 1 3 2 1 3 2 4 33 6 34 7 92 8 35 9 91 10 36 11 37 12 38 13
REMARK SMILES IDX 85 14 39 15 90 16 84 17 86 18 40 19 89 20 83 21 82 22 41 24
REMARK SMILES IDX 71 25 52 26 70 27 53 28 56 29 69 30 87 31 54 32 55 33 68 35
REMARK SMILES IDX 88 36 57 37 42 38 43 39 51 40 44 41 50 42 45 43 46 44 47 45
REMARK SMILES IDX 48 46 49 47 72 48 73 49 81 50 74 51 80 52 75 53 76 54 77 55
REMARK SMILES IDX 78 56 79 57 58 58 59 59 67 60 60 61 66 62 61 63 62 64 63 65
REMARK SMILES IDX 64 66 65 67 5 68 6 69 7 70 8 71 9 73 10 74 11 75 32 76 12 77
REMARK SMILES IDX 31 78 13 79 14 81 15 82 29 83 16 84 18 85 30 86 17 87 19 88
REMARK SMILES IDX 20 89 24 90 21 91 23 92 22 93 25 94 28 95 26 96 27 97
REMARK H PARENT 3 5 86 23 56 34 7 72 13 80
REMARK Flexibility Score: inf
ROOT
ATOM      1  C   UNL A   1      34.756  32.647  29.013  1.00  0.00     0.118 C 
ENDROOT
BRANCH   1   2
ATOM      2  N   UNL A   1      34.098  31.525  28.358  1.00  0.00    -0.352 N 
ATOM      3  O   UNL A   1      33.934  29.612  27.188  1.00  0.00    -0.269 OA
ATOM      4  C   UNL A   1      34.625  30.348  27.890  1.00  0.00     0.251 C 
ATOM      5  H   UNL A   1      33.128  31.626  28.232  1.00  0.00     0.163 HD
BRANCH   4   6
ATOM      6  C   UNL A   1      36.015  29.971  28.219  1.00  0.00     0.039 A 
ATOM      7  C   UNL A   1      37.045  30.178  27.299  1.00  0.00     0.014 A 
ATOM      8  C   UNL A   1      36.295  29.437  29.480  1.00  0.00     0.014 A 
ATOM      9  C   UNL A   1      38.330  29.737  27.590  1.00  0.00     0.010 A 
ATOM     10  C   UNL A   1      37.603  29.067  29.803  1.00  0.00     0.010 A 
ATOM     11  C   UNL A   1      38.627  29.192  28.851  1.00  0.00    -0.014 A 
BRANCH  11  12
ATOM     12  C   UNL A   1      40.029  28.827  29.172  1.00  0.00     0.031 A 
ATOM     13  C   UNL A   1      40.925  29.771  29.922  1.00  0.00     0.074 A 
ATOM     14  C   UNL A   1      40.481  27.614  28.797  1.00  0.00     0.049 A 
ATOM     15  N   UNL A   1      42.162  29.592  30.312  1.00  0.00    -0.248 NA
ATOM     16  C   UNL A   1      40.369  31.085  30.276  1.00  0.00     0.031 C 
ATOM     17  C   UNL A   1      39.701  26.618  28.057  1.00  0.00     0.029 A 
ATOM     18  N   UNL A   1      41.690  27.003  29.001  1.00  0.00    -0.354 N 
ATOM     19  C   UNL A   1      42.539  30.773  30.939  1.00  0.00     0.074 A 
ATOM     20  C   UNL A   1      41.407  31.672  30.857  1.00  0.00     0.031 C 
ATOM     21  C   UNL A   1      40.432  25.502  27.918  1.00  0.00     0.029 A 
ATOM     22  C   UNL A   1      41.750  25.725  28.500  1.00  0.00     0.049 A 
ATOM     23  H   UNL A   1      42.443  27.437  29.464  1.00  0.00     0.167 HD
ATOM     24  C   UNL A   1      43.720  31.078  31.532  1.00  0.00     0.031 A 
ATOM     25  C   UNL A   1      42.756  24.831  28.494  1.00  0.00     0.031 A 
ATOM     26  C   UNL A   1      44.844  30.180  31.602  1.00  0.00     0.049 A 
ATOM     27  C   UNL A   1      44.063  25.205  29.130  1.00  0.00     0.074 A 
ATOM     28  C   UNL A   1      46.073  30.384  32.206  1.00  0.00     0.029 A 
ATOM     29  N   UNL A   1      44.880  28.910  31.043  1.00  0.00    -0.354 N 
ATOM     30  N   UNL A   1      44.388  26.315  29.747  1.00  0.00    -0.248 NA
ATOM     31  C   UNL A   1      45.137  24.206  29.068  1.00  0.00     0.031 C 
ATOM     32  C   UNL A   1      46.870  29.258  31.968  1.00  0.00     0.029 A 
ATOM     33  C   UNL A   1      46.118  28.330  31.264  1.00  0.00     0.049 A 
ATOM     34  H   UNL A   1      44.135  28.484  30.561  1.00  0.00     0.167 HD
ATOM     35  C   UNL A   1      45.704  26.146  30.158  1.00  0.00     0.074 A 
ATOM     36  C   UNL A   1      46.105  24.818  29.737  1.00  0.00     0.031 C 
ATOM     37  C   UNL A   1      46.506  27.012  30.824  1.00  0.00     0.031 A 
BRANCH  24  38
ATOM     38  C   UNL A   1      43.865  32.457  32.120  1.00  0.00    -0.014 A 
ATOM     39  C   UNL A   1      43.491  32.728  33.450  1.00  0.00     0.010 A 
ATOM     40  C   UNL A   1      44.409  33.495  31.340  1.00  0.00     0.010 A 
ATOM     41  C   UNL A   1      43.611  34.020  33.970  1.00  0.00     0.020 A 
ATOM     42  C   UNL A   1      44.554  34.783  31.865  1.00  0.00     0.020 A 
ATOM     43  C   UNL A   1      44.134  35.041  33.171  1.00  0.00     0.054 A 
BRANCH  43  44
ATOM     44  S   UNL A   1      44.274  36.710  33.869  1.00  0.00     0.124 S 
ATOM     45  O   UNL A   1      43.490  37.498  32.921  1.00  0.00    -0.237 OA
ATOM     46  O   UNL A   1      43.682  36.555  35.195  1.00  0.00    -0.237 OA
ATOM     47  O   UNL A   1      45.711  36.972  33.858  1.00  0.00    -0.744 OA
ENDBRANCH  43  44
ENDBRANCH  24  38
BRANCH  25  48
ATOM     48  C   UNL A   1      42.551  23.504  27.859  1.00  0.00    -0.014 A 
ATOM     49  C   UNL A   1      42.970  23.271  26.538  1.00  0.00     0.010 A 
ATOM     50  C   UNL A   1      41.983  22.447  28.594  1.00  0.00     0.010 A 
ATOM     51  C   UNL A   1      42.825  22.005  25.964  1.00  0.00     0.020 A 
ATOM     52  C   UNL A   1      41.862  21.173  28.034  1.00  0.00     0.020 A 
ATOM     53  C   UNL A   1      42.278  20.962  26.719  1.00  0.00     0.054 A 
BRANCH  53  54
ATOM     54  S   UNL A   1      42.174  19.308  25.981  1.00  0.00     0.124 S 
ATOM     55  O   UNL A   1      42.729  18.469  27.037  1.00  0.00    -0.237 OA
ATOM     56  O   UNL A   1      40.742  19.159  25.739  1.00  0.00    -0.237 OA
ATOM     57  O   UNL A   1      42.992  19.421  24.774  1.00  0.00    -0.744 OA
ENDBRANCH  53  54
ENDBRANCH  25  48
BRANCH  37  58
ATOM     58  C   UNL A   1      47.897  26.540  31.152  1.00  0.00    -0.014 A 
ATOM     59  C   UNL A   1      48.986  26.854  30.320  1.00  0.00     0.010 A 
ATOM     60  C   UNL A   1      48.121  25.805  32.330  1.00  0.00     0.010 A 
ATOM     61  C   UNL A   1      50.271  26.412  30.643  1.00  0.00     0.020 A 
ATOM     62  C   UNL A   1      49.409  25.385  32.671  1.00  0.00     0.020 A 
ATOM     63  C   UNL A   1      50.474  25.679  31.816  1.00  0.00     0.054 A 
BRANCH  63  64
ATOM     64  S   UNL A   1      52.158  25.149  32.236  1.00  0.00     0.124 S 
ATOM     65  O   UNL A   1      51.991  23.708  32.395  1.00  0.00    -0.237 OA
ATOM     66  O   UNL A   1      52.927  25.569  31.066  1.00  0.00    -0.237 OA
ATOM     67  O   UNL A   1      52.455  25.882  33.464  1.00  0.00    -0.744 OA
ENDBRANCH  63  64
ENDBRANCH  37  58
ENDBRANCH  11  12
ENDBRANCH   4   6
ENDBRANCH   1   2
BRANCH   1  68
ATOM     68  C   UNL A   1      34.576  32.623  30.528  1.00  0.00     0.042 C 
BRANCH  68  69
ATOM     69  C   UNL A   1      35.662  33.390  31.280  1.00  0.00     0.117 C 
BRANCH  69  70
ATOM     70  N   UNL A   1      35.396  33.428  32.709  1.00  0.00    -0.356 N 
ATOM     71  C   UNL A   1      36.186  33.020  33.745  1.00  0.00     0.223 C 
ATOM     72  H   UNL A   1      34.522  33.802  32.966  1.00  0.00     0.163 HD
ATOM     73  O   UNL A   1      35.725  33.014  34.885  1.00  0.00    -0.275 OA
BRANCH  71  74
ATOM     74  C   UNL A   1      37.638  32.678  33.455  1.00  0.00     0.089 C 
ATOM     75  C   UNL A   1      37.758  31.409  32.597  1.00  0.00     0.075 C 
ATOM     76  C   UNL A   1      38.390  32.653  34.796  1.00  0.00     0.075 C 
ATOM     77  C   UNL A   1      37.933  30.118  33.390  1.00  0.00     0.263 C 
ATOM     78  C   UNL A   1      38.496  31.264  35.420  1.00  0.00     0.263 C 
ATOM     79  N   UNL A   1      38.897  30.213  34.488  1.00  0.00    -0.324 N 
ATOM     80  H   UNL A   1      38.856  29.360  35.046  1.00  0.00     0.348 HD
BRANCH  79  81
ATOM     81  C   UNL A   1      40.316  30.108  34.089  1.00  0.00     0.284 C 
ATOM     82  C   UNL A   1      41.404  30.501  35.075  1.00  0.00     0.176 C 
ATOM     83  C   UNL A   1      40.702  28.664  33.749  1.00  0.00     0.292 C 
ATOM     84  C   UNL A   1      41.885  29.196  35.627  1.00  0.00     0.240 C 
ATOM     85  N   UNL A   1      41.536  28.202  34.747  1.00  0.00    -0.245 N 
ATOM     86  O   UNL A   1      40.282  28.043  32.779  1.00  0.00    -0.267 OA
ATOM     87  O   UNL A   1      42.562  29.118  36.643  1.00  0.00    -0.274 OA
BRANCH  85  88
ATOM     88  C   UNL A   1      42.037  26.882  34.835  1.00  0.00     0.056 A 
ATOM     89  C   UNL A   1      41.319  25.896  35.525  1.00  0.00     0.031 A 
ATOM     90  C   UNL A   1      43.230  26.526  34.191  1.00  0.00     0.077 A 
ATOM     91  C   UNL A   1      41.759  24.570  35.528  1.00  0.00     0.052 A 
ATOM     92  C   UNL A   1      43.695  25.212  34.239  1.00  0.00     0.163 A 
ATOM     93  C   UNL A   1      42.954  24.231  34.900  1.00  0.00     0.161 A 
ATOM     94  O   UNL A   1      44.898  24.964  33.630  1.00  0.00    -0.486 OA
ATOM     95  O   UNL A   1      43.336  22.917  34.966  1.00  0.00    -0.486 OA
ATOM     96  C   UNL A   1      45.119  23.563  33.440  1.00  0.00     0.271 C 
ATOM     97  C   UNL A   1      44.729  22.769  34.675  1.00  0.00     0.271 C 
ENDBRANCH  85  88
ENDBRANCH  79  81
ENDBRANCH  71  74
ENDBRANCH  69  70
ENDBRANCH  68  69
ENDBRANCH   1  68
TORSDOF 15
ENDMDL
MODEL 2
REMARK VINA RESULT:     -10.4      5.303      9.133
REMARK SMILES O=C(NCCCNC(=O)C1CC[NH+]([C@H]2CC(=O)N(c3ccc4c(c3)OCCO4)C2=O)CC1)c1ccc(-c2c3nc(c(-c4ccc(S(=O)(=O)[O-])cc4)c4ccc([nH]4)c(-c4ccc(S(=O)(=O)[O-])cc4)c4nc(c(-c5ccc(S(=O)(=O)[O-])cc5)c5ccc2[nH]5)C=C4)C=C3)cc1
REMARK SMILES IDX 4 1 3 2 1 3 2 4 33 6 34 7 92 8 35 9 91 10 36 11 37 12 38 13
REMARK SMILES IDX 85 14 39 15 90 16 84 17 86 18 40 19 89 20 83 21 82 22 41 24
REMARK SMILES IDX 71 25 52 26 70 27 53 28 56 29 69 30 87 31 54 32 55 33 68 35
REMARK SMILES IDX 88 36 57 37 42 38 43 39 51 40 44 41 50 42 45 43 46 44 47 45
REMARK SMILES IDX 48 46 49 47 72 48 73 49 81 50 74 51 80 52 75 53 76 54 77 55
REMARK SMILES IDX 78 56 79 57 58 58 59 59 67 60 60 61 66 62 61 63 62 64 63 65
REMARK SMILES IDX 64 66 65 67 5 68 6 69 7 70 8 71 9 73 10 74 11 75 32 76 12 77
REMARK SMILES IDX 31 78 13 79 14 81 15 82 29 83 16 84 18 85 30 86 17 87 19 88
REMARK SMILES IDX 20 89 24 90 21 91 23 92 22 93 25 94 28 95 26 96 27 97
REMARK H PARENT 3 5 86 23 56 34 7 72 13 80
REMARK Flexibility Score: inf
ROOT
ATOM      1  C   UNL A   1      32.957  32.851  27.420  1.00  0.00     0.118 C 
ENDROOT
BRANCH   1   2
ATOM      2  N   UNL A   1      32.822  34.244  27.822  1.00  0.00    -0.352 N 
ATOM      3  O   UNL A   1      33.058  36.058  29.129  1.00  0.00    -0.269 OA
ATOM      4  C   UNL A   1      33.457  34.937  28.822  1.00  0.00     0.251 C 
ATOM      5  H   UNL A   1      32.178  34.770  27.295  1.00  0.00     0.163 HD
BRANCH   4   6
ATOM      6  C   UNL A   1      34.604  34.335  29.532  1.00  0.00     0.039 A 
ATOM      7  C   UNL A   1      34.405  33.548  30.668  1.00  0.00     0.014 A 
ATOM      8  C   UNL A   1      35.894  34.533  29.031  1.00  0.00     0.014 A 
ATOM      9  C   UNL A   1      35.499  33.064  31.374  1.00  0.00     0.010 A 
ATOM     10  C   UNL A   1      36.990  33.978  29.697  1.00  0.00     0.010 A 
ATOM     11  C   UNL A   1      36.803  33.259  30.888  1.00  0.00    -0.014 A 
BRANCH  11  12
ATOM     12  C   UNL A   1      37.945  32.641  31.605  1.00  0.00     0.031 A 
ATOM     13  C   UNL A   1      38.371  33.133  32.958  1.00  0.00     0.074 A 
ATOM     14  C   UNL A   1      38.583  31.604  31.027  1.00  0.00     0.049 A 
ATOM     15  N   UNL A   1      39.324  32.680  33.733  1.00  0.00    -0.248 NA
ATOM     16  C   UNL A   1      37.643  34.283  33.514  1.00  0.00     0.031 C 
ATOM     17  C   UNL A   1      38.259  31.046  29.711  1.00  0.00     0.029 A 
ATOM     18  N   UNL A   1      39.616  30.823  31.472  1.00  0.00    -0.354 N 
ATOM     19  C   UNL A   1      39.324  33.497  34.857  1.00  0.00     0.074 A 
ATOM     20  C   UNL A   1      38.291  34.490  34.653  1.00  0.00     0.031 C 
ATOM     21  C   UNL A   1      39.040  29.981  29.480  1.00  0.00     0.029 A 
ATOM     22  C   UNL A   1      39.961  29.819  30.600  1.00  0.00     0.049 A 
ATOM     23  H   UNL A   1      40.068  30.967  32.336  1.00  0.00     0.167 HD
ATOM     24  C   UNL A   1      40.112  33.423  35.958  1.00  0.00     0.031 A 
ATOM     25  C   UNL A   1      40.919  28.878  30.680  1.00  0.00     0.031 A 
ATOM     26  C   UNL A   1      41.144  32.436  36.149  1.00  0.00     0.049 A 
ATOM     27  C   UNL A   1      41.797  28.837  31.895  1.00  0.00     0.074 A 
ATOM     28  C   UNL A   1      41.975  32.259  37.241  1.00  0.00     0.029 A 
ATOM     29  N   UNL A   1      41.491  31.464  35.222  1.00  0.00    -0.354 N 
ATOM     30  N   UNL A   1      41.759  29.598  32.962  1.00  0.00    -0.248 NA
ATOM     31  C   UNL A   1      42.847  27.811  31.918  1.00  0.00     0.031 C 
ATOM     32  C   UNL A   1      42.859  31.213  36.954  1.00  0.00     0.029 A 
ATOM     33  C   UNL A   1      42.542  30.701  35.705  1.00  0.00     0.049 A 
ATOM     34  H   UNL A   1      41.054  31.333  34.349  1.00  0.00     0.167 HD
ATOM     35  C   UNL A   1      42.773  29.138  33.791  1.00  0.00     0.074 A 
ATOM     36  C   UNL A   1      43.392  28.018  33.109  1.00  0.00     0.031 C 
ATOM     37  C   UNL A   1      43.156  29.600  35.007  1.00  0.00     0.031 A 
BRANCH  24  38
ATOM     38  C   UNL A   1      39.909  34.465  37.028  1.00  0.00    -0.014 A 
ATOM     39  C   UNL A   1      39.051  34.234  38.119  1.00  0.00     0.010 A 
ATOM     40  C   UNL A   1      40.607  35.685  36.954  1.00  0.00     0.010 A 
ATOM     41  C   UNL A   1      38.857  35.223  39.088  1.00  0.00     0.020 A 
ATOM     42  C   UNL A   1      40.435  36.667  37.935  1.00  0.00     0.020 A 
ATOM     43  C   UNL A   1      39.544  36.436  38.985  1.00  0.00     0.054 A 
BRANCH  43  44
ATOM     44  S   UNL A   1      39.270  37.704  40.254  1.00  0.00     0.124 S 
ATOM     45  O   UNL A   1      38.868  36.896  41.403  1.00  0.00    -0.237 OA
ATOM     46  O   UNL A   1      40.582  38.338  40.364  1.00  0.00    -0.237 OA
ATOM     47  O   UNL A   1      38.220  38.544  39.685  1.00  0.00    -0.744 OA
ENDBRANCH  43  44
ENDBRANCH  24  38
BRANCH  25  48
ATOM     48  C   UNL A   1      41.085  27.908  29.566  1.00  0.00    -0.014 A 
ATOM     49  C   UNL A   1      42.146  28.042  28.654  1.00  0.00     0.010 A 
ATOM     50  C   UNL A   1      40.212  26.811  29.446  1.00  0.00     0.010 A 
ATOM     51  C   UNL A   1      42.331  27.096  27.642  1.00  0.00     0.020 A 
ATOM     52  C   UNL A   1      40.410  25.848  28.454  1.00  0.00     0.020 A 
ATOM     53  C   UNL A   1      41.465  26.001  27.553  1.00  0.00     0.054 A 
BRANCH  53  54
ATOM     54  S   UNL A   1      41.772  24.743  26.282  1.00  0.00     0.124 S 
ATOM     55  O   UNL A   1      40.670  23.814  26.502  1.00  0.00    -0.237 OA
ATOM     56  O   UNL A   1      41.710  25.520  25.047  1.00  0.00    -0.237 OA
ATOM     57  O   UNL A   1      43.100  24.233  26.621  1.00  0.00    -0.744 OA
ENDBRANCH  53  54
ENDBRANCH  25  48
BRANCH  37  58
ATOM     58  C   UNL A   1      44.292  28.881  35.684  1.00  0.00    -0.014 A 
ATOM     59  C   UNL A   1      45.622  29.302  35.514  1.00  0.00     0.010 A 
ATOM     60  C   UNL A   1      44.017  27.792  36.531  1.00  0.00     0.010 A 
ATOM     61  C   UNL A   1      46.663  28.626  36.155  1.00  0.00     0.020 A 
ATOM     62  C   UNL A   1      45.053  27.130  37.195  1.00  0.00     0.020 A 
ATOM     63  C   UNL A   1      46.372  27.543  36.991  1.00  0.00     0.054 A 
BRANCH  63  64
ATOM     64  S   UNL A   1      47.736  26.705  37.843  1.00  0.00     0.124 S 
ATOM     65  O   UNL A   1      47.167  26.468  39.166  1.00  0.00    -0.237 OA
ATOM     66  O   UNL A   1      47.942  25.513  37.024  1.00  0.00    -0.237 OA
ATOM     67  O   UNL A   1      48.823  27.680  37.797  1.00  0.00    -0.744 OA
ENDBRANCH  63  64
ENDBRANCH  37  58
ENDBRANCH  11  12
ENDBRANCH   4   6
ENDBRANCH   1   2
BRANCH   1  68
ATOM     68  C   UNL A   1      31.739  32.347  26.649  1.00  0.00     0.042 C 
BRANCH  68  69
ATOM     69  C   UNL A   1      31.665  30.825  26.560  1.00  0.00     0.117 C 
BRANCH  69  70
ATOM     70  N   UNL A   1      31.402  30.383  25.200  1.00  0.00    -0.356 N 
ATOM     71  C   UNL A   1      31.555  29.141  24.653  1.00  0.00     0.223 C 
ATOM     72  H   UNL A   1      31.067  31.076  24.587  1.00  0.00     0.163 HD
ATOM     73  O   UNL A   1      31.403  28.998  23.441  1.00  0.00    -0.275 OA
BRANCH  71  74
ATOM     74  C   UNL A   1      31.814  27.967  25.582  1.00  0.00     0.089 C 
ATOM     75  C   UNL A   1      33.276  27.502  25.509  1.00  0.00     0.075 C 
ATOM     76  C   UNL A   1      30.754  26.894  25.289  1.00  0.00     0.075 C 
ATOM     77  C   UNL A   1      33.536  26.375  24.514  1.00  0.00     0.263 C 
ATOM     78  C   UNL A   1      31.212  25.827  24.297  1.00  0.00     0.263 C 
ATOM     79  N   UNL A   1      32.548  25.296  24.556  1.00  0.00    -0.324 N 
ATOM     80  H   UNL A   1      32.714  24.657  23.780  1.00  0.00     0.348 HD
BRANCH  79  81
ATOM     81  C   UNL A   1      32.732  24.316  25.648  1.00  0.00     0.284 C 
ATOM     82  C   UNL A   1      31.526  23.831  26.434  1.00  0.00     0.176 C 
ATOM     83  C   UNL A   1      33.325  23.000  25.131  1.00  0.00     0.292 C 
ATOM     84  C   UNL A   1      31.214  22.495  25.837  1.00  0.00     0.240 C 
ATOM     85  N   UNL A   1      32.339  22.037  25.197  1.00  0.00    -0.245 N 
ATOM     86  O   UNL A   1      34.463  22.875  24.693  1.00  0.00    -0.267 OA
ATOM     87  O   UNL A   1      30.149  21.923  26.020  1.00  0.00    -0.274 OA
BRANCH  85  88
ATOM     88  C   UNL A   1      32.473  20.709  24.729  1.00  0.00     0.056 A 
ATOM     89  C   UNL A   1      32.273  20.412  23.374  1.00  0.00     0.031 A 
ATOM     90  C   UNL A   1      32.859  19.680  25.598  1.00  0.00     0.077 A 
ATOM     91  C   UNL A   1      32.504  19.122  22.888  1.00  0.00     0.052 A 
ATOM     92  C   UNL A   1      33.039  18.381  25.122  1.00  0.00     0.163 A 
ATOM     93  C   UNL A   1      32.870  18.104  23.765  1.00  0.00     0.161 A 
ATOM     94  O   UNL A   1      33.362  17.426  26.051  1.00  0.00    -0.486 OA
ATOM     95  O   UNL A   1      33.054  16.859  23.222  1.00  0.00    -0.486 OA
ATOM     96  C   UNL A   1      33.848  16.229  25.436  1.00  0.00     0.271 C 
ATOM     97  C   UNL A   1      33.006  15.845  24.231  1.00  0.00     0.271 C 
ENDBRANCH  85  88
ENDBRANCH  79  81
ENDBRANCH  71  74
ENDBRANCH  69  70
ENDBRANCH  68  69
ENDBRANCH   1  68
TORSDOF 15
ENDMDL
MODEL 3
REMARK VINA RESULT:     -10.3      5.026     12.341
REMARK SMILES O=C(NCCCNC(=O)C1CC[NH+]([C@H]2CC(=O)N(c3ccc4c(c3)OCCO4)C2=O)CC1)c1ccc(-c2c3nc(c(-c4ccc(S(=O)(=O)[O-])cc4)c4ccc([nH]4)c(-c4ccc(S(=O)(=O)[O-])cc4)c4nc(c(-c5ccc(S(=O)(=O)[O-])cc5)c5ccc2[nH]5)C=C4)C=C3)cc1
REMARK SMILES IDX 4 1 3 2 1 3 2 4 33 6 34 7 92 8 35 9 91 10 36 11 37 12 38 13
REMARK SMILES IDX 85 14 39 15 90 16 84 17 86 18 40 19 89 20 83 21 82 22 41 24
REMARK SMILES IDX 71 25 52 26 70 27 53 28 56 29 69 30 87 31 54 32 55 33 68 35
REMARK SMILES IDX 88 36 57 37 42 38 43 39 51 40 44 41 50 42 45 43 46 44 47 45
REMARK SMILES IDX 48 46 49 47 72 48 73 49 81 50 74 51 80 52 75 53 76 54 77 55
REMARK SMILES IDX 78 56 79 57 58 58 59 59 67 60 60 61 66 62 61 63 62 64 63 65
REMARK SMILES IDX 64 66 65 67 5 68 6 69 7 70 8 71 9 73 10 74 11 75 32 76 12 77
REMARK SMILES IDX 31 78 13 79 14 81 15 82 29 83 16 84 18 85 30 86 17 87 19 88
REMARK SMILES IDX 20 89 24 90 21 91 23 92 22 93 25 94 28 95 26 96 27 97
REMARK H PARENT 3 5 86 23 56 34 7 72 13 80
REMARK Flexibility Score: inf
ROOT
ATOM      1  C   UNL A   1      39.499  20.144  26.059  1.00  0.00     0.118 C 
ENDROOT
BRANCH   1   2
ATOM      2  N   UNL A   1      40.617  19.212  26.116  1.00  0.00    -0.352 N 
ATOM      3  O   UNL A   1      42.758  18.534  26.023  1.00  0.00    -0.269 OA
ATOM      4  C   UNL A   1      41.965  19.458  26.185  1.00  0.00     0.251 C 
ATOM      5  H   UNL A   1      40.367  18.260  26.104  1.00  0.00     0.163 HD
BRANCH   4   6
ATOM      6  C   UNL A   1      42.459  20.827  26.441  1.00  0.00     0.039 A 
ATOM      7  C   UNL A   1      42.661  21.278  27.747  1.00  0.00     0.014 A 
ATOM      8  C   UNL A   1      42.759  21.656  25.357  1.00  0.00     0.014 A 
ATOM      9  C   UNL A   1      43.042  22.595  27.972  1.00  0.00     0.010 A 
ATOM     10  C   UNL A   1      43.219  22.956  25.583  1.00  0.00     0.010 A 
ATOM     11  C   UNL A   1      43.340  23.444  26.894  1.00  0.00    -0.014 A 
BRANCH  11  12
ATOM     12  C   UNL A   1      43.846  24.812  27.165  1.00  0.00     0.031 A 
ATOM     13  C   UNL A   1      45.283  25.172  26.919  1.00  0.00     0.074 A 
ATOM     14  C   UNL A   1      42.981  25.740  27.617  1.00  0.00     0.049 A 
ATOM     15  N   UNL A   1      45.876  26.329  27.071  1.00  0.00    -0.248 NA
ATOM     16  C   UNL A   1      46.173  24.100  26.449  1.00  0.00     0.031 C 
ATOM     17  C   UNL A   1      41.562  25.501  27.898  1.00  0.00     0.029 A 
ATOM     18  N   UNL A   1      43.154  27.070  27.898  1.00  0.00    -0.354 N 
ATOM     19  C   UNL A   1      47.209  26.123  26.734  1.00  0.00     0.074 A 
ATOM     20  C   UNL A   1      47.343  24.722  26.393  1.00  0.00     0.031 C 
ATOM     21  C   UNL A   1      40.984  26.656  28.260  1.00  0.00     0.029 A 
ATOM     22  C   UNL A   1      42.001  27.701  28.297  1.00  0.00     0.049 A 
ATOM     23  H   UNL A   1      44.022  27.529  27.820  1.00  0.00     0.167 HD
ATOM     24  C   UNL A   1      48.225  27.020  26.709  1.00  0.00     0.031 A 
ATOM     25  C   UNL A   1      41.782  28.977  28.666  1.00  0.00     0.031 A 
ATOM     26  C   UNL A   1      48.084  28.410  27.059  1.00  0.00     0.049 A 
ATOM     27  C   UNL A   1      42.930  29.942  28.659  1.00  0.00     0.074 A 
ATOM     28  C   UNL A   1      49.046  29.406  27.038  1.00  0.00     0.029 A 
ATOM     29  N   UNL A   1      46.909  29.001  27.500  1.00  0.00    -0.354 N 
ATOM     30  N   UNL A   1      44.175  29.734  28.306  1.00  0.00    -0.248 NA
ATOM     31  C   UNL A   1      42.643  31.313  29.101  1.00  0.00     0.031 C 
ATOM     32  C   UNL A   1      48.465  30.586  27.515  1.00  0.00     0.029 A 
ATOM     33  C   UNL A   1      47.127  30.340  27.781  1.00  0.00     0.049 A 
ATOM     34  H   UNL A   1      46.046  28.538  27.599  1.00  0.00     0.167 HD
ATOM     35  C   UNL A   1      44.823  30.952  28.472  1.00  0.00     0.074 A 
ATOM     36  C   UNL A   1      43.824  31.895  28.937  1.00  0.00     0.031 C 
ATOM     37  C   UNL A   1      46.125  31.261  28.258  1.00  0.00     0.031 A 
BRANCH  24  38
ATOM     38  C   UNL A   1      49.590  26.511  26.324  1.00  0.00    -0.014 A 
ATOM     39  C   UNL A   1      50.380  25.780  27.231  1.00  0.00     0.010 A 
ATOM     40  C   UNL A   1      50.081  26.746  25.027  1.00  0.00     0.010 A 
ATOM     41  C   UNL A   1      51.654  25.337  26.863  1.00  0.00     0.020 A 
ATOM     42  C   UNL A   1      51.345  26.284  24.647  1.00  0.00     0.020 A 
ATOM     43  C   UNL A   1      52.131  25.600  25.575  1.00  0.00     0.054 A 
BRANCH  43  44
ATOM     44  S   UNL A   1      53.791  25.018  25.125  1.00  0.00     0.124 S 
ATOM     45  O   UNL A   1      54.583  25.459  26.271  1.00  0.00    -0.237 OA
ATOM     46  O   UNL A   1      53.606  23.574  25.011  1.00  0.00    -0.237 OA
ATOM     47  O   UNL A   1      54.072  25.710  23.870  1.00  0.00    -0.744 OA
ENDBRANCH  43  44
ENDBRANCH  24  38
BRANCH  25  48
ATOM     48  C   UNL A   1      40.415  29.395  29.072  1.00  0.00    -0.014 A 
ATOM     49  C   UNL A   1      40.085  29.537  30.430  1.00  0.00     0.010 A 
ATOM     50  C   UNL A   1      39.451  29.709  28.096  1.00  0.00     0.010 A 
ATOM     51  C   UNL A   1      38.815  29.986  30.805  1.00  0.00     0.020 A 
ATOM     52  C   UNL A   1      38.190  30.183  28.466  1.00  0.00     0.020 A 
ATOM     53  C   UNL A   1      37.878  30.312  29.820  1.00  0.00     0.054 A 
BRANCH  53  54
ATOM     54  S   UNL A   1      36.265  30.967  30.328  1.00  0.00     0.124 S 
ATOM     55  O   UNL A   1      35.897  30.062  31.412  1.00  0.00    -0.237 OA
ATOM     56  O   UNL A   1      36.590  32.334  30.727  1.00  0.00    -0.237 OA
ATOM     57  O   UNL A   1      35.455  30.858  29.116  1.00  0.00    -0.744 OA
ENDBRANCH  53  54
ENDBRANCH  25  48
BRANCH  37  58
ATOM     58  C   UNL A   1      46.540  32.685  28.512  1.00  0.00    -0.014 A 
ATOM     59  C   UNL A   1      46.270  33.698  27.576  1.00  0.00     0.010 A 
ATOM     60  C   UNL A   1      47.176  33.017  29.722  1.00  0.00     0.010 A 
ATOM     61  C   UNL A   1      46.658  35.016  27.831  1.00  0.00     0.020 A 
ATOM     62  C   UNL A   1      47.541  34.338  29.993  1.00  0.00     0.020 A 
ATOM     63  C   UNL A   1      47.292  35.327  29.038  1.00  0.00     0.054 A 
BRANCH  63  64
ATOM     64  S   UNL A   1      47.752  37.051  29.365  1.00  0.00     0.124 S 
ATOM     65  O   UNL A   1      48.387  36.952  30.675  1.00  0.00    -0.237 OA
ATOM     66  O   UNL A   1      48.647  37.361  28.253  1.00  0.00    -0.237 OA
ATOM     67  O   UNL A   1      46.474  37.760  29.343  1.00  0.00    -0.744 OA
ENDBRANCH  63  64
ENDBRANCH  37  58
ENDBRANCH  11  12
ENDBRANCH   4   6
ENDBRANCH   1   2
BRANCH   1  68
ATOM     68  C   UNL A   1      38.320  19.590  25.263  1.00  0.00     0.042 C 
BRANCH  68  69
ATOM     69  C   UNL A   1      37.307  20.658  24.859  1.00  0.00     0.117 C 
BRANCH  69  70
ATOM     70  N   UNL A   1      35.941  20.174  24.991  1.00  0.00    -0.356 N 
ATOM     71  C   UNL A   1      34.822  20.850  25.386  1.00  0.00     0.223 C 
ATOM     72  H   UNL A   1      35.804  19.226  24.764  1.00  0.00     0.163 HD
ATOM     73  O   UNL A   1      33.776  20.227  25.561  1.00  0.00    -0.275 OA
BRANCH  71  74
ATOM     74  C   UNL A   1      34.893  22.364  25.500  1.00  0.00     0.089 C 
ATOM     75  C   UNL A   1      34.310  22.856  26.833  1.00  0.00     0.075 C 
ATOM     76  C   UNL A   1      34.261  22.959  24.232  1.00  0.00     0.075 C 
ATOM     77  C   UNL A   1      32.834  23.237  26.781  1.00  0.00     0.263 C 
ATOM     78  C   UNL A   1      32.784  23.314  24.385  1.00  0.00     0.263 C 
ATOM     79  N   UNL A   1      32.461  24.036  25.613  1.00  0.00    -0.324 N 
ATOM     80  H   UNL A   1      31.446  24.133  25.582  1.00  0.00     0.348 HD
BRANCH  79  81
ATOM     81  C   UNL A   1      32.783  25.476  25.706  1.00  0.00     0.284 C 
ATOM     82  C   UNL A   1      33.663  26.119  24.648  1.00  0.00     0.176 C 
ATOM     83  C   UNL A   1      31.521  26.343  25.640  1.00  0.00     0.292 C 
ATOM     84  C   UNL A   1      32.696  26.811  23.741  1.00  0.00     0.240 C 
ATOM     85  N   UNL A   1      31.523  27.001  24.427  1.00  0.00    -0.245 N 
ATOM     86  O   UNL A   1      30.657  26.380  26.509  1.00  0.00    -0.267 OA
ATOM     87  O   UNL A   1      33.004  27.206  22.625  1.00  0.00    -0.274 OA
BRANCH  85  88
ATOM     88  C   UNL A   1      30.479  27.832  23.956  1.00  0.00     0.056 A 
ATOM     89  C   UNL A   1      29.281  27.271  23.493  1.00  0.00     0.031 A 
ATOM     90  C   UNL A   1      30.603  29.227  23.995  1.00  0.00     0.077 A 
ATOM     91  C   UNL A   1      28.211  28.089  23.123  1.00  0.00     0.052 A 
ATOM     92  C   UNL A   1      29.553  30.043  23.576  1.00  0.00     0.163 A 
ATOM     93  C   UNL A   1      28.352  29.474  23.149  1.00  0.00     0.161 A 
ATOM     94  O   UNL A   1      29.780  31.395  23.595  1.00  0.00    -0.486 OA
ATOM     95  O   UNL A   1      27.269  30.212  22.748  1.00  0.00    -0.486 OA
ATOM     96  C   UNL A   1      28.565  32.141  23.479  1.00  0.00     0.271 C 
ATOM     97  C   UNL A   1      27.653  31.551  22.416  1.00  0.00     0.271 C 
ENDBRANCH  85  88
ENDBRANCH  79  81
ENDBRANCH  71  74
ENDBRANCH  69  70
ENDBRANCH  68  69
ENDBRANCH   1  68
TORSDOF 15
ENDMDL
