MODEL 1
REMARK VINA RESULT:     -10.1      0.000      0.000
REMARK SMILES O=C(C[C@@H]1C[N@@H+](C[C@H]2CCOC2)CCO1)NCCCNC(=O)c1ccc(-c2c3nc(c(-c4ccc(S(=O)(=O)[O-])cc4)c4ccc([nH]4)c(-c4ccc(S(=O)(=O)[O-])cc4)c4nc(c(-c5ccc(S(=O)(=O)[O-])cc5)c5ccc2[nH]5)C=C4)C=C3)cc1
REMARK SMILES IDX 18 1 17 2 16 3 1 4 2 5 3 7 4 8 5 9 15 10 6 11 14 12 13 13
REMARK SMILES IDX 7 15 8 16 9 17 12 18 10 19 11 20 19 21 20 22 21 23 22 25
REMARK SMILES IDX 23 26 24 27 82 28 25 29 81 30 26 31 27 32 28 33 75 34 29 35
REMARK SMILES IDX 80 36 74 37 76 38 30 39 79 40 73 41 72 42 31 44 61 45 42 46
REMARK SMILES IDX 60 47 43 48 46 49 59 50 77 51 44 52 45 53 58 55 78 56 47 57
REMARK SMILES IDX 32 58 33 59 41 60 34 61 40 62 35 63 36 64 37 65 38 66 39 67
REMARK SMILES IDX 62 68 63 69 71 70 64 71 70 72 65 73 66 74 67 75 68 76 69 77
REMARK SMILES IDX 48 78 49 79 57 80 50 81 56 82 51 83 52 84 53 85 54 86 55 87
REMARK H PARENT 16 6 6 14 20 24 76 43 46 54
REMARK Flexibility Score: inf
ROOT
ATOM      1  C   UNL A   1      32.319  27.963  26.322  1.00  0.00     0.042 C 
ENDROOT
BRANCH   1   2
ATOM      2  C   UNL A   1      31.279  27.024  26.922  1.00  0.00     0.117 C 
BRANCH   2   3
ATOM      3  N   UNL A   1      31.331  25.721  26.304  1.00  0.00    -0.356 N 
ATOM      4  O   UNL A   1      29.253  24.928  26.895  1.00  0.00    -0.275 OA
ATOM      5  C   UNL A   1      30.328  24.781  26.327  1.00  0.00     0.222 C 
ATOM      6  H   UNL A   1      32.156  25.485  25.823  1.00  0.00     0.163 HD
BRANCH   5   7
ATOM      7  C   UNL A   1      30.693  23.506  25.577  1.00  0.00     0.138 C 
BRANCH   7   8
ATOM      8  C   UNL A   1      32.090  23.059  26.005  1.00  0.00     0.182 C 
ATOM      9  C   UNL A   1      32.565  21.766  25.320  1.00  0.00     0.295 C 
ATOM     10  O   UNL A   1      32.095  22.858  27.437  1.00  0.00    -0.366 OA
ATOM     11  N   UNL A   1      33.907  21.316  25.755  1.00  0.00    -0.331 N 
ATOM     12  C   UNL A   1      33.435  22.619  27.887  1.00  0.00     0.222 C 
ATOM     13  C   UNL A   1      34.040  21.373  27.217  1.00  0.00     0.291 C 
ATOM     14  H   UNL A   1      33.977  20.326  25.522  1.00  0.00     0.348 HD
BRANCH  11  15
ATOM     15  C   UNL A   1      35.031  21.830  24.963  1.00  0.00     0.268 C 
BRANCH  15  16
ATOM     16  C   UNL A   1      36.299  22.260  25.696  1.00  0.00     0.072 C 
ATOM     17  C   UNL A   1      37.598  21.584  25.300  1.00  0.00     0.040 C 
ATOM     18  C   UNL A   1      36.692  23.714  25.481  1.00  0.00     0.169 C 
ATOM     19  C   UNL A   1      38.580  22.470  26.039  1.00  0.00     0.160 C 
ATOM     20  O   UNL A   1      38.065  23.808  25.910  1.00  0.00    -0.381 OA
ENDBRANCH  15  16
ENDBRANCH  11  15
ENDBRANCH   7   8
ENDBRANCH   5   7
ENDBRANCH   2   3
ENDBRANCH   1   2
BRANCH   1  21
ATOM     21  C   UNL A   1      33.389  28.441  27.303  1.00  0.00     0.118 C 
BRANCH  21  22
ATOM     22  N   UNL A   1      33.364  29.877  27.539  1.00  0.00    -0.352 N 
ATOM     23  C   UNL A   1      34.347  30.701  28.039  1.00  0.00     0.251 C 
ATOM     24  H   UNL A   1      32.519  30.327  27.306  1.00  0.00     0.163 HD
ATOM     25  O   UNL A   1      34.093  31.876  28.275  1.00  0.00    -0.269 OA
BRANCH  23  26
ATOM     26  C   UNL A   1      35.700  30.164  28.324  1.00  0.00     0.039 A 
ATOM     27  C   UNL A   1      36.658  30.179  27.307  1.00  0.00     0.014 A 
ATOM     28  C   UNL A   1      36.029  29.652  29.582  1.00  0.00     0.014 A 
ATOM     29  C   UNL A   1      37.963  29.755  27.574  1.00  0.00     0.010 A 
ATOM     30  C   UNL A   1      37.349  29.303  29.868  1.00  0.00     0.010 A 
ATOM     31  C   UNL A   1      38.334  29.353  28.868  1.00  0.00    -0.014 A 
BRANCH  31  32
ATOM     32  C   UNL A   1      39.744  29.007  29.198  1.00  0.00     0.031 A 
ATOM     33  C   UNL A   1      40.651  30.022  29.842  1.00  0.00     0.074 A 
ATOM     34  C   UNL A   1      40.230  27.795  28.862  1.00  0.00     0.049 A 
ATOM     35  N   UNL A   1      41.918  29.917  30.153  1.00  0.00    -0.248 NA
ATOM     36  C   UNL A   1      40.064  31.335  30.161  1.00  0.00     0.031 C 
ATOM     37  C   UNL A   1      39.470  26.731  28.201  1.00  0.00     0.029 A 
ATOM     38  N   UNL A   1      41.482  27.252  29.024  1.00  0.00    -0.354 N 
ATOM     39  C   UNL A   1      42.282  31.147  30.688  1.00  0.00     0.074 A 
ATOM     40  C   UNL A   1      41.116  32.000  30.613  1.00  0.00     0.031 C 
ATOM     41  C   UNL A   1      40.262  25.658  28.040  1.00  0.00     0.029 A 
ATOM     42  C   UNL A   1      41.597  25.969  28.540  1.00  0.00     0.049 A 
ATOM     43  H   UNL A   1      42.227  27.737  29.447  1.00  0.00     0.167 HD
ATOM     44  C   UNL A   1      43.474  31.529  31.211  1.00  0.00     0.031 A 
ATOM     45  C   UNL A   1      42.657  25.138  28.492  1.00  0.00     0.031 A 
ATOM     46  C   UNL A   1      44.634  30.679  31.286  1.00  0.00     0.049 A 
ATOM     47  C   UNL A   1      43.976  25.594  29.053  1.00  0.00     0.074 A 
ATOM     48  C   UNL A   1      45.869  30.960  31.844  1.00  0.00     0.029 A 
ATOM     49  N   UNL A   1      44.708  29.389  30.784  1.00  0.00    -0.354 N 
ATOM     50  N   UNL A   1      44.281  26.740  29.616  1.00  0.00    -0.248 NA
ATOM     51  C   UNL A   1      45.093  24.641  28.982  1.00  0.00     0.031 C 
ATOM     52  C   UNL A   1      46.709  29.863  31.623  1.00  0.00     0.029 A 
ATOM     53  C   UNL A   1      45.975  28.871  30.993  1.00  0.00     0.049 A 
ATOM     54  H   UNL A   1      43.967  28.910  30.343  1.00  0.00     0.167 HD
ATOM     55  C   UNL A   1      45.615  26.633  29.993  1.00  0.00     0.074 A 
ATOM     56  C   UNL A   1      46.053  25.306  29.610  1.00  0.00     0.031 C 
ATOM     57  C   UNL A   1      46.404  27.550  30.606  1.00  0.00     0.031 A 
BRANCH  44  58
ATOM     58  C   UNL A   1      43.588  32.939  31.735  1.00  0.00    -0.014 A 
ATOM     59  C   UNL A   1      44.021  33.991  30.907  1.00  0.00     0.010 A 
ATOM     60  C   UNL A   1      43.211  33.225  33.060  1.00  0.00     0.010 A 
ATOM     61  C   UNL A   1      44.116  35.292  31.406  1.00  0.00     0.020 A 
ATOM     62  C   UNL A   1      43.274  34.531  33.554  1.00  0.00     0.020 A 
ATOM     63  C   UNL A   1      43.743  35.554  32.728  1.00  0.00     0.054 A 
BRANCH  63  64
ATOM     64  S   UNL A   1      43.858  37.257  33.342  1.00  0.00     0.124 S 
ATOM     65  O   UNL A   1      43.802  38.027  32.102  1.00  0.00    -0.237 OA
ATOM     66  O   UNL A   1      42.682  37.366  34.202  1.00  0.00    -0.237 OA
ATOM     67  O   UNL A   1      45.141  37.291  34.038  1.00  0.00    -0.744 OA
ENDBRANCH  63  64
ENDBRANCH  44  58
BRANCH  45  68
ATOM     68  C   UNL A   1      42.511  23.780  27.894  1.00  0.00    -0.014 A 
ATOM     69  C   UNL A   1      42.816  23.559  26.539  1.00  0.00     0.010 A 
ATOM     70  C   UNL A   1      42.071  22.699  28.680  1.00  0.00     0.010 A 
ATOM     71  C   UNL A   1      42.666  22.287  25.977  1.00  0.00     0.020 A 
ATOM     72  C   UNL A   1      41.951  21.420  28.130  1.00  0.00     0.020 A 
ATOM     73  C   UNL A   1      42.237  21.225  26.777  1.00  0.00     0.054 A 
BRANCH  73  74
ATOM     74  S   UNL A   1      42.095  19.574  26.038  1.00  0.00     0.124 S 
ATOM     75  O   UNL A   1      40.662  19.478  25.782  1.00  0.00    -0.237 OA
ATOM     76  O   UNL A   1      42.945  19.687  24.854  1.00  0.00    -0.237 OA
ATOM     77  O   UNL A   1      42.607  18.687  27.080  1.00  0.00    -0.744 OA
ENDBRANCH  73  74
ENDBRANCH  45  68
BRANCH  57  78
ATOM     78  C   UNL A   1      47.817  27.143  30.940  1.00  0.00    -0.014 A 
ATOM     79  C   UNL A   1      48.888  27.431  30.076  1.00  0.00     0.010 A 
ATOM     80  C   UNL A   1      48.081  26.510  32.169  1.00  0.00     0.010 A 
ATOM     81  C   UNL A   1      50.193  27.063  30.419  1.00  0.00     0.020 A 
ATOM     82  C   UNL A   1      49.387  26.170  32.530  1.00  0.00     0.020 A 
ATOM     83  C   UNL A   1      50.434  26.437  31.645  1.00  0.00     0.054 A 
BRANCH  83  84
ATOM     84  S   UNL A   1      52.141  26.012  32.088  1.00  0.00     0.124 S 
ATOM     85  O   UNL A   1      51.946  24.942  33.063  1.00  0.00    -0.237 OA
ATOM     86  O   UNL A   1      52.708  25.598  30.807  1.00  0.00    -0.237 OA
ATOM     87  O   UNL A   1      52.681  27.257  32.628  1.00  0.00    -0.744 OA
ENDBRANCH  83  84
ENDBRANCH  57  78
ENDBRANCH  31  32
ENDBRANCH  23  26
ENDBRANCH  21  22
ENDBRANCH   1  21
TORSDOF 16
ENDMDL
MODEL 2
REMARK VINA RESULT:     -10.0      3.608     10.620
REMARK SMILES O=C(C[C@@H]1C[N@@H+](C[C@H]2CCOC2)CCO1)NCCCNC(=O)c1ccc(-c2c3nc(c(-c4ccc(S(=O)(=O)[O-])cc4)c4ccc([nH]4)c(-c4ccc(S(=O)(=O)[O-])cc4)c4nc(c(-c5ccc(S(=O)(=O)[O-])cc5)c5ccc2[nH]5)C=C4)C=C3)cc1
REMARK SMILES IDX 18 1 17 2 16 3 1 4 2 5 3 7 4 8 5 9 15 10 6 11 14 12 13 13
REMARK SMILES IDX 7 15 8 16 9 17 12 18 10 19 11 20 19 21 20 22 21 23 22 25
REMARK SMILES IDX 23 26 24 27 82 28 25 29 81 30 26 31 27 32 28 33 75 34 29 35
REMARK SMILES IDX 80 36 74 37 76 38 30 39 79 40 73 41 72 42 31 44 61 45 42 46
REMARK SMILES IDX 60 47 43 48 46 49 59 50 77 51 44 52 45 53 58 55 78 56 47 57
REMARK SMILES IDX 32 58 33 59 41 60 34 61 40 62 35 63 36 64 37 65 38 66 39 67
REMARK SMILES IDX 62 68 63 69 71 70 64 71 70 72 65 73 66 74 67 75 68 76 69 77
REMARK SMILES IDX 48 78 49 79 57 80 50 81 56 82 51 83 52 84 53 85 54 86 55 87
REMARK H PARENT 16 6 6 14 20 24 76 43 46 54
REMARK Flexibility Score: inf
ROOT
ATOM      1  C   UNL A   1      41.216  20.074  27.435  1.00  0.00     0.042 C 
ENDROOT
BRANCH   1   2
ATOM      2  C   UNL A   1      42.529  19.578  26.842  1.00  0.00     0.117 C 
BRANCH   2   3
ATOM      3  N   UNL A   1      43.145  20.587  26.013  1.00  0.00    -0.356 N 
ATOM      4  O   UNL A   1      44.931  19.386  25.201  1.00  0.00    -0.275 OA
ATOM      5  C   UNL A   1      44.281  20.422  25.257  1.00  0.00     0.222 C 
ATOM      6  H   UNL A   1      42.712  21.470  25.986  1.00  0.00     0.163 HD
BRANCH   5   7
ATOM      7  C   UNL A   1      44.672  21.680  24.491  1.00  0.00     0.138 C 
BRANCH   7   8
ATOM      8  C   UNL A   1      44.738  22.854  25.466  1.00  0.00     0.182 C 
ATOM      9  C   UNL A   1      45.558  24.048  24.944  1.00  0.00     0.295 C 
ATOM     10  O   UNL A   1      45.319  22.396  26.708  1.00  0.00    -0.366 OA
ATOM     11  N   UNL A   1      45.646  25.176  25.898  1.00  0.00    -0.331 N 
ATOM     12  C   UNL A   1      45.223  23.429  27.696  1.00  0.00     0.222 C 
ATOM     13  C   UNL A   1      45.962  24.703  27.253  1.00  0.00     0.291 C 
ATOM     14  H   UNL A   1      46.452  25.736  25.620  1.00  0.00     0.348 HD
BRANCH  11  15
ATOM     15  C   UNL A   1      44.593  26.191  25.774  1.00  0.00     0.268 C 
BRANCH  15  16
ATOM     16  C   UNL A   1      45.007  27.655  25.643  1.00  0.00     0.072 C 
ATOM     17  C   UNL A   1      45.605  28.323  26.866  1.00  0.00     0.040 C 
ATOM     18  C   UNL A   1      46.121  27.911  24.640  1.00  0.00     0.169 C 
ATOM     19  C   UNL A   1      46.101  29.608  26.234  1.00  0.00     0.160 C 
ATOM     20  O   UNL A   1      46.615  29.230  24.944  1.00  0.00    -0.381 OA
ENDBRANCH  15  16
ENDBRANCH  11  15
ENDBRANCH   7   8
ENDBRANCH   5   7
ENDBRANCH   2   3
ENDBRANCH   1   2
BRANCH   1  21
ATOM     21  C   UNL A   1      40.874  21.526  27.103  1.00  0.00     0.118 C 
BRANCH  21  22
ATOM     22  N   UNL A   1      39.692  21.671  26.267  1.00  0.00    -0.352 N 
ATOM     23  C   UNL A   1      38.880  22.766  26.077  1.00  0.00     0.251 C 
ATOM     24  H   UNL A   1      39.435  20.866  25.760  1.00  0.00     0.163 HD
ATOM     25  O   UNL A   1      37.855  22.655  25.415  1.00  0.00    -0.269 OA
BRANCH  23  26
ATOM     26  C   UNL A   1      39.225  24.069  26.697  1.00  0.00     0.039 A 
ATOM     27  C   UNL A   1      38.790  24.330  27.999  1.00  0.00     0.014 A 
ATOM     28  C   UNL A   1      39.974  25.027  26.008  1.00  0.00     0.014 A 
ATOM     29  C   UNL A   1      39.172  25.515  28.636  1.00  0.00     0.010 A 
ATOM     30  C   UNL A   1      40.418  26.171  26.671  1.00  0.00     0.010 A 
ATOM     31  C   UNL A   1      40.025  26.428  27.995  1.00  0.00    -0.014 A 
BRANCH  31  32
ATOM     32  C   UNL A   1      40.533  27.638  28.697  1.00  0.00     0.031 A 
ATOM     33  C   UNL A   1      41.920  27.657  29.286  1.00  0.00     0.074 A 
ATOM     34  C   UNL A   1      39.724  28.705  28.861  1.00  0.00     0.049 A 
ATOM     35  N   UNL A   1      42.511  28.599  29.975  1.00  0.00    -0.248 NA
ATOM     36  C   UNL A   1      42.742  26.451  29.093  1.00  0.00     0.031 C 
ATOM     37  C   UNL A   1      38.346  28.805  28.373  1.00  0.00     0.029 A 
ATOM     38  N   UNL A   1      39.938  29.908  29.488  1.00  0.00    -0.354 N 
ATOM     39  C   UNL A   1      43.764  28.098  30.309  1.00  0.00     0.074 A 
ATOM     40  C   UNL A   1      43.828  26.749  29.791  1.00  0.00     0.031 C 
ATOM     41  C   UNL A   1      37.851  30.012  28.694  1.00  0.00     0.029 A 
ATOM     42  C   UNL A   1      38.854  30.754  29.452  1.00  0.00     0.049 A 
ATOM     43  H   UNL A   1      40.790  30.143  29.924  1.00  0.00     0.167 HD
ATOM     44  C   UNL A   1      44.777  28.709  30.972  1.00  0.00     0.031 A 
ATOM     45  C   UNL A   1      38.677  31.983  29.976  1.00  0.00     0.031 A 
ATOM     46  C   UNL A   1      44.711  30.053  31.487  1.00  0.00     0.049 A 
ATOM     47  C   UNL A   1      39.806  32.630  30.732  1.00  0.00     0.074 A 
ATOM     48  C   UNL A   1      45.703  30.775  32.127  1.00  0.00     0.029 A 
ATOM     49  N   UNL A   1      43.595  30.873  31.430  1.00  0.00    -0.354 N 
ATOM     50  N   UNL A   1      41.007  32.163  30.978  1.00  0.00    -0.248 NA
ATOM     51  C   UNL A   1      39.559  33.974  31.272  1.00  0.00     0.031 C 
ATOM     52  C   UNL A   1      45.167  32.009  32.512  1.00  0.00     0.029 A 
ATOM     53  C   UNL A   1      43.863  32.083  32.048  1.00  0.00     0.049 A 
ATOM     54  H   UNL A   1      42.737  30.631  31.010  1.00  0.00     0.167 HD
ATOM     55  C   UNL A   1      41.668  33.169  31.674  1.00  0.00     0.074 A 
ATOM     56  C   UNL A   1      40.740  34.274  31.795  1.00  0.00     0.031 C 
ATOM     57  C   UNL A   1      42.933  33.177  32.165  1.00  0.00     0.031 A 
BRANCH  44  58
ATOM     58  C   UNL A   1      46.045  27.923  31.190  1.00  0.00    -0.014 A 
ATOM     59  C   UNL A   1      46.212  27.111  32.328  1.00  0.00     0.010 A 
ATOM     60  C   UNL A   1      47.064  27.956  30.221  1.00  0.00     0.010 A 
ATOM     61  C   UNL A   1      47.391  26.385  32.512  1.00  0.00     0.020 A 
ATOM     62  C   UNL A   1      48.232  27.206  30.386  1.00  0.00     0.020 A 
ATOM     63  C   UNL A   1      48.395  26.438  31.541  1.00  0.00     0.054 A 
BRANCH  63  64
ATOM     64  S   UNL A   1      49.905  25.467  31.798  1.00  0.00     0.124 S 
ATOM     65  O   UNL A   1      50.149  24.931  30.462  1.00  0.00    -0.237 OA
ATOM     66  O   UNL A   1      50.860  26.476  32.253  1.00  0.00    -0.237 OA
ATOM     67  O   UNL A   1      49.519  24.482  32.803  1.00  0.00    -0.744 OA
ENDBRANCH  63  64
ENDBRANCH  44  58
BRANCH  45  68
ATOM     68  C   UNL A   1      37.377  32.688  29.797  1.00  0.00    -0.014 A 
ATOM     69  C   UNL A   1      36.329  32.503  30.717  1.00  0.00     0.010 A 
ATOM     70  C   UNL A   1      37.181  33.555  28.706  1.00  0.00     0.010 A 
ATOM     71  C   UNL A   1      35.105  33.156  30.540  1.00  0.00     0.020 A 
ATOM     72  C   UNL A   1      35.970  34.235  28.543  1.00  0.00     0.020 A 
ATOM     73  C   UNL A   1      34.934  34.020  29.455  1.00  0.00     0.054 A 
BRANCH  73  74
ATOM     74  S   UNL A   1      33.354  34.893  29.272  1.00  0.00     0.124 S 
ATOM     75  O   UNL A   1      32.844  34.886  30.639  1.00  0.00    -0.237 OA
ATOM     76  O   UNL A   1      33.773  36.195  28.758  1.00  0.00    -0.237 OA
ATOM     77  O   UNL A   1      32.614  34.065  28.322  1.00  0.00    -0.744 OA
ENDBRANCH  73  74
ENDBRANCH  45  68
BRANCH  57  78
ATOM     78  C   UNL A   1      43.408  34.435  32.848  1.00  0.00    -0.014 A 
ATOM     79  C   UNL A   1      43.303  34.599  34.240  1.00  0.00     0.010 A 
ATOM     80  C   UNL A   1      44.021  35.446  32.084  1.00  0.00     0.010 A 
ATOM     81  C   UNL A   1      43.772  35.766  34.852  1.00  0.00     0.020 A 
ATOM     82  C   UNL A   1      44.520  36.598  32.696  1.00  0.00     0.020 A 
ATOM     83  C   UNL A   1      44.380  36.756  34.076  1.00  0.00     0.054 A 
BRANCH  83  84
ATOM     84  S   UNL A   1      45.022  38.240  34.900  1.00  0.00     0.124 S 
ATOM     85  O   UNL A   1      43.917  39.180  34.738  1.00  0.00    -0.237 OA
ATOM     86  O   UNL A   1      45.255  37.772  36.264  1.00  0.00    -0.237 OA
ATOM     87  O   UNL A   1      46.230  38.562  34.144  1.00  0.00    -0.744 OA
ENDBRANCH  83  84
ENDBRANCH  57  78
ENDBRANCH  31  32
ENDBRANCH  23  26
ENDBRANCH  21  22
ENDBRANCH   1  21
TORSDOF 16
ENDMDL
MODEL 3
REMARK VINA RESULT:      -9.9      1.342      2.153
REMARK SMILES O=C(C[C@@H]1C[N@@H+](C[C@H]2CCOC2)CCO1)NCCCNC(=O)c1ccc(-c2c3nc(c(-c4ccc(S(=O)(=O)[O-])cc4)c4ccc([nH]4)c(-c4ccc(S(=O)(=O)[O-])cc4)c4nc(c(-c5ccc(S(=O)(=O)[O-])cc5)c5ccc2[nH]5)C=C4)C=C3)cc1
REMARK SMILES IDX 18 1 17 2 16 3 1 4 2 5 3 7 4 8 5 9 15 10 6 11 14 12 13 13
REMARK SMILES IDX 7 15 8 16 9 17 12 18 10 19 11 20 19 21 20 22 21 23 22 25
REMARK SMILES IDX 23 26 24 27 82 28 25 29 81 30 26 31 27 32 28 33 75 34 29 35
REMARK SMILES IDX 80 36 74 37 76 38 30 39 79 40 73 41 72 42 31 44 61 45 42 46
REMARK SMILES IDX 60 47 43 48 46 49 59 50 77 51 44 52 45 53 58 55 78 56 47 57
REMARK SMILES IDX 32 58 33 59 41 60 34 61 40 62 35 63 36 64 37 65 38 66 39 67
REMARK SMILES IDX 62 68 63 69 71 70 64 71 70 72 65 73 66 74 67 75 68 76 69 77
REMARK SMILES IDX 48 78 49 79 57 80 50 81 56 82 51 83 52 84 53 85 54 86 55 87
REMARK H PARENT 16 6 6 14 20 24 76 43 46 54
REMARK Flexibility Score: inf
ROOT
ATOM      1  C   UNL A   1      33.896  27.421  25.042  1.00  0.00     0.042 C 
ENDROOT
BRANCH   1   2
ATOM      2  C   UNL A   1      32.460  27.384  24.533  1.00  0.00     0.117 C 
BRANCH   2   3
ATOM      3  N   UNL A   1      31.908  26.052  24.616  1.00  0.00    -0.356 N 
ATOM      4  O   UNL A   1      30.737  26.239  26.588  1.00  0.00    -0.275 OA
ATOM      5  C   UNL A   1      31.093  25.581  25.618  1.00  0.00     0.222 C 
ATOM      6  H   UNL A   1      32.135  25.427  23.891  1.00  0.00     0.163 HD
BRANCH   5   7
ATOM      7  C   UNL A   1      30.677  24.130  25.411  1.00  0.00     0.138 C 
BRANCH   7   8
ATOM      8  C   UNL A   1      31.915  23.240  25.509  1.00  0.00     0.182 C 
ATOM      9  C   UNL A   1      31.595  21.761  25.791  1.00  0.00     0.295 C 
ATOM     10  O   UNL A   1      32.766  23.743  26.564  1.00  0.00    -0.366 OA
ATOM     11  N   UNL A   1      32.793  20.902  25.915  1.00  0.00    -0.331 N 
ATOM     12  C   UNL A   1      34.015  23.038  26.554  1.00  0.00     0.222 C 
ATOM     13  C   UNL A   1      33.812  21.529  26.769  1.00  0.00     0.291 C 
ATOM     14  H   UNL A   1      32.507  20.064  26.419  1.00  0.00     0.348 HD
BRANCH  11  15
ATOM     15  C   UNL A   1      33.258  20.285  24.667  1.00  0.00     0.268 C 
BRANCH  15  16
ATOM     16  C   UNL A   1      33.212  18.763  24.547  1.00  0.00     0.072 C 
ATOM     17  C   UNL A   1      34.529  18.039  24.342  1.00  0.00     0.040 C 
ATOM     18  C   UNL A   1      32.716  18.045  25.793  1.00  0.00     0.169 C 
ATOM     19  C   UNL A   1      34.067  16.612  24.552  1.00  0.00     0.160 C 
ATOM     20  O   UNL A   1      33.110  16.669  25.625  1.00  0.00    -0.381 OA
ENDBRANCH  15  16
ENDBRANCH  11  15
ENDBRANCH   7   8
ENDBRANCH   5   7
ENDBRANCH   2   3
ENDBRANCH   1   2
BRANCH   1  21
ATOM     21  C   UNL A   1      34.037  27.742  26.529  1.00  0.00     0.118 C 
BRANCH  21  22
ATOM     22  N   UNL A   1      33.563  29.071  26.887  1.00  0.00    -0.352 N 
ATOM     23  C   UNL A   1      34.201  30.073  27.583  1.00  0.00     0.251 C 
ATOM     24  H   UNL A   1      32.649  29.286  26.586  1.00  0.00     0.163 HD
ATOM     25  O   UNL A   1      33.585  31.088  27.886  1.00  0.00    -0.269 OA
BRANCH  23  26
ATOM     26  C   UNL A   1      35.617  29.913  27.994  1.00  0.00     0.039 A 
ATOM     27  C   UNL A   1      35.897  29.552  29.315  1.00  0.00     0.014 A 
ATOM     28  C   UNL A   1      36.664  30.111  27.090  1.00  0.00     0.014 A 
ATOM     29  C   UNL A   1      37.219  29.314  29.705  1.00  0.00     0.010 A 
ATOM     30  C   UNL A   1      37.972  29.797  27.460  1.00  0.00     0.010 A 
ATOM     31  C   UNL A   1      38.265  29.392  28.772  1.00  0.00    -0.014 A 
BRANCH  31  32
ATOM     32  C   UNL A   1      39.661  29.032  29.142  1.00  0.00     0.031 A 
ATOM     33  C   UNL A   1      40.559  30.038  29.813  1.00  0.00     0.074 A 
ATOM     34  C   UNL A   1      40.146  27.815  28.820  1.00  0.00     0.049 A 
ATOM     35  N   UNL A   1      41.816  29.920  30.161  1.00  0.00    -0.248 NA
ATOM     36  C   UNL A   1      39.976  31.356  30.116  1.00  0.00     0.031 C 
ATOM     37  C   UNL A   1      39.395  26.759  28.136  1.00  0.00     0.029 A 
ATOM     38  N   UNL A   1      41.387  27.260  29.017  1.00  0.00    -0.354 N 
ATOM     39  C   UNL A   1      42.176  31.147  30.706  1.00  0.00     0.074 A 
ATOM     40  C   UNL A   1      41.021  32.011  30.598  1.00  0.00     0.031 C 
ATOM     41  C   UNL A   1      40.180  25.678  27.998  1.00  0.00     0.029 A 
ATOM     42  C   UNL A   1      41.503  25.976  28.537  1.00  0.00     0.049 A 
ATOM     43  H   UNL A   1      42.124  27.738  29.462  1.00  0.00     0.167 HD
ATOM     44  C   UNL A   1      43.356  31.517  31.264  1.00  0.00     0.031 A 
ATOM     45  C   UNL A   1      42.556  25.135  28.518  1.00  0.00     0.031 A 
ATOM     46  C   UNL A   1      44.505  30.655  31.372  1.00  0.00     0.049 A 
ATOM     47  C   UNL A   1      43.863  25.578  29.118  1.00  0.00     0.074 A 
ATOM     48  C   UNL A   1      45.726  30.924  31.966  1.00  0.00     0.029 A 
ATOM     49  N   UNL A   1      44.581  29.365  30.871  1.00  0.00    -0.354 N 
ATOM     50  N   UNL A   1      44.162  26.720  29.690  1.00  0.00    -0.248 NA
ATOM     51  C   UNL A   1      44.972  24.614  29.079  1.00  0.00     0.031 C 
ATOM     52  C   UNL A   1      46.561  29.819  31.769  1.00  0.00     0.029 A 
ATOM     53  C   UNL A   1      45.836  28.834  31.117  1.00  0.00     0.049 A 
ATOM     54  H   UNL A   1      43.849  28.894  30.409  1.00  0.00     0.167 HD
ATOM     55  C   UNL A   1      45.484  26.600  30.106  1.00  0.00     0.074 A 
ATOM     56  C   UNL A   1      45.920  25.269  29.735  1.00  0.00     0.031 C 
ATOM     57  C   UNL A   1      46.263  27.509  30.742  1.00  0.00     0.031 A 
BRANCH  44  58
ATOM     58  C   UNL A   1      43.468  32.925  31.792  1.00  0.00    -0.014 A 
ATOM     59  C   UNL A   1      43.166  33.226  33.134  1.00  0.00     0.010 A 
ATOM     60  C   UNL A   1      43.928  33.954  30.950  1.00  0.00     0.010 A 
ATOM     61  C   UNL A   1      43.281  34.535  33.609  1.00  0.00     0.020 A 
ATOM     62  C   UNL A   1      44.075  35.259  31.430  1.00  0.00     0.020 A 
ATOM     63  C   UNL A   1      43.733  35.544  32.753  1.00  0.00     0.054 A 
BRANCH  63  64
ATOM     64  S   UNL A   1      43.891  37.229  33.405  1.00  0.00     0.124 S 
ATOM     65  O   UNL A   1      45.153  37.151  34.137  1.00  0.00    -0.237 OA
ATOM     66  O   UNL A   1      43.920  38.040  32.190  1.00  0.00    -0.237 OA
ATOM     67  O   UNL A   1      42.701  37.395  34.234  1.00  0.00    -0.744 OA
ENDBRANCH  63  64
ENDBRANCH  44  58
BRANCH  45  68
ATOM     68  C   UNL A   1      42.415  23.779  27.916  1.00  0.00    -0.014 A 
ATOM     69  C   UNL A   1      42.745  23.557  26.567  1.00  0.00     0.010 A 
ATOM     70  C   UNL A   1      41.953  22.699  28.692  1.00  0.00     0.010 A 
ATOM     71  C   UNL A   1      42.599  22.287  26.000  1.00  0.00     0.020 A 
ATOM     72  C   UNL A   1      41.836  21.421  28.138  1.00  0.00     0.020 A 
ATOM     73  C   UNL A   1      42.148  21.226  26.790  1.00  0.00     0.054 A 
BRANCH  73  74
ATOM     74  S   UNL A   1      42.012  19.577  26.046  1.00  0.00     0.124 S 
ATOM     75  O   UNL A   1      40.589  19.502  25.732  1.00  0.00    -0.237 OA
ATOM     76  O   UNL A   1      42.911  19.677  24.898  1.00  0.00    -0.237 OA
ATOM     77  O   UNL A   1      42.467  18.683  27.108  1.00  0.00    -0.744 OA
ENDBRANCH  73  74
ENDBRANCH  45  68
BRANCH  57  78
ATOM     78  C   UNL A   1      47.662  27.088  31.116  1.00  0.00    -0.014 A 
ATOM     79  C   UNL A   1      47.937  26.464  32.346  1.00  0.00     0.010 A 
ATOM     80  C   UNL A   1      48.709  27.272  30.194  1.00  0.00     0.010 A 
ATOM     81  C   UNL A   1      49.239  26.061  32.660  1.00  0.00     0.020 A 
ATOM     82  C   UNL A   1      50.005  26.843  30.491  1.00  0.00     0.020 A 
ATOM     83  C   UNL A   1      50.264  26.251  31.728  1.00  0.00     0.054 A 
BRANCH  83  84
ATOM     84  S   UNL A   1      51.935  25.679  32.141  1.00  0.00     0.124 S 
ATOM     85  O   UNL A   1      52.725  26.227  31.041  1.00  0.00    -0.237 OA
ATOM     86  O   UNL A   1      52.168  26.291  33.447  1.00  0.00    -0.237 OA
ATOM     87  O   UNL A   1      51.811  24.224  32.154  1.00  0.00    -0.744 OA
ENDBRANCH  83  84
ENDBRANCH  57  78
ENDBRANCH  31  32
ENDBRANCH  23  26
ENDBRANCH  21  22
ENDBRANCH   1  21
TORSDOF 16
ENDMDL
