MODEL 1
REMARK VINA RESULT:     -11.8      0.000      0.000
REMARK SMILES C[C@H]1CN(C(=O)N2CC[NH+]([C@@H](C)C(=O)NCCCNC(=O)c3ccc(-c4c5nc(c(-c6ccc(S(=O)(=O)[O-])cc6)c6ccc([nH]6)c(-c6ccc(S(=O)(=O)[O-])cc6)c6nc(c(-c7ccc(S(=O)(=O)[O-])cc7)c7ccc4[nH]7)C=C6)C=C5)cc3)CC2)C[C@@H]1C
REMARK SMILES IDX 18 1 17 2 16 3 15 4 13 5 14 6 11 8 12 9 10 10 1 11 2 12 3 13
REMARK SMILES IDX 85 14 4 15 84 16 86 17 5 18 6 19 7 20 8 21 83 22 9 23 82 24
REMARK SMILES IDX 19 26 20 27 21 29 22 30 23 31 81 32 24 33 80 34 25 35 26 36
REMARK SMILES IDX 27 37 74 38 28 39 79 40 73 41 75 42 29 43 78 44 72 45 71 46
REMARK SMILES IDX 30 48 60 49 41 50 59 51 42 52 45 53 58 54 76 55 43 56 44 57
REMARK SMILES IDX 57 59 77 60 46 61 31 62 32 63 40 64 33 65 39 66 34 67 35 68
REMARK SMILES IDX 36 69 37 70 38 71 61 72 62 73 70 74 63 75 69 76 64 77 65 78
REMARK SMILES IDX 66 79 67 80 68 81 47 82 48 83 56 84 49 85 55 86 50 87 51 88
REMARK SMILES IDX 52 89 53 90 54 91
REMARK H PARENT 15 7 10 25 19 28 75 47 45 58
REMARK Flexibility Score: inf
ROOT
ATOM      1  C   UNL A   1      36.825  23.896  25.006  1.00  0.00     0.118 C 
ENDROOT
BRANCH   1   2
ATOM      2  C   UNL A   1      35.568  23.958  25.858  1.00  0.00     0.042 C 
BRANCH   2   3
ATOM      3  C   UNL A   1      34.530  24.970  25.367  1.00  0.00     0.118 C 
BRANCH   3   4
ATOM      4  N   UNL A   1      33.343  24.987  26.203  1.00  0.00    -0.351 N 
ATOM      5  C   UNL A   1      32.012  24.843  25.939  1.00  0.00     0.278 C 
ATOM      6  O   UNL A   1      31.259  24.992  26.912  1.00  0.00    -0.268 OA
ATOM      7  H   UNL A   1      33.538  25.134  27.157  1.00  0.00     0.163 HD
BRANCH   5   8
ATOM      8  C   UNL A   1      31.417  24.483  24.546  1.00  0.00     0.271 C 
ATOM      9  C   UNL A   1      30.396  25.491  24.024  1.00  0.00     0.086 C 
BRANCH   8  10
ATOM     10  N   UNL A   1      31.185  23.031  24.357  1.00  0.00    -0.322 N 
ATOM     11  C   UNL A   1      32.653  16.324  25.920  1.00  0.00     0.010 C 
ATOM     12  C   UNL A   1      32.776  16.939  24.525  1.00  0.00     0.010 C 
ATOM     13  C   UNL A   1      32.666  18.459  24.592  1.00  0.00     0.125 C 
ATOM     14  C   UNL A   1      34.178  16.729  23.919  1.00  0.00     0.010 C 
ATOM     15  N   UNL A   1      34.037  18.926  24.751  1.00  0.00    -0.324 N 
ATOM     16  C   UNL A   1      34.997  17.852  24.565  1.00  0.00     0.125 C 
ATOM     17  C   UNL A   1      34.159  16.883  22.392  1.00  0.00     0.010 C 
ATOM     18  C   UNL A   1      34.423  20.245  24.780  1.00  0.00     0.320 C 
ATOM     19  O   UNL A   1      35.590  20.622  24.765  1.00  0.00    -0.248 OA
ATOM     20  N   UNL A   1      33.368  21.121  24.679  1.00  0.00    -0.313 N 
ATOM     21  C   UNL A   1      33.317  21.973  23.512  1.00  0.00     0.183 C 
ATOM     22  C   UNL A   1      32.723  21.645  25.874  1.00  0.00     0.183 C 
ATOM     23  C   UNL A   1      31.862  22.368  23.240  1.00  0.00     0.284 C 
ATOM     24  C   UNL A   1      31.312  22.204  25.575  1.00  0.00     0.284 C 
ATOM     25  H   UNL A   1      30.201  23.078  24.092  1.00  0.00     0.348 HD
ENDBRANCH   8  10
ENDBRANCH   5   8
ENDBRANCH   3   4
ENDBRANCH   2   3
ENDBRANCH   1   2
BRANCH   1  26
ATOM     26  N   UNL A   1      37.725  22.842  25.437  1.00  0.00    -0.352 N 
ATOM     27  C   UNL A   1      38.903  22.918  26.144  1.00  0.00     0.251 C 
ATOM     28  H   UNL A   1      37.450  21.931  25.185  1.00  0.00     0.163 HD
ATOM     29  O   UNL A   1      39.617  21.921  26.213  1.00  0.00    -0.269 OA
BRANCH  27  30
ATOM     30  C   UNL A   1      39.330  24.178  26.803  1.00  0.00     0.039 A 
ATOM     31  C   UNL A   1      40.089  25.099  26.073  1.00  0.00     0.014 A 
ATOM     32  C   UNL A   1      39.038  24.443  28.143  1.00  0.00     0.014 A 
ATOM     33  C   UNL A   1      40.510  26.293  26.669  1.00  0.00     0.010 A 
ATOM     34  C   UNL A   1      39.368  25.675  28.705  1.00  0.00     0.010 A 
ATOM     35  C   UNL A   1      40.131  26.605  27.984  1.00  0.00    -0.014 A 
BRANCH  35  36
ATOM     36  C   UNL A   1      40.559  27.869  28.642  1.00  0.00     0.031 A 
ATOM     37  C   UNL A   1      41.949  27.984  29.220  1.00  0.00     0.074 A 
ATOM     38  C   UNL A   1      39.691  28.892  28.774  1.00  0.00     0.049 A 
ATOM     39  N   UNL A   1      42.487  28.972  29.889  1.00  0.00    -0.248 NA
ATOM     40  C   UNL A   1      42.840  26.825  29.047  1.00  0.00     0.031 C 
ATOM     41  C   UNL A   1      38.305  28.895  28.296  1.00  0.00     0.029 A 
ATOM     42  N   UNL A   1      39.844  30.127  29.352  1.00  0.00    -0.354 N 
ATOM     43  C   UNL A   1      43.762  28.541  30.241  1.00  0.00     0.074 A 
ATOM     44  C   UNL A   1      43.898  27.186  29.758  1.00  0.00     0.031 C 
ATOM     45  C   UNL A   1      37.747  30.085  28.574  1.00  0.00     0.029 A 
ATOM     46  C   UNL A   1      38.718  30.914  29.284  1.00  0.00     0.049 A 
ATOM     47  H   UNL A   1      40.681  30.422  29.778  1.00  0.00     0.167 HD
ATOM     48  C   UNL A   1      44.743  29.218  30.886  1.00  0.00     0.031 A 
ATOM     49  C   UNL A   1      38.488  32.160  29.741  1.00  0.00     0.031 A 
ATOM     50  C   UNL A   1      44.616  30.576  31.341  1.00  0.00     0.049 A 
ATOM     51  C   UNL A   1      39.594  32.898  30.445  1.00  0.00     0.074 A 
ATOM     52  C   UNL A   1      45.569  31.373  31.950  1.00  0.00     0.029 A 
ATOM     53  N   UNL A   1      43.464  31.342  31.233  1.00  0.00    -0.354 N 
ATOM     54  N   UNL A   1      40.812  32.493  30.716  1.00  0.00    -0.248 NA
ATOM     55  C   UNL A   1      39.298  34.266  30.894  1.00  0.00     0.031 C 
ATOM     56  C   UNL A   1      44.980  32.605  32.251  1.00  0.00     0.029 A 
ATOM     57  C   UNL A   1      43.677  32.595  31.780  1.00  0.00     0.049 A 
ATOM     58  H   UNL A   1      42.620  31.038  30.827  1.00  0.00     0.167 HD
ATOM     59  C   UNL A   1      41.436  33.566  31.344  1.00  0.00     0.074 A 
ATOM     60  C   UNL A   1      40.466  34.640  31.399  1.00  0.00     0.031 C 
ATOM     61  C   UNL A   1      42.700  33.654  31.828  1.00  0.00     0.031 A 
BRANCH  48  62
ATOM     62  C   UNL A   1      46.039  28.492  31.138  1.00  0.00    -0.014 A 
ATOM     63  C   UNL A   1      46.197  27.655  32.258  1.00  0.00     0.010 A 
ATOM     64  C   UNL A   1      47.107  28.629  30.233  1.00  0.00     0.010 A 
ATOM     65  C   UNL A   1      47.415  27.011  32.497  1.00  0.00     0.020 A 
ATOM     66  C   UNL A   1      48.317  27.963  30.451  1.00  0.00     0.020 A 
ATOM     67  C   UNL A   1      48.470  27.174  31.595  1.00  0.00     0.054 A 
BRANCH  67  68
ATOM     68  S   UNL A   1      50.037  26.323  31.924  1.00  0.00     0.124 S 
ATOM     69  O   UNL A   1      50.923  26.934  30.935  1.00  0.00    -0.237 OA
ATOM     70  O   UNL A   1      50.309  26.677  33.314  1.00  0.00    -0.237 OA
ATOM     71  O   UNL A   1      49.723  24.916  31.692  1.00  0.00    -0.744 OA
ENDBRANCH  67  68
ENDBRANCH  48  62
BRANCH  49  72
ATOM     72  C   UNL A   1      37.160  32.796  29.522  1.00  0.00    -0.014 A 
ATOM     73  C   UNL A   1      36.209  32.833  30.557  1.00  0.00     0.010 A 
ATOM     74  C   UNL A   1      36.849  33.392  28.287  1.00  0.00     0.010 A 
ATOM     75  C   UNL A   1      34.967  33.444  30.358  1.00  0.00     0.020 A 
ATOM     76  C   UNL A   1      35.618  34.026  28.091  1.00  0.00     0.020 A 
ATOM     77  C   UNL A   1      34.680  34.040  29.126  1.00  0.00     0.054 A 
BRANCH  77  78
ATOM     78  S   UNL A   1      33.088  34.884  28.910  1.00  0.00     0.124 S 
ATOM     79  O   UNL A   1      32.437  34.051  27.905  1.00  0.00    -0.237 OA
ATOM     80  O   UNL A   1      32.514  34.824  30.253  1.00  0.00    -0.237 OA
ATOM     81  O   UNL A   1      33.469  36.223  28.465  1.00  0.00    -0.744 OA
ENDBRANCH  77  78
ENDBRANCH  49  72
BRANCH  61  82
ATOM     82  C   UNL A   1      43.121  34.967  32.430  1.00  0.00    -0.014 A 
ATOM     83  C   UNL A   1      43.771  35.947  31.661  1.00  0.00     0.010 A 
ATOM     84  C   UNL A   1      42.806  35.244  33.774  1.00  0.00     0.010 A 
ATOM     85  C   UNL A   1      44.127  37.171  32.234  1.00  0.00     0.020 A 
ATOM     86  C   UNL A   1      43.136  36.477  34.342  1.00  0.00     0.020 A 
ATOM     87  C   UNL A   1      43.807  37.429  33.571  1.00  0.00     0.054 A 
BRANCH  87  88
ATOM     88  S   UNL A   1      44.238  39.042  34.278  1.00  0.00     0.124 S 
ATOM     89  O   UNL A   1      45.477  39.360  33.575  1.00  0.00    -0.237 OA
ATOM     90  O   UNL A   1      43.085  39.866  33.923  1.00  0.00    -0.237 OA
ATOM     91  O   UNL A   1      44.383  38.767  35.706  1.00  0.00    -0.744 OA
ENDBRANCH  87  88
ENDBRANCH  61  82
ENDBRANCH  35  36
ENDBRANCH  27  30
ENDBRANCH   1  26
TORSDOF 14
ENDMDL
MODEL 2
REMARK VINA RESULT:     -11.3      3.752      6.994
REMARK SMILES C[C@H]1CN(C(=O)N2CC[NH+]([C@@H](C)C(=O)NCCCNC(=O)c3ccc(-c4c5nc(c(-c6ccc(S(=O)(=O)[O-])cc6)c6ccc([nH]6)c(-c6ccc(S(=O)(=O)[O-])cc6)c6nc(c(-c7ccc(S(=O)(=O)[O-])cc7)c7ccc4[nH]7)C=C6)C=C5)cc3)CC2)C[C@@H]1C
REMARK SMILES IDX 18 1 17 2 16 3 15 4 13 5 14 6 11 8 12 9 10 10 1 11 2 12 3 13
REMARK SMILES IDX 85 14 4 15 84 16 86 17 5 18 6 19 7 20 8 21 83 22 9 23 82 24
REMARK SMILES IDX 19 26 20 27 21 29 22 30 23 31 81 32 24 33 80 34 25 35 26 36
REMARK SMILES IDX 27 37 74 38 28 39 79 40 73 41 75 42 29 43 78 44 72 45 71 46
REMARK SMILES IDX 30 48 60 49 41 50 59 51 42 52 45 53 58 54 76 55 43 56 44 57
REMARK SMILES IDX 57 59 77 60 46 61 31 62 32 63 40 64 33 65 39 66 34 67 35 68
REMARK SMILES IDX 36 69 37 70 38 71 61 72 62 73 70 74 63 75 69 76 64 77 65 78
REMARK SMILES IDX 66 79 67 80 68 81 47 82 48 83 56 84 49 85 55 86 50 87 51 88
REMARK SMILES IDX 52 89 53 90 54 91
REMARK H PARENT 15 7 10 25 19 28 75 47 45 58
REMARK Flexibility Score: inf
ROOT
ATOM      1  C   UNL A   1      40.786  21.538  27.388  1.00  0.00     0.118 C 
ENDROOT
BRANCH   1   2
ATOM      2  C   UNL A   1      41.067  20.045  27.402  1.00  0.00     0.042 C 
BRANCH   2   3
ATOM      3  C   UNL A   1      41.457  19.470  26.039  1.00  0.00     0.118 C 
BRANCH   3   4
ATOM      4  N   UNL A   1      42.654  18.650  26.112  1.00  0.00    -0.351 N 
ATOM      5  C   UNL A   1      43.931  18.818  25.660  1.00  0.00     0.278 C 
ATOM      6  O   UNL A   1      44.688  17.855  25.843  1.00  0.00    -0.268 OA
ATOM      7  H   UNL A   1      42.515  17.797  26.584  1.00  0.00     0.163 HD
BRANCH   5   8
ATOM      8  C   UNL A   1      44.471  20.114  24.987  1.00  0.00     0.271 C 
ATOM      9  C   UNL A   1      45.850  19.958  24.351  1.00  0.00     0.086 C 
BRANCH   8  10
ATOM     10  N   UNL A   1      44.136  21.352  25.730  1.00  0.00    -0.322 N 
ATOM     11  C   UNL A   1      43.327  28.343  25.965  1.00  0.00     0.010 C 
ATOM     12  C   UNL A   1      44.299  27.550  26.840  1.00  0.00     0.010 C 
ATOM     13  C   UNL A   1      44.433  26.115  26.338  1.00  0.00     0.125 C 
ATOM     14  C   UNL A   1      45.742  28.080  26.734  1.00  0.00     0.010 C 
ATOM     15  N   UNL A   1      45.547  26.151  25.400  1.00  0.00    -0.324 N 
ATOM     16  C   UNL A   1      46.251  27.422  25.447  1.00  0.00     0.125 C 
ATOM     17  C   UNL A   1      46.591  27.646  27.937  1.00  0.00     0.010 C 
ATOM     18  C   UNL A   1      46.074  25.056  24.757  1.00  0.00     0.320 C 
ATOM     19  O   UNL A   1      47.102  25.078  24.089  1.00  0.00    -0.248 OA
ATOM     20  N   UNL A   1      45.417  23.886  25.055  1.00  0.00    -0.313 N 
ATOM     21  C   UNL A   1      46.161  22.859  25.750  1.00  0.00     0.183 C 
ATOM     22  C   UNL A   1      44.323  23.417  24.216  1.00  0.00     0.183 C 
ATOM     23  C   UNL A   1      45.188  21.975  26.535  1.00  0.00     0.284 C 
ATOM     24  C   UNL A   1      43.429  22.389  24.949  1.00  0.00     0.284 C 
ATOM     25  H   UNL A   1      43.484  20.943  26.400  1.00  0.00     0.348 HD
ENDBRANCH   8  10
ENDBRANCH   5   8
ENDBRANCH   3   4
ENDBRANCH   2   3
ENDBRANCH   1   2
BRANCH   1  26
ATOM     26  N   UNL A   1      39.701  21.882  26.486  1.00  0.00    -0.352 N 
ATOM     27  C   UNL A   1      38.968  23.042  26.383  1.00  0.00     0.251 C 
ATOM     28  H   UNL A   1      39.452  21.175  25.848  1.00  0.00     0.163 HD
ATOM     29  O   UNL A   1      37.952  23.040  25.695  1.00  0.00    -0.269 OA
BRANCH  27  30
ATOM     30  C   UNL A   1      39.372  24.278  27.099  1.00  0.00     0.039 A 
ATOM     31  C   UNL A   1      40.216  25.188  26.454  1.00  0.00     0.014 A 
ATOM     32  C   UNL A   1      38.974  24.531  28.414  1.00  0.00     0.014 A 
ATOM     33  C   UNL A   1      40.618  26.359  27.105  1.00  0.00     0.010 A 
ATOM     34  C   UNL A   1      39.289  25.744  29.024  1.00  0.00     0.010 A 
ATOM     35  C   UNL A   1      40.136  26.663  28.388  1.00  0.00    -0.014 A 
BRANCH  35  36
ATOM     36  C   UNL A   1      40.542  27.903  29.103  1.00  0.00     0.031 A 
ATOM     37  C   UNL A   1      41.893  27.980  29.770  1.00  0.00     0.074 A 
ATOM     38  C   UNL A   1      39.683  28.937  29.204  1.00  0.00     0.049 A 
ATOM     39  N   UNL A   1      42.403  28.942  30.497  1.00  0.00    -0.248 NA
ATOM     40  C   UNL A   1      42.775  26.810  29.626  1.00  0.00     0.031 C 
ATOM     41  C   UNL A   1      38.331  28.976  28.639  1.00  0.00     0.029 A 
ATOM     42  N   UNL A   1      39.819  30.155  29.821  1.00  0.00    -0.354 N 
ATOM     43  C   UNL A   1      43.646  28.481  30.918  1.00  0.00     0.074 A 
ATOM     44  C   UNL A   1      43.791  27.135  30.412  1.00  0.00     0.031 C 
ATOM     45  C   UNL A   1      37.776  30.169  28.910  1.00  0.00     0.029 A 
ATOM     46  C   UNL A   1      38.712  30.963  29.701  1.00  0.00     0.049 A 
ATOM     47  H   UNL A   1      40.631  30.426  30.306  1.00  0.00     0.167 HD
ATOM     48  C   UNL A   1      44.594  29.125  31.640  1.00  0.00     0.031 A 
ATOM     49  C   UNL A   1      38.473  32.203  30.173  1.00  0.00     0.031 A 
ATOM     50  C   UNL A   1      44.460  30.474  32.120  1.00  0.00     0.049 A 
ATOM     51  C   UNL A   1      39.543  32.904  30.964  1.00  0.00     0.074 A 
ATOM     52  C   UNL A   1      45.385  31.240  32.807  1.00  0.00     0.029 A 
ATOM     53  N   UNL A   1      43.330  31.263  31.958  1.00  0.00    -0.354 N 
ATOM     54  N   UNL A   1      40.735  32.471  31.302  1.00  0.00    -0.248 NA
ATOM     55  C   UNL A   1      39.241  34.266  31.427  1.00  0.00     0.031 C 
ATOM     56  C   UNL A   1      44.797  32.475  33.101  1.00  0.00     0.029 A 
ATOM     57  C   UNL A   1      43.527  32.499  32.548  1.00  0.00     0.049 A 
ATOM     58  H   UNL A   1      42.509  30.983  31.492  1.00  0.00     0.167 HD
ATOM     59  C   UNL A   1      41.334  33.518  31.995  1.00  0.00     0.074 A 
ATOM     60  C   UNL A   1      40.380  34.607  32.014  1.00  0.00     0.031 C 
ATOM     61  C   UNL A   1      42.566  33.573  32.560  1.00  0.00     0.031 A 
BRANCH  48  62
ATOM     62  C   UNL A   1      45.859  28.370  31.957  1.00  0.00    -0.014 A 
ATOM     63  C   UNL A   1      45.896  27.410  32.985  1.00  0.00     0.010 A 
ATOM     64  C   UNL A   1      47.023  28.607  31.203  1.00  0.00     0.010 A 
ATOM     65  C   UNL A   1      47.084  26.740  33.288  1.00  0.00     0.020 A 
ATOM     66  C   UNL A   1      48.207  27.917  31.483  1.00  0.00     0.020 A 
ATOM     67  C   UNL A   1      48.234  27.002  32.539  1.00  0.00     0.054 A 
BRANCH  67  68
ATOM     68  S   UNL A   1      49.761  26.113  32.948  1.00  0.00     0.124 S 
ATOM     69  O   UNL A   1      50.712  27.211  33.114  1.00  0.00    -0.237 OA
ATOM     70  O   UNL A   1      49.402  25.404  34.173  1.00  0.00    -0.237 OA
ATOM     71  O   UNL A   1      49.991  25.263  31.783  1.00  0.00    -0.744 OA
ENDBRANCH  67  68
ENDBRANCH  48  62
BRANCH  49  72
ATOM     72  C   UNL A   1      37.172  32.867  29.886  1.00  0.00    -0.014 A 
ATOM     73  C   UNL A   1      36.143  32.859  30.843  1.00  0.00     0.010 A 
ATOM     74  C   UNL A   1      36.965  33.533  28.665  1.00  0.00     0.010 A 
ATOM     75  C   UNL A   1      34.925  33.496  30.581  1.00  0.00     0.020 A 
ATOM     76  C   UNL A   1      35.759  34.193  28.408  1.00  0.00     0.020 A 
ATOM     77  C   UNL A   1      34.742  34.162  29.366  1.00  0.00     0.054 A 
BRANCH  77  78
ATOM     78  S   UNL A   1      33.180  35.037  29.072  1.00  0.00     0.124 S 
ATOM     79  O   UNL A   1      32.552  34.989  30.388  1.00  0.00    -0.237 OA
ATOM     80  O   UNL A   1      33.632  36.355  28.633  1.00  0.00    -0.237 OA
ATOM     81  O   UNL A   1      32.529  34.235  28.038  1.00  0.00    -0.744 OA
ENDBRANCH  77  78
ENDBRANCH  49  72
BRANCH  61  82
ATOM     82  C   UNL A   1      42.968  34.863  33.220  1.00  0.00    -0.014 A 
ATOM     83  C   UNL A   1      42.704  35.101  34.579  1.00  0.00     0.010 A 
ATOM     84  C   UNL A   1      43.677  35.828  32.479  1.00  0.00     0.010 A 
ATOM     85  C   UNL A   1      43.114  36.295  35.179  1.00  0.00     0.020 A 
ATOM     86  C   UNL A   1      44.112  37.010  33.082  1.00  0.00     0.020 A 
ATOM     87  C   UNL A   1      43.815  37.242  34.426  1.00  0.00     0.054 A 
BRANCH  87  88
ATOM     88  S   UNL A   1      44.376  38.763  35.239  1.00  0.00     0.124 S 
ATOM     89  O   UNL A   1      45.793  38.790  34.888  1.00  0.00    -0.237 OA
ATOM     90  O   UNL A   1      43.552  39.789  34.606  1.00  0.00    -0.237 OA
ATOM     91  O   UNL A   1      44.089  38.527  36.652  1.00  0.00    -0.744 OA
ENDBRANCH  87  88
ENDBRANCH  61  82
ENDBRANCH  35  36
ENDBRANCH  27  30
ENDBRANCH   1  26
TORSDOF 14
ENDMDL
MODEL 3
REMARK VINA RESULT:     -11.3      2.535      8.807
REMARK SMILES C[C@H]1CN(C(=O)N2CC[NH+]([C@@H](C)C(=O)NCCCNC(=O)c3ccc(-c4c5nc(c(-c6ccc(S(=O)(=O)[O-])cc6)c6ccc([nH]6)c(-c6ccc(S(=O)(=O)[O-])cc6)c6nc(c(-c7ccc(S(=O)(=O)[O-])cc7)c7ccc4[nH]7)C=C6)C=C5)cc3)CC2)C[C@@H]1C
REMARK SMILES IDX 18 1 17 2 16 3 15 4 13 5 14 6 11 8 12 9 10 10 1 11 2 12 3 13
REMARK SMILES IDX 85 14 4 15 84 16 86 17 5 18 6 19 7 20 8 21 83 22 9 23 82 24
REMARK SMILES IDX 19 26 20 27 21 29 22 30 23 31 81 32 24 33 80 34 25 35 26 36
REMARK SMILES IDX 27 37 74 38 28 39 79 40 73 41 75 42 29 43 78 44 72 45 71 46
REMARK SMILES IDX 30 48 60 49 41 50 59 51 42 52 45 53 58 54 76 55 43 56 44 57
REMARK SMILES IDX 57 59 77 60 46 61 31 62 32 63 40 64 33 65 39 66 34 67 35 68
REMARK SMILES IDX 36 69 37 70 38 71 61 72 62 73 70 74 63 75 69 76 64 77 65 78
REMARK SMILES IDX 66 79 67 80 68 81 47 82 48 83 56 84 49 85 55 86 50 87 51 88
REMARK SMILES IDX 52 89 53 90 54 91
REMARK H PARENT 15 7 10 25 19 28 75 47 45 58
REMARK Flexibility Score: inf
ROOT
ATOM      1  C   UNL A   1      34.079  28.459  26.088  1.00  0.00     0.118 C 
ENDROOT
BRANCH   1   2
ATOM      2  C   UNL A   1      33.097  27.400  26.562  1.00  0.00     0.042 C 
BRANCH   2   3
ATOM      3  C   UNL A   1      31.632  27.729  26.263  1.00  0.00     0.118 C 
BRANCH   3   4
ATOM      4  N   UNL A   1      30.737  26.659  26.670  1.00  0.00    -0.351 N 
ATOM      5  C   UNL A   1      30.398  25.461  26.112  1.00  0.00     0.278 C 
ATOM      6  O   UNL A   1      29.524  24.823  26.716  1.00  0.00    -0.268 OA
ATOM      7  H   UNL A   1      30.280  26.836  27.524  1.00  0.00     0.163 HD
BRANCH   5   8
ATOM      8  C   UNL A   1      31.049  24.864  24.830  1.00  0.00     0.271 C 
ATOM      9  C   UNL A   1      30.961  25.771  23.605  1.00  0.00     0.086 C 
BRANCH   8  10
ATOM     10  N   UNL A   1      30.840  23.403  24.684  1.00  0.00    -0.322 N 
ATOM     11  C   UNL A   1      32.671  16.763  26.144  1.00  0.00     0.010 C 
ATOM     12  C   UNL A   1      32.618  17.361  24.737  1.00  0.00     0.010 C 
ATOM     13  C   UNL A   1      32.471  18.879  24.800  1.00  0.00     0.125 C 
ATOM     14  C   UNL A   1      33.948  17.183  23.979  1.00  0.00     0.010 C 
ATOM     15  N   UNL A   1      33.837  19.386  24.798  1.00  0.00    -0.324 N 
ATOM     16  C   UNL A   1      34.802  18.337  24.516  1.00  0.00     0.125 C 
ATOM     17  C   UNL A   1      33.753  17.314  22.462  1.00  0.00     0.010 C 
ATOM     18  C   UNL A   1      34.185  20.716  24.769  1.00  0.00     0.320 C 
ATOM     19  O   UNL A   1      35.331  21.125  24.619  1.00  0.00    -0.248 OA
ATOM     20  N   UNL A   1      33.100  21.560  24.778  1.00  0.00    -0.313 N 
ATOM     21  C   UNL A   1      32.893  22.394  23.615  1.00  0.00     0.183 C 
ATOM     22  C   UNL A   1      32.579  22.082  26.033  1.00  0.00     0.183 C 
ATOM     23  C   UNL A   1      31.406  22.744  23.505  1.00  0.00     0.284 C 
ATOM     24  C   UNL A   1      31.127  22.597  25.888  1.00  0.00     0.284 C 
ATOM     25  H   UNL A   1      29.831  23.419  24.531  1.00  0.00     0.348 HD
ENDBRANCH   8  10
ENDBRANCH   5   8
ENDBRANCH   3   4
ENDBRANCH   2   3
ENDBRANCH   1   2
BRANCH   1  26
ATOM     26  N   UNL A   1      33.825  29.751  26.699  1.00  0.00    -0.352 N 
ATOM     27  C   UNL A   1      34.549  30.442  27.644  1.00  0.00     0.251 C 
ATOM     28  H   UNL A   1      33.009  30.205  26.389  1.00  0.00     0.163 HD
ATOM     29  O   UNL A   1      34.039  31.421  28.181  1.00  0.00    -0.269 OA
BRANCH  27  30
ATOM     30  C   UNL A   1      35.917  30.016  28.034  1.00  0.00     0.039 A 
ATOM     31  C   UNL A   1      36.950  30.115  27.095  1.00  0.00     0.014 A 
ATOM     32  C   UNL A   1      36.188  29.474  29.293  1.00  0.00     0.014 A 
ATOM     33  C   UNL A   1      38.248  29.716  27.433  1.00  0.00     0.010 A 
ATOM     34  C   UNL A   1      37.498  29.174  29.663  1.00  0.00     0.010 A 
ATOM     35  C   UNL A   1      38.541  29.266  28.730  1.00  0.00    -0.014 A 
BRANCH  35  36
ATOM     36  C   UNL A   1      39.912  28.840  29.119  1.00  0.00     0.031 A 
ATOM     37  C   UNL A   1      40.819  29.798  29.852  1.00  0.00     0.074 A 
ATOM     38  C   UNL A   1      40.367  27.621  28.767  1.00  0.00     0.049 A 
ATOM     39  N   UNL A   1      42.067  29.641  30.216  1.00  0.00    -0.248 NA
ATOM     40  C   UNL A   1      40.259  31.115  30.195  1.00  0.00     0.031 C 
ATOM     41  C   UNL A   1      39.607  26.614  28.022  1.00  0.00     0.029 A 
ATOM     42  N   UNL A   1      41.582  27.021  28.988  1.00  0.00    -0.354 N 
ATOM     43  C   UNL A   1      42.445  30.845  30.801  1.00  0.00     0.074 A 
ATOM     44  C   UNL A   1      41.315  31.740  30.695  1.00  0.00     0.031 C 
ATOM     45  C   UNL A   1      40.362  25.513  27.875  1.00  0.00     0.029 A 
ATOM     46  C   UNL A   1      41.671  25.747  28.478  1.00  0.00     0.049 A 
ATOM     47  H   UNL A   1      42.321  27.462  29.466  1.00  0.00     0.167 HD
ATOM     48  C   UNL A   1      43.618  31.173  31.395  1.00  0.00     0.031 A 
ATOM     49  C   UNL A   1      42.690  24.865  28.490  1.00  0.00     0.031 A 
ATOM     50  C   UNL A   1      44.732  30.273  31.523  1.00  0.00     0.049 A 
ATOM     51  C   UNL A   1      43.980  25.245  29.164  1.00  0.00     0.074 A 
ATOM     52  C   UNL A   1      45.942  30.485  32.161  1.00  0.00     0.029 A 
ATOM     53  N   UNL A   1      44.772  28.985  31.010  1.00  0.00    -0.354 N 
ATOM     54  N   UNL A   1      44.297  26.369  29.761  1.00  0.00    -0.248 NA
ATOM     55  C   UNL A   1      45.045  24.233  29.176  1.00  0.00     0.031 C 
ATOM     56  C   UNL A   1      46.731  29.342  31.992  1.00  0.00     0.029 A 
ATOM     57  C   UNL A   1      45.992  28.398  31.299  1.00  0.00     0.049 A 
ATOM     58  H   UNL A   1      44.040  28.553  30.512  1.00  0.00     0.167 HD
ATOM     59  C   UNL A   1      45.589  26.189  30.243  1.00  0.00     0.074 A 
ATOM     60  C   UNL A   1      45.988  24.845  29.879  1.00  0.00     0.031 C 
ATOM     61  C   UNL A   1      46.373  27.058  30.928  1.00  0.00     0.031 A 
BRANCH  48  62
ATOM     62  C   UNL A   1      43.752  32.569  31.946  1.00  0.00    -0.014 A 
ATOM     63  C   UNL A   1      43.460  32.850  33.293  1.00  0.00     0.010 A 
ATOM     64  C   UNL A   1      44.199  33.611  31.113  1.00  0.00     0.010 A 
ATOM     65  C   UNL A   1      43.558  34.156  33.783  1.00  0.00     0.020 A 
ATOM     66  C   UNL A   1      44.328  34.913  31.606  1.00  0.00     0.020 A 
ATOM     67  C   UNL A   1      43.987  35.180  32.935  1.00  0.00     0.054 A 
BRANCH  67  68
ATOM     68  S   UNL A   1      44.114  36.864  33.597  1.00  0.00     0.124 S 
ATOM     69  O   UNL A   1      44.714  37.583  32.475  1.00  0.00    -0.237 OA
ATOM     70  O   UNL A   1      42.722  37.201  33.886  1.00  0.00    -0.237 OA
ATOM     71  O   UNL A   1      44.972  36.712  34.769  1.00  0.00    -0.744 OA
ENDBRANCH  67  68
ENDBRANCH  48  62
BRANCH  49  72
ATOM     72  C   UNL A   1      42.518  23.526  27.863  1.00  0.00    -0.014 A 
ATOM     73  C   UNL A   1      43.083  23.249  26.607  1.00  0.00     0.010 A 
ATOM     74  C   UNL A   1      41.809  22.510  28.532  1.00  0.00     0.010 A 
ATOM     75  C   UNL A   1      42.935  21.987  26.024  1.00  0.00     0.020 A 
ATOM     76  C   UNL A   1      41.681  21.239  27.965  1.00  0.00     0.020 A 
ATOM     77  C   UNL A   1      42.237  20.988  26.708  1.00  0.00     0.054 A 
BRANCH  77  78
ATOM     78  S   UNL A   1      42.113  19.338  25.963  1.00  0.00     0.124 S 
ATOM     79  O   UNL A   1      42.664  18.488  27.013  1.00  0.00    -0.237 OA
ATOM     80  O   UNL A   1      40.677  19.204  25.728  1.00  0.00    -0.237 OA
ATOM     81  O   UNL A   1      42.926  19.448  24.753  1.00  0.00    -0.744 OA
ENDBRANCH  77  78
ENDBRANCH  49  72
BRANCH  61  82
ATOM     82  C   UNL A   1      47.730  26.574  31.361  1.00  0.00    -0.014 A 
ATOM     83  C   UNL A   1      47.904  25.866  32.562  1.00  0.00     0.010 A 
ATOM     84  C   UNL A   1      48.839  26.781  30.519  1.00  0.00     0.010 A 
ATOM     85  C   UNL A   1      49.169  25.400  32.930  1.00  0.00     0.020 A 
ATOM     86  C   UNL A   1      50.100  26.292  30.870  1.00  0.00     0.020 A 
ATOM     87  C   UNL A   1      50.260  25.616  32.081  1.00  0.00     0.054 A 
BRANCH  87  88
ATOM     88  S   UNL A   1      51.881  24.961  32.558  1.00  0.00     0.124 S 
ATOM     89  O   UNL A   1      51.638  23.522  32.564  1.00  0.00    -0.237 OA
ATOM     90  O   UNL A   1      52.752  25.447  31.490  1.00  0.00    -0.237 OA
ATOM     91  O   UNL A   1      52.124  25.558  33.870  1.00  0.00    -0.744 OA
ENDBRANCH  87  88
ENDBRANCH  61  82
ENDBRANCH  35  36
ENDBRANCH  27  30
ENDBRANCH   1  26
TORSDOF 14
ENDMDL
