MODEL 1
REMARK VINA RESULT:     -12.8      0.000      0.000
REMARK SMILES O=C(COc1ccccc1/C=C1/SC(=O)N(c2ccc(F)cc2)C1=O)NCCCNC(=O)c1ccc(-c2c3nc(c(-c4ccc(S(=O)(=O)[O-])cc4)c4ccc([nH]4)c(-c4ccc(S(=O)(=O)[O-])cc4)c4nc(c(-c5ccc(S(=O)(=O)[O-])cc5)c5ccc2[nH]5)C=C4)C=C3)cc1
REMARK SMILES IDX 27 1 26 2 1 3 2 4 3 6 4 7 5 8 6 9 10 10 7 11 9 12 8 13 11 14
REMARK SMILES IDX 12 15 13 16 24 17 14 18 16 19 25 20 15 21 17 22 18 23 23 24
REMARK SMILES IDX 19 25 22 26 20 27 21 28 28 29 29 30 30 31 31 32 32 34 33 35
REMARK SMILES IDX 34 36 92 37 35 38 91 39 36 40 37 41 38 42 85 43 39 44 90 45
REMARK SMILES IDX 84 46 86 47 40 48 89 49 83 50 82 51 41 53 71 54 52 55 70 56
REMARK SMILES IDX 53 57 56 58 69 59 87 60 54 61 55 62 68 64 88 65 57 66 42 67
REMARK SMILES IDX 43 68 51 69 44 70 50 71 45 72 46 73 47 74 48 75 49 76 72 77
REMARK SMILES IDX 73 78 81 79 74 80 80 81 75 82 76 83 77 84 78 85 79 86 58 87
REMARK SMILES IDX 59 88 67 89 60 90 66 91 61 92 62 93 63 94 64 95 65 96
REMARK H PARENT 26 5 30 33 86 52 56 63
REMARK Flexibility Score: inf
ROOT
ATOM      1  C   UNL A   1      32.069  30.080  26.713  1.00  0.00     0.117 C 
ENDROOT
BRANCH   1   2
ATOM      2  N   UNL A   1      31.236  28.774  25.294  1.00  0.00    -0.353 N 
ATOM      3  O   UNL A   1      30.864  29.084  22.872  1.00  0.00    -0.271 OA
ATOM      4  C   UNL A   1      30.948  28.388  23.879  1.00  0.00     0.257 C 
ATOM      5  H   UNL A   1      30.831  28.055  25.832  1.00  0.00     0.163 HD
BRANCH   4   6
ATOM      6  C   UNL A   1      30.777  26.877  23.724  1.00  0.00     0.329 C 
BRANCH   6   7
ATOM      7  O   UNL A   1      31.965  26.157  23.983  1.00  0.00    -0.483 OA
BRANCH   7   8
ATOM      8  C   UNL A   1      31.877  25.097  24.858  1.00  0.00     0.127 A 
ATOM      9  C   UNL A   1      30.623  25.031  25.476  1.00  0.00     0.047 A 
ATOM     10  C   UNL A   1      32.959  24.318  25.347  1.00  0.00     0.018 A 
ATOM     11  C   UNL A   1      30.436  24.255  26.613  1.00  0.00     0.004 A 
ATOM     12  C   UNL A   1      32.755  23.566  26.514  1.00  0.00     0.012 A 
ATOM     13  C   UNL A   1      31.511  23.551  27.151  1.00  0.00     0.001 A 
BRANCH  10  14
ATOM     14  C   UNL A   1      34.326  24.303  24.793  1.00  0.00     0.033 C 
ATOM     15  C   UNL A   1      34.761  23.211  24.135  1.00  0.00     0.084 C 
ATOM     16  S   UNL A   1      36.950  22.647  24.435  1.00  0.00    -0.022 SA
ATOM     17  C   UNL A   1      33.626  21.613  24.086  1.00  0.00     0.272 C 
ATOM     18  C   UNL A   1      36.391  20.395  24.817  1.00  0.00     0.298 C 
ATOM     19  N   UNL A   1      34.627  20.150  24.474  1.00  0.00    -0.236 N 
ATOM     20  O   UNL A   1      32.441  21.636  23.779  1.00  0.00    -0.268 OA
ATOM     21  O   UNL A   1      37.237  19.626  25.257  1.00  0.00    -0.260 OA
BRANCH  19  22
ATOM     22  C   UNL A   1      33.959  18.888  24.577  1.00  0.00     0.053 A 
ATOM     23  C   UNL A   1      33.183  18.607  25.717  1.00  0.00     0.030 A 
ATOM     24  C   UNL A   1      34.073  17.903  23.594  1.00  0.00     0.030 A 
ATOM     25  C   UNL A   1      32.565  17.369  25.896  1.00  0.00     0.041 A 
ATOM     26  C   UNL A   1      33.463  16.651  23.781  1.00  0.00     0.041 A 
ATOM     27  C   UNL A   1      32.722  16.394  24.930  1.00  0.00     0.123 A 
ATOM     28  F   UNL A   1      32.158  15.193  25.110  1.00  0.00    -0.207 F 
ENDBRANCH  19  22
ENDBRANCH  10  14
ENDBRANCH   7   8
ENDBRANCH   6   7
ENDBRANCH   4   6
ENDBRANCH   1   2
BRANCH   1  29
ATOM     29  C   UNL A   1      32.010  31.786  26.852  1.00  0.00     0.042 C 
BRANCH  29  30
ATOM     30  C   UNL A   1      33.166  32.544  27.495  1.00  0.00     0.118 C 
BRANCH  30  31
ATOM     31  N   UNL A   1      32.879  33.895  27.918  1.00  0.00    -0.352 N 
ATOM     32  C   UNL A   1      33.602  34.618  28.841  1.00  0.00     0.251 C 
ATOM     33  H   UNL A   1      32.099  34.337  27.513  1.00  0.00     0.163 HD
ATOM     34  O   UNL A   1      33.232  35.734  29.188  1.00  0.00    -0.269 OA
BRANCH  32  35
ATOM     35  C   UNL A   1      34.776  33.976  29.469  1.00  0.00     0.039 A 
ATOM     36  C   UNL A   1      36.045  34.365  29.041  1.00  0.00     0.014 A 
ATOM     37  C   UNL A   1      34.625  33.078  30.529  1.00  0.00     0.014 A 
ATOM     38  C   UNL A   1      37.169  33.871  29.697  1.00  0.00     0.010 A 
ATOM     39  C   UNL A   1      35.745  32.653  31.236  1.00  0.00     0.010 A 
ATOM     40  C   UNL A   1      37.028  33.024  30.809  1.00  0.00    -0.014 A 
BRANCH  40  41
ATOM     41  C   UNL A   1      38.231  32.474  31.479  1.00  0.00     0.031 A 
ATOM     42  C   UNL A   1      38.650  33.021  32.816  1.00  0.00     0.074 A 
ATOM     43  C   UNL A   1      38.923  31.475  30.896  1.00  0.00     0.049 A 
ATOM     44  N   UNL A   1      39.609  32.617  33.608  1.00  0.00    -0.248 NA
ATOM     45  C   UNL A   1      37.904  34.185  33.325  1.00  0.00     0.031 C 
ATOM     46  C   UNL A   1      38.631  30.900  29.580  1.00  0.00     0.029 A 
ATOM     47  N   UNL A   1      40.001  30.755  31.342  1.00  0.00    -0.354 N 
ATOM     48  C   UNL A   1      39.581  33.476  34.701  1.00  0.00     0.074 A 
ATOM     49  C   UNL A   1      38.558  34.462  34.443  1.00  0.00     0.031 C 
ATOM     50  C   UNL A   1      39.479  29.883  29.348  1.00  0.00     0.029 A 
ATOM     51  C   UNL A   1      40.389  29.754  30.481  1.00  0.00     0.049 A 
ATOM     52  H   UNL A   1      40.455  30.936  32.196  1.00  0.00     0.167 HD
ATOM     53  C   UNL A   1      40.322  33.430  35.834  1.00  0.00     0.031 A 
ATOM     54  C   UNL A   1      41.359  28.827  30.603  1.00  0.00     0.031 A 
ATOM     55  C   UNL A   1      41.337  32.442  36.079  1.00  0.00     0.049 A 
ATOM     56  C   UNL A   1      42.169  28.794  31.871  1.00  0.00     0.074 A 
ATOM     57  C   UNL A   1      42.124  32.275  37.204  1.00  0.00     0.029 A 
ATOM     58  N   UNL A   1      41.707  31.451  35.180  1.00  0.00    -0.354 N 
ATOM     59  N   UNL A   1      42.083  29.573  32.925  1.00  0.00    -0.248 NA
ATOM     60  C   UNL A   1      43.189  27.743  31.977  1.00  0.00     0.031 C 
ATOM     61  C   UNL A   1      43.009  31.219  36.962  1.00  0.00     0.029 A 
ATOM     62  C   UNL A   1      42.724  30.682  35.717  1.00  0.00     0.049 A 
ATOM     63  H   UNL A   1      41.303  31.316  34.292  1.00  0.00     0.167 HD
ATOM     64  C   UNL A   1      43.017  29.086  33.833  1.00  0.00     0.074 A 
ATOM     65  C   UNL A   1      43.639  27.934  33.210  1.00  0.00     0.031 C 
ATOM     66  C   UNL A   1      43.332  29.545  35.071  1.00  0.00     0.031 A 
BRANCH  53  67
ATOM     67  C   UNL A   1      40.059  34.483  36.879  1.00  0.00    -0.014 A 
ATOM     68  C   UNL A   1      40.768  35.699  36.884  1.00  0.00     0.010 A 
ATOM     69  C   UNL A   1      39.076  34.263  37.861  1.00  0.00     0.010 A 
ATOM     70  C   UNL A   1      40.532  36.655  37.876  1.00  0.00     0.020 A 
ATOM     71  C   UNL A   1      38.814  35.231  38.837  1.00  0.00     0.020 A 
ATOM     72  C   UNL A   1      39.556  36.413  38.848  1.00  0.00     0.054 A 
BRANCH  72  73
ATOM     73  S   UNL A   1      39.253  37.681  40.109  1.00  0.00     0.124 S 
ATOM     74  O   UNL A   1      38.948  36.871  41.285  1.00  0.00    -0.237 OA
ATOM     75  O   UNL A   1      40.525  38.398  40.153  1.00  0.00    -0.237 OA
ATOM     76  O   UNL A   1      38.129  38.445  39.572  1.00  0.00    -0.744 OA
ENDBRANCH  72  73
ENDBRANCH  53  67
BRANCH  54  77
ATOM     77  C   UNL A   1      41.592  27.838  29.512  1.00  0.00    -0.014 A 
ATOM     78  C   UNL A   1      42.706  27.951  28.661  1.00  0.00     0.010 A 
ATOM     79  C   UNL A   1      40.700  26.766  29.325  1.00  0.00     0.010 A 
ATOM     80  C   UNL A   1      42.909  27.027  27.630  1.00  0.00     0.020 A 
ATOM     81  C   UNL A   1      40.917  25.823  28.316  1.00  0.00     0.020 A 
ATOM     82  C   UNL A   1      42.014  25.967  27.467  1.00  0.00     0.054 A 
BRANCH  82  83
ATOM     83  S   UNL A   1      42.324  24.755  26.152  1.00  0.00     0.124 S 
ATOM     84  O   UNL A   1      41.181  23.857  26.290  1.00  0.00    -0.237 OA
ATOM     85  O   UNL A   1      42.335  25.587  24.952  1.00  0.00    -0.237 OA
ATOM     86  O   UNL A   1      43.619  24.181  26.514  1.00  0.00    -0.744 OA
ENDBRANCH  82  83
ENDBRANCH  54  77
BRANCH  66  87
ATOM     87  C   UNL A   1      44.368  28.772  35.844  1.00  0.00    -0.014 A 
ATOM     88  C   UNL A   1      44.033  27.614  36.566  1.00  0.00     0.010 A 
ATOM     89  C   UNL A   1      45.707  29.205  35.824  1.00  0.00     0.010 A 
ATOM     90  C   UNL A   1      45.007  26.935  37.302  1.00  0.00     0.020 A 
ATOM     91  C   UNL A   1      46.690  28.509  36.530  1.00  0.00     0.020 A 
ATOM     92  C   UNL A   1      46.328  27.391  37.284  1.00  0.00     0.054 A 
BRANCH  92  93
ATOM     93  S   UNL A   1      47.576  26.492  38.243  1.00  0.00     0.124 S 
ATOM     94  O   UNL A   1      46.749  25.713  39.160  1.00  0.00    -0.237 OA
ATOM     95  O   UNL A   1      48.275  25.721  37.217  1.00  0.00    -0.237 OA
ATOM     96  O   UNL A   1      48.367  27.552  38.864  1.00  0.00    -0.744 OA
ENDBRANCH  92  93
ENDBRANCH  66  87
ENDBRANCH  40  41
ENDBRANCH  32  35
ENDBRANCH  30  31
ENDBRANCH  29  30
ENDBRANCH   1  29
TORSDOF 17
ENDMDL
MODEL 2
REMARK VINA RESULT:     -12.7      6.048      7.939
REMARK SMILES O=C(COc1ccccc1/C=C1/SC(=O)N(c2ccc(F)cc2)C1=O)NCCCNC(=O)c1ccc(-c2c3nc(c(-c4ccc(S(=O)(=O)[O-])cc4)c4ccc([nH]4)c(-c4ccc(S(=O)(=O)[O-])cc4)c4nc(c(-c5ccc(S(=O)(=O)[O-])cc5)c5ccc2[nH]5)C=C4)C=C3)cc1
REMARK SMILES IDX 27 1 26 2 1 3 2 4 3 6 4 7 5 8 6 9 10 10 7 11 9 12 8 13 11 14
REMARK SMILES IDX 12 15 13 16 24 17 14 18 16 19 25 20 15 21 17 22 18 23 23 24
REMARK SMILES IDX 19 25 22 26 20 27 21 28 28 29 29 30 30 31 31 32 32 34 33 35
REMARK SMILES IDX 34 36 92 37 35 38 91 39 36 40 37 41 38 42 85 43 39 44 90 45
REMARK SMILES IDX 84 46 86 47 40 48 89 49 83 50 82 51 41 53 71 54 52 55 70 56
REMARK SMILES IDX 53 57 56 58 69 59 87 60 54 61 55 62 68 64 88 65 57 66 42 67
REMARK SMILES IDX 43 68 51 69 44 70 50 71 45 72 46 73 47 74 48 75 49 76 72 77
REMARK SMILES IDX 73 78 81 79 74 80 80 81 75 82 76 83 77 84 78 85 79 86 58 87
REMARK SMILES IDX 59 88 67 89 60 90 66 91 61 92 62 93 63 94 64 95 65 96
REMARK H PARENT 26 5 30 33 86 52 56 63
REMARK Flexibility Score: inf
ROOT
ATOM      1  C   UNL A   1      32.998  29.719  27.155  1.00  0.00     0.117 C 
ENDROOT
BRANCH   1   2
ATOM      2  N   UNL A   1      31.762  28.625  25.855  1.00  0.00    -0.353 N 
ATOM      3  O   UNL A   1      30.708  29.293  23.724  1.00  0.00    -0.271 OA
ATOM      4  C   UNL A   1      31.067  28.453  24.543  1.00  0.00     0.257 C 
ATOM      5  H   UNL A   1      31.517  27.822  26.370  1.00  0.00     0.163 HD
BRANCH   4   6
ATOM      6  C   UNL A   1      30.828  26.979  24.214  1.00  0.00     0.329 C 
BRANCH   6   7
ATOM      7  O   UNL A   1      31.992  26.189  24.346  1.00  0.00    -0.483 OA
BRANCH   7   8
ATOM      8  C   UNL A   1      31.884  25.038  25.097  1.00  0.00     0.127 A 
ATOM      9  C   UNL A   1      30.624  24.917  25.692  1.00  0.00     0.047 A 
ATOM     10  C   UNL A   1      32.954  24.198  25.505  1.00  0.00     0.018 A 
ATOM     11  C   UNL A   1      30.418  24.021  26.734  1.00  0.00     0.004 A 
ATOM     12  C   UNL A   1      32.731  23.323  26.579  1.00  0.00     0.012 A 
ATOM     13  C   UNL A   1      31.480  23.250  27.199  1.00  0.00     0.001 A 
BRANCH  10  14
ATOM     14  C   UNL A   1      34.326  24.230  24.965  1.00  0.00     0.033 C 
ATOM     15  C   UNL A   1      34.793  23.167  24.282  1.00  0.00     0.084 C 
ATOM     16  S   UNL A   1      36.991  22.646  24.589  1.00  0.00    -0.022 SA
ATOM     17  C   UNL A   1      33.696  21.546  24.176  1.00  0.00     0.272 C 
ATOM     18  C   UNL A   1      36.481  20.371  24.901  1.00  0.00     0.298 C 
ATOM     19  N   UNL A   1      34.727  20.096  24.532  1.00  0.00    -0.236 N 
ATOM     20  O   UNL A   1      32.514  21.550  23.857  1.00  0.00    -0.268 OA
ATOM     21  O   UNL A   1      37.340  19.610  25.328  1.00  0.00    -0.260 OA
BRANCH  19  22
ATOM     22  C   UNL A   1      34.088  18.816  24.593  1.00  0.00     0.053 A 
ATOM     23  C   UNL A   1      33.144  18.561  25.605  1.00  0.00     0.030 A 
ATOM     24  C   UNL A   1      34.390  17.790  23.695  1.00  0.00     0.030 A 
ATOM     25  C   UNL A   1      32.540  17.312  25.747  1.00  0.00     0.041 A 
ATOM     26  C   UNL A   1      33.793  16.527  23.848  1.00  0.00     0.041 A 
ATOM     27  C   UNL A   1      32.881  16.298  24.873  1.00  0.00     0.123 A 
ATOM     28  F   UNL A   1      32.330  15.087  25.023  1.00  0.00    -0.207 F 
ENDBRANCH  19  22
ENDBRANCH  10  14
ENDBRANCH   7   8
ENDBRANCH   6   7
ENDBRANCH   4   6
ENDBRANCH   1   2
BRANCH   1  29
ATOM     29  C   UNL A   1      34.671  30.080  27.087  1.00  0.00     0.042 C 
BRANCH  29  30
ATOM     30  C   UNL A   1      35.646  29.378  28.027  1.00  0.00     0.118 C 
BRANCH  30  31
ATOM     31  N   UNL A   1      35.546  29.736  29.423  1.00  0.00    -0.352 N 
ATOM     32  C   UNL A   1      36.604  29.873  30.295  1.00  0.00     0.251 C 
ATOM     33  H   UNL A   1      34.644  29.896  29.783  1.00  0.00     0.163 HD
ATOM     34  O   UNL A   1      36.408  30.108  31.482  1.00  0.00    -0.269 OA
BRANCH  32  35
ATOM     35  C   UNL A   1      37.968  29.634  29.781  1.00  0.00     0.039 A 
ATOM     36  C   UNL A   1      38.907  29.070  30.646  1.00  0.00     0.014 A 
ATOM     37  C   UNL A   1      38.286  29.871  28.441  1.00  0.00     0.014 A 
ATOM     38  C   UNL A   1      40.162  28.719  30.157  1.00  0.00     0.010 A 
ATOM     39  C   UNL A   1      39.510  29.442  27.936  1.00  0.00     0.010 A 
ATOM     40  C   UNL A   1      40.468  28.887  28.796  1.00  0.00    -0.014 A 
BRANCH  40  41
ATOM     41  C   UNL A   1      41.820  28.544  28.293  1.00  0.00     0.031 A 
ATOM     42  C   UNL A   1      42.882  29.608  28.238  1.00  0.00     0.074 A 
ATOM     43  C   UNL A   1      42.090  27.280  27.912  1.00  0.00     0.049 A 
ATOM     44  N   UNL A   1      44.146  29.494  27.922  1.00  0.00    -0.248 NA
ATOM     45  C   UNL A   1      42.468  30.983  28.565  1.00  0.00     0.031 C 
ATOM     46  C   UNL A   1      41.123  26.180  27.883  1.00  0.00     0.029 A 
ATOM     47  N   UNL A   1      43.262  26.703  27.496  1.00  0.00    -0.354 N 
ATOM     48  C   UNL A   1      44.672  30.779  28.011  1.00  0.00     0.074 A 
ATOM     49  C   UNL A   1      43.581  31.665  28.344  1.00  0.00     0.031 C 
ATOM     50  C   UNL A   1      41.753  25.051  27.517  1.00  0.00     0.029 A 
ATOM     51  C   UNL A   1      43.158  25.351  27.259  1.00  0.00     0.049 A 
ATOM     52  H   UNL A   1      44.099  27.206  27.377  1.00  0.00     0.167 HD
ATOM     53  C   UNL A   1      45.956  31.180  27.858  1.00  0.00     0.031 A 
ATOM     54  C   UNL A   1      44.095  24.455  26.892  1.00  0.00     0.031 A 
ATOM     55  C   UNL A   1      47.033  30.288  27.526  1.00  0.00     0.049 A 
ATOM     56  C   UNL A   1      45.515  24.925  26.729  1.00  0.00     0.074 A 
ATOM     57  C   UNL A   1      48.378  30.575  27.382  1.00  0.00     0.029 A 
ATOM     58  N   UNL A   1      46.885  28.929  27.286  1.00  0.00    -0.354 N 
ATOM     59  N   UNL A   1      46.008  26.132  26.883  1.00  0.00    -0.248 NA
ATOM     60  C   UNL A   1      46.510  23.907  26.366  1.00  0.00     0.031 C 
ATOM     61  C   UNL A   1      49.035  29.401  26.999  1.00  0.00     0.029 A 
ATOM     62  C   UNL A   1      48.112  28.368  26.974  1.00  0.00     0.049 A 
ATOM     63  H   UNL A   1      46.033  28.437  27.331  1.00  0.00     0.167 HD
ATOM     64  C   UNL A   1      47.376  26.013  26.667  1.00  0.00     0.074 A 
ATOM     65  C   UNL A   1      47.632  24.613  26.393  1.00  0.00     0.031 C 
ATOM     66  C   UNL A   1      48.337  26.971  26.696  1.00  0.00     0.031 A 
BRANCH  53  67
ATOM     67  C   UNL A   1      46.252  32.647  28.041  1.00  0.00    -0.014 A 
ATOM     68  C   UNL A   1      46.597  33.170  29.302  1.00  0.00     0.010 A 
ATOM     69  C   UNL A   1      46.203  33.513  26.934  1.00  0.00     0.010 A 
ATOM     70  C   UNL A   1      46.843  34.537  29.460  1.00  0.00     0.020 A 
ATOM     71  C   UNL A   1      46.480  34.876  27.082  1.00  0.00     0.020 A 
ATOM     72  C   UNL A   1      46.781  35.381  28.347  1.00  0.00     0.054 A 
BRANCH  72  73
ATOM     73  S   UNL A   1      47.128  37.147  28.578  1.00  0.00     0.124 S 
ATOM     74  O   UNL A   1      45.785  37.705  28.703  1.00  0.00    -0.237 OA
ATOM     75  O   UNL A   1      47.929  37.158  29.800  1.00  0.00    -0.237 OA
ATOM     76  O   UNL A   1      47.847  37.522  27.362  1.00  0.00    -0.744 OA
ENDBRANCH  72  73
ENDBRANCH  53  67
BRANCH  54  77
ATOM     77  C   UNL A   1      43.725  23.026  26.689  1.00  0.00    -0.014 A 
ATOM     78  C   UNL A   1      43.014  22.317  27.674  1.00  0.00     0.010 A 
ATOM     79  C   UNL A   1      44.076  22.365  25.497  1.00  0.00     0.010 A 
ATOM     80  C   UNL A   1      42.683  20.971  27.482  1.00  0.00     0.020 A 
ATOM     81  C   UNL A   1      43.720  21.029  25.289  1.00  0.00     0.020 A 
ATOM     82  C   UNL A   1      43.036  20.337  26.289  1.00  0.00     0.054 A 
BRANCH  82  83
ATOM     83  S   UNL A   1      42.556  18.604  26.043  1.00  0.00     0.124 S 
ATOM     84  O   UNL A   1      41.145  18.726  25.691  1.00  0.00    -0.237 OA
ATOM     85  O   UNL A   1      43.445  18.181  24.963  1.00  0.00    -0.237 OA
ATOM     86  O   UNL A   1      42.828  17.987  27.340  1.00  0.00    -0.744 OA
ENDBRANCH  82  83
ENDBRANCH  54  77
BRANCH  66  87
ATOM     87  C   UNL A   1      49.757  26.525  26.462  1.00  0.00    -0.014 A 
ATOM     88  C   UNL A   1      50.570  26.080  27.519  1.00  0.00     0.010 A 
ATOM     89  C   UNL A   1      50.273  26.529  25.154  1.00  0.00     0.010 A 
ATOM     90  C   UNL A   1      51.893  25.703  27.280  1.00  0.00     0.020 A 
ATOM     91  C   UNL A   1      51.585  26.119  24.906  1.00  0.00     0.020 A 
ATOM     92  C   UNL A   1      52.394  25.731  25.975  1.00  0.00     0.054 A 
BRANCH  92  93
ATOM     93  S   UNL A   1      54.113  25.234  25.687  1.00  0.00     0.124 S 
ATOM     94  O   UNL A   1      54.646  25.189  27.046  1.00  0.00    -0.237 OA
ATOM     95  O   UNL A   1      53.966  23.939  25.026  1.00  0.00    -0.237 OA
ATOM     96  O   UNL A   1      54.647  26.300  24.843  1.00  0.00    -0.744 OA
ENDBRANCH  92  93
ENDBRANCH  66  87
ENDBRANCH  40  41
ENDBRANCH  32  35
ENDBRANCH  30  31
ENDBRANCH  29  30
ENDBRANCH   1  29
TORSDOF 17
ENDMDL
MODEL 3
REMARK VINA RESULT:     -12.7      6.036     10.446
REMARK SMILES O=C(COc1ccccc1/C=C1/SC(=O)N(c2ccc(F)cc2)C1=O)NCCCNC(=O)c1ccc(-c2c3nc(c(-c4ccc(S(=O)(=O)[O-])cc4)c4ccc([nH]4)c(-c4ccc(S(=O)(=O)[O-])cc4)c4nc(c(-c5ccc(S(=O)(=O)[O-])cc5)c5ccc2[nH]5)C=C4)C=C3)cc1
REMARK SMILES IDX 27 1 26 2 1 3 2 4 3 6 4 7 5 8 6 9 10 10 7 11 9 12 8 13 11 14
REMARK SMILES IDX 12 15 13 16 24 17 14 18 16 19 25 20 15 21 17 22 18 23 23 24
REMARK SMILES IDX 19 25 22 26 20 27 21 28 28 29 29 30 30 31 31 32 32 34 33 35
REMARK SMILES IDX 34 36 92 37 35 38 91 39 36 40 37 41 38 42 85 43 39 44 90 45
REMARK SMILES IDX 84 46 86 47 40 48 89 49 83 50 82 51 41 53 71 54 52 55 70 56
REMARK SMILES IDX 53 57 56 58 69 59 87 60 54 61 55 62 68 64 88 65 57 66 42 67
REMARK SMILES IDX 43 68 51 69 44 70 50 71 45 72 46 73 47 74 48 75 49 76 72 77
REMARK SMILES IDX 73 78 81 79 74 80 80 81 75 82 76 83 77 84 78 85 79 86 58 87
REMARK SMILES IDX 59 88 67 89 60 90 66 91 61 92 62 93 63 94 64 95 65 96
REMARK H PARENT 26 5 30 33 86 52 56 63
REMARK Flexibility Score: inf
ROOT
ATOM      1  C   UNL A   1      33.399  29.318  26.511  1.00  0.00     0.117 C 
ENDROOT
BRANCH   1   2
ATOM      2  N   UNL A   1      31.909  28.279  25.453  1.00  0.00    -0.353 N 
ATOM      3  O   UNL A   1      30.454  29.031  23.605  1.00  0.00    -0.271 OA
ATOM      4  C   UNL A   1      30.961  28.160  24.304  1.00  0.00     0.257 C 
ATOM      5  H   UNL A   1      31.763  27.460  25.978  1.00  0.00     0.163 HD
BRANCH   4   6
ATOM      6  C   UNL A   1      30.640  26.701  23.980  1.00  0.00     0.329 C 
BRANCH   6   7
ATOM      7  O   UNL A   1      31.776  25.863  24.025  1.00  0.00    -0.483 OA
BRANCH   7   8
ATOM      8  C   UNL A   1      31.737  24.802  24.903  1.00  0.00     0.127 A 
ATOM      9  C   UNL A   1      30.490  24.686  25.528  1.00  0.00     0.047 A 
ATOM     10  C   UNL A   1      32.853  24.067  25.385  1.00  0.00     0.018 A 
ATOM     11  C   UNL A   1      30.342  23.905  26.668  1.00  0.00     0.004 A 
ATOM     12  C   UNL A   1      32.686  23.310  26.555  1.00  0.00     0.012 A 
ATOM     13  C   UNL A   1      31.447  23.245  27.200  1.00  0.00     0.001 A 
BRANCH  10  14
ATOM     14  C   UNL A   1      34.215  24.107  24.823  1.00  0.00     0.033 C 
ATOM     15  C   UNL A   1      34.687  23.035  24.156  1.00  0.00     0.084 C 
ATOM     16  S   UNL A   1      36.897  22.552  24.439  1.00  0.00    -0.022 SA
ATOM     17  C   UNL A   1      33.612  21.396  24.104  1.00  0.00     0.272 C 
ATOM     18  C   UNL A   1      36.425  20.278  24.811  1.00  0.00     0.298 C 
ATOM     19  N   UNL A   1      34.669  19.970  24.477  1.00  0.00    -0.236 N 
ATOM     20  O   UNL A   1      32.425  21.377  23.804  1.00  0.00    -0.268 OA
ATOM     21  O   UNL A   1      37.301  19.539  25.241  1.00  0.00    -0.260 OA
BRANCH  19  22
ATOM     22  C   UNL A   1      34.050  18.683  24.577  1.00  0.00     0.053 A 
ATOM     23  C   UNL A   1      33.084  18.455  25.574  1.00  0.00     0.030 A 
ATOM     24  C   UNL A   1      34.391  17.625  23.732  1.00  0.00     0.030 A 
ATOM     25  C   UNL A   1      32.497  17.202  25.755  1.00  0.00     0.041 A 
ATOM     26  C   UNL A   1      33.812  16.359  23.923  1.00  0.00     0.041 A 
ATOM     27  C   UNL A   1      32.877  16.158  24.934  1.00  0.00     0.123 A 
ATOM     28  F   UNL A   1      32.342  14.946  25.122  1.00  0.00    -0.207 F 
ENDBRANCH  19  22
ENDBRANCH  10  14
ENDBRANCH   7   8
ENDBRANCH   6   7
ENDBRANCH   4   6
ENDBRANCH   1   2
BRANCH   1  29
ATOM     29  C   UNL A   1      35.002  28.881  26.929  1.00  0.00     0.042 C 
BRANCH  29  30
ATOM     30  C   UNL A   1      35.881  29.851  27.710  1.00  0.00     0.118 C 
BRANCH  30  31
ATOM     31  N   UNL A   1      35.602  29.961  29.123  1.00  0.00    -0.352 N 
ATOM     32  C   UNL A   1      36.503  29.735  30.140  1.00  0.00     0.251 C 
ATOM     33  H   UNL A   1      34.688  30.218  29.382  1.00  0.00     0.163 HD
ATOM     34  O   UNL A   1      36.147  29.782  31.312  1.00  0.00    -0.269 OA
BRANCH  32  35
ATOM     35  C   UNL A   1      37.881  29.343  29.779  1.00  0.00     0.039 A 
ATOM     36  C   UNL A   1      38.352  29.688  28.511  1.00  0.00     0.014 A 
ATOM     37  C   UNL A   1      38.725  28.732  30.711  1.00  0.00     0.014 A 
ATOM     38  C   UNL A   1      39.683  29.443  28.188  1.00  0.00     0.010 A 
ATOM     39  C   UNL A   1      40.074  28.567  30.414  1.00  0.00     0.010 A 
ATOM     40  C   UNL A   1      40.559  28.895  29.140  1.00  0.00    -0.014 A 
BRANCH  40  41
ATOM     41  C   UNL A   1      41.965  28.604  28.773  1.00  0.00     0.031 A 
ATOM     42  C   UNL A   1      42.339  27.223  28.309  1.00  0.00     0.074 A 
ATOM     43  C   UNL A   1      42.889  29.583  28.836  1.00  0.00     0.049 A 
ATOM     44  N   UNL A   1      43.486  26.788  27.855  1.00  0.00    -0.248 NA
ATOM     45  C   UNL A   1      41.293  26.188  28.379  1.00  0.00     0.031 C 
ATOM     46  C   UNL A   1      42.645  30.947  29.313  1.00  0.00     0.029 A 
ATOM     47  N   UNL A   1      44.213  29.588  28.479  1.00  0.00    -0.354 N 
ATOM     48  C   UNL A   1      43.297  25.436  27.589  1.00  0.00     0.074 A 
ATOM     49  C   UNL A   1      41.951  25.106  27.994  1.00  0.00     0.031 C 
ATOM     50  C   UNL A   1      43.769  31.669  29.174  1.00  0.00     0.029 A 
ATOM     51  C   UNL A   1      44.818  30.815  28.625  1.00  0.00     0.049 A 
ATOM     52  H   UNL A   1      44.685  28.791  28.149  1.00  0.00     0.167 HD
ATOM     53  C   UNL A   1      44.160  24.555  27.030  1.00  0.00     0.031 A 
ATOM     54  C   UNL A   1      46.074  31.208  28.334  1.00  0.00     0.031 A 
ATOM     55  C   UNL A   1      45.498  24.897  26.631  1.00  0.00     0.049 A 
ATOM     56  C   UNL A   1      47.014  30.211  27.712  1.00  0.00     0.074 A 
ATOM     57  C   UNL A   1      46.447  24.097  26.021  1.00  0.00     0.029 A 
ATOM     58  N   UNL A   1      46.077  26.147  26.804  1.00  0.00    -0.354 N 
ATOM     59  N   UNL A   1      46.798  28.953  27.405  1.00  0.00    -0.248 NA
ATOM     60  C   UNL A   1      48.360  30.693  27.375  1.00  0.00     0.031 C 
ATOM     61  C   UNL A   1      47.620  24.847  25.877  1.00  0.00     0.029 A 
ATOM     62  C   UNL A   1      47.378  26.134  26.332  1.00  0.00     0.049 A 
ATOM     63  H   UNL A   1      45.628  26.926  27.204  1.00  0.00     0.167 HD
ATOM     64  C   UNL A   1      47.970  28.501  26.810  1.00  0.00     0.074 A 
ATOM     65  C   UNL A   1      48.882  29.628  26.782  1.00  0.00     0.031 C 
ATOM     66  C   UNL A   1      48.268  27.268  26.325  1.00  0.00     0.031 A 
BRANCH  53  67
ATOM     67  C   UNL A   1      43.676  23.142  26.830  1.00  0.00    -0.014 A 
ATOM     68  C   UNL A   1      43.853  22.477  25.601  1.00  0.00     0.010 A 
ATOM     69  C   UNL A   1      43.053  22.460  27.890  1.00  0.00     0.010 A 
ATOM     70  C   UNL A   1      43.375  21.176  25.423  1.00  0.00     0.020 A 
ATOM     71  C   UNL A   1      42.602  21.146  27.726  1.00  0.00     0.020 A 
ATOM     72  C   UNL A   1      42.751  20.519  26.488  1.00  0.00     0.054 A 
BRANCH  72  73
ATOM     73  S   UNL A   1      42.162  18.822  26.236  1.00  0.00     0.124 S 
ATOM     74  O   UNL A   1      42.298  18.253  27.574  1.00  0.00    -0.237 OA
ATOM     75  O   UNL A   1      40.790  19.025  25.776  1.00  0.00    -0.237 OA
ATOM     76  O   UNL A   1      43.079  18.281  25.234  1.00  0.00    -0.744 OA
ENDBRANCH  72  73
ENDBRANCH  53  67
BRANCH  54  77
ATOM     77  C   UNL A   1      46.499  32.613  28.595  1.00  0.00    -0.014 A 
ATOM     78  C   UNL A   1      46.281  33.621  27.639  1.00  0.00     0.010 A 
ATOM     79  C   UNL A   1      47.117  32.952  29.812  1.00  0.00     0.010 A 
ATOM     80  C   UNL A   1      46.696  34.935  27.885  1.00  0.00     0.020 A 
ATOM     81  C   UNL A   1      47.505  34.269  30.074  1.00  0.00     0.020 A 
ATOM     82  C   UNL A   1      47.303  35.250  29.103  1.00  0.00     0.054 A 
BRANCH  82  83
ATOM     83  S   UNL A   1      47.791  36.970  29.420  1.00  0.00     0.124 S 
ATOM     84  O   UNL A   1      49.130  36.809  29.976  1.00  0.00    -0.237 OA
ATOM     85  O   UNL A   1      47.725  37.566  28.088  1.00  0.00    -0.237 OA
ATOM     86  O   UNL A   1      46.775  37.446  30.358  1.00  0.00    -0.744 OA
ENDBRANCH  82  83
ENDBRANCH  54  77
BRANCH  66  87
ATOM     87  C   UNL A   1      49.622  27.092  25.689  1.00  0.00    -0.014 A 
ATOM     88  C   UNL A   1      50.744  26.711  26.444  1.00  0.00     0.010 A 
ATOM     89  C   UNL A   1      49.762  27.287  24.303  1.00  0.00     0.010 A 
ATOM     90  C   UNL A   1      51.995  26.587  25.835  1.00  0.00     0.020 A 
ATOM     91  C   UNL A   1      51.003  27.129  23.684  1.00  0.00     0.020 A 
ATOM     92  C   UNL A   1      52.117  26.803  24.459  1.00  0.00     0.054 A 
BRANCH  92  93
ATOM     93  S   UNL A   1      53.749  26.632  23.688  1.00  0.00     0.124 S 
ATOM     94  O   UNL A   1      54.366  25.599  24.516  1.00  0.00    -0.237 OA
ATOM     95  O   UNL A   1      53.418  26.229  22.323  1.00  0.00    -0.237 OA
ATOM     96  O   UNL A   1      54.334  27.964  23.815  1.00  0.00    -0.744 OA
ENDBRANCH  92  93
ENDBRANCH  66  87
ENDBRANCH  40  41
ENDBRANCH  32  35
ENDBRANCH  30  31
ENDBRANCH  29  30
ENDBRANCH   1  29
TORSDOF 17
ENDMDL
