MODEL 1
REMARK VINA RESULT:     -10.2      0.000      0.000
REMARK SMILES O=C(NCCCNC(=O)[C@H](NC(=O)[C@H]1CC[C@@H](CNC(=O)[C@@H]2Cc3ccccc3C[NH2+]2)CC1)c1ccccc1)c1ccc(-c2c3nc(c(-c4ccc(S(=O)(=O)[O-])cc4)c4ccc([nH]4)c(-c4ccc(S(=O)(=O)[O-])cc4)c4nc(c(-c5ccc(S(=O)(=O)[O-])cc5)c5ccc2[nH]5)C=C4)C=C3)cc1
REMARK SMILES IDX 6 1 5 2 4 3 3 4 1 5 2 6 40 8 41 9 99 10 42 11 98 12 43 13
REMARK SMILES IDX 44 14 45 15 92 16 46 17 97 18 91 19 93 20 47 21 96 22 90 23
REMARK SMILES IDX 89 24 48 26 78 27 59 28 77 29 60 30 63 31 76 32 94 33 61 34
REMARK SMILES IDX 62 35 75 37 95 38 64 39 49 40 50 41 58 42 51 43 57 44 52 45
REMARK SMILES IDX 53 46 54 47 55 48 56 49 79 50 80 51 88 52 81 53 87 54 82 55
REMARK SMILES IDX 83 56 84 57 85 58 86 59 65 60 66 61 74 62 67 63 73 64 68 65
REMARK SMILES IDX 69 66 70 67 71 68 72 69 7 70 8 71 9 73 10 74 34 75 35 76
REMARK SMILES IDX 39 77 36 78 38 79 37 80 11 81 12 82 13 84 14 85 33 86 15 87
REMARK SMILES IDX 32 88 16 89 17 90 18 91 19 92 20 93 21 95 22 96 23 97 31 98
REMARK SMILES IDX 24 99 30 100 25 103 29 104 26 105 28 106 27 107
REMARK H PARENT 3 7 93 25 63 36 7 72 11 83 19 94 31 101 31 102
REMARK Flexibility Score: inf
ROOT
ATOM      1  C   UNL A   1      39.311  28.116  30.131  1.00  0.00     0.117 C 
ENDROOT
BRANCH   1   2
ATOM      2  C   UNL A   1      39.161  26.702  29.606  1.00  0.00     0.042 C 
BRANCH   2   3
ATOM      3  C   UNL A   1      39.584  26.558  28.148  1.00  0.00     0.118 C 
BRANCH   3   4
ATOM      4  N   UNL A   1      40.733  25.694  27.936  1.00  0.00    -0.352 N 
ATOM      5  O   UNL A   1      42.907  25.109  27.762  1.00  0.00    -0.269 OA
ATOM      6  C   UNL A   1      42.078  25.970  28.043  1.00  0.00     0.251 C 
ATOM      7  H   UNL A   1      40.518  24.769  27.677  1.00  0.00     0.163 HD
BRANCH   6   8
ATOM      8  C   UNL A   1      42.508  27.327  28.437  1.00  0.00     0.039 A 
ATOM      9  C   UNL A   1      43.330  27.509  29.545  1.00  0.00     0.014 A 
ATOM     10  C   UNL A   1      42.018  28.433  27.742  1.00  0.00     0.014 A 
ATOM     11  C   UNL A   1      43.431  28.767  30.118  1.00  0.00     0.010 A 
ATOM     12  C   UNL A   1      42.268  29.721  28.229  1.00  0.00     0.010 A 
ATOM     13  C   UNL A   1      42.928  29.897  29.456  1.00  0.00    -0.014 A 
BRANCH  13  14
ATOM     14  C   UNL A   1      43.159  31.240  30.048  1.00  0.00     0.031 A 
ATOM     15  C   UNL A   1      44.114  32.224  29.422  1.00  0.00     0.074 A 
ATOM     16  C   UNL A   1      42.455  31.586  31.146  1.00  0.00     0.049 A 
ATOM     17  N   UNL A   1      44.442  33.422  29.836  1.00  0.00    -0.248 NA
ATOM     18  C   UNL A   1      44.797  31.815  28.183  1.00  0.00     0.031 C 
ATOM     19  C   UNL A   1      41.499  30.719  31.843  1.00  0.00     0.029 A 
ATOM     20  N   UNL A   1      42.403  32.761  31.850  1.00  0.00    -0.354 N 
ATOM     21  C   UNL A   1      45.403  33.887  28.944  1.00  0.00     0.074 A 
ATOM     22  C   UNL A   1      45.606  32.844  27.964  1.00  0.00     0.031 C 
ATOM     23  C   UNL A   1      40.898  31.414  32.817  1.00  0.00     0.029 A 
ATOM     24  C   UNL A   1      41.501  32.737  32.887  1.00  0.00     0.049 A 
ATOM     25  H   UNL A   1      42.959  33.545  31.635  1.00  0.00     0.167 HD
ATOM     26  C   UNL A   1      46.057  35.074  28.950  1.00  0.00     0.031 A 
ATOM     27  C   UNL A   1      41.208  33.659  33.822  1.00  0.00     0.031 A 
ATOM     28  C   UNL A   1      45.826  36.118  29.915  1.00  0.00     0.049 A 
ATOM     29  C   UNL A   1      41.955  34.957  33.811  1.00  0.00     0.074 A 
ATOM     30  C   UNL A   1      46.413  37.370  29.986  1.00  0.00     0.029 A 
ATOM     31  N   UNL A   1      44.935  36.035  30.975  1.00  0.00    -0.354 N 
ATOM     32  N   UNL A   1      42.862  35.371  32.960  1.00  0.00    -0.248 NA
ATOM     33  C   UNL A   1      41.655  35.900  34.893  1.00  0.00     0.031 C 
ATOM     34  C   UNL A   1      45.910  38.026  31.115  1.00  0.00     0.029 A 
ATOM     35  C   UNL A   1      44.975  37.202  31.720  1.00  0.00     0.049 A 
ATOM     36  H   UNL A   1      44.360  35.260  31.169  1.00  0.00     0.167 HD
ATOM     37  C   UNL A   1      43.249  36.626  33.408  1.00  0.00     0.074 A 
ATOM     38  C   UNL A   1      42.454  36.914  34.586  1.00  0.00     0.031 C 
ATOM     39  C   UNL A   1      44.185  37.461  32.896  1.00  0.00     0.031 A 
BRANCH  26  40
ATOM     40  C   UNL A   1      47.117  35.300  27.905  1.00  0.00    -0.014 A 
ATOM     41  C   UNL A   1      46.854  36.037  26.737  1.00  0.00     0.010 A 
ATOM     42  C   UNL A   1      48.420  34.813  28.125  1.00  0.00     0.010 A 
ATOM     43  C   UNL A   1      47.865  36.256  25.795  1.00  0.00     0.020 A 
ATOM     44  C   UNL A   1      49.439  35.049  27.197  1.00  0.00     0.020 A 
ATOM     45  C   UNL A   1      49.151  35.756  26.029  1.00  0.00     0.054 A 
BRANCH  45  46
ATOM     46  S   UNL A   1      50.451  36.074  24.803  1.00  0.00     0.124 S 
ATOM     47  O   UNL A   1      51.444  36.791  25.599  1.00  0.00    -0.237 OA
ATOM     48  O   UNL A   1      50.835  34.729  24.385  1.00  0.00    -0.237 OA
ATOM     49  O   UNL A   1      49.776  36.872  23.783  1.00  0.00    -0.744 OA
ENDBRANCH  45  46
ENDBRANCH  26  40
BRANCH  27  50
ATOM     50  C   UNL A   1      40.202  33.345  34.869  1.00  0.00    -0.014 A 
ATOM     51  C   UNL A   1      40.530  32.520  35.957  1.00  0.00     0.010 A 
ATOM     52  C   UNL A   1      38.920  33.926  34.809  1.00  0.00     0.010 A 
ATOM     53  C   UNL A   1      39.594  32.283  36.969  1.00  0.00     0.020 A 
ATOM     54  C   UNL A   1      37.995  33.716  35.832  1.00  0.00     0.020 A 
ATOM     55  C   UNL A   1      38.335  32.887  36.902  1.00  0.00     0.054 A 
BRANCH  55  56
ATOM     56  S   UNL A   1      37.162  32.634  38.263  1.00  0.00     0.124 S 
ATOM     57  O   UNL A   1      35.939  33.217  37.718  1.00  0.00    -0.237 OA
ATOM     58  O   UNL A   1      37.158  31.180  38.415  1.00  0.00    -0.237 OA
ATOM     59  O   UNL A   1      37.767  33.365  39.374  1.00  0.00    -0.744 OA
ENDBRANCH  55  56
ENDBRANCH  27  50
BRANCH  39  60
ATOM     60  C   UNL A   1      44.391  38.767  33.608  1.00  0.00    -0.014 A 
ATOM     61  C   UNL A   1      43.676  39.915  33.224  1.00  0.00     0.010 A 
ATOM     62  C   UNL A   1      45.279  38.835  34.694  1.00  0.00     0.010 A 
ATOM     63  C   UNL A   1      43.869  41.122  33.900  1.00  0.00     0.020 A 
ATOM     64  C   UNL A   1      45.458  40.035  35.387  1.00  0.00     0.020 A 
ATOM     65  C   UNL A   1      44.760  41.173  34.976  1.00  0.00     0.054 A 
BRANCH  65  66
ATOM     66  S   UNL A   1      44.964  42.740  35.867  1.00  0.00     0.124 S 
ATOM     67  O   UNL A   1      46.416  42.837  35.981  1.00  0.00    -0.237 OA
ATOM     68  O   UNL A   1      44.337  43.705  34.969  1.00  0.00    -0.237 OA
ATOM     69  O   UNL A   1      44.252  42.516  37.125  1.00  0.00    -0.744 OA
ENDBRANCH  65  66
ENDBRANCH  39  60
ENDBRANCH  13  14
ENDBRANCH   6   8
ENDBRANCH   3   4
ENDBRANCH   2   3
ENDBRANCH   1   2
BRANCH   1  70
ATOM     70  N   UNL A   1      38.551  28.306  31.350  1.00  0.00    -0.354 N 
ATOM     71  C   UNL A   1      37.428  29.033  31.566  1.00  0.00     0.247 C 
ATOM     72  H   UNL A   1      38.905  27.839  32.141  1.00  0.00     0.163 HD
ATOM     73  O   UNL A   1      36.980  29.045  32.719  1.00  0.00    -0.272 OA
BRANCH  71  74
ATOM     74  C   UNL A   1      36.862  29.975  30.481  1.00  0.00     0.202 C 
BRANCH  74  75
ATOM     75  C   UNL A   1      37.561  31.333  30.715  1.00  0.00    -0.016 A 
ATOM     76  C   UNL A   1      38.629  31.694  29.867  1.00  0.00     0.006 A 
ATOM     77  C   UNL A   1      37.063  32.311  31.596  1.00  0.00     0.006 A 
ATOM     78  C   UNL A   1      39.123  33.000  29.845  1.00  0.00     0.000 A 
ATOM     79  C   UNL A   1      37.575  33.612  31.585  1.00  0.00     0.000 A 
ATOM     80  C   UNL A   1      38.588  33.961  30.696  1.00  0.00     0.000 A 
ENDBRANCH  74  75
BRANCH  74  81
ATOM     81  N   UNL A   1      36.941  29.557  29.075  1.00  0.00    -0.340 N 
ATOM     82  C   UNL A   1      36.177  29.808  27.984  1.00  0.00     0.224 C 
ATOM     83  H   UNL A   1      37.709  28.973  28.886  1.00  0.00     0.164 HD
ATOM     84  O   UNL A   1      36.804  29.848  26.919  1.00  0.00    -0.275 OA
BRANCH  82  85
ATOM     85  C   UNL A   1      34.639  29.883  27.997  1.00  0.00     0.078 C 
ATOM     86  C   UNL A   1      34.054  31.038  27.186  1.00  0.00     0.014 C 
ATOM     87  C   UNL A   1      34.083  28.507  27.530  1.00  0.00     0.014 C 
ATOM     88  C   UNL A   1      32.533  30.937  27.049  1.00  0.00     0.006 C 
ATOM     89  C   UNL A   1      32.582  28.470  27.237  1.00  0.00     0.006 C 
ATOM     90  C   UNL A   1      32.126  29.634  26.355  1.00  0.00     0.008 C 
BRANCH  90  91
ATOM     91  C   UNL A   1      32.732  29.606  24.943  1.00  0.00     0.119 C 
BRANCH  91  92
ATOM     92  N   UNL A   1      31.753  29.627  23.878  1.00  0.00    -0.351 N 
ATOM     93  C   UNL A   1      31.020  28.565  23.420  1.00  0.00     0.278 C 
ATOM     94  H   UNL A   1      31.597  30.494  23.439  1.00  0.00     0.163 HD
ATOM     95  O   UNL A   1      30.071  28.771  22.659  1.00  0.00    -0.268 OA
BRANCH  93  96
ATOM     96  C   UNL A   1      31.433  27.136  23.831  1.00  0.00     0.277 C 
ATOM     97  C   UNL A   1      32.401  26.597  22.762  1.00  0.00     0.111 C 
ATOM     98  N   UNL A   1      30.223  26.317  24.099  1.00  0.00    -0.332 N 
ATOM     99  C   UNL A   1      32.728  25.164  23.069  1.00  0.00    -0.033 A 
ATOM    100  C   UNL A   1      30.285  24.955  23.565  1.00  0.00     0.298 C 
ATOM    101  H   UNL A   1      29.420  26.787  23.683  1.00  0.00     0.347 HD
ATOM    102  H   UNL A   1      30.150  26.228  25.113  1.00  0.00     0.347 HD
ATOM    103  C   UNL A   1      34.008  24.634  22.904  1.00  0.00     0.004 A 
ATOM    104  C   UNL A   1      31.671  24.357  23.523  1.00  0.00     0.010 A 
ATOM    105  C   UNL A   1      34.245  23.295  23.215  1.00  0.00     0.000 A 
ATOM    106  C   UNL A   1      31.918  23.015  23.826  1.00  0.00     0.010 A 
ATOM    107  C   UNL A   1      33.203  22.490  23.678  1.00  0.00     0.001 A 
ENDBRANCH  93  96
ENDBRANCH  91  92
ENDBRANCH  90  91
ENDBRANCH  82  85
ENDBRANCH  74  81
ENDBRANCH  71  74
ENDBRANCH   1  70
TORSDOF 19
ENDMDL
MODEL 2
REMARK VINA RESULT:     -10.1      6.878     14.542
REMARK SMILES O=C(NCCCNC(=O)[C@H](NC(=O)[C@H]1CC[C@@H](CNC(=O)[C@@H]2Cc3ccccc3C[NH2+]2)CC1)c1ccccc1)c1ccc(-c2c3nc(c(-c4ccc(S(=O)(=O)[O-])cc4)c4ccc([nH]4)c(-c4ccc(S(=O)(=O)[O-])cc4)c4nc(c(-c5ccc(S(=O)(=O)[O-])cc5)c5ccc2[nH]5)C=C4)C=C3)cc1
REMARK SMILES IDX 6 1 5 2 4 3 3 4 1 5 2 6 40 8 41 9 99 10 42 11 98 12 43 13
REMARK SMILES IDX 44 14 45 15 92 16 46 17 97 18 91 19 93 20 47 21 96 22 90 23
REMARK SMILES IDX 89 24 48 26 78 27 59 28 77 29 60 30 63 31 76 32 94 33 61 34
REMARK SMILES IDX 62 35 75 37 95 38 64 39 49 40 50 41 58 42 51 43 57 44 52 45
REMARK SMILES IDX 53 46 54 47 55 48 56 49 79 50 80 51 88 52 81 53 87 54 82 55
REMARK SMILES IDX 83 56 84 57 85 58 86 59 65 60 66 61 74 62 67 63 73 64 68 65
REMARK SMILES IDX 69 66 70 67 71 68 72 69 7 70 8 71 9 73 10 74 34 75 35 76
REMARK SMILES IDX 39 77 36 78 38 79 37 80 11 81 12 82 13 84 14 85 33 86 15 87
REMARK SMILES IDX 32 88 16 89 17 90 18 91 19 92 20 93 21 95 22 96 23 97 31 98
REMARK SMILES IDX 24 99 30 100 25 103 29 104 26 105 28 106 27 107
REMARK H PARENT 3 7 93 25 63 36 7 72 11 83 19 94 31 101 31 102
REMARK Flexibility Score: inf
ROOT
ATOM      1  C   UNL A   1      42.144  41.400  30.080  1.00  0.00     0.117 C 
ENDROOT
BRANCH   1   2
ATOM      2  C   UNL A   1      42.604  40.828  31.406  1.00  0.00     0.042 C 
BRANCH   2   3
ATOM      3  C   UNL A   1      43.563  39.653  31.249  1.00  0.00     0.118 C 
BRANCH   3   4
ATOM      4  N   UNL A   1      44.970  40.008  31.336  1.00  0.00    -0.352 N 
ATOM      5  O   UNL A   1      47.207  39.705  31.359  1.00  0.00    -0.269 OA
ATOM      6  C   UNL A   1      46.091  39.223  31.186  1.00  0.00     0.251 C 
ATOM      7  H   UNL A   1      45.149  40.956  31.533  1.00  0.00     0.163 HD
BRANCH   6   8
ATOM      8  C   UNL A   1      45.931  37.788  30.879  1.00  0.00     0.039 A 
ATOM      9  C   UNL A   1      45.817  37.360  29.559  1.00  0.00     0.014 A 
ATOM     10  C   UNL A   1      45.812  36.869  31.923  1.00  0.00     0.014 A 
ATOM     11  C   UNL A   1      45.313  36.097  29.294  1.00  0.00     0.010 A 
ATOM     12  C   UNL A   1      45.470  35.542  31.639  1.00  0.00     0.010 A 
ATOM     13  C   UNL A   1      45.159  35.158  30.325  1.00  0.00    -0.014 A 
BRANCH  13  14
ATOM     14  C   UNL A   1      44.726  33.778  29.983  1.00  0.00     0.031 A 
ATOM     15  C   UNL A   1      45.721  32.711  29.603  1.00  0.00     0.074 A 
ATOM     16  C   UNL A   1      43.412  33.480  30.063  1.00  0.00     0.049 A 
ATOM     17  N   UNL A   1      45.495  31.470  29.251  1.00  0.00    -0.248 NA
ATOM     18  C   UNL A   1      47.147  33.079  29.605  1.00  0.00     0.031 C 
ATOM     19  C   UNL A   1      42.352  34.428  30.421  1.00  0.00     0.029 A 
ATOM     20  N   UNL A   1      42.744  32.297  29.885  1.00  0.00    -0.354 N 
ATOM     21  C   UNL A   1      46.737  30.926  28.942  1.00  0.00     0.074 A 
ATOM     22  C   UNL A   1      47.716  31.971  29.147  1.00  0.00     0.031 C 
ATOM     23  C   UNL A   1      41.187  33.776  30.517  1.00  0.00     0.029 A 
ATOM     24  C   UNL A   1      41.393  32.390  30.122  1.00  0.00     0.049 A 
ATOM     25  H   UNL A   1      43.189  31.461  29.613  1.00  0.00     0.167 HD
ATOM     26  C   UNL A   1      47.029  29.672  28.520  1.00  0.00     0.031 A 
ATOM     27  C   UNL A   1      40.412  31.479  30.002  1.00  0.00     0.031 A 
ATOM     28  C   UNL A   1      46.049  28.630  28.347  1.00  0.00     0.049 A 
ATOM     29  C   UNL A   1      40.762  30.104  29.523  1.00  0.00     0.074 A 
ATOM     30  C   UNL A   1      46.249  27.318  27.956  1.00  0.00     0.029 A 
ATOM     31  N   UNL A   1      44.686  28.781  28.555  1.00  0.00    -0.354 N 
ATOM     32  N   UNL A   1      41.943  29.616  29.232  1.00  0.00    -0.248 NA
ATOM     33  C   UNL A   1      39.649  29.167  29.336  1.00  0.00     0.031 C 
ATOM     34  C   UNL A   1      45.002  26.687  27.885  1.00  0.00     0.029 A 
ATOM     35  C   UNL A   1      44.031  27.594  28.277  1.00  0.00     0.049 A 
ATOM     36  H   UNL A   1      44.250  29.611  28.856  1.00  0.00     0.167 HD
ATOM     37  C   UNL A   1      41.717  28.310  28.820  1.00  0.00     0.074 A 
ATOM     38  C   UNL A   1      40.289  28.077  28.930  1.00  0.00     0.031 C 
ATOM     39  C   UNL A   1      42.608  27.389  28.381  1.00  0.00     0.031 A 
BRANCH  26  40
ATOM     40  C   UNL A   1      48.461  29.359  28.176  1.00  0.00    -0.014 A 
ATOM     41  C   UNL A   1      49.338  28.793  29.118  1.00  0.00     0.010 A 
ATOM     42  C   UNL A   1      48.922  29.583  26.865  1.00  0.00     0.010 A 
ATOM     43  C   UNL A   1      50.656  28.486  28.764  1.00  0.00     0.020 A 
ATOM     44  C   UNL A   1      50.232  29.257  26.500  1.00  0.00     0.020 A 
ATOM     45  C   UNL A   1      51.096  28.725  27.457  1.00  0.00     0.054 A 
BRANCH  45  46
ATOM     46  S   UNL A   1      52.804  28.295  27.017  1.00  0.00     0.124 S 
ATOM     47  O   UNL A   1      53.400  28.058  28.330  1.00  0.00    -0.237 OA
ATOM     48  O   UNL A   1      52.633  27.109  26.184  1.00  0.00    -0.237 OA
ATOM     49  O   UNL A   1      53.290  29.481  26.318  1.00  0.00    -0.744 OA
ENDBRANCH  45  46
ENDBRANCH  26  40
BRANCH  27  50
ATOM     50  C   UNL A   1      39.008  31.873  30.289  1.00  0.00    -0.014 A 
ATOM     51  C   UNL A   1      38.450  31.665  31.562  1.00  0.00     0.010 A 
ATOM     52  C   UNL A   1      38.242  32.518  29.300  1.00  0.00     0.010 A 
ATOM     53  C   UNL A   1      37.149  32.097  31.839  1.00  0.00     0.020 A 
ATOM     54  C   UNL A   1      36.955  32.977  29.583  1.00  0.00     0.020 A 
ATOM     55  C   UNL A   1      36.412  32.755  30.850  1.00  0.00     0.054 A 
BRANCH  55  56
ATOM     56  S   UNL A   1      34.757  33.380  31.251  1.00  0.00     0.124 S 
ATOM     57  O   UNL A   1      35.057  34.707  31.779  1.00  0.00    -0.237 OA
ATOM     58  O   UNL A   1      34.083  33.351  29.954  1.00  0.00    -0.237 OA
ATOM     59  O   UNL A   1      34.256  32.413  32.224  1.00  0.00    -0.744 OA
ENDBRANCH  55  56
ENDBRANCH  27  50
BRANCH  39  60
ATOM     60  C   UNL A   1      42.060  26.046  27.995  1.00  0.00    -0.014 A 
ATOM     61  C   UNL A   1      41.318  25.885  26.812  1.00  0.00     0.010 A 
ATOM     62  C   UNL A   1      42.323  24.928  28.804  1.00  0.00     0.010 A 
ATOM     63  C   UNL A   1      40.823  24.628  26.458  1.00  0.00     0.020 A 
ATOM     64  C   UNL A   1      41.848  23.665  28.442  1.00  0.00     0.020 A 
ATOM     65  C   UNL A   1      41.090  23.527  27.277  1.00  0.00     0.054 A 
BRANCH  65  66
ATOM     66  S   UNL A   1      40.474  21.897  26.777  1.00  0.00     0.124 S 
ATOM     67  O   UNL A   1      41.387  21.546  25.693  1.00  0.00    -0.237 OA
ATOM     68  O   UNL A   1      40.616  21.109  27.999  1.00  0.00    -0.237 OA
ATOM     69  O   UNL A   1      39.094  22.160  26.370  1.00  0.00    -0.744 OA
ENDBRANCH  65  66
ENDBRANCH  39  60
ENDBRANCH  13  14
ENDBRANCH   6   8
ENDBRANCH   3   4
ENDBRANCH   2   3
ENDBRANCH   1   2
BRANCH   1  70
ATOM     70  N   UNL A   1      41.746  40.349  29.165  1.00  0.00    -0.354 N 
ATOM     71  C   UNL A   1      42.086  40.155  27.868  1.00  0.00     0.247 C 
ATOM     72  H   UNL A   1      41.136  39.675  29.542  1.00  0.00     0.163 HD
ATOM     73  O   UNL A   1      41.590  39.176  27.297  1.00  0.00    -0.272 OA
BRANCH  71  74
ATOM     74  C   UNL A   1      42.875  41.224  27.077  1.00  0.00     0.202 C 
BRANCH  74  75
ATOM     75  C   UNL A   1      44.343  40.740  27.094  1.00  0.00    -0.016 A 
ATOM     76  C   UNL A   1      44.694  39.631  26.296  1.00  0.00     0.006 A 
ATOM     77  C   UNL A   1      45.383  41.464  27.704  1.00  0.00     0.006 A 
ATOM     78  C   UNL A   1      46.031  39.311  26.054  1.00  0.00     0.000 A 
ATOM     79  C   UNL A   1      46.720  41.128  27.475  1.00  0.00     0.000 A 
ATOM     80  C   UNL A   1      47.044  40.067  26.635  1.00  0.00     0.000 A 
ENDBRANCH  74  75
BRANCH  74  81
ATOM     81  N   UNL A   1      42.430  41.566  25.721  1.00  0.00    -0.340 N 
ATOM     82  C   UNL A   1      43.071  42.024  24.618  1.00  0.00     0.224 C 
ATOM     83  H   UNL A   1      41.465  41.436  25.584  1.00  0.00     0.164 HD
ATOM     84  O   UNL A   1      42.592  41.631  23.548  1.00  0.00    -0.275 OA
BRANCH  82  85
ATOM     85  C   UNL A   1      44.199  43.072  24.640  1.00  0.00     0.078 C 
ATOM     86  C   UNL A   1      45.512  42.603  24.014  1.00  0.00     0.014 C 
ATOM     87  C   UNL A   1      43.668  44.370  23.966  1.00  0.00     0.014 C 
ATOM     88  C   UNL A   1      46.520  43.743  23.860  1.00  0.00     0.006 C 
ATOM     89  C   UNL A   1      44.724  45.435  23.668  1.00  0.00     0.006 C 
ATOM     90  C   UNL A   1      45.960  44.861  22.974  1.00  0.00     0.008 C 
BRANCH  90  91
ATOM     91  C   UNL A   1      45.669  44.294  21.575  1.00  0.00     0.119 C 
BRANCH  91  92
ATOM     92  N   UNL A   1      46.798  44.338  20.672  1.00  0.00    -0.351 N 
ATOM     93  C   UNL A   1      46.988  45.222  19.643  1.00  0.00     0.278 C 
ATOM     94  H   UNL A   1      47.501  43.663  20.811  1.00  0.00     0.163 HD
ATOM     95  O   UNL A   1      48.093  45.280  19.096  1.00  0.00    -0.268 OA
BRANCH  93  96
ATOM     96  C   UNL A   1      45.801  46.086  19.168  1.00  0.00     0.277 C 
ATOM     97  C   UNL A   1      45.196  45.413  17.922  1.00  0.00     0.111 C 
ATOM     98  N   UNL A   1      46.234  47.499  19.011  1.00  0.00    -0.332 N 
ATOM     99  C   UNL A   1      44.114  46.293  17.364  1.00  0.00    -0.033 A 
ATOM    100  C   UNL A   1      45.720  48.158  17.809  1.00  0.00     0.298 C 
ATOM    101  H   UNL A   1      47.253  47.519  18.975  1.00  0.00     0.347 HD
ATOM    102  H   UNL A   1      45.855  48.010  19.808  1.00  0.00     0.347 HD
ATOM    103  C   UNL A   1      42.919  45.782  16.854  1.00  0.00     0.004 A 
ATOM    104  C   UNL A   1      44.362  47.675  17.359  1.00  0.00     0.010 A 
ATOM    105  C   UNL A   1      41.953  46.655  16.356  1.00  0.00     0.000 A 
ATOM    106  C   UNL A   1      43.389  48.542  16.851  1.00  0.00     0.010 A 
ATOM    107  C   UNL A   1      42.186  48.031  16.359  1.00  0.00     0.001 A 
ENDBRANCH  93  96
ENDBRANCH  91  92
ENDBRANCH  90  91
ENDBRANCH  82  85
ENDBRANCH  74  81
ENDBRANCH  71  74
ENDBRANCH   1  70
TORSDOF 19
ENDMDL
MODEL 3
REMARK VINA RESULT:     -10.0      2.726      8.155
REMARK SMILES O=C(NCCCNC(=O)[C@H](NC(=O)[C@H]1CC[C@@H](CNC(=O)[C@@H]2Cc3ccccc3C[NH2+]2)CC1)c1ccccc1)c1ccc(-c2c3nc(c(-c4ccc(S(=O)(=O)[O-])cc4)c4ccc([nH]4)c(-c4ccc(S(=O)(=O)[O-])cc4)c4nc(c(-c5ccc(S(=O)(=O)[O-])cc5)c5ccc2[nH]5)C=C4)C=C3)cc1
REMARK SMILES IDX 6 1 5 2 4 3 3 4 1 5 2 6 40 8 41 9 99 10 42 11 98 12 43 13
REMARK SMILES IDX 44 14 45 15 92 16 46 17 97 18 91 19 93 20 47 21 96 22 90 23
REMARK SMILES IDX 89 24 48 26 78 27 59 28 77 29 60 30 63 31 76 32 94 33 61 34
REMARK SMILES IDX 62 35 75 37 95 38 64 39 49 40 50 41 58 42 51 43 57 44 52 45
REMARK SMILES IDX 53 46 54 47 55 48 56 49 79 50 80 51 88 52 81 53 87 54 82 55
REMARK SMILES IDX 83 56 84 57 85 58 86 59 65 60 66 61 74 62 67 63 73 64 68 65
REMARK SMILES IDX 69 66 70 67 71 68 72 69 7 70 8 71 9 73 10 74 34 75 35 76
REMARK SMILES IDX 39 77 36 78 38 79 37 80 11 81 12 82 13 84 14 85 33 86 15 87
REMARK SMILES IDX 32 88 16 89 17 90 18 91 19 92 20 93 21 95 22 96 23 97 31 98
REMARK SMILES IDX 24 99 30 100 25 103 29 104 26 105 28 106 27 107
REMARK H PARENT 3 7 93 25 63 36 7 72 11 83 19 94 31 101 31 102
REMARK Flexibility Score: inf
ROOT
ATOM      1  C   UNL A   1      36.518  29.696  29.578  1.00  0.00     0.117 C 
ENDROOT
BRANCH   1   2
ATOM      2  C   UNL A   1      36.249  30.011  31.036  1.00  0.00     0.042 C 
BRANCH   2   3
ATOM      3  C   UNL A   1      37.183  29.272  31.989  1.00  0.00     0.118 C 
BRANCH   3   4
ATOM      4  N   UNL A   1      37.259  29.844  33.323  1.00  0.00    -0.352 N 
ATOM      5  O   UNL A   1      38.132  30.991  35.061  1.00  0.00    -0.269 OA
ATOM      6  C   UNL A   1      38.219  30.656  33.882  1.00  0.00     0.251 C 
ATOM      7  H   UNL A   1      36.509  29.615  33.918  1.00  0.00     0.163 HD
BRANCH   6   8
ATOM      8  C   UNL A   1      39.382  31.066  33.069  1.00  0.00     0.039 A 
ATOM      9  C   UNL A   1      40.667  30.671  33.432  1.00  0.00     0.014 A 
ATOM     10  C   UNL A   1      39.196  31.921  31.982  1.00  0.00     0.014 A 
ATOM     11  C   UNL A   1      41.759  31.338  32.900  1.00  0.00     0.010 A 
ATOM     12  C   UNL A   1      40.309  32.462  31.330  1.00  0.00     0.010 A 
ATOM     13  C   UNL A   1      41.602  32.221  31.822  1.00  0.00    -0.014 A 
BRANCH  13  14
ATOM     14  C   UNL A   1      42.812  32.827  31.205  1.00  0.00     0.031 A 
ATOM     15  C   UNL A   1      43.219  34.247  31.500  1.00  0.00     0.074 A 
ATOM     16  C   UNL A   1      43.575  32.057  30.401  1.00  0.00     0.049 A 
ATOM     17  N   UNL A   1      44.231  34.924  31.018  1.00  0.00    -0.248 NA
ATOM     18  C   UNL A   1      42.387  35.012  32.443  1.00  0.00     0.031 C 
ATOM     19  C   UNL A   1      43.284  30.664  30.041  1.00  0.00     0.029 A 
ATOM     20  N   UNL A   1      44.763  32.315  29.769  1.00  0.00    -0.354 N 
ATOM     21  C   UNL A   1      44.129  36.203  31.556  1.00  0.00     0.074 A 
ATOM     22  C   UNL A   1      42.956  36.211  32.402  1.00  0.00     0.031 C 
ATOM     23  C   UNL A   1      44.301  30.169  29.326  1.00  0.00     0.029 A 
ATOM     24  C   UNL A   1      45.263  31.234  29.082  1.00  0.00     0.049 A 
ATOM     25  H   UNL A   1      45.214  33.190  29.803  1.00  0.00     0.167 HD
ATOM     26  C   UNL A   1      44.937  37.272  31.354  1.00  0.00     0.031 A 
ATOM     27  C   UNL A   1      46.355  31.111  28.307  1.00  0.00     0.031 A 
ATOM     28  C   UNL A   1      46.120  37.245  30.531  1.00  0.00     0.049 A 
ATOM     29  C   UNL A   1      47.224  32.311  28.092  1.00  0.00     0.074 A 
ATOM     30  C   UNL A   1      47.023  38.266  30.291  1.00  0.00     0.029 A 
ATOM     31  N   UNL A   1      46.565  36.142  29.818  1.00  0.00    -0.354 N 
ATOM     32  N   UNL A   1      47.103  33.511  28.607  1.00  0.00    -0.248 NA
ATOM     33  C   UNL A   1      48.361  32.149  27.180  1.00  0.00     0.031 C 
ATOM     34  C   UNL A   1      47.990  37.793  29.397  1.00  0.00     0.029 A 
ATOM     35  C   UNL A   1      47.715  36.464  29.118  1.00  0.00     0.049 A 
ATOM     36  H   UNL A   1      46.126  35.260  29.811  1.00  0.00     0.167 HD
ATOM     37  C   UNL A   1      48.148  34.253  28.075  1.00  0.00     0.074 A 
ATOM     38  C   UNL A   1      48.907  33.358  27.224  1.00  0.00     0.031 C 
ATOM     39  C   UNL A   1      48.447  35.560  28.267  1.00  0.00     0.031 A 
BRANCH  26  40
ATOM     40  C   UNL A   1      44.555  38.577  32.000  1.00  0.00    -0.014 A 
ATOM     41  C   UNL A   1      45.058  38.951  33.258  1.00  0.00     0.010 A 
ATOM     42  C   UNL A   1      43.721  39.474  31.306  1.00  0.00     0.010 A 
ATOM     43  C   UNL A   1      44.709  40.182  33.823  1.00  0.00     0.020 A 
ATOM     44  C   UNL A   1      43.387  40.715  31.856  1.00  0.00     0.020 A 
ATOM     45  C   UNL A   1      43.871  41.055  33.120  1.00  0.00     0.054 A 
BRANCH  45  46
ATOM     46  S   UNL A   1      43.452  42.656  33.865  1.00  0.00     0.124 S 
ATOM     47  O   UNL A   1      42.114  42.399  34.393  1.00  0.00    -0.237 OA
ATOM     48  O   UNL A   1      44.499  42.827  34.869  1.00  0.00    -0.237 OA
ATOM     49  O   UNL A   1      43.511  43.587  32.742  1.00  0.00    -0.744 OA
ENDBRANCH  45  46
ENDBRANCH  26  40
BRANCH  27  50
ATOM     50  C   UNL A   1      46.636  29.813  27.641  1.00  0.00    -0.014 A 
ATOM     51  C   UNL A   1      47.574  28.917  28.181  1.00  0.00     0.010 A 
ATOM     52  C   UNL A   1      45.916  29.442  26.489  1.00  0.00     0.010 A 
ATOM     53  C   UNL A   1      47.785  27.672  27.580  1.00  0.00     0.020 A 
ATOM     54  C   UNL A   1      46.102  28.189  25.905  1.00  0.00     0.020 A 
ATOM     55  C   UNL A   1      47.044  27.314  26.450  1.00  0.00     0.054 A 
BRANCH  55  56
ATOM     56  S   UNL A   1      47.272  25.663  25.732  1.00  0.00     0.124 S 
ATOM     57  O   UNL A   1      46.542  25.780  24.473  1.00  0.00    -0.237 OA
ATOM     58  O   UNL A   1      48.725  25.565  25.615  1.00  0.00    -0.237 OA
ATOM     59  O   UNL A   1      46.675  24.775  26.727  1.00  0.00    -0.744 OA
ENDBRANCH  55  56
ENDBRANCH  27  50
BRANCH  39  60
ATOM     60  C   UNL A   1      49.650  36.093  27.545  1.00  0.00    -0.014 A 
ATOM     61  C   UNL A   1      49.521  36.706  26.286  1.00  0.00     0.010 A 
ATOM     62  C   UNL A   1      50.917  36.014  28.149  1.00  0.00     0.010 A 
ATOM     63  C   UNL A   1      50.647  37.207  25.629  1.00  0.00     0.020 A 
ATOM     64  C   UNL A   1      52.042  36.533  27.505  1.00  0.00     0.020 A 
ATOM     65  C   UNL A   1      51.900  37.115  26.243  1.00  0.00     0.054 A 
BRANCH  65  66
ATOM     66  S   UNL A   1      53.342  37.810  25.392  1.00  0.00     0.124 S 
ATOM     67  O   UNL A   1      53.069  37.463  24.000  1.00  0.00    -0.237 OA
ATOM     68  O   UNL A   1      53.253  39.232  25.714  1.00  0.00    -0.237 OA
ATOM     69  O   UNL A   1      54.473  37.110  26.000  1.00  0.00    -0.744 OA
ENDBRANCH  65  66
ENDBRANCH  39  60
ENDBRANCH  13  14
ENDBRANCH   6   8
ENDBRANCH   3   4
ENDBRANCH   2   3
ENDBRANCH   1   2
BRANCH   1  70
ATOM     70  N   UNL A   1      36.896  30.887  28.844  1.00  0.00    -0.354 N 
ATOM     71  C   UNL A   1      36.151  31.966  28.503  1.00  0.00     0.247 C 
ATOM     72  H   UNL A   1      37.834  30.916  28.548  1.00  0.00     0.163 HD
ATOM     73  O   UNL A   1      36.714  32.855  27.852  1.00  0.00    -0.272 OA
BRANCH  71  74
ATOM     74  C   UNL A   1      34.621  31.987  28.723  1.00  0.00     0.202 C 
BRANCH  74  75
ATOM     75  C   UNL A   1      34.348  33.261  29.555  1.00  0.00    -0.016 A 
ATOM     76  C   UNL A   1      33.506  34.252  29.009  1.00  0.00     0.006 A 
ATOM     77  C   UNL A   1      34.730  33.395  30.902  1.00  0.00     0.006 A 
ATOM     78  C   UNL A   1      33.003  35.287  29.800  1.00  0.00     0.000 A 
ATOM     79  C   UNL A   1      34.241  34.444  31.685  1.00  0.00     0.000 A 
ATOM     80  C   UNL A   1      33.363  35.376  31.140  1.00  0.00     0.000 A 
ENDBRANCH  74  75
BRANCH  74  81
ATOM     81  N   UNL A   1      33.741  31.903  27.551  1.00  0.00    -0.340 N 
ATOM     82  C   UNL A   1      32.821  30.995  27.141  1.00  0.00     0.224 C 
ATOM     83  H   UNL A   1      33.838  32.664  26.936  1.00  0.00     0.164 HD
ATOM     84  O   UNL A   1      31.871  31.479  26.514  1.00  0.00    -0.275 OA
BRANCH  82  85
ATOM     85  C   UNL A   1      32.983  29.470  27.276  1.00  0.00     0.078 C 
ATOM     86  C   UNL A   1      31.679  28.682  27.156  1.00  0.00     0.014 C 
ATOM     87  C   UNL A   1      34.041  29.001  26.237  1.00  0.00     0.014 C 
ATOM     88  C   UNL A   1      31.920  27.173  27.074  1.00  0.00     0.006 C 
ATOM     89  C   UNL A   1      34.151  27.487  26.049  1.00  0.00     0.006 C 
ATOM     90  C   UNL A   1      32.788  26.817  25.864  1.00  0.00     0.008 C 
BRANCH  90  91
ATOM     91  C   UNL A   1      32.062  27.251  24.580  1.00  0.00     0.119 C 
BRANCH  91  92
ATOM     92  N   UNL A   1      32.882  27.197  23.390  1.00  0.00    -0.351 N 
ATOM     93  C   UNL A   1      33.284  26.070  22.723  1.00  0.00     0.278 C 
ATOM     94  H   UNL A   1      33.182  28.060  23.021  1.00  0.00     0.163 HD
ATOM     95  O   UNL A   1      33.797  26.182  21.606  1.00  0.00    -0.268 OA
BRANCH  93  96
ATOM     96  C   UNL A   1      33.128  24.697  23.411  1.00  0.00     0.277 C 
ATOM     97  C   UNL A   1      34.456  23.935  23.251  1.00  0.00     0.111 C 
ATOM     98  N   UNL A   1      31.909  24.015  22.906  1.00  0.00    -0.332 N 
ATOM     99  C   UNL A   1      34.297  22.548  23.804  1.00  0.00    -0.033 A 
ATOM    100  C   UNL A   1      32.084  22.585  22.639  1.00  0.00     0.298 C 
ATOM    101  H   UNL A   1      31.624  24.469  22.038  1.00  0.00     0.347 HD
ATOM    102  H   UNL A   1      31.207  24.089  23.642  1.00  0.00     0.347 HD
ATOM    103  C   UNL A   1      35.301  21.912  24.536  1.00  0.00     0.004 A 
ATOM    104  C   UNL A   1      33.082  21.895  23.538  1.00  0.00     0.010 A 
ATOM    105  C   UNL A   1      35.086  20.625  25.026  1.00  0.00     0.000 A 
ATOM    106  C   UNL A   1      32.879  20.603  24.030  1.00  0.00     0.010 A 
ATOM    107  C   UNL A   1      33.877  19.974  24.778  1.00  0.00     0.001 A 
ENDBRANCH  93  96
ENDBRANCH  91  92
ENDBRANCH  90  91
ENDBRANCH  82  85
ENDBRANCH  74  81
ENDBRANCH  71  74
ENDBRANCH   1  70
TORSDOF 19
ENDMDL
