MODEL 1
REMARK VINA RESULT:     -12.9      0.000      0.000
REMARK SMILES Cc1ccc(-c2nnc(S[C@@H](C)C(=O)NCCCNC(=O)c3ccc(-c4c5nc(c(-c6ccc(S(=O)(=O)[O-])cc6)c6ccc([nH]6)c(-c6ccc(S(=O)(=O)[O-])cc6)c6nc(c(-c7ccc(S(=O)(=O)[O-])cc7)c7ccc4[nH]7)C=C6)C=C5)cc3)n2C)cc1
REMARK SMILES IDX 17 1 16 2 15 3 13 4 14 5 11 7 12 8 10 9 9 10 6 11 7 12 82 13
REMARK SMILES IDX 8 14 83 15 5 16 1 17 2 18 3 19 85 20 4 21 84 22 18 23 19 24
REMARK SMILES IDX 20 25 21 27 22 28 23 29 81 30 24 31 80 32 25 33 26 34 27 35
REMARK SMILES IDX 74 36 28 37 79 38 73 39 75 40 29 41 78 42 72 43 71 44 30 46
REMARK SMILES IDX 60 47 41 48 59 49 42 50 45 51 58 52 76 53 43 54 44 55 57 57
REMARK SMILES IDX 77 58 46 59 31 60 32 61 40 62 33 63 39 64 34 65 35 66 36 67
REMARK SMILES IDX 37 68 38 69 61 70 62 71 70 72 63 73 69 74 64 75 65 76 66 77
REMARK SMILES IDX 67 78 68 79 47 80 48 81 56 82 49 83 55 84 50 85 51 86 52 87
REMARK SMILES IDX 53 88 54 89
REMARK H PARENT 15 6 19 26 75 45 45 56
REMARK Flexibility Score: inf
ROOT
ATOM      1  C   UNL A   1      37.730  21.864  25.411  1.00  0.00     0.042 C 
ENDROOT
BRANCH   1   2
ATOM      2  C   UNL A   1      36.246  22.051  25.134  1.00  0.00     0.117 C 
BRANCH   2   3
ATOM      3  N   UNL A   1      35.428  21.970  26.333  1.00  0.00    -0.355 N 
ATOM      4  C   UNL A   1      34.154  21.627  26.613  1.00  0.00     0.233 C 
ATOM      5  O   UNL A   1      33.899  21.532  27.826  1.00  0.00    -0.274 OA
ATOM      6  H   UNL A   1      35.928  22.230  27.140  1.00  0.00     0.163 HD
BRANCH   4   7
ATOM      7  C   UNL A   1      33.042  21.290  25.621  1.00  0.00     0.141 C 
ATOM      8  C   UNL A   1      33.002  19.848  25.129  1.00  0.00     0.030 C 
BRANCH   7   9
ATOM      9  S   UNL A   1      32.368  22.581  24.601  1.00  0.00    -0.073 SA
BRANCH   9  10
ATOM     10  C   UNL A   1      32.160  24.158  25.258  1.00  0.00     0.191 A 
ATOM     11  C   UNL A   1      32.267  26.254  25.950  1.00  0.00     0.164 A 
ATOM     12  N   UNL A   1      31.656  25.532  26.871  1.00  0.00    -0.129 NA
ATOM     13  N   UNL A   1      32.518  25.423  24.857  1.00  0.00    -0.305 N 
ATOM     14  N   UNL A   1      31.584  24.245  26.438  1.00  0.00    -0.123 NA
ATOM     15  C   UNL A   1      33.065  25.876  23.610  1.00  0.00     0.154 C 
BRANCH  11  16
ATOM     16  C   UNL A   1      32.729  27.635  26.179  1.00  0.00     0.019 A 
ATOM     17  C   UNL A   1      33.585  31.555  27.762  1.00  0.00     0.044 C 
ATOM     18  C   UNL A   1      33.348  30.256  27.048  1.00  0.00    -0.051 A 
ATOM     19  C   UNL A   1      32.085  29.961  26.537  1.00  0.00     0.004 A 
ATOM     20  C   UNL A   1      34.330  29.266  27.015  1.00  0.00     0.004 A 
ATOM     21  C   UNL A   1      31.775  28.663  26.120  1.00  0.00     0.012 A 
ATOM     22  C   UNL A   1      34.032  27.981  26.547  1.00  0.00     0.012 A 
ENDBRANCH  11  16
ENDBRANCH   9  10
ENDBRANCH   7   9
ENDBRANCH   4   7
ENDBRANCH   2   3
ENDBRANCH   1   2
BRANCH   1  23
ATOM     23  C   UNL A   1      38.344  23.050  26.139  1.00  0.00     0.118 C 
BRANCH  23  24
ATOM     24  N   UNL A   1      39.513  22.814  26.983  1.00  0.00    -0.352 N 
ATOM     25  C   UNL A   1      40.264  23.796  27.643  1.00  0.00     0.251 C 
ATOM     26  H   UNL A   1      39.799  21.880  27.098  1.00  0.00     0.163 HD
ATOM     27  O   UNL A   1      41.351  23.620  28.131  1.00  0.00    -0.269 OA
BRANCH  25  28
ATOM     28  C   UNL A   1      39.668  25.138  27.716  1.00  0.00     0.039 A 
ATOM     29  C   UNL A   1      40.147  26.122  26.845  1.00  0.00     0.014 A 
ATOM     30  C   UNL A   1      38.975  25.443  28.876  1.00  0.00     0.014 A 
ATOM     31  C   UNL A   1      40.137  27.443  27.271  1.00  0.00     0.010 A 
ATOM     32  C   UNL A   1      39.136  26.713  29.365  1.00  0.00     0.010 A 
ATOM     33  C   UNL A   1      39.748  27.707  28.582  1.00  0.00    -0.014 A 
BRANCH  33  34
ATOM     34  C   UNL A   1      39.994  28.960  29.278  1.00  0.00     0.031 A 
ATOM     35  C   UNL A   1      38.980  30.034  29.182  1.00  0.00     0.074 A 
ATOM     36  C   UNL A   1      41.045  29.094  30.120  1.00  0.00     0.049 A 
ATOM     37  N   UNL A   1      39.206  31.270  29.466  1.00  0.00    -0.248 NA
ATOM     38  C   UNL A   1      37.625  29.806  28.684  1.00  0.00     0.031 C 
ATOM     39  C   UNL A   1      41.187  30.104  31.167  1.00  0.00     0.029 A 
ATOM     40  N   UNL A   1      42.297  28.473  30.087  1.00  0.00    -0.354 N 
ATOM     41  C   UNL A   1      37.988  31.910  29.510  1.00  0.00     0.074 A 
ATOM     42  C   UNL A   1      37.056  30.989  28.914  1.00  0.00     0.031 C 
ATOM     43  C   UNL A   1      42.490  30.246  31.455  1.00  0.00     0.029 A 
ATOM     44  C   UNL A   1      43.231  29.439  30.503  1.00  0.00     0.049 A 
ATOM     45  H   UNL A   1      42.486  27.544  29.824  1.00  0.00     0.167 HD
ATOM     46  C   UNL A   1      37.882  33.089  30.182  1.00  0.00     0.031 A 
ATOM     47  C   UNL A   1      44.283  29.876  29.751  1.00  0.00     0.031 A 
ATOM     48  C   UNL A   1      39.192  33.578  30.614  1.00  0.00     0.049 A 
ATOM     49  C   UNL A   1      44.268  31.370  29.503  1.00  0.00     0.074 A 
ATOM     50  C   UNL A   1      39.843  33.622  31.835  1.00  0.00     0.029 A 
ATOM     51  N   UNL A   1      40.152  33.864  29.651  1.00  0.00    -0.354 N 
ATOM     52  N   UNL A   1      43.287  32.162  29.833  1.00  0.00    -0.248 NA
ATOM     53  C   UNL A   1      45.325  32.077  28.784  1.00  0.00     0.031 C 
ATOM     54  C   UNL A   1      41.215  33.905  31.593  1.00  0.00     0.029 A 
ATOM     55  C   UNL A   1      41.391  34.056  30.229  1.00  0.00     0.049 A 
ATOM     56  H   UNL A   1      39.972  33.921  28.684  1.00  0.00     0.167 HD
ATOM     57  C   UNL A   1      43.499  33.415  29.312  1.00  0.00     0.074 A 
ATOM     58  C   UNL A   1      44.817  33.320  28.710  1.00  0.00     0.031 C 
ATOM     59  C   UNL A   1      42.538  34.385  29.385  1.00  0.00     0.031 A 
BRANCH  46  60
ATOM     60  C   UNL A   1      36.570  33.665  30.676  1.00  0.00    -0.014 A 
ATOM     61  C   UNL A   1      35.604  34.088  29.740  1.00  0.00     0.010 A 
ATOM     62  C   UNL A   1      36.248  33.889  32.028  1.00  0.00     0.010 A 
ATOM     63  C   UNL A   1      34.437  34.769  30.125  1.00  0.00     0.020 A 
ATOM     64  C   UNL A   1      35.102  34.589  32.429  1.00  0.00     0.020 A 
ATOM     65  C   UNL A   1      34.206  35.037  31.471  1.00  0.00     0.054 A 
BRANCH  65  66
ATOM     66  S   UNL A   1      32.736  35.974  31.956  1.00  0.00     0.124 S 
ATOM     67  O   UNL A   1      33.278  36.933  32.915  1.00  0.00    -0.237 OA
ATOM     68  O   UNL A   1      32.290  36.534  30.684  1.00  0.00    -0.237 OA
ATOM     69  O   UNL A   1      31.853  34.961  32.531  1.00  0.00    -0.744 OA
ENDBRANCH  65  66
ENDBRANCH  46  60
BRANCH  47  70
ATOM     70  C   UNL A   1      44.822  28.871  28.797  1.00  0.00    -0.014 A 
ATOM     71  C   UNL A   1      44.127  28.691  27.586  1.00  0.00     0.010 A 
ATOM     72  C   UNL A   1      46.168  28.470  28.884  1.00  0.00     0.010 A 
ATOM     73  C   UNL A   1      44.809  28.305  26.432  1.00  0.00     0.020 A 
ATOM     74  C   UNL A   1      46.856  28.084  27.725  1.00  0.00     0.020 A 
ATOM     75  C   UNL A   1      46.184  28.077  26.498  1.00  0.00     0.054 A 
BRANCH  75  76
ATOM     76  S   UNL A   1      47.109  28.047  24.930  1.00  0.00     0.124 S 
ATOM     77  O   UNL A   1      46.606  29.232  24.244  1.00  0.00    -0.237 OA
ATOM     78  O   UNL A   1      48.490  28.134  25.402  1.00  0.00    -0.237 OA
ATOM     79  O   UNL A   1      46.730  26.766  24.341  1.00  0.00    -0.744 OA
ENDBRANCH  75  76
ENDBRANCH  47  70
BRANCH  59  80
ATOM     80  C   UNL A   1      42.538  35.742  28.697  1.00  0.00    -0.014 A 
ATOM     81  C   UNL A   1      41.941  36.030  27.461  1.00  0.00     0.010 A 
ATOM     82  C   UNL A   1      43.117  36.846  29.379  1.00  0.00     0.010 A 
ATOM     83  C   UNL A   1      41.953  37.328  26.921  1.00  0.00     0.020 A 
ATOM     84  C   UNL A   1      43.093  38.151  28.876  1.00  0.00     0.020 A 
ATOM     85  C   UNL A   1      42.530  38.380  27.631  1.00  0.00     0.054 A 
BRANCH  85  86
ATOM     86  S   UNL A   1      42.493  40.052  26.943  1.00  0.00     0.124 S 
ATOM     87  O   UNL A   1      42.615  40.874  28.143  1.00  0.00    -0.237 OA
ATOM     88  O   UNL A   1      43.653  40.064  26.055  1.00  0.00    -0.237 OA
ATOM     89  O   UNL A   1      41.200  40.118  26.265  1.00  0.00    -0.744 OA
ENDBRANCH  85  86
ENDBRANCH  59  80
ENDBRANCH  33  34
ENDBRANCH  25  28
ENDBRANCH  23  24
ENDBRANCH   1  23
TORSDOF 16
ENDMDL
MODEL 2
REMARK VINA RESULT:     -12.3      4.700     11.361
REMARK SMILES Cc1ccc(-c2nnc(S[C@@H](C)C(=O)NCCCNC(=O)c3ccc(-c4c5nc(c(-c6ccc(S(=O)(=O)[O-])cc6)c6ccc([nH]6)c(-c6ccc(S(=O)(=O)[O-])cc6)c6nc(c(-c7ccc(S(=O)(=O)[O-])cc7)c7ccc4[nH]7)C=C6)C=C5)cc3)n2C)cc1
REMARK SMILES IDX 17 1 16 2 15 3 13 4 14 5 11 7 12 8 10 9 9 10 6 11 7 12 82 13
REMARK SMILES IDX 8 14 83 15 5 16 1 17 2 18 3 19 85 20 4 21 84 22 18 23 19 24
REMARK SMILES IDX 20 25 21 27 22 28 23 29 81 30 24 31 80 32 25 33 26 34 27 35
REMARK SMILES IDX 74 36 28 37 79 38 73 39 75 40 29 41 78 42 72 43 71 44 30 46
REMARK SMILES IDX 60 47 41 48 59 49 42 50 45 51 58 52 76 53 43 54 44 55 57 57
REMARK SMILES IDX 77 58 46 59 31 60 32 61 40 62 33 63 39 64 34 65 35 66 36 67
REMARK SMILES IDX 37 68 38 69 61 70 62 71 70 72 63 73 69 74 64 75 65 76 66 77
REMARK SMILES IDX 67 78 68 79 47 80 48 81 56 82 49 83 55 84 50 85 51 86 52 87
REMARK SMILES IDX 53 88 54 89
REMARK H PARENT 15 6 19 26 75 45 45 56
REMARK Flexibility Score: inf
ROOT
ATOM      1  C   UNL A   1      33.190  30.296  26.864  1.00  0.00     0.042 C 
ENDROOT
BRANCH   1   2
ATOM      2  C   UNL A   1      32.602  29.105  26.122  1.00  0.00     0.117 C 
BRANCH   2   3
ATOM      3  N   UNL A   1      33.034  29.028  24.736  1.00  0.00    -0.355 N 
ATOM      4  C   UNL A   1      32.446  28.753  23.554  1.00  0.00     0.233 C 
ATOM      5  O   UNL A   1      33.161  28.965  22.559  1.00  0.00    -0.274 OA
ATOM      6  H   UNL A   1      33.994  29.225  24.636  1.00  0.00     0.163 HD
BRANCH   4   7
ATOM      7  C   UNL A   1      31.013  28.280  23.315  1.00  0.00     0.141 C 
ATOM      8  C   UNL A   1      29.919  29.301  23.604  1.00  0.00     0.030 C 
BRANCH   7   9
ATOM      9  S   UNL A   1      30.642  26.545  23.421  1.00  0.00    -0.073 SA
BRANCH   9  10
ATOM     10  C   UNL A   1      31.625  25.526  24.399  1.00  0.00     0.191 A 
ATOM     11  C   UNL A   1      33.025  24.071  25.298  1.00  0.00     0.164 A 
ATOM     12  N   UNL A   1      31.930  24.121  26.034  1.00  0.00    -0.129 NA
ATOM     13  N   UNL A   1      32.904  25.034  24.294  1.00  0.00    -0.305 N 
ATOM     14  N   UNL A   1      31.075  25.023  25.484  1.00  0.00    -0.123 NA
ATOM     15  C   UNL A   1      33.947  25.362  23.364  1.00  0.00     0.154 C 
BRANCH  11  16
ATOM     16  C   UNL A   1      34.063  23.038  25.459  1.00  0.00     0.019 A 
ATOM     17  C   UNL A   1      37.174  20.105  24.892  1.00  0.00     0.044 C 
ATOM     18  C   UNL A   1      36.076  21.059  25.262  1.00  0.00    -0.051 A 
ATOM     19  C   UNL A   1      34.752  20.751  24.956  1.00  0.00     0.004 A 
ATOM     20  C   UNL A   1      36.368  22.323  25.775  1.00  0.00     0.004 A 
ATOM     21  C   UNL A   1      33.760  21.733  25.041  1.00  0.00     0.012 A 
ATOM     22  C   UNL A   1      35.363  23.287  25.909  1.00  0.00     0.012 A 
ENDBRANCH  11  16
ENDBRANCH   9  10
ENDBRANCH   7   9
ENDBRANCH   4   7
ENDBRANCH   2   3
ENDBRANCH   1   2
BRANCH   1  23
ATOM     23  C   UNL A   1      34.607  30.040  27.354  1.00  0.00     0.118 C 
BRANCH  23  24
ATOM     24  N   UNL A   1      35.452  31.190  27.660  1.00  0.00    -0.352 N 
ATOM     25  C   UNL A   1      36.731  31.145  28.231  1.00  0.00     0.251 C 
ATOM     26  H   UNL A   1      35.090  32.080  27.445  1.00  0.00     0.163 HD
ATOM     27  O   UNL A   1      37.314  32.092  28.696  1.00  0.00    -0.269 OA
BRANCH  25  28
ATOM     28  C   UNL A   1      37.385  29.829  28.271  1.00  0.00     0.039 A 
ATOM     29  C   UNL A   1      37.449  29.159  29.497  1.00  0.00     0.014 A 
ATOM     30  C   UNL A   1      38.223  29.523  27.210  1.00  0.00     0.014 A 
ATOM     31  C   UNL A   1      38.535  28.331  29.742  1.00  0.00     0.010 A 
ATOM     32  C   UNL A   1      39.380  28.858  27.521  1.00  0.00     0.010 A 
ATOM     33  C   UNL A   1      39.556  28.292  28.796  1.00  0.00    -0.014 A 
BRANCH  33  34
ATOM     34  C   UNL A   1      40.885  27.754  29.040  1.00  0.00     0.031 A 
ATOM     35  C   UNL A   1      41.164  26.351  28.656  1.00  0.00     0.074 A 
ATOM     36  C   UNL A   1      41.893  28.552  29.464  1.00  0.00     0.049 A 
ATOM     37  N   UNL A   1      42.161  25.664  29.096  1.00  0.00    -0.248 NA
ATOM     38  C   UNL A   1      40.284  25.577  27.782  1.00  0.00     0.031 C 
ATOM     39  C   UNL A   1      43.322  28.265  29.361  1.00  0.00     0.029 A 
ATOM     40  N   UNL A   1      41.843  29.705  30.253  1.00  0.00    -0.354 N 
ATOM     41  C   UNL A   1      42.238  24.520  28.334  1.00  0.00     0.074 A 
ATOM     42  C   UNL A   1      40.994  24.463  27.612  1.00  0.00     0.031 C 
ATOM     43  C   UNL A   1      43.976  28.996  30.275  1.00  0.00     0.029 A 
ATOM     44  C   UNL A   1      42.976  29.666  31.086  1.00  0.00     0.049 A 
ATOM     45  H   UNL A   1      41.152  30.405  30.229  1.00  0.00     0.167 HD
ATOM     46  C   UNL A   1      43.411  23.831  28.291  1.00  0.00     0.031 A 
ATOM     47  C   UNL A   1      42.935  29.658  32.451  1.00  0.00     0.031 A 
ATOM     48  C   UNL A   1      44.380  24.362  29.252  1.00  0.00     0.049 A 
ATOM     49  C   UNL A   1      43.609  28.450  33.068  1.00  0.00     0.074 A 
ATOM     50  C   UNL A   1      45.518  25.141  29.132  1.00  0.00     0.029 A 
ATOM     51  N   UNL A   1      44.064  24.338  30.604  1.00  0.00    -0.354 N 
ATOM     52  N   UNL A   1      44.059  27.432  32.391  1.00  0.00    -0.248 NA
ATOM     53  C   UNL A   1      43.751  28.258  34.509  1.00  0.00     0.031 C 
ATOM     54  C   UNL A   1      45.866  25.614  30.427  1.00  0.00     0.029 A 
ATOM     55  C   UNL A   1      44.953  25.104  31.333  1.00  0.00     0.049 A 
ATOM     56  H   UNL A   1      43.307  23.843  30.992  1.00  0.00     0.167 HD
ATOM     57  C   UNL A   1      44.444  26.431  33.250  1.00  0.00     0.074 A 
ATOM     58  C   UNL A   1      44.281  27.023  34.566  1.00  0.00     0.031 C 
ATOM     59  C   UNL A   1      44.805  25.197  32.784  1.00  0.00     0.031 A 
BRANCH  46  60
ATOM     60  C   UNL A   1      43.772  22.846  27.198  1.00  0.00    -0.014 A 
ATOM     61  C   UNL A   1      42.891  21.785  26.903  1.00  0.00     0.010 A 
ATOM     62  C   UNL A   1      44.981  22.853  26.475  1.00  0.00     0.010 A 
ATOM     63  C   UNL A   1      43.233  20.754  26.013  1.00  0.00     0.020 A 
ATOM     64  C   UNL A   1      45.350  21.820  25.603  1.00  0.00     0.020 A 
ATOM     65  C   UNL A   1      44.476  20.766  25.386  1.00  0.00     0.054 A 
BRANCH  65  66
ATOM     66  S   UNL A   1      44.939  19.400  24.293  1.00  0.00     0.124 S 
ATOM     67  O   UNL A   1      44.487  19.875  22.988  1.00  0.00    -0.237 OA
ATOM     68  O   UNL A   1      46.386  19.331  24.476  1.00  0.00    -0.237 OA
ATOM     69  O   UNL A   1      44.192  18.262  24.826  1.00  0.00    -0.744 OA
ENDBRANCH  65  66
ENDBRANCH  46  60
BRANCH  47  70
ATOM     70  C   UNL A   1      41.764  30.360  33.039  1.00  0.00    -0.014 A 
ATOM     71  C   UNL A   1      41.796  31.768  33.057  1.00  0.00     0.010 A 
ATOM     72  C   UNL A   1      40.526  29.699  33.141  1.00  0.00     0.010 A 
ATOM     73  C   UNL A   1      40.612  32.501  32.981  1.00  0.00     0.020 A 
ATOM     74  C   UNL A   1      39.335  30.434  33.062  1.00  0.00     0.020 A 
ATOM     75  C   UNL A   1      39.394  31.823  32.909  1.00  0.00     0.054 A 
BRANCH  75  76
ATOM     76  S   UNL A   1      37.941  32.760  32.339  1.00  0.00     0.124 S 
ATOM     77  O   UNL A   1      37.528  33.467  33.546  1.00  0.00    -0.237 OA
ATOM     78  O   UNL A   1      38.523  33.595  31.290  1.00  0.00    -0.237 OA
ATOM     79  O   UNL A   1      37.031  31.718  31.874  1.00  0.00    -0.744 OA
ENDBRANCH  75  76
ENDBRANCH  47  70
BRANCH  59  80
ATOM     80  C   UNL A   1      45.065  23.939  33.600  1.00  0.00    -0.014 A 
ATOM     81  C   UNL A   1      44.097  22.996  33.976  1.00  0.00     0.010 A 
ATOM     82  C   UNL A   1      46.405  23.628  33.955  1.00  0.00     0.010 A 
ATOM     83  C   UNL A   1      44.438  21.837  34.694  1.00  0.00     0.020 A 
ATOM     84  C   UNL A   1      46.764  22.456  34.626  1.00  0.00     0.020 A 
ATOM     85  C   UNL A   1      45.768  21.574  35.016  1.00  0.00     0.054 A 
BRANCH  85  86
ATOM     86  S   UNL A   1      46.194  20.053  35.898  1.00  0.00     0.124 S 
ATOM     87  O   UNL A   1      47.649  20.035  35.783  1.00  0.00    -0.237 OA
ATOM     88  O   UNL A   1      45.675  20.301  37.242  1.00  0.00    -0.237 OA
ATOM     89  O   UNL A   1      45.491  19.013  35.150  1.00  0.00    -0.744 OA
ENDBRANCH  85  86
ENDBRANCH  59  80
ENDBRANCH  33  34
ENDBRANCH  25  28
ENDBRANCH  23  24
ENDBRANCH   1  23
TORSDOF 16
ENDMDL
MODEL 3
REMARK VINA RESULT:     -12.1      1.885      2.387
REMARK SMILES Cc1ccc(-c2nnc(S[C@@H](C)C(=O)NCCCNC(=O)c3ccc(-c4c5nc(c(-c6ccc(S(=O)(=O)[O-])cc6)c6ccc([nH]6)c(-c6ccc(S(=O)(=O)[O-])cc6)c6nc(c(-c7ccc(S(=O)(=O)[O-])cc7)c7ccc4[nH]7)C=C6)C=C5)cc3)n2C)cc1
REMARK SMILES IDX 17 1 16 2 15 3 13 4 14 5 11 7 12 8 10 9 9 10 6 11 7 12 82 13
REMARK SMILES IDX 8 14 83 15 5 16 1 17 2 18 3 19 85 20 4 21 84 22 18 23 19 24
REMARK SMILES IDX 20 25 21 27 22 28 23 29 81 30 24 31 80 32 25 33 26 34 27 35
REMARK SMILES IDX 74 36 28 37 79 38 73 39 75 40 29 41 78 42 72 43 71 44 30 46
REMARK SMILES IDX 60 47 41 48 59 49 42 50 45 51 58 52 76 53 43 54 44 55 57 57
REMARK SMILES IDX 77 58 46 59 31 60 32 61 40 62 33 63 39 64 34 65 35 66 36 67
REMARK SMILES IDX 37 68 38 69 61 70 62 71 70 72 63 73 69 74 64 75 65 76 66 77
REMARK SMILES IDX 67 78 68 79 47 80 48 81 56 82 49 83 55 84 50 85 51 86 52 87
REMARK SMILES IDX 53 88 54 89
REMARK H PARENT 15 6 19 26 75 45 45 56
REMARK Flexibility Score: inf
ROOT
ATOM      1  C   UNL A   1      36.426  21.795  25.763  1.00  0.00     0.042 C 
ENDROOT
BRANCH   1   2
ATOM      2  C   UNL A   1      36.263  20.619  24.813  1.00  0.00     0.117 C 
BRANCH   2   3
ATOM      3  N   UNL A   1      35.065  19.837  25.074  1.00  0.00    -0.355 N 
ATOM      4  C   UNL A   1      33.742  20.090  25.144  1.00  0.00     0.233 C 
ATOM      5  O   UNL A   1      33.026  19.076  25.228  1.00  0.00    -0.274 OA
ATOM      6  H   UNL A   1      35.271  18.889  25.239  1.00  0.00     0.163 HD
BRANCH   4   7
ATOM      7  C   UNL A   1      33.049  21.449  25.071  1.00  0.00     0.141 C 
ATOM      8  C   UNL A   1      33.180  22.193  23.746  1.00  0.00     0.030 C 
BRANCH   7   9
ATOM      9  S   UNL A   1      32.781  22.369  26.568  1.00  0.00    -0.073 SA
BRANCH   9  10
ATOM     10  C   UNL A   1      32.455  24.056  26.478  1.00  0.00     0.191 A 
ATOM     11  C   UNL A   1      32.429  26.266  26.466  1.00  0.00     0.164 A 
ATOM     12  N   UNL A   1      31.284  25.829  26.957  1.00  0.00    -0.129 NA
ATOM     13  N   UNL A   1      33.167  25.154  26.056  1.00  0.00    -0.305 N 
ATOM     14  N   UNL A   1      31.300  24.470  26.955  1.00  0.00    -0.123 NA
ATOM     15  C   UNL A   1      34.421  25.231  25.362  1.00  0.00     0.154 C 
BRANCH  11  16
ATOM     16  C   UNL A   1      32.855  27.675  26.536  1.00  0.00     0.019 A 
ATOM     17  C   UNL A   1      33.723  31.732  27.717  1.00  0.00     0.044 C 
ATOM     18  C   UNL A   1      33.459  30.375  27.133  1.00  0.00    -0.051 A 
ATOM     19  C   UNL A   1      32.159  29.999  26.801  1.00  0.00     0.004 A 
ATOM     20  C   UNL A   1      34.472  29.419  27.053  1.00  0.00     0.004 A 
ATOM     21  C   UNL A   1      31.858  28.663  26.519  1.00  0.00     0.012 A 
ATOM     22  C   UNL A   1      34.177  28.093  26.719  1.00  0.00     0.012 A 
ENDBRANCH  11  16
ENDBRANCH   9  10
ENDBRANCH   7   9
ENDBRANCH   4   7
ENDBRANCH   2   3
ENDBRANCH   1   2
BRANCH   1  23
ATOM     23  C   UNL A   1      37.762  22.503  25.595  1.00  0.00     0.118 C 
BRANCH  23  24
ATOM     24  N   UNL A   1      38.902  22.021  26.371  1.00  0.00    -0.352 N 
ATOM     25  C   UNL A   1      39.899  22.816  26.951  1.00  0.00     0.251 C 
ATOM     26  H   UNL A   1      38.976  21.048  26.497  1.00  0.00     0.163 HD
ATOM     27  O   UNL A   1      40.950  22.406  27.375  1.00  0.00    -0.269 OA
BRANCH  25  28
ATOM     28  C   UNL A   1      39.629  24.260  27.019  1.00  0.00     0.039 A 
ATOM     29  C   UNL A   1      40.441  25.121  26.274  1.00  0.00     0.014 A 
ATOM     30  C   UNL A   1      38.870  24.696  28.093  1.00  0.00     0.014 A 
ATOM     31  C   UNL A   1      40.681  26.396  26.767  1.00  0.00     0.010 A 
ATOM     32  C   UNL A   1      39.252  25.879  28.669  1.00  0.00     0.010 A 
ATOM     33  C   UNL A   1      40.184  26.715  28.028  1.00  0.00    -0.014 A 
BRANCH  33  34
ATOM     34  C   UNL A   1      40.615  27.857  28.819  1.00  0.00     0.031 A 
ATOM     35  C   UNL A   1      39.735  29.046  28.884  1.00  0.00     0.074 A 
ATOM     36  C   UNL A   1      41.715  27.786  29.603  1.00  0.00     0.049 A 
ATOM     37  N   UNL A   1      40.123  30.215  29.264  1.00  0.00    -0.248 NA
ATOM     38  C   UNL A   1      38.339  29.027  28.451  1.00  0.00     0.031 C 
ATOM     39  C   UNL A   1      42.032  28.665  30.727  1.00  0.00     0.029 A 
ATOM     40  N   UNL A   1      42.879  27.030  29.437  1.00  0.00    -0.354 N 
ATOM     41  C   UNL A   1      38.996  30.984  29.441  1.00  0.00     0.074 A 
ATOM     42  C   UNL A   1      37.930  30.240  28.822  1.00  0.00     0.031 C 
ATOM     43  C   UNL A   1      43.354  28.627  30.946  1.00  0.00     0.029 A 
ATOM     44  C   UNL A   1      43.943  27.835  29.882  1.00  0.00     0.049 A 
ATOM     45  H   UNL A   1      42.941  26.115  29.080  1.00  0.00     0.167 HD
ATOM     46  C   UNL A   1      39.068  32.097  30.222  1.00  0.00     0.031 A 
ATOM     47  C   UNL A   1      45.002  28.218  29.109  1.00  0.00     0.031 A 
ATOM     48  C   UNL A   1      40.448  32.386  30.616  1.00  0.00     0.049 A 
ATOM     49  C   UNL A   1      45.156  29.721  28.999  1.00  0.00     0.074 A 
ATOM     50  C   UNL A   1      41.160  32.234  31.793  1.00  0.00     0.029 A 
ATOM     51  N   UNL A   1      41.386  32.651  29.625  1.00  0.00    -0.354 N 
ATOM     52  N   UNL A   1      44.296  30.585  29.459  1.00  0.00    -0.248 NA
ATOM     53  C   UNL A   1      46.253  30.366  28.283  1.00  0.00     0.031 C 
ATOM     54  C   UNL A   1      42.543  32.378  31.494  1.00  0.00     0.029 A 
ATOM     55  C   UNL A   1      42.667  32.639  30.141  1.00  0.00     0.049 A 
ATOM     56  H   UNL A   1      41.166  32.822  28.680  1.00  0.00     0.167 HD
ATOM     57  C   UNL A   1      44.633  31.850  29.042  1.00  0.00     0.074 A 
ATOM     58  C   UNL A   1      45.897  31.662  28.354  1.00  0.00     0.031 C 
ATOM     59  C   UNL A   1      43.801  32.914  29.261  1.00  0.00     0.031 A 
BRANCH  46  60
ATOM     60  C   UNL A   1      37.863  32.770  30.846  1.00  0.00    -0.014 A 
ATOM     61  C   UNL A   1      37.559  32.527  32.201  1.00  0.00     0.010 A 
ATOM     62  C   UNL A   1      36.948  33.586  30.153  1.00  0.00     0.010 A 
ATOM     63  C   UNL A   1      36.375  32.994  32.798  1.00  0.00     0.020 A 
ATOM     64  C   UNL A   1      35.750  34.038  30.724  1.00  0.00     0.020 A 
ATOM     65  C   UNL A   1      35.465  33.728  32.044  1.00  0.00     0.054 A 
BRANCH  65  66
ATOM     66  S   UNL A   1      33.911  34.268  32.798  1.00  0.00     0.124 S 
ATOM     67  O   UNL A   1      33.347  33.013  33.287  1.00  0.00    -0.237 OA
ATOM     68  O   UNL A   1      34.370  35.199  33.825  1.00  0.00    -0.237 OA
ATOM     69  O   UNL A   1      33.181  34.880  31.688  1.00  0.00    -0.744 OA
ENDBRANCH  65  66
ENDBRANCH  46  60
BRANCH  47  70
ATOM     70  C   UNL A   1      45.366  27.255  28.036  1.00  0.00    -0.014 A 
ATOM     71  C   UNL A   1      46.263  26.223  28.373  1.00  0.00     0.010 A 
ATOM     72  C   UNL A   1      44.532  27.103  26.914  1.00  0.00     0.010 A 
ATOM     73  C   UNL A   1      46.193  24.989  27.726  1.00  0.00     0.020 A 
ATOM     74  C   UNL A   1      44.458  25.863  26.264  1.00  0.00     0.020 A 
ATOM     75  C   UNL A   1      45.238  24.798  26.726  1.00  0.00     0.054 A 
BRANCH  75  76
ATOM     76  S   UNL A   1      44.853  23.085  26.246  1.00  0.00     0.124 S 
ATOM     77  O   UNL A   1      44.169  23.260  24.970  1.00  0.00    -0.237 OA
ATOM     78  O   UNL A   1      46.188  22.494  26.167  1.00  0.00    -0.237 OA
ATOM     79  O   UNL A   1      44.023  22.606  27.348  1.00  0.00    -0.744 OA
ENDBRANCH  75  76
ENDBRANCH  47  70
BRANCH  59  80
ATOM     80  C   UNL A   1      43.932  34.322  28.700  1.00  0.00    -0.014 A 
ATOM     81  C   UNL A   1      43.785  34.680  27.352  1.00  0.00     0.010 A 
ATOM     82  C   UNL A   1      44.142  35.395  29.609  1.00  0.00     0.010 A 
ATOM     83  C   UNL A   1      43.879  36.018  26.931  1.00  0.00     0.020 A 
ATOM     84  C   UNL A   1      44.190  36.734  29.209  1.00  0.00     0.020 A 
ATOM     85  C   UNL A   1      44.082  37.036  27.861  1.00  0.00     0.054 A 
BRANCH  85  86
ATOM     86  S   UNL A   1      44.152  38.756  27.306  1.00  0.00     0.124 S 
ATOM     87  O   UNL A   1      45.389  38.772  26.531  1.00  0.00    -0.237 OA
ATOM     88  O   UNL A   1      42.923  38.896  26.527  1.00  0.00    -0.237 OA
ATOM     89  O   UNL A   1      44.181  39.520  28.551  1.00  0.00    -0.744 OA
ENDBRANCH  85  86
ENDBRANCH  59  80
ENDBRANCH  33  34
ENDBRANCH  25  28
ENDBRANCH  23  24
ENDBRANCH   1  23
TORSDOF 16
ENDMDL
