MODEL 1
REMARK VINA RESULT:     -10.9      0.000      0.000
REMARK SMILES C[C@@H](Oc1ccc(I)cc1)C(=O)NCc1ccc(C(=O)NCCCNC(=O)c2ccc(-c3c4nc(c(-c5ccc(S(=O)(=O)[O-])cc5)c5ccc([nH]5)c(-c5ccc(S(=O)(=O)[O-])cc5)c5nc(c(-c6ccc(S(=O)(=O)[O-])cc6)c6ccc3[nH]6)C=C5)C=C4)cc2)cc1
REMARK SMILES IDX 22 1 21 2 19 3 20 4 18 6 15 7 16 8 89 9 17 10 88 11 14 12
REMARK SMILES IDX 13 13 11 14 12 15 2 17 1 18 3 19 4 20 5 21 10 22 6 23 9 24
REMARK SMILES IDX 7 25 8 26 23 27 24 28 25 29 26 30 27 32 28 33 29 34 87 35
REMARK SMILES IDX 30 36 86 37 31 38 32 39 33 40 80 41 34 42 85 43 79 44 81 45
REMARK SMILES IDX 35 46 84 47 78 48 77 49 36 51 66 52 47 53 65 54 48 55 51 56
REMARK SMILES IDX 64 57 82 58 49 59 50 60 63 62 83 63 52 64 37 65 38 66 46 67
REMARK SMILES IDX 39 68 45 69 40 70 41 71 42 72 43 73 44 74 67 75 68 76 76 77
REMARK SMILES IDX 69 78 75 79 70 80 71 81 72 82 73 83 74 84 53 85 54 86 62 87
REMARK SMILES IDX 55 88 61 89 56 90 57 91 58 92 59 93 60 94
REMARK H PARENT 21 5 13 16 25 31 81 50 51 61
REMARK Flexibility Score: inf
ROOT
ATOM      1  C   UNL A   1      39.316  21.684  25.516  1.00  0.00     0.118 C 
ENDROOT
BRANCH   1   2
ATOM      2  N   UNL A   1      38.346  20.633  25.261  1.00  0.00    -0.352 N 
ATOM      3  C   UNL A   1      36.981  20.643  25.122  1.00  0.00     0.251 C 
ATOM      4  O   UNL A   1      36.432  19.584  24.813  1.00  0.00    -0.269 OA
ATOM      5  H   UNL A   1      38.746  19.738  25.169  1.00  0.00     0.163 HD
BRANCH   3   6
ATOM      6  C   UNL A   1      36.146  21.868  25.277  1.00  0.00     0.039 A 
ATOM      7  C   UNL A   1      34.634  24.254  25.422  1.00  0.00    -0.029 A 
ATOM      8  C   UNL A   1      35.190  23.845  24.207  1.00  0.00     0.006 A 
ATOM      9  C   UNL A   1      34.817  23.443  26.544  1.00  0.00     0.006 A 
ATOM     10  C   UNL A   1      35.950  22.670  24.140  1.00  0.00     0.014 A 
ATOM     11  C   UNL A   1      35.524  22.245  26.463  1.00  0.00     0.014 A 
BRANCH   7  12
ATOM     12  C   UNL A   1      33.824  25.517  25.540  1.00  0.00     0.151 C 
BRANCH  12  13
ATOM     13  N   UNL A   1      33.573  26.106  24.240  1.00  0.00    -0.349 N 
ATOM     14  C   UNL A   1      32.420  26.306  23.542  1.00  0.00     0.261 C 
ATOM     15  O   UNL A   1      32.514  26.932  22.479  1.00  0.00    -0.271 OA
ATOM     16  H   UNL A   1      34.384  26.419  23.778  1.00  0.00     0.163 HD
BRANCH  14  17
ATOM     17  C   UNL A   1      31.062  25.721  23.978  1.00  0.00     0.258 C 
ATOM     18  C   UNL A   1      29.998  26.811  23.859  1.00  0.00     0.064 C 
BRANCH  17  19
ATOM     19  O   UNL A   1      30.758  24.544  23.230  1.00  0.00    -0.481 OA
BRANCH  19  20
ATOM     20  C   UNL A   1      31.354  23.404  23.680  1.00  0.00     0.120 A 
ATOM     21  C   UNL A   1      31.174  23.004  25.003  1.00  0.00     0.047 A 
ATOM     22  C   UNL A   1      31.970  22.554  22.763  1.00  0.00     0.047 A 
ATOM     23  C   UNL A   1      31.652  21.763  25.428  1.00  0.00     0.018 A 
ATOM     24  C   UNL A   1      32.438  21.307  23.183  1.00  0.00     0.018 A 
ATOM     25  C   UNL A   1      32.276  20.915  24.514  1.00  0.00     0.013 A 
ATOM     26  I   UNL A   1      32.928  19.041  25.131  1.00  0.00    -0.044 I 
ENDBRANCH  19  20
ENDBRANCH  17  19
ENDBRANCH  14  17
ENDBRANCH  12  13
ENDBRANCH   7  12
ENDBRANCH   3   6
ENDBRANCH   1   2
BRANCH   1  27
ATOM     27  C   UNL A   1      39.939  21.544  26.906  1.00  0.00     0.042 C 
BRANCH  27  28
ATOM     28  C   UNL A   1      40.549  22.843  27.426  1.00  0.00     0.118 C 
BRANCH  28  29
ATOM     29  N   UNL A   1      41.401  23.473  26.428  1.00  0.00    -0.352 N 
ATOM     30  C   UNL A   1      41.812  24.777  26.313  1.00  0.00     0.251 C 
ATOM     31  H   UNL A   1      41.735  22.869  25.725  1.00  0.00     0.163 HD
ATOM     32  O   UNL A   1      42.341  25.146  25.269  1.00  0.00    -0.269 OA
BRANCH  30  33
ATOM     33  C   UNL A   1      41.615  25.736  27.423  1.00  0.00     0.039 A 
ATOM     34  C   UNL A   1      42.578  26.728  27.630  1.00  0.00     0.014 A 
ATOM     35  C   UNL A   1      40.527  25.630  28.293  1.00  0.00     0.014 A 
ATOM     36  C   UNL A   1      42.429  27.638  28.679  1.00  0.00     0.010 A 
ATOM     37  C   UNL A   1      40.344  26.577  29.299  1.00  0.00     0.010 A 
ATOM     38  C   UNL A   1      41.297  27.585  29.509  1.00  0.00    -0.014 A 
BRANCH  38  39
ATOM     39  C   UNL A   1      41.095  28.574  30.598  1.00  0.00     0.031 A 
ATOM     40  C   UNL A   1      41.905  28.485  31.864  1.00  0.00     0.074 A 
ATOM     41  C   UNL A   1      40.132  29.509  30.474  1.00  0.00     0.049 A 
ATOM     42  N   UNL A   1      41.821  29.213  32.949  1.00  0.00    -0.248 NA
ATOM     43  C   UNL A   1      42.927  27.427  31.932  1.00  0.00     0.031 C 
ATOM     44  C   UNL A   1      39.247  29.667  29.316  1.00  0.00     0.029 A 
ATOM     45  N   UNL A   1      39.722  30.493  31.339  1.00  0.00    -0.354 N 
ATOM     46  C   UNL A   1      42.751  28.682  33.835  1.00  0.00     0.074 A 
ATOM     47  C   UNL A   1      43.368  27.552  33.175  1.00  0.00     0.031 C 
ATOM     48  C   UNL A   1      38.410  30.693  29.538  1.00  0.00     0.029 A 
ATOM     49  C   UNL A   1      38.669  31.240  30.865  1.00  0.00     0.049 A 
ATOM     50  H   UNL A   1      40.142  30.650  32.215  1.00  0.00     0.167 HD
ATOM     51  C   UNL A   1      43.069  29.104  35.082  1.00  0.00     0.031 A 
ATOM     52  C   UNL A   1      37.977  32.244  31.439  1.00  0.00     0.031 A 
ATOM     53  C   UNL A   1      42.471  30.247  35.722  1.00  0.00     0.049 A 
ATOM     54  C   UNL A   1      38.367  32.709  32.816  1.00  0.00     0.074 A 
ATOM     55  C   UNL A   1      42.787  30.805  36.949  1.00  0.00     0.029 A 
ATOM     56  N   UNL A   1      41.436  31.001  35.193  1.00  0.00    -0.354 N 
ATOM     57  N   UNL A   1      39.312  32.249  33.603  1.00  0.00    -0.248 NA
ATOM     58  C   UNL A   1      37.611  33.836  33.377  1.00  0.00     0.031 C 
ATOM     59  C   UNL A   1      41.907  31.866  37.185  1.00  0.00     0.029 A 
ATOM     60  C   UNL A   1      41.083  32.004  36.079  1.00  0.00     0.049 A 
ATOM     61  H   UNL A   1      41.016  30.847  34.316  1.00  0.00     0.167 HD
ATOM     62  C   UNL A   1      39.279  33.050  34.739  1.00  0.00     0.074 A 
ATOM     63  C   UNL A   1      38.235  34.032  34.530  1.00  0.00     0.031 C 
ATOM     64  C   UNL A   1      40.046  32.978  35.854  1.00  0.00     0.031 A 
BRANCH  51  65
ATOM     65  C   UNL A   1      44.105  28.327  35.850  1.00  0.00    -0.014 A 
ATOM     66  C   UNL A   1      45.470  28.659  35.776  1.00  0.00     0.010 A 
ATOM     67  C   UNL A   1      43.699  27.295  36.715  1.00  0.00     0.010 A 
ATOM     68  C   UNL A   1      46.411  27.954  36.532  1.00  0.00     0.020 A 
ATOM     69  C   UNL A   1      44.634  26.605  37.493  1.00  0.00     0.020 A 
ATOM     70  C   UNL A   1      45.987  26.932  37.386  1.00  0.00     0.054 A 
BRANCH  70  71
ATOM     71  S   UNL A   1      47.226  26.066  38.390  1.00  0.00     0.124 S 
ATOM     72  O   UNL A   1      48.174  27.137  38.687  1.00  0.00    -0.237 OA
ATOM     73  O   UNL A   1      46.440  25.591  39.527  1.00  0.00    -0.237 OA
ATOM     74  O   UNL A   1      47.724  25.020  37.501  1.00  0.00    -0.744 OA
ENDBRANCH  70  71
ENDBRANCH  51  65
BRANCH  52  75
ATOM     75  C   UNL A   1      36.841  32.878  30.715  1.00  0.00    -0.014 A 
ATOM     76  C   UNL A   1      37.067  33.913  29.792  1.00  0.00     0.010 A 
ATOM     77  C   UNL A   1      35.522  32.446  30.950  1.00  0.00     0.010 A 
ATOM     78  C   UNL A   1      35.993  34.527  29.139  1.00  0.00     0.020 A 
ATOM     79  C   UNL A   1      34.449  33.037  30.277  1.00  0.00     0.020 A 
ATOM     80  C   UNL A   1      34.690  34.084  29.387  1.00  0.00     0.054 A 
BRANCH  80  81
ATOM     81  S   UNL A   1      33.313  34.870  28.503  1.00  0.00     0.124 S 
ATOM     82  O   UNL A   1      32.699  33.732  27.827  1.00  0.00    -0.237 OA
ATOM     83  O   UNL A   1      32.535  35.457  29.591  1.00  0.00    -0.237 OA
ATOM     84  O   UNL A   1      33.976  35.836  27.631  1.00  0.00    -0.744 OA
ENDBRANCH  80  81
ENDBRANCH  52  75
BRANCH  64  85
ATOM     85  C   UNL A   1      39.815  34.013  36.922  1.00  0.00    -0.014 A 
ATOM     86  C   UNL A   1      39.062  33.720  38.073  1.00  0.00     0.010 A 
ATOM     87  C   UNL A   1      40.411  35.281  36.796  1.00  0.00     0.010 A 
ATOM     88  C   UNL A   1      38.883  34.689  39.064  1.00  0.00     0.020 A 
ATOM     89  C   UNL A   1      40.258  36.242  37.798  1.00  0.00     0.020 A 
ATOM     90  C   UNL A   1      39.482  35.944  38.920  1.00  0.00     0.054 A 
BRANCH  90  91
ATOM     91  S   UNL A   1      39.273  37.169  40.241  1.00  0.00     0.124 S 
ATOM     92  O   UNL A   1      38.495  36.424  41.226  1.00  0.00    -0.237 OA
ATOM     93  O   UNL A   1      40.651  37.467  40.624  1.00  0.00    -0.237 OA
ATOM     94  O   UNL A   1      38.564  38.267  39.586  1.00  0.00    -0.744 OA
ENDBRANCH  90  91
ENDBRANCH  64  85
ENDBRANCH  38  39
ENDBRANCH  30  33
ENDBRANCH  28  29
ENDBRANCH  27  28
ENDBRANCH   1  27
TORSDOF 18
ENDMDL
MODEL 2
REMARK VINA RESULT:     -10.6      1.822      2.689
REMARK SMILES C[C@@H](Oc1ccc(I)cc1)C(=O)NCc1ccc(C(=O)NCCCNC(=O)c2ccc(-c3c4nc(c(-c5ccc(S(=O)(=O)[O-])cc5)c5ccc([nH]5)c(-c5ccc(S(=O)(=O)[O-])cc5)c5nc(c(-c6ccc(S(=O)(=O)[O-])cc6)c6ccc3[nH]6)C=C5)C=C4)cc2)cc1
REMARK SMILES IDX 22 1 21 2 19 3 20 4 18 6 15 7 16 8 89 9 17 10 88 11 14 12
REMARK SMILES IDX 13 13 11 14 12 15 2 17 1 18 3 19 4 20 5 21 10 22 6 23 9 24
REMARK SMILES IDX 7 25 8 26 23 27 24 28 25 29 26 30 27 32 28 33 29 34 87 35
REMARK SMILES IDX 30 36 86 37 31 38 32 39 33 40 80 41 34 42 85 43 79 44 81 45
REMARK SMILES IDX 35 46 84 47 78 48 77 49 36 51 66 52 47 53 65 54 48 55 51 56
REMARK SMILES IDX 64 57 82 58 49 59 50 60 63 62 83 63 52 64 37 65 38 66 46 67
REMARK SMILES IDX 39 68 45 69 40 70 41 71 42 72 43 73 44 74 67 75 68 76 76 77
REMARK SMILES IDX 69 78 75 79 70 80 71 81 72 82 73 83 74 84 53 85 54 86 62 87
REMARK SMILES IDX 55 88 61 89 56 90 57 91 58 92 59 93 60 94
REMARK H PARENT 21 5 13 16 25 31 81 50 51 61
REMARK Flexibility Score: inf
ROOT
ATOM      1  C   UNL A   1      39.402  22.474  26.036  1.00  0.00     0.118 C 
ENDROOT
BRANCH   1   2
ATOM      2  N   UNL A   1      38.910  21.177  25.605  1.00  0.00    -0.352 N 
ATOM      3  C   UNL A   1      37.693  20.755  25.132  1.00  0.00     0.251 C 
ATOM      4  O   UNL A   1      37.604  19.586  24.754  1.00  0.00    -0.269 OA
ATOM      5  H   UNL A   1      39.582  20.459  25.664  1.00  0.00     0.163 HD
BRANCH   3   6
ATOM      6  C   UNL A   1      36.505  21.645  25.008  1.00  0.00     0.039 A 
ATOM      7  C   UNL A   1      34.176  23.248  24.908  1.00  0.00    -0.029 A 
ATOM      8  C   UNL A   1      34.493  22.537  26.069  1.00  0.00     0.006 A 
ATOM      9  C   UNL A   1      35.050  23.171  23.821  1.00  0.00     0.006 A 
ATOM     10  C   UNL A   1      35.639  21.732  26.112  1.00  0.00     0.014 A 
ATOM     11  C   UNL A   1      36.220  22.418  23.886  1.00  0.00     0.014 A 
BRANCH   7  12
ATOM     12  C   UNL A   1      32.947  24.111  24.816  1.00  0.00     0.151 C 
BRANCH  12  13
ATOM     13  N   UNL A   1      31.972  23.751  25.825  1.00  0.00    -0.349 N 
ATOM     14  C   UNL A   1      30.837  24.372  26.252  1.00  0.00     0.261 C 
ATOM     15  O   UNL A   1      30.146  23.763  27.079  1.00  0.00    -0.271 OA
ATOM     16  H   UNL A   1      32.165  22.903  26.286  1.00  0.00     0.163 HD
BRANCH  14  17
ATOM     17  C   UNL A   1      30.445  25.799  25.818  1.00  0.00     0.258 C 
ATOM     18  C   UNL A   1      31.453  26.784  26.408  1.00  0.00     0.064 C 
BRANCH  17  19
ATOM     19  O   UNL A   1      30.333  25.879  24.398  1.00  0.00    -0.481 OA
BRANCH  19  20
ATOM     20  C   UNL A   1      29.838  27.057  23.923  1.00  0.00     0.120 A 
ATOM     21  C   UNL A   1      30.710  28.028  23.435  1.00  0.00     0.047 A 
ATOM     22  C   UNL A   1      28.462  27.195  23.753  1.00  0.00     0.047 A 
ATOM     23  C   UNL A   1      30.204  29.168  22.808  1.00  0.00     0.018 A 
ATOM     24  C   UNL A   1      27.953  28.328  23.115  1.00  0.00     0.018 A 
ATOM     25  C   UNL A   1      28.827  29.311  22.644  1.00  0.00     0.013 A 
ATOM     26  I   UNL A   1      28.078  30.976  21.652  1.00  0.00    -0.044 I 
ENDBRANCH  19  20
ENDBRANCH  17  19
ENDBRANCH  14  17
ENDBRANCH  12  13
ENDBRANCH   7  12
ENDBRANCH   3   6
ENDBRANCH   1   2
BRANCH   1  27
ATOM     27  C   UNL A   1      40.078  22.389  27.405  1.00  0.00     0.042 C 
BRANCH  27  28
ATOM     28  C   UNL A   1      41.265  23.337  27.551  1.00  0.00     0.118 C 
BRANCH  28  29
ATOM     29  N   UNL A   1      41.452  24.150  26.358  1.00  0.00    -0.352 N 
ATOM     30  C   UNL A   1      41.302  25.503  26.179  1.00  0.00     0.251 C 
ATOM     31  H   UNL A   1      41.728  23.653  25.555  1.00  0.00     0.163 HD
ATOM     32  O   UNL A   1      41.286  25.955  25.038  1.00  0.00    -0.269 OA
BRANCH  30  33
ATOM     33  C   UNL A   1      41.152  26.411  27.338  1.00  0.00     0.039 A 
ATOM     34  C   UNL A   1      42.067  27.458  27.491  1.00  0.00     0.014 A 
ATOM     35  C   UNL A   1      40.161  26.206  28.301  1.00  0.00     0.014 A 
ATOM     36  C   UNL A   1      41.962  28.321  28.584  1.00  0.00     0.010 A 
ATOM     37  C   UNL A   1      40.015  27.107  29.355  1.00  0.00     0.010 A 
ATOM     38  C   UNL A   1      40.920  28.168  29.513  1.00  0.00    -0.014 A 
BRANCH  38  39
ATOM     39  C   UNL A   1      40.761  29.106  30.653  1.00  0.00     0.031 A 
ATOM     40  C   UNL A   1      41.600  28.945  31.892  1.00  0.00     0.074 A 
ATOM     41  C   UNL A   1      39.810  30.061  30.598  1.00  0.00     0.049 A 
ATOM     42  N   UNL A   1      41.554  29.621  33.012  1.00  0.00    -0.248 NA
ATOM     43  C   UNL A   1      42.605  27.869  31.883  1.00  0.00     0.031 C 
ATOM     44  C   UNL A   1      38.900  30.288  29.471  1.00  0.00     0.029 A 
ATOM     45  N   UNL A   1      39.438  31.009  31.518  1.00  0.00    -0.354 N 
ATOM     46  C   UNL A   1      42.498  29.034  33.848  1.00  0.00     0.074 A 
ATOM     47  C   UNL A   1      43.080  27.928  33.119  1.00  0.00     0.031 C 
ATOM     48  C   UNL A   1      38.085  31.314  29.763  1.00  0.00     0.029 A 
ATOM     49  C   UNL A   1      38.385  31.794  31.107  1.00  0.00     0.049 A 
ATOM     50  H   UNL A   1      39.882  31.117  32.390  1.00  0.00     0.167 HD
ATOM     51  C   UNL A   1      42.853  29.391  35.105  1.00  0.00     0.031 A 
ATOM     52  C   UNL A   1      37.725  32.779  31.746  1.00  0.00     0.031 A 
ATOM     53  C   UNL A   1      42.290  30.510  35.814  1.00  0.00     0.049 A 
ATOM     54  C   UNL A   1      38.157  33.172  33.133  1.00  0.00     0.074 A 
ATOM     55  C   UNL A   1      42.645  31.004  37.057  1.00  0.00     0.029 A 
ATOM     56  N   UNL A   1      41.255  31.305  35.348  1.00  0.00    -0.354 N 
ATOM     57  N   UNL A   1      39.112  32.659  33.873  1.00  0.00    -0.248 NA
ATOM     58  C   UNL A   1      37.432  34.282  33.766  1.00  0.00     0.031 C 
ATOM     59  C   UNL A   1      41.789  32.066  37.365  1.00  0.00     0.029 A 
ATOM     60  C   UNL A   1      40.940  32.269  36.289  1.00  0.00     0.049 A 
ATOM     61  H   UNL A   1      40.810  31.200  34.475  1.00  0.00     0.167 HD
ATOM     62  C   UNL A   1      39.120  33.405  35.046  1.00  0.00     0.074 A 
ATOM     63  C   UNL A   1      38.088  34.412  34.911  1.00  0.00     0.031 C 
ATOM     64  C   UNL A   1      39.913  33.269  36.137  1.00  0.00     0.031 A 
BRANCH  51  65
ATOM     65  C   UNL A   1      43.895  28.562  35.808  1.00  0.00    -0.014 A 
ATOM     66  C   UNL A   1      45.261  28.891  35.737  1.00  0.00     0.010 A 
ATOM     67  C   UNL A   1      43.494  27.480  36.613  1.00  0.00     0.010 A 
ATOM     68  C   UNL A   1      46.208  28.136  36.434  1.00  0.00     0.020 A 
ATOM     69  C   UNL A   1      44.436  26.738  37.333  1.00  0.00     0.020 A 
ATOM     70  C   UNL A   1      45.789  27.064  37.229  1.00  0.00     0.054 A 
BRANCH  70  71
ATOM     71  S   UNL A   1      47.036  26.132  38.159  1.00  0.00     0.124 S 
ATOM     72  O   UNL A   1      46.672  26.437  39.540  1.00  0.00    -0.237 OA
ATOM     73  O   UNL A   1      46.788  24.755  37.735  1.00  0.00    -0.237 OA
ATOM     74  O   UNL A   1      48.304  26.700  37.708  1.00  0.00    -0.744 OA
ENDBRANCH  70  71
ENDBRANCH  51  65
BRANCH  52  75
ATOM     75  C   UNL A   1      36.582  33.464  31.082  1.00  0.00    -0.014 A 
ATOM     76  C   UNL A   1      36.605  33.723  29.701  1.00  0.00     0.010 A 
ATOM     77  C   UNL A   1      35.461  33.863  31.834  1.00  0.00     0.010 A 
ATOM     78  C   UNL A   1      35.543  34.397  29.088  1.00  0.00     0.020 A 
ATOM     79  C   UNL A   1      34.385  34.510  31.220  1.00  0.00     0.020 A 
ATOM     80  C   UNL A   1      34.440  34.786  29.853  1.00  0.00     0.054 A 
BRANCH  80  81
ATOM     81  S   UNL A   1      33.057  35.627  29.033  1.00  0.00     0.124 S 
ATOM     82  O   UNL A   1      32.560  34.590  28.137  1.00  0.00    -0.237 OA
ATOM     83  O   UNL A   1      32.185  35.967  30.155  1.00  0.00    -0.237 OA
ATOM     84  O   UNL A   1      33.692  36.769  28.381  1.00  0.00    -0.744 OA
ENDBRANCH  80  81
ENDBRANCH  52  75
BRANCH  64  85
ATOM     85  C   UNL A   1      39.726  34.255  37.259  1.00  0.00    -0.014 A 
ATOM     86  C   UNL A   1      39.129  33.874  38.474  1.00  0.00     0.010 A 
ATOM     87  C   UNL A   1      40.209  35.568  37.112  1.00  0.00     0.010 A 
ATOM     88  C   UNL A   1      38.989  34.801  39.511  1.00  0.00     0.020 A 
ATOM     89  C   UNL A   1      40.097  36.488  38.157  1.00  0.00     0.020 A 
ATOM     90  C   UNL A   1      39.474  36.102  39.346  1.00  0.00     0.054 A 
BRANCH  90  91
ATOM     91  S   UNL A   1      39.322  37.272  40.722  1.00  0.00     0.124 S 
ATOM     92  O   UNL A   1      38.452  38.298  40.155  1.00  0.00    -0.237 OA
ATOM     93  O   UNL A   1      38.725  36.454  41.775  1.00  0.00    -0.237 OA
ATOM     94  O   UNL A   1      40.699  37.692  40.974  1.00  0.00    -0.744 OA
ENDBRANCH  90  91
ENDBRANCH  64  85
ENDBRANCH  38  39
ENDBRANCH  30  33
ENDBRANCH  28  29
ENDBRANCH  27  28
ENDBRANCH   1  27
TORSDOF 18
ENDMDL
MODEL 3
REMARK VINA RESULT:     -10.5      4.000     10.314
REMARK SMILES C[C@@H](Oc1ccc(I)cc1)C(=O)NCc1ccc(C(=O)NCCCNC(=O)c2ccc(-c3c4nc(c(-c5ccc(S(=O)(=O)[O-])cc5)c5ccc([nH]5)c(-c5ccc(S(=O)(=O)[O-])cc5)c5nc(c(-c6ccc(S(=O)(=O)[O-])cc6)c6ccc3[nH]6)C=C5)C=C4)cc2)cc1
REMARK SMILES IDX 22 1 21 2 19 3 20 4 18 6 15 7 16 8 89 9 17 10 88 11 14 12
REMARK SMILES IDX 13 13 11 14 12 15 2 17 1 18 3 19 4 20 5 21 10 22 6 23 9 24
REMARK SMILES IDX 7 25 8 26 23 27 24 28 25 29 26 30 27 32 28 33 29 34 87 35
REMARK SMILES IDX 30 36 86 37 31 38 32 39 33 40 80 41 34 42 85 43 79 44 81 45
REMARK SMILES IDX 35 46 84 47 78 48 77 49 36 51 66 52 47 53 65 54 48 55 51 56
REMARK SMILES IDX 64 57 82 58 49 59 50 60 63 62 83 63 52 64 37 65 38 66 46 67
REMARK SMILES IDX 39 68 45 69 40 70 41 71 42 72 43 73 44 74 67 75 68 76 76 77
REMARK SMILES IDX 69 78 75 79 70 80 71 81 72 82 73 83 74 84 53 85 54 86 62 87
REMARK SMILES IDX 55 88 61 89 56 90 57 91 58 92 59 93 60 94
REMARK H PARENT 21 5 13 16 25 31 81 50 51 61
REMARK Flexibility Score: inf
ROOT
ATOM      1  C   UNL A   1      41.201  22.735  27.189  1.00  0.00     0.118 C 
ENDROOT
BRANCH   1   2
ATOM      2  N   UNL A   1      41.745  21.693  26.336  1.00  0.00    -0.352 N 
ATOM      3  C   UNL A   1      42.968  21.529  25.735  1.00  0.00     0.251 C 
ATOM      4  O   UNL A   1      43.169  20.474  25.132  1.00  0.00    -0.269 OA
ATOM      5  H   UNL A   1      41.113  20.961  26.151  1.00  0.00     0.163 HD
BRANCH   3   6
ATOM      6  C   UNL A   1      44.068  22.530  25.820  1.00  0.00     0.039 A 
ATOM      7  C   UNL A   1      46.111  24.487  25.820  1.00  0.00    -0.029 A 
ATOM      8  C   UNL A   1      45.024  24.603  24.950  1.00  0.00     0.006 A 
ATOM      9  C   UNL A   1      46.144  23.405  26.704  1.00  0.00     0.006 A 
ATOM     10  C   UNL A   1      44.020  23.626  24.942  1.00  0.00     0.014 A 
ATOM     11  C   UNL A   1      45.115  22.466  26.735  1.00  0.00     0.014 A 
BRANCH   7  12
ATOM     12  C   UNL A   1      47.218  25.506  25.850  1.00  0.00     0.151 C 
BRANCH  12  13
ATOM     13  N   UNL A   1      46.833  26.723  25.164  1.00  0.00    -0.349 N 
ATOM     14  C   UNL A   1      46.321  27.899  25.621  1.00  0.00     0.261 C 
ATOM     15  O   UNL A   1      46.180  28.806  24.791  1.00  0.00    -0.271 OA
ATOM     16  H   UNL A   1      46.967  26.693  24.189  1.00  0.00     0.163 HD
BRANCH  14  17
ATOM     17  C   UNL A   1      45.845  28.101  27.075  1.00  0.00     0.258 C 
ATOM     18  C   UNL A   1      45.628  29.594  27.316  1.00  0.00     0.064 C 
BRANCH  17  19
ATOM     19  O   UNL A   1      44.691  27.306  27.341  1.00  0.00    -0.481 OA
BRANCH  19  20
ATOM     20  C   UNL A   1      44.770  26.527  28.457  1.00  0.00     0.120 A 
ATOM     21  C   UNL A   1      45.665  26.861  29.472  1.00  0.00     0.047 A 
ATOM     22  C   UNL A   1      43.822  25.526  28.654  1.00  0.00     0.047 A 
ATOM     23  C   UNL A   1      45.643  26.161  30.680  1.00  0.00     0.018 A 
ATOM     24  C   UNL A   1      43.789  24.832  29.866  1.00  0.00     0.018 A 
ATOM     25  C   UNL A   1      44.701  25.153  30.875  1.00  0.00     0.013 A 
ATOM     26  I   UNL A   1      44.625  24.157  32.696  1.00  0.00    -0.044 I 
ENDBRANCH  19  20
ENDBRANCH  17  19
ENDBRANCH  14  17
ENDBRANCH  12  13
ENDBRANCH   7  12
ENDBRANCH   3   6
ENDBRANCH   1   2
BRANCH   1  27
ATOM     27  C   UNL A   1      39.687  22.868  27.012  1.00  0.00     0.042 C 
BRANCH  27  28
ATOM     28  C   UNL A   1      39.265  24.213  26.425  1.00  0.00     0.118 C 
BRANCH  28  29
ATOM     29  N   UNL A   1      40.336  24.818  25.647  1.00  0.00    -0.352 N 
ATOM     30  C   UNL A   1      41.000  26.005  25.831  1.00  0.00     0.251 C 
ATOM     31  H   UNL A   1      40.630  24.294  24.867  1.00  0.00     0.163 HD
ATOM     32  O   UNL A   1      41.712  26.436  24.929  1.00  0.00    -0.269 OA
BRANCH  30  33
ATOM     33  C   UNL A   1      40.858  26.767  27.092  1.00  0.00     0.039 A 
ATOM     34  C   UNL A   1      41.451  28.030  27.181  1.00  0.00     0.014 A 
ATOM     35  C   UNL A   1      40.200  26.226  28.200  1.00  0.00     0.014 A 
ATOM     36  C   UNL A   1      41.348  28.767  28.364  1.00  0.00     0.010 A 
ATOM     37  C   UNL A   1      40.041  26.988  29.356  1.00  0.00     0.010 A 
ATOM     38  C   UNL A   1      40.621  28.262  29.454  1.00  0.00    -0.014 A 
BRANCH  38  39
ATOM     39  C   UNL A   1      40.458  29.051  30.701  1.00  0.00     0.031 A 
ATOM     40  C   UNL A   1      39.377  30.094  30.805  1.00  0.00     0.074 A 
ATOM     41  C   UNL A   1      41.330  28.877  31.715  1.00  0.00     0.049 A 
ATOM     42  N   UNL A   1      39.127  30.927  31.782  1.00  0.00    -0.248 NA
ATOM     43  C   UNL A   1      38.474  30.238  29.650  1.00  0.00     0.031 C 
ATOM     44  C   UNL A   1      42.450  27.931  31.716  1.00  0.00     0.029 A 
ATOM     45  N   UNL A   1      41.423  29.499  32.934  1.00  0.00    -0.354 N 
ATOM     46  C   UNL A   1      38.063  31.711  31.350  1.00  0.00     0.074 A 
ATOM     47  C   UNL A   1      37.734  31.277  30.010  1.00  0.00     0.031 C 
ATOM     48  C   UNL A   1      43.108  28.029  32.883  1.00  0.00     0.029 A 
ATOM     49  C   UNL A   1      42.484  29.068  33.695  1.00  0.00     0.049 A 
ATOM     50  H   UNL A   1      40.790  30.190  33.236  1.00  0.00     0.167 HD
ATOM     51  C   UNL A   1      37.414  32.697  32.014  1.00  0.00     0.031 A 
ATOM     52  C   UNL A   1      42.918  29.473  34.905  1.00  0.00     0.031 A 
ATOM     53  C   UNL A   1      37.727  33.105  33.358  1.00  0.00     0.049 A 
ATOM     54  C   UNL A   1      42.163  30.553  35.631  1.00  0.00     0.074 A 
ATOM     55  C   UNL A   1      37.072  34.035  34.147  1.00  0.00     0.029 A 
ATOM     56  N   UNL A   1      38.784  32.616  34.109  1.00  0.00    -0.354 N 
ATOM     57  N   UNL A   1      41.104  31.221  35.238  1.00  0.00    -0.248 NA
ATOM     58  C   UNL A   1      42.651  30.924  36.965  1.00  0.00     0.031 C 
ATOM     59  C   UNL A   1      37.764  34.145  35.357  1.00  0.00     0.029 A 
ATOM     60  C   UNL A   1      38.815  33.242  35.343  1.00  0.00     0.049 A 
ATOM     61  H   UNL A   1      39.418  31.924  33.810  1.00  0.00     0.167 HD
ATOM     62  C   UNL A   1      40.784  32.071  36.291  1.00  0.00     0.074 A 
ATOM     63  C   UNL A   1      41.750  31.821  37.341  1.00  0.00     0.031 C 
ATOM     64  C   UNL A   1      39.780  32.977  36.380  1.00  0.00     0.031 A 
BRANCH  51  65
ATOM     65  C   UNL A   1      36.300  33.416  31.299  1.00  0.00    -0.014 A 
ATOM     66  C   UNL A   1      35.062  33.649  31.924  1.00  0.00     0.010 A 
ATOM     67  C   UNL A   1      36.522  33.932  30.009  1.00  0.00     0.010 A 
ATOM     68  C   UNL A   1      34.057  34.358  31.260  1.00  0.00     0.020 A 
ATOM     69  C   UNL A   1      35.529  34.665  29.352  1.00  0.00     0.020 A 
ATOM     70  C   UNL A   1      34.297  34.863  29.979  1.00  0.00     0.054 A 
BRANCH  70  71
ATOM     71  S   UNL A   1      32.991  35.820  29.161  1.00  0.00     0.124 S 
ATOM     72  O   UNL A   1      32.384  34.818  28.290  1.00  0.00    -0.237 OA
ATOM     73  O   UNL A   1      32.165  36.259  30.285  1.00  0.00    -0.237 OA
ATOM     74  O   UNL A   1      33.718  36.885  28.475  1.00  0.00    -0.744 OA
ENDBRANCH  70  71
ENDBRANCH  51  65
BRANCH  52  75
ATOM     75  C   UNL A   1      44.131  28.854  35.508  1.00  0.00    -0.014 A 
ATOM     76  C   UNL A   1      45.404  29.405  35.285  1.00  0.00     0.010 A 
ATOM     77  C   UNL A   1      44.014  27.703  36.311  1.00  0.00     0.010 A 
ATOM     78  C   UNL A   1      46.543  28.800  35.828  1.00  0.00     0.020 A 
ATOM     79  C   UNL A   1      45.146  27.113  36.879  1.00  0.00     0.020 A 
ATOM     80  C   UNL A   1      46.406  27.657  36.621  1.00  0.00     0.054 A 
BRANCH  80  81
ATOM     81  S   UNL A   1      47.892  26.907  37.344  1.00  0.00     0.124 S 
ATOM     82  O   UNL A   1      48.686  26.605  36.158  1.00  0.00    -0.237 OA
ATOM     83  O   UNL A   1      48.404  27.979  38.194  1.00  0.00    -0.237 OA
ATOM     84  O   UNL A   1      47.371  25.748  38.064  1.00  0.00    -0.744 OA
ENDBRANCH  80  81
ENDBRANCH  52  75
BRANCH  64  85
ATOM     85  C   UNL A   1      39.645  33.740  37.671  1.00  0.00    -0.014 A 
ATOM     86  C   UNL A   1      40.332  34.949  37.879  1.00  0.00     0.010 A 
ATOM     87  C   UNL A   1      38.772  33.265  38.667  1.00  0.00     0.010 A 
ATOM     88  C   UNL A   1      40.171  35.653  39.076  1.00  0.00     0.020 A 
ATOM     89  C   UNL A   1      38.587  33.981  39.851  1.00  0.00     0.020 A 
ATOM     90  C   UNL A   1      39.300  35.164  40.054  1.00  0.00     0.054 A 
BRANCH  90  91
ATOM     91  S   UNL A   1      39.074  36.120  41.579  1.00  0.00     0.124 S 
ATOM     92  O   UNL A   1      37.810  35.591  42.084  1.00  0.00    -0.237 OA
ATOM     93  O   UNL A   1      40.258  35.767  42.358  1.00  0.00    -0.237 OA
ATOM     94  O   UNL A   1      39.030  37.505  41.117  1.00  0.00    -0.744 OA
ENDBRANCH  90  91
ENDBRANCH  64  85
ENDBRANCH  38  39
ENDBRANCH  30  33
ENDBRANCH  28  29
ENDBRANCH  27  28
ENDBRANCH   1  27
TORSDOF 18
ENDMDL
