MODEL 1
REMARK VINA RESULT:     -11.7      0.000      0.000
REMARK SMILES O=C(NCCCNC(=O)c1ccc(-c2cccc(O)c2)cc1Cl)c1ccc(-c2c3nc(c(-c4ccc(S(=O)(=O)[O-])cc4)c4ccc([nH]4)c(-c4ccc(S(=O)(=O)[O-])cc4)c4nc(c(-c5ccc(S(=O)(=O)[O-])cc5)c5ccc2[nH]5)C=C4)C=C3)cc1
REMARK SMILES IDX 4 1 3 2 1 3 2 4 24 6 25 7 83 8 26 9 82 10 27 11 28 12 29 13
REMARK SMILES IDX 76 14 30 15 81 16 75 17 77 18 31 19 80 20 74 21 73 22 32 24
REMARK SMILES IDX 62 25 43 26 61 27 44 28 47 29 60 30 78 31 45 32 46 33 59 35
REMARK SMILES IDX 79 36 48 37 33 38 34 39 42 40 35 41 41 42 36 43 37 44 38 45
REMARK SMILES IDX 39 46 40 47 63 48 64 49 72 50 65 51 71 52 66 53 67 54 68 55
REMARK SMILES IDX 69 56 70 57 49 58 50 59 58 60 51 61 57 62 52 63 53 64 54 65
REMARK SMILES IDX 55 66 56 67 5 68 6 69 7 70 8 71 9 73 10 74 11 75 22 76 12 77
REMARK SMILES IDX 21 78 23 79 13 80 14 81 15 82 20 83 16 84 18 85 17 86 19 87
REMARK H PARENT 3 5 77 23 47 34 7 72 19 88
REMARK Flexibility Score: inf
ROOT
ATOM      1  C   UNL A   1      33.792  28.179  27.169  1.00  0.00     0.118 C 
ENDROOT
BRANCH   1   2
ATOM      2  N   UNL A   1      33.650  29.608  27.417  1.00  0.00    -0.352 N 
ATOM      3  O   UNL A   1      34.104  31.628  28.290  1.00  0.00    -0.269 OA
ATOM      4  C   UNL A   1      34.510  30.503  28.005  1.00  0.00     0.251 C 
ATOM      5  H   UNL A   1      32.797  29.995  27.114  1.00  0.00     0.163 HD
BRANCH   4   6
ATOM      6  C   UNL A   1      35.908  30.124  28.310  1.00  0.00     0.039 A 
ATOM      7  C   UNL A   1      36.918  30.284  27.363  1.00  0.00     0.014 A 
ATOM      8  C   UNL A   1      36.223  29.642  29.586  1.00  0.00     0.014 A 
ATOM      9  C   UNL A   1      38.202  29.823  27.630  1.00  0.00     0.010 A 
ATOM     10  C   UNL A   1      37.538  29.271  29.889  1.00  0.00     0.010 A 
ATOM     11  C   UNL A   1      38.534  29.333  28.904  1.00  0.00    -0.014 A 
BRANCH  11  12
ATOM     12  C   UNL A   1      39.947  28.980  29.194  1.00  0.00     0.031 A 
ATOM     13  C   UNL A   1      40.524  27.654  28.781  1.00  0.00     0.074 A 
ATOM     14  C   UNL A   1      40.722  29.897  29.808  1.00  0.00     0.049 A 
ATOM     15  N   UNL A   1      41.748  27.214  28.926  1.00  0.00    -0.248 NA
ATOM     16  C   UNL A   1      39.618  26.695  28.129  1.00  0.00     0.031 C 
ATOM     17  C   UNL A   1      40.267  31.212  30.270  1.00  0.00     0.029 A 
ATOM     18  N   UNL A   1      42.056  29.878  30.127  1.00  0.00    -0.354 N 
ATOM     19  C   UNL A   1      41.757  25.924  28.408  1.00  0.00     0.074 A 
ATOM     20  C   UNL A   1      40.410  25.644  27.956  1.00  0.00     0.031 C 
ATOM     21  C   UNL A   1      41.313  31.894  30.761  1.00  0.00     0.029 A 
ATOM     22  C   UNL A   1      42.496  31.044  30.710  1.00  0.00     0.049 A 
ATOM     23  H   UNL A   1      42.641  29.105  29.957  1.00  0.00     0.167 HD
ATOM     24  C   UNL A   1      42.793  25.057  28.317  1.00  0.00     0.031 A 
ATOM     25  C   UNL A   1      43.713  31.391  31.168  1.00  0.00     0.031 A 
ATOM     26  C   UNL A   1      44.134  25.347  28.755  1.00  0.00     0.049 A 
ATOM     27  C   UNL A   1      44.839  30.406  31.058  1.00  0.00     0.074 A 
ATOM     28  C   UNL A   1      45.259  24.544  28.668  1.00  0.00     0.029 A 
ATOM     29  N   UNL A   1      44.533  26.526  29.365  1.00  0.00    -0.354 N 
ATOM     30  N   UNL A   1      44.830  29.205  30.531  1.00  0.00    -0.248 NA
ATOM     31  C   UNL A   1      46.136  30.820  31.605  1.00  0.00     0.031 C 
ATOM     32  C   UNL A   1      46.329  25.222  29.264  1.00  0.00     0.029 A 
ATOM     33  C   UNL A   1      45.880  26.465  29.680  1.00  0.00     0.049 A 
ATOM     34  H   UNL A   1      43.944  27.294  29.547  1.00  0.00     0.167 HD
ATOM     35  C   UNL A   1      46.123  28.721  30.679  1.00  0.00     0.074 A 
ATOM     36  C   UNL A   1      46.893  29.769  31.319  1.00  0.00     0.031 C 
ATOM     37  C   UNL A   1      46.626  27.514  30.324  1.00  0.00     0.031 A 
BRANCH  24  38
ATOM     38  C   UNL A   1      42.525  23.694  27.736  1.00  0.00    -0.014 A 
ATOM     39  C   UNL A   1      42.712  23.436  26.367  1.00  0.00     0.010 A 
ATOM     40  C   UNL A   1      42.161  22.634  28.589  1.00  0.00     0.010 A 
ATOM     41  C   UNL A   1      42.523  22.148  25.858  1.00  0.00     0.020 A 
ATOM     42  C   UNL A   1      41.991  21.341  28.087  1.00  0.00     0.020 A 
ATOM     43  C   UNL A   1      42.162  21.108  26.720  1.00  0.00     0.054 A 
BRANCH  43  44
ATOM     44  S   UNL A   1      41.972  19.436  26.042  1.00  0.00     0.124 S 
ATOM     45  O   UNL A   1      42.471  18.609  27.138  1.00  0.00    -0.237 OA
ATOM     46  O   UNL A   1      40.533  19.349  25.798  1.00  0.00    -0.237 OA
ATOM     47  O   UNL A   1      42.805  19.449  24.842  1.00  0.00    -0.744 OA
ENDBRANCH  43  44
ENDBRANCH  24  38
BRANCH  25  48
ATOM     48  C   UNL A   1      43.915  32.723  31.797  1.00  0.00    -0.014 A 
ATOM     49  C   UNL A   1      43.776  32.892  33.184  1.00  0.00     0.010 A 
ATOM     50  C   UNL A   1      44.264  33.830  31.002  1.00  0.00     0.010 A 
ATOM     51  C   UNL A   1      43.964  34.149  33.765  1.00  0.00     0.020 A 
ATOM     52  C   UNL A   1      44.480  35.082  31.582  1.00  0.00     0.020 A 
ATOM     53  C   UNL A   1      44.313  35.238  32.959  1.00  0.00     0.054 A 
BRANCH  53  54
ATOM     54  S   UNL A   1      44.597  36.853  33.732  1.00  0.00     0.124 S 
ATOM     55  O   UNL A   1      43.795  36.750  34.946  1.00  0.00    -0.237 OA
ATOM     56  O   UNL A   1      46.044  36.865  33.927  1.00  0.00    -0.237 OA
ATOM     57  O   UNL A   1      44.104  37.798  32.731  1.00  0.00    -0.744 OA
ENDBRANCH  53  54
ENDBRANCH  25  48
BRANCH  37  58
ATOM     58  C   UNL A   1      48.082  27.273  30.607  1.00  0.00    -0.014 A 
ATOM     59  C   UNL A   1      48.503  26.789  31.858  1.00  0.00     0.010 A 
ATOM     60  C   UNL A   1      49.036  27.505  29.600  1.00  0.00     0.010 A 
ATOM     61  C   UNL A   1      49.860  26.572  32.108  1.00  0.00     0.020 A 
ATOM     62  C   UNL A   1      50.391  27.267  29.840  1.00  0.00     0.020 A 
ATOM     63  C   UNL A   1      50.796  26.817  31.098  1.00  0.00     0.054 A 
BRANCH  63  64
ATOM     64  S   UNL A   1      52.550  26.498  31.433  1.00  0.00     0.124 S 
ATOM     65  O   UNL A   1      52.523  25.108  31.885  1.00  0.00    -0.237 OA
ATOM     66  O   UNL A   1      53.174  26.724  30.132  1.00  0.00    -0.237 OA
ATOM     67  O   UNL A   1      52.890  27.480  32.459  1.00  0.00    -0.744 OA
ENDBRANCH  63  64
ENDBRANCH  37  58
ENDBRANCH  11  12
ENDBRANCH   4   6
ENDBRANCH   1   2
BRANCH   1  68
ATOM     68  C   UNL A   1      33.670  27.824  25.694  1.00  0.00     0.042 C 
BRANCH  68  69
ATOM     69  C   UNL A   1      33.117  26.430  25.440  1.00  0.00     0.118 C 
BRANCH  69  70
ATOM     70  N   UNL A   1      31.817  26.220  26.065  1.00  0.00    -0.352 N 
ATOM     71  C   UNL A   1      31.081  25.066  26.157  1.00  0.00     0.252 C 
ATOM     72  H   UNL A   1      31.411  27.016  26.478  1.00  0.00     0.163 HD
ATOM     73  O   UNL A   1      29.961  25.066  26.656  1.00  0.00    -0.269 OA
BRANCH  71  74
ATOM     74  C   UNL A   1      31.621  23.824  25.584  1.00  0.00     0.058 A 
ATOM     75  C   UNL A   1      32.326  22.977  26.441  1.00  0.00     0.016 A 
ATOM     76  C   UNL A   1      31.416  23.464  24.252  1.00  0.00     0.054 A 
ATOM     77  C   UNL A   1      32.761  21.732  25.981  1.00  0.00     0.009 A 
ATOM     78  C   UNL A   1      31.827  22.204  23.810  1.00  0.00     0.030 A 
ATOM     79  Cl  UNL A   1      30.653  24.511  23.107  1.00  0.00    -0.083 Cl
ATOM     80  C   UNL A   1      32.489  21.306  24.667  1.00  0.00    -0.017 A 
BRANCH  80  81
ATOM     81  C   UNL A   1      32.863  19.951  24.209  1.00  0.00    -0.015 A 
ATOM     82  C   UNL A   1      33.956  19.263  24.764  1.00  0.00     0.009 A 
ATOM     83  C   UNL A   1      32.152  19.316  23.177  1.00  0.00     0.054 A 
ATOM     84  C   UNL A   1      34.329  17.997  24.302  1.00  0.00     0.004 A 
ATOM     85  C   UNL A   1      32.522  18.051  22.727  1.00  0.00     0.116 A 
ATOM     86  C   UNL A   1      33.609  17.385  23.278  1.00  0.00     0.046 A 
BRANCH  85  87
ATOM     87  O   UNL A   1      31.782  17.496  21.725  1.00  0.00    -0.508 OA
ATOM     88  H   UNL A   1      32.207  17.100  20.991  1.00  0.00     0.293 HD
ENDBRANCH  85  87
ENDBRANCH  80  81
ENDBRANCH  71  74
ENDBRANCH  69  70
ENDBRANCH  68  69
ENDBRANCH   1  68
TORSDOF 15
ENDMDL
MODEL 2
REMARK VINA RESULT:     -11.4      1.064      1.404
REMARK SMILES O=C(NCCCNC(=O)c1ccc(-c2cccc(O)c2)cc1Cl)c1ccc(-c2c3nc(c(-c4ccc(S(=O)(=O)[O-])cc4)c4ccc([nH]4)c(-c4ccc(S(=O)(=O)[O-])cc4)c4nc(c(-c5ccc(S(=O)(=O)[O-])cc5)c5ccc2[nH]5)C=C4)C=C3)cc1
REMARK SMILES IDX 4 1 3 2 1 3 2 4 24 6 25 7 83 8 26 9 82 10 27 11 28 12 29 13
REMARK SMILES IDX 76 14 30 15 81 16 75 17 77 18 31 19 80 20 74 21 73 22 32 24
REMARK SMILES IDX 62 25 43 26 61 27 44 28 47 29 60 30 78 31 45 32 46 33 59 35
REMARK SMILES IDX 79 36 48 37 33 38 34 39 42 40 35 41 41 42 36 43 37 44 38 45
REMARK SMILES IDX 39 46 40 47 63 48 64 49 72 50 65 51 71 52 66 53 67 54 68 55
REMARK SMILES IDX 69 56 70 57 49 58 50 59 58 60 51 61 57 62 52 63 53 64 54 65
REMARK SMILES IDX 55 66 56 67 5 68 6 69 7 70 8 71 9 73 10 74 11 75 22 76 12 77
REMARK SMILES IDX 21 78 23 79 13 80 14 81 15 82 20 83 16 84 18 85 17 86 19 87
REMARK H PARENT 3 5 77 23 47 34 7 72 19 88
REMARK Flexibility Score: inf
ROOT
ATOM      1  C   UNL A   1      33.972  28.021  26.728  1.00  0.00     0.118 C 
ENDROOT
BRANCH   1   2
ATOM      2  N   UNL A   1      33.744  29.384  27.188  1.00  0.00    -0.352 N 
ATOM      3  O   UNL A   1      34.067  31.267  28.372  1.00  0.00    -0.269 OA
ATOM      4  C   UNL A   1      34.541  30.223  27.929  1.00  0.00     0.251 C 
ATOM      5  H   UNL A   1      32.877  29.768  26.925  1.00  0.00     0.163 HD
BRANCH   4   6
ATOM      6  C   UNL A   1      35.952  29.876  28.210  1.00  0.00     0.039 A 
ATOM      7  C   UNL A   1      36.954  30.131  27.273  1.00  0.00     0.014 A 
ATOM      8  C   UNL A   1      36.289  29.328  29.453  1.00  0.00     0.014 A 
ATOM      9  C   UNL A   1      38.254  29.700  27.512  1.00  0.00     0.010 A 
ATOM     10  C   UNL A   1      37.616  28.987  29.732  1.00  0.00     0.010 A 
ATOM     11  C   UNL A   1      38.607  29.146  28.752  1.00  0.00    -0.014 A 
BRANCH  11  12
ATOM     12  C   UNL A   1      40.033  28.826  29.019  1.00  0.00     0.031 A 
ATOM     13  C   UNL A   1      40.630  27.506  28.615  1.00  0.00     0.074 A 
ATOM     14  C   UNL A   1      40.801  29.769  29.603  1.00  0.00     0.049 A 
ATOM     15  N   UNL A   1      41.865  27.095  28.743  1.00  0.00    -0.248 NA
ATOM     16  C   UNL A   1      39.731  26.518  27.997  1.00  0.00     0.031 C 
ATOM     17  C   UNL A   1      40.327  31.082  30.054  1.00  0.00     0.029 A 
ATOM     18  N   UNL A   1      42.140  29.783  29.896  1.00  0.00    -0.354 N 
ATOM     19  C   UNL A   1      41.891  25.797  28.245  1.00  0.00     0.074 A 
ATOM     20  C   UNL A   1      40.542  25.482  27.824  1.00  0.00     0.031 C 
ATOM     21  C   UNL A   1      41.368  31.793  30.513  1.00  0.00     0.029 A 
ATOM     22  C   UNL A   1      42.568  30.967  30.451  1.00  0.00     0.049 A 
ATOM     23  H   UNL A   1      42.738  29.020  29.726  1.00  0.00     0.167 HD
ATOM     24  C   UNL A   1      42.943  24.950  28.147  1.00  0.00     0.031 A 
ATOM     25  C   UNL A   1      43.785  31.346  30.879  1.00  0.00     0.031 A 
ATOM     26  C   UNL A   1      44.286  25.275  28.553  1.00  0.00     0.049 A 
ATOM     27  C   UNL A   1      44.929  30.384  30.762  1.00  0.00     0.074 A 
ATOM     28  C   UNL A   1      45.426  24.494  28.456  1.00  0.00     0.029 A 
ATOM     29  N   UNL A   1      44.672  26.472  29.136  1.00  0.00    -0.354 N 
ATOM     30  N   UNL A   1      44.935  29.174  30.254  1.00  0.00    -0.248 NA
ATOM     31  C   UNL A   1      46.228  30.833  31.277  1.00  0.00     0.031 C 
ATOM     32  C   UNL A   1      46.493  25.204  29.019  1.00  0.00     0.029 A 
ATOM     33  C   UNL A   1      46.026  26.444  29.425  1.00  0.00     0.049 A 
ATOM     34  H   UNL A   1      44.071  27.230  29.318  1.00  0.00     0.167 HD
ATOM     35  C   UNL A   1      46.241  28.720  30.384  1.00  0.00     0.074 A 
ATOM     36  C   UNL A   1      47.001  29.794  30.992  1.00  0.00     0.031 C 
ATOM     37  C   UNL A   1      46.763  27.518  30.037  1.00  0.00     0.031 A 
BRANCH  24  38
ATOM     38  C   UNL A   1      42.692  23.573  27.593  1.00  0.00    -0.014 A 
ATOM     39  C   UNL A   1      42.947  23.273  26.243  1.00  0.00     0.010 A 
ATOM     40  C   UNL A   1      42.276  22.542  28.456  1.00  0.00     0.010 A 
ATOM     41  C   UNL A   1      42.773  21.972  25.762  1.00  0.00     0.020 A 
ATOM     42  C   UNL A   1      42.119  21.235  27.983  1.00  0.00     0.020 A 
ATOM     43  C   UNL A   1      42.359  20.961  26.635  1.00  0.00     0.054 A 
BRANCH  43  44
ATOM     44  S   UNL A   1      42.187  19.271  25.996  1.00  0.00     0.124 S 
ATOM     45  O   UNL A   1      42.662  18.474  27.126  1.00  0.00    -0.237 OA
ATOM     46  O   UNL A   1      40.755  19.174  25.720  1.00  0.00    -0.237 OA
ATOM     47  O   UNL A   1      43.049  19.255  24.817  1.00  0.00    -0.744 OA
ENDBRANCH  43  44
ENDBRANCH  24  38
BRANCH  25  48
ATOM     48  C   UNL A   1      43.971  32.692  31.484  1.00  0.00    -0.014 A 
ATOM     49  C   UNL A   1      43.837  32.884  32.869  1.00  0.00     0.010 A 
ATOM     50  C   UNL A   1      44.300  33.790  30.668  1.00  0.00     0.010 A 
ATOM     51  C   UNL A   1      44.011  34.154  33.425  1.00  0.00     0.020 A 
ATOM     52  C   UNL A   1      44.501  35.055  31.223  1.00  0.00     0.020 A 
ATOM     53  C   UNL A   1      44.340  35.233  32.598  1.00  0.00     0.054 A 
BRANCH  53  54
ATOM     54  S   UNL A   1      44.604  36.866  33.340  1.00  0.00     0.124 S 
ATOM     55  O   UNL A   1      43.991  36.702  34.654  1.00  0.00    -0.237 OA
ATOM     56  O   UNL A   1      46.060  36.990  33.332  1.00  0.00    -0.237 OA
ATOM     57  O   UNL A   1      43.906  37.770  32.429  1.00  0.00    -0.744 OA
ENDBRANCH  53  54
ENDBRANCH  25  48
BRANCH  37  58
ATOM     58  C   UNL A   1      48.228  27.312  30.295  1.00  0.00    -0.014 A 
ATOM     59  C   UNL A   1      49.192  27.754  29.371  1.00  0.00     0.010 A 
ATOM     60  C   UNL A   1      48.647  26.699  31.489  1.00  0.00     0.010 A 
ATOM     61  C   UNL A   1      50.552  27.553  29.623  1.00  0.00     0.020 A 
ATOM     62  C   UNL A   1      50.007  26.518  31.754  1.00  0.00     0.020 A 
ATOM     63  C   UNL A   1      50.950  26.932  30.811  1.00  0.00     0.054 A 
BRANCH  63  64
ATOM     64  S   UNL A   1      52.721  26.712  31.133  1.00  0.00     0.124 S 
ATOM     65  O   UNL A   1      52.715  25.661  32.149  1.00  0.00    -0.237 OA
ATOM     66  O   UNL A   1      53.241  26.319  29.826  1.00  0.00    -0.237 OA
ATOM     67  O   UNL A   1      53.154  28.027  31.599  1.00  0.00    -0.744 OA
ENDBRANCH  63  64
ENDBRANCH  37  58
ENDBRANCH  11  12
ENDBRANCH   4   6
ENDBRANCH   1   2
BRANCH   1  68
ATOM     68  C   UNL A   1      32.916  27.551  25.737  1.00  0.00     0.042 C 
BRANCH  68  69
ATOM     69  C   UNL A   1      33.463  27.249  24.351  1.00  0.00     0.118 C 
BRANCH  69  70
ATOM     70  N   UNL A   1      32.519  27.581  23.291  1.00  0.00    -0.352 N 
ATOM     71  C   UNL A   1      31.773  26.739  22.506  1.00  0.00     0.252 C 
ATOM     72  H   UNL A   1      32.401  28.542  23.115  1.00  0.00     0.163 HD
ATOM     73  O   UNL A   1      31.070  27.174  21.600  1.00  0.00    -0.269 OA
BRANCH  71  74
ATOM     74  C   UNL A   1      31.873  25.287  22.715  1.00  0.00     0.058 A 
ATOM     75  C   UNL A   1      32.776  24.585  21.914  1.00  0.00     0.016 A 
ATOM     76  C   UNL A   1      31.136  24.620  23.694  1.00  0.00     0.054 A 
ATOM     77  C   UNL A   1      32.996  23.226  22.147  1.00  0.00     0.009 A 
ATOM     78  C   UNL A   1      31.386  23.268  23.940  1.00  0.00     0.030 A 
ATOM     79  Cl  UNL A   1      29.920  25.402  24.643  1.00  0.00    -0.083 Cl
ATOM     80  C   UNL A   1      32.332  22.548  23.187  1.00  0.00    -0.017 A 
BRANCH  80  81
ATOM     81  C   UNL A   1      32.636  21.135  23.497  1.00  0.00    -0.015 A 
ATOM     82  C   UNL A   1      33.465  20.781  24.575  1.00  0.00     0.009 A 
ATOM     83  C   UNL A   1      32.126  20.095  22.701  1.00  0.00     0.054 A 
ATOM     84  C   UNL A   1      33.779  19.445  24.843  1.00  0.00     0.004 A 
ATOM     85  C   UNL A   1      32.434  18.766  22.978  1.00  0.00     0.116 A 
ATOM     86  C   UNL A   1      33.261  18.430  24.041  1.00  0.00     0.046 A 
BRANCH  85  87
ATOM     87  O   UNL A   1      31.899  17.812  22.164  1.00  0.00    -0.508 OA
ATOM     88  H   UNL A   1      31.664  18.024  21.283  1.00  0.00     0.293 HD
ENDBRANCH  85  87
ENDBRANCH  80  81
ENDBRANCH  71  74
ENDBRANCH  69  70
ENDBRANCH  68  69
ENDBRANCH   1  68
TORSDOF 15
ENDMDL
MODEL 3
REMARK VINA RESULT:     -11.3      1.286      8.482
REMARK SMILES O=C(NCCCNC(=O)c1ccc(-c2cccc(O)c2)cc1Cl)c1ccc(-c2c3nc(c(-c4ccc(S(=O)(=O)[O-])cc4)c4ccc([nH]4)c(-c4ccc(S(=O)(=O)[O-])cc4)c4nc(c(-c5ccc(S(=O)(=O)[O-])cc5)c5ccc2[nH]5)C=C4)C=C3)cc1
REMARK SMILES IDX 4 1 3 2 1 3 2 4 24 6 25 7 83 8 26 9 82 10 27 11 28 12 29 13
REMARK SMILES IDX 76 14 30 15 81 16 75 17 77 18 31 19 80 20 74 21 73 22 32 24
REMARK SMILES IDX 62 25 43 26 61 27 44 28 47 29 60 30 78 31 45 32 46 33 59 35
REMARK SMILES IDX 79 36 48 37 33 38 34 39 42 40 35 41 41 42 36 43 37 44 38 45
REMARK SMILES IDX 39 46 40 47 63 48 64 49 72 50 65 51 71 52 66 53 67 54 68 55
REMARK SMILES IDX 69 56 70 57 49 58 50 59 58 60 51 61 57 62 52 63 53 64 54 65
REMARK SMILES IDX 55 66 56 67 5 68 6 69 7 70 8 71 9 73 10 74 11 75 22 76 12 77
REMARK SMILES IDX 21 78 23 79 13 80 14 81 15 82 20 83 16 84 18 85 17 86 19 87
REMARK H PARENT 3 5 77 23 47 34 7 72 19 88
REMARK Flexibility Score: inf
ROOT
ATOM      1  C   UNL A   1      34.014  28.040  26.589  1.00  0.00     0.118 C 
ENDROOT
BRANCH   1   2
ATOM      2  N   UNL A   1      33.759  29.406  27.029  1.00  0.00    -0.352 N 
ATOM      3  O   UNL A   1      34.027  31.303  28.202  1.00  0.00    -0.269 OA
ATOM      4  C   UNL A   1      34.525  30.260  27.783  1.00  0.00     0.251 C 
ATOM      5  H   UNL A   1      32.894  29.776  26.738  1.00  0.00     0.163 HD
BRANCH   4   6
ATOM      6  C   UNL A   1      35.932  29.932  28.106  1.00  0.00     0.039 A 
ATOM      7  C   UNL A   1      36.948  30.127  27.170  1.00  0.00     0.014 A 
ATOM      8  C   UNL A   1      36.250  29.465  29.386  1.00  0.00     0.014 A 
ATOM      9  C   UNL A   1      38.244  29.713  27.454  1.00  0.00     0.010 A 
ATOM     10  C   UNL A   1      37.573  29.143  29.706  1.00  0.00     0.010 A 
ATOM     11  C   UNL A   1      38.578  29.239  28.733  1.00  0.00    -0.014 A 
BRANCH  11  12
ATOM     12  C   UNL A   1      39.999  28.937  29.040  1.00  0.00     0.031 A 
ATOM     13  C   UNL A   1      40.879  29.936  29.741  1.00  0.00     0.074 A 
ATOM     14  C   UNL A   1      40.482  27.722  28.708  1.00  0.00     0.049 A 
ATOM     15  N   UNL A   1      42.127  29.806  30.114  1.00  0.00    -0.248 NA
ATOM     16  C   UNL A   1      40.293  31.248  30.060  1.00  0.00     0.031 C 
ATOM     17  C   UNL A   1      39.726  26.677  28.010  1.00  0.00     0.029 A 
ATOM     18  N   UNL A   1      41.707  27.149  28.933  1.00  0.00    -0.354 N 
ATOM     19  C   UNL A   1      42.484  31.021  30.689  1.00  0.00     0.074 A 
ATOM     20  C   UNL A   1      41.324  31.883  30.603  1.00  0.00     0.031 C 
ATOM     21  C   UNL A   1      40.483  25.574  27.914  1.00  0.00     0.029 A 
ATOM     22  C   UNL A   1      41.796  25.852  28.482  1.00  0.00     0.049 A 
ATOM     23  H   UNL A   1      42.450  27.619  29.374  1.00  0.00     0.167 HD
ATOM     24  C   UNL A   1      43.669  31.380  31.238  1.00  0.00     0.031 A 
ATOM     25  C   UNL A   1      42.823  24.983  28.507  1.00  0.00     0.031 A 
ATOM     26  C   UNL A   1      44.814  30.513  31.333  1.00  0.00     0.049 A 
ATOM     27  C   UNL A   1      44.124  25.413  29.117  1.00  0.00     0.074 A 
ATOM     28  C   UNL A   1      46.046  30.776  31.909  1.00  0.00     0.029 A 
ATOM     29  N   UNL A   1      44.874  29.218  30.840  1.00  0.00    -0.354 N 
ATOM     30  N   UNL A   1      44.425  26.556  29.687  1.00  0.00    -0.248 NA
ATOM     31  C   UNL A   1      45.223  24.441  29.086  1.00  0.00     0.031 C 
ATOM     32  C   UNL A   1      46.865  29.656  31.725  1.00  0.00     0.029 A 
ATOM     33  C   UNL A   1      46.126  28.678  31.077  1.00  0.00     0.049 A 
ATOM     34  H   UNL A   1      44.134  28.752  30.389  1.00  0.00     0.167 HD
ATOM     35  C   UNL A   1      45.750  26.436  30.086  1.00  0.00     0.074 A 
ATOM     36  C   UNL A   1      46.182  25.103  29.720  1.00  0.00     0.031 C 
ATOM     37  C   UNL A   1      46.540  27.352  30.697  1.00  0.00     0.031 A 
BRANCH  24  38
ATOM     38  C   UNL A   1      43.805  32.783  31.768  1.00  0.00    -0.014 A 
ATOM     39  C   UNL A   1      44.244  33.833  30.943  1.00  0.00     0.010 A 
ATOM     40  C   UNL A   1      43.408  33.069  33.087  1.00  0.00     0.010 A 
ATOM     41  C   UNL A   1      44.299  35.141  31.434  1.00  0.00     0.020 A 
ATOM     42  C   UNL A   1      43.444  34.378  33.576  1.00  0.00     0.020 A 
ATOM     43  C   UNL A   1      43.900  35.406  32.747  1.00  0.00     0.054 A 
BRANCH  43  44
ATOM     44  S   UNL A   1      43.936  37.119  33.344  1.00  0.00     0.124 S 
ATOM     45  O   UNL A   1      43.891  37.873  32.093  1.00  0.00    -0.237 OA
ATOM     46  O   UNL A   1      42.730  37.199  34.166  1.00  0.00    -0.237 OA
ATOM     47  O   UNL A   1      45.195  37.207  34.079  1.00  0.00    -0.744 OA
ENDBRANCH  43  44
ENDBRANCH  24  38
BRANCH  25  48
ATOM     48  C   UNL A   1      42.663  23.631  27.909  1.00  0.00    -0.014 A 
ATOM     49  C   UNL A   1      42.020  22.603  28.617  1.00  0.00     0.010 A 
ATOM     50  C   UNL A   1      43.146  23.374  26.612  1.00  0.00     0.010 A 
ATOM     51  C   UNL A   1      41.879  21.335  28.046  1.00  0.00     0.020 A 
ATOM     52  C   UNL A   1      42.982  22.117  26.028  1.00  0.00     0.020 A 
ATOM     53  C   UNL A   1      42.363  21.099  26.755  1.00  0.00     0.054 A 
BRANCH  53  54
ATOM     54  S   UNL A   1      42.134  19.461  26.011  1.00  0.00     0.124 S 
ATOM     55  O   UNL A   1      40.686  19.412  25.834  1.00  0.00    -0.237 OA
ATOM     56  O   UNL A   1      42.920  19.554  24.784  1.00  0.00    -0.237 OA
ATOM     57  O   UNL A   1      42.674  18.552  27.020  1.00  0.00    -0.744 OA
ENDBRANCH  53  54
ENDBRANCH  25  48
BRANCH  37  58
ATOM     58  C   UNL A   1      47.946  26.932  31.019  1.00  0.00    -0.014 A 
ATOM     59  C   UNL A   1      49.010  27.252  30.156  1.00  0.00     0.010 A 
ATOM     60  C   UNL A   1      48.211  26.237  32.212  1.00  0.00     0.010 A 
ATOM     61  C   UNL A   1      50.312  26.852  30.467  1.00  0.00     0.020 A 
ATOM     62  C   UNL A   1      49.515  25.857  32.537  1.00  0.00     0.020 A 
ATOM     63  C   UNL A   1      50.555  26.153  31.653  1.00  0.00     0.054 A 
BRANCH  63  64
ATOM     64  S   UNL A   1      52.258  25.672  32.053  1.00  0.00     0.124 S 
ATOM     65  O   UNL A   1      52.945  25.908  30.785  1.00  0.00    -0.237 OA
ATOM     66  O   UNL A   1      52.607  26.588  33.136  1.00  0.00    -0.237 OA
ATOM     67  O   UNL A   1      52.138  24.271  32.445  1.00  0.00    -0.744 OA
ENDBRANCH  63  64
ENDBRANCH  37  58
ENDBRANCH  11  12
ENDBRANCH   4   6
ENDBRANCH   1   2
BRANCH   1  68
ATOM     68  C   UNL A   1      32.981  27.542  25.589  1.00  0.00     0.042 C 
BRANCH  68  69
ATOM     69  C   UNL A   1      33.482  27.504  24.153  1.00  0.00     0.118 C 
BRANCH  69  70
ATOM     70  N   UNL A   1      32.450  27.865  23.189  1.00  0.00    -0.352 N 
ATOM     71  C   UNL A   1      31.586  27.048  22.504  1.00  0.00     0.252 C 
ATOM     72  H   UNL A   1      32.361  28.828  23.005  1.00  0.00     0.163 HD
ATOM     73  O   UNL A   1      30.815  27.503  21.665  1.00  0.00    -0.269 OA
BRANCH  71  74
ATOM     74  C   UNL A   1      31.637  25.597  22.734  1.00  0.00     0.058 A 
ATOM     75  C   UNL A   1      32.595  24.869  22.024  1.00  0.00     0.016 A 
ATOM     76  C   UNL A   1      30.800  24.955  23.646  1.00  0.00     0.054 A 
ATOM     77  C   UNL A   1      32.764  23.508  22.288  1.00  0.00     0.009 A 
ATOM     78  C   UNL A   1      30.998  23.600  23.926  1.00  0.00     0.030 A 
ATOM     79  Cl  UNL A   1      29.519  25.770  24.474  1.00  0.00    -0.083 Cl
ATOM     80  C   UNL A   1      31.995  22.855  23.268  1.00  0.00    -0.017 A 
BRANCH  80  81
ATOM     81  C   UNL A   1      32.239  21.439  23.617  1.00  0.00    -0.015 A 
ATOM     82  C   UNL A   1      32.133  20.418  22.656  1.00  0.00     0.009 A 
ATOM     83  C   UNL A   1      32.559  21.063  24.932  1.00  0.00     0.054 A 
ATOM     84  C   UNL A   1      32.329  19.075  22.998  1.00  0.00     0.004 A 
ATOM     85  C   UNL A   1      32.763  19.726  25.265  1.00  0.00     0.116 A 
ATOM     86  C   UNL A   1      32.647  18.726  24.309  1.00  0.00     0.046 A 
BRANCH  85  87
ATOM     87  O   UNL A   1      33.074  19.439  26.560  1.00  0.00    -0.508 OA
ATOM     88  H   UNL A   1      33.707  19.957  27.017  1.00  0.00     0.293 HD
ENDBRANCH  85  87
ENDBRANCH  80  81
ENDBRANCH  71  74
ENDBRANCH  69  70
ENDBRANCH  68  69
ENDBRANCH   1  68
TORSDOF 15
ENDMDL
