MODEL 1
REMARK VINA RESULT:     -11.6      0.000      0.000
REMARK SMILES CCOc1ccc(-n2ncc(C(=O)NCCCNC(=O)c3ccc(-c4c5nc(c(-c6ccc(S(=O)(=O)[O-])cc6)c6ccc([nH]6)c(-c6ccc(S(=O)(=O)[O-])cc6)c6nc(c(-c7ccc(S(=O)(=O)[O-])cc7)c7ccc4[nH]7)C=C6)C=C5)cc3)c2C)nn1
REMARK SMILES IDX 16 1 15 2 14 3 12 4 13 5 11 7 8 8 9 9 81 10 10 11 82 12 7 13
REMARK SMILES IDX 4 14 5 15 84 16 6 17 83 18 3 19 2 20 1 21 17 22 18 23 19 24
REMARK SMILES IDX 20 26 21 27 22 28 80 29 23 30 79 31 24 32 25 33 26 34 73 35
REMARK SMILES IDX 27 36 78 37 72 38 74 39 28 40 77 41 71 42 70 43 29 45 59 46
REMARK SMILES IDX 40 47 58 48 41 49 44 50 57 51 75 52 42 53 43 54 56 56 76 57
REMARK SMILES IDX 45 58 30 59 31 60 39 61 32 62 38 63 33 64 34 65 35 66 36 67
REMARK SMILES IDX 37 68 60 69 61 70 69 71 62 72 68 73 63 74 64 75 65 76 66 77
REMARK SMILES IDX 67 78 46 79 47 80 55 81 48 82 54 83 49 84 50 85 51 86 52 87
REMARK SMILES IDX 53 88
REMARK H PARENT 14 6 18 25 74 44 44 55
REMARK Flexibility Score: inf
ROOT
ATOM      1  C   UNL A   1      37.740  19.526  24.939  1.00  0.00     0.042 C 
ENDROOT
BRANCH   1   2
ATOM      2  C   UNL A   1      36.531  20.468  24.994  1.00  0.00     0.118 C 
BRANCH   2   3
ATOM      3  N   UNL A   1      35.272  19.745  24.950  1.00  0.00    -0.352 N 
ATOM      4  C   UNL A   1      34.006  20.053  25.370  1.00  0.00     0.254 C 
ATOM      5  O   UNL A   1      33.130  19.212  25.124  1.00  0.00    -0.269 OA
ATOM      6  H   UNL A   1      35.344  18.853  24.537  1.00  0.00     0.163 HD
BRANCH   4   7
ATOM      7  C   UNL A   1      33.685  21.319  26.013  1.00  0.00     0.081 A 
ATOM      8  N   UNL A   1      33.126  23.464  26.309  1.00  0.00    -0.217 N 
ATOM      9  N   UNL A   1      33.572  23.032  27.521  1.00  0.00    -0.174 NA
ATOM     10  C   UNL A   1      33.170  22.448  25.366  1.00  0.00     0.056 A 
ATOM     11  C   UNL A   1      33.787  21.733  27.352  1.00  0.00     0.149 A 
ATOM     12  C   UNL A   1      32.827  22.618  23.923  1.00  0.00     0.068 C 
BRANCH   8  13
ATOM     13  C   UNL A   1      32.722  24.821  26.182  1.00  0.00     0.176 A 
ATOM     14  C   UNL A   1      32.050  27.433  26.020  1.00  0.00     0.233 A 
ATOM     15  C   UNL A   1      33.221  27.030  25.415  1.00  0.00     0.074 A 
ATOM     16  N   UNL A   1      31.234  26.583  26.676  1.00  0.00    -0.110 NA
ATOM     17  C   UNL A   1      33.566  25.692  25.499  1.00  0.00     0.057 A 
ATOM     18  N   UNL A   1      31.566  25.252  26.739  1.00  0.00    -0.127 NA
BRANCH  14  19
ATOM     19  O   UNL A   1      31.737  28.768  26.035  1.00  0.00    -0.477 OA
BRANCH  19  20
ATOM     20  C   UNL A   1      32.920  29.561  25.911  1.00  0.00     0.228 C 
ATOM     21  C   UNL A   1      33.371  30.069  27.273  1.00  0.00     0.049 C 
ENDBRANCH  19  20
ENDBRANCH  14  19
ENDBRANCH   8  13
ENDBRANCH   4   7
ENDBRANCH   2   3
ENDBRANCH   1   2
BRANCH   1  22
ATOM     22  C   UNL A   1      38.962  20.155  25.594  1.00  0.00     0.118 C 
BRANCH  22  23
ATOM     23  N   UNL A   1      40.059  19.190  25.759  1.00  0.00    -0.352 N 
ATOM     24  C   UNL A   1      41.403  19.423  25.987  1.00  0.00     0.251 C 
ATOM     25  H   UNL A   1      39.800  18.242  25.699  1.00  0.00     0.163 HD
ATOM     26  O   UNL A   1      42.231  18.544  25.774  1.00  0.00    -0.269 OA
BRANCH  24  27
ATOM     27  C   UNL A   1      41.818  20.738  26.502  1.00  0.00     0.039 A 
ATOM     28  C   UNL A   1      42.378  21.727  25.686  1.00  0.00     0.014 A 
ATOM     29  C   UNL A   1      41.601  20.975  27.853  1.00  0.00     0.014 A 
ATOM     30  C   UNL A   1      42.647  22.979  26.240  1.00  0.00     0.010 A 
ATOM     31  C   UNL A   1      41.645  22.250  28.330  1.00  0.00     0.010 A 
ATOM     32  C   UNL A   1      42.263  23.228  27.565  1.00  0.00    -0.014 A 
BRANCH  32  33
ATOM     33  C   UNL A   1      42.369  24.539  28.190  1.00  0.00     0.031 A 
ATOM     34  C   UNL A   1      41.154  25.371  28.006  1.00  0.00     0.074 A 
ATOM     35  C   UNL A   1      43.327  24.804  29.109  1.00  0.00     0.049 A 
ATOM     36  N   UNL A   1      41.005  26.387  27.222  1.00  0.00    -0.248 NA
ATOM     37  C   UNL A   1      39.887  24.889  28.595  1.00  0.00     0.031 C 
ATOM     38  C   UNL A   1      44.366  23.893  29.620  1.00  0.00     0.029 A 
ATOM     39  N   UNL A   1      43.494  25.895  29.898  1.00  0.00    -0.354 N 
ATOM     40  C   UNL A   1      39.715  26.847  27.463  1.00  0.00     0.074 A 
ATOM     41  C   UNL A   1      39.011  25.744  28.063  1.00  0.00     0.031 C 
ATOM     42  C   UNL A   1      44.865  24.375  30.780  1.00  0.00     0.029 A 
ATOM     43  C   UNL A   1      44.314  25.697  31.008  1.00  0.00     0.049 A 
ATOM     44  H   UNL A   1      43.067  26.760  29.702  1.00  0.00     0.167 HD
ATOM     45  C   UNL A   1      39.441  28.183  27.497  1.00  0.00     0.031 A 
ATOM     46  C   UNL A   1      44.498  26.549  32.053  1.00  0.00     0.031 A 
ATOM     47  C   UNL A   1      40.555  28.950  26.991  1.00  0.00     0.049 A 
ATOM     48  C   UNL A   1      44.048  27.886  31.591  1.00  0.00     0.074 A 
ATOM     49  C   UNL A   1      41.266  28.993  25.809  1.00  0.00     0.029 A 
ATOM     50  N   UNL A   1      41.353  29.550  27.940  1.00  0.00    -0.354 N 
ATOM     51  N   UNL A   1      44.640  28.546  30.635  1.00  0.00    -0.248 NA
ATOM     52  C   UNL A   1      42.668  28.263  31.848  1.00  0.00     0.031 C 
ATOM     53  C   UNL A   1      42.621  29.203  26.200  1.00  0.00     0.029 A 
ATOM     54  C   UNL A   1      42.661  29.368  27.586  1.00  0.00     0.049 A 
ATOM     55  H   UNL A   1      41.034  30.028  28.739  1.00  0.00     0.167 HD
ATOM     56  C   UNL A   1      43.603  29.080  29.882  1.00  0.00     0.074 A 
ATOM     57  C   UNL A   1      42.420  28.961  30.736  1.00  0.00     0.031 C 
ATOM     58  C   UNL A   1      43.749  29.287  28.539  1.00  0.00     0.031 A 
BRANCH  45  59
ATOM     59  C   UNL A   1      38.423  28.816  28.426  1.00  0.00    -0.014 A 
ATOM     60  C   UNL A   1      37.600  29.839  27.907  1.00  0.00     0.010 A 
ATOM     61  C   UNL A   1      38.442  28.672  29.828  1.00  0.00     0.010 A 
ATOM     62  C   UNL A   1      36.931  30.736  28.748  1.00  0.00     0.020 A 
ATOM     63  C   UNL A   1      37.742  29.533  30.676  1.00  0.00     0.020 A 
ATOM     64  C   UNL A   1      37.025  30.586  30.129  1.00  0.00     0.054 A 
BRANCH  64  65
ATOM     65  S   UNL A   1      36.254  31.816  31.208  1.00  0.00     0.124 S 
ATOM     66  O   UNL A   1      34.974  32.035  30.541  1.00  0.00    -0.237 OA
ATOM     67  O   UNL A   1      36.194  31.109  32.483  1.00  0.00    -0.237 OA
ATOM     68  O   UNL A   1      37.188  32.938  31.164  1.00  0.00    -0.744 OA
ENDBRANCH  64  65
ENDBRANCH  45  59
BRANCH  46  69
ATOM     69  C   UNL A   1      44.735  26.247  33.492  1.00  0.00    -0.014 A 
ATOM     70  C   UNL A   1      45.486  27.121  34.306  1.00  0.00     0.010 A 
ATOM     71  C   UNL A   1      43.974  25.254  34.139  1.00  0.00     0.010 A 
ATOM     72  C   UNL A   1      45.419  27.048  35.711  1.00  0.00     0.020 A 
ATOM     73  C   UNL A   1      43.906  25.173  35.539  1.00  0.00     0.020 A 
ATOM     74  C   UNL A   1      44.609  26.087  36.319  1.00  0.00     0.054 A 
BRANCH  74  75
ATOM     75  S   UNL A   1      44.377  26.119  38.126  1.00  0.00     0.124 S 
ATOM     76  O   UNL A   1      42.963  26.454  38.254  1.00  0.00    -0.237 OA
ATOM     77  O   UNL A   1      44.742  24.761  38.520  1.00  0.00    -0.237 OA
ATOM     78  O   UNL A   1      45.303  27.159  38.573  1.00  0.00    -0.744 OA
ENDBRANCH  74  75
ENDBRANCH  46  69
BRANCH  58  79
ATOM     79  C   UNL A   1      45.141  29.241  27.953  1.00  0.00    -0.014 A 
ATOM     80  C   UNL A   1      46.013  30.346  27.876  1.00  0.00     0.010 A 
ATOM     81  C   UNL A   1      45.633  27.972  27.600  1.00  0.00     0.010 A 
ATOM     82  C   UNL A   1      47.336  30.183  27.433  1.00  0.00     0.020 A 
ATOM     83  C   UNL A   1      46.951  27.801  27.178  1.00  0.00     0.020 A 
ATOM     84  C   UNL A   1      47.795  28.907  27.086  1.00  0.00     0.054 A 
BRANCH  84  85
ATOM     85  S   UNL A   1      49.513  28.685  26.541  1.00  0.00     0.124 S 
ATOM     86  O   UNL A   1      49.353  28.099  25.214  1.00  0.00    -0.237 OA
ATOM     87  O   UNL A   1      50.041  30.047  26.568  1.00  0.00    -0.237 OA
ATOM     88  O   UNL A   1      50.084  27.789  27.547  1.00  0.00    -0.744 OA
ENDBRANCH  84  85
ENDBRANCH  58  79
ENDBRANCH  32  33
ENDBRANCH  24  27
ENDBRANCH  22  23
ENDBRANCH   1  22
TORSDOF 16
ENDMDL
MODEL 2
REMARK VINA RESULT:     -11.6      3.167      8.389
REMARK SMILES CCOc1ccc(-n2ncc(C(=O)NCCCNC(=O)c3ccc(-c4c5nc(c(-c6ccc(S(=O)(=O)[O-])cc6)c6ccc([nH]6)c(-c6ccc(S(=O)(=O)[O-])cc6)c6nc(c(-c7ccc(S(=O)(=O)[O-])cc7)c7ccc4[nH]7)C=C6)C=C5)cc3)c2C)nn1
REMARK SMILES IDX 16 1 15 2 14 3 12 4 13 5 11 7 8 8 9 9 81 10 10 11 82 12 7 13
REMARK SMILES IDX 4 14 5 15 84 16 6 17 83 18 3 19 2 20 1 21 17 22 18 23 19 24
REMARK SMILES IDX 20 26 21 27 22 28 80 29 23 30 79 31 24 32 25 33 26 34 73 35
REMARK SMILES IDX 27 36 78 37 72 38 74 39 28 40 77 41 71 42 70 43 29 45 59 46
REMARK SMILES IDX 40 47 58 48 41 49 44 50 57 51 75 52 42 53 43 54 56 56 76 57
REMARK SMILES IDX 45 58 30 59 31 60 39 61 32 62 38 63 33 64 34 65 35 66 36 67
REMARK SMILES IDX 37 68 60 69 61 70 69 71 62 72 68 73 63 74 64 75 65 76 66 77
REMARK SMILES IDX 67 78 46 79 47 80 55 81 48 82 54 83 49 84 50 85 51 86 52 87
REMARK SMILES IDX 53 88
REMARK H PARENT 14 6 18 25 74 44 44 55
REMARK Flexibility Score: inf
ROOT
ATOM      1  C   UNL A   1      32.290  29.020  26.092  1.00  0.00     0.042 C 
ENDROOT
BRANCH   1   2
ATOM      2  C   UNL A   1      32.872  29.344  24.712  1.00  0.00     0.118 C 
BRANCH   2   3
ATOM      3  N   UNL A   1      31.863  29.297  23.668  1.00  0.00    -0.352 N 
ATOM      4  C   UNL A   1      31.466  28.317  22.798  1.00  0.00     0.254 C 
ATOM      5  O   UNL A   1      30.516  28.598  22.056  1.00  0.00    -0.269 OA
ATOM      6  H   UNL A   1      31.366  30.141  23.563  1.00  0.00     0.163 HD
BRANCH   4   7
ATOM      7  C   UNL A   1      32.079  26.996  22.783  1.00  0.00     0.081 A 
ATOM      8  N   UNL A   1      32.501  24.850  23.249  1.00  0.00    -0.217 N 
ATOM      9  N   UNL A   1      33.587  25.293  22.556  1.00  0.00    -0.174 NA
ATOM     10  C   UNL A   1      31.556  25.853  23.399  1.00  0.00     0.056 A 
ATOM     11  C   UNL A   1      33.265  26.529  22.192  1.00  0.00     0.149 A 
ATOM     12  C   UNL A   1      30.291  25.714  24.179  1.00  0.00     0.068 C 
BRANCH   8  13
ATOM     13  C   UNL A   1      32.497  23.505  23.710  1.00  0.00     0.176 A 
ATOM     14  C   UNL A   1      32.368  20.941  24.551  1.00  0.00     0.233 A 
ATOM     15  C   UNL A   1      32.326  21.177  23.193  1.00  0.00     0.074 A 
ATOM     16  N   UNL A   1      32.476  21.927  25.463  1.00  0.00    -0.110 NA
ATOM     17  C   UNL A   1      32.390  22.491  22.762  1.00  0.00     0.057 A 
ATOM     18  N   UNL A   1      32.564  23.229  25.033  1.00  0.00    -0.127 NA
BRANCH  14  19
ATOM     19  O   UNL A   1      32.205  19.657  25.005  1.00  0.00    -0.477 OA
BRANCH  19  20
ATOM     20  C   UNL A   1      33.346  18.861  24.677  1.00  0.00     0.228 C 
ATOM     21  C   UNL A   1      32.933  17.636  23.873  1.00  0.00     0.049 C 
ENDBRANCH  19  20
ENDBRANCH  14  19
ENDBRANCH   8  13
ENDBRANCH   4   7
ENDBRANCH   2   3
ENDBRANCH   1   2
BRANCH   1  22
ATOM     22  C   UNL A   1      33.219  29.481  27.207  1.00  0.00     0.118 C 
BRANCH  22  23
ATOM     23  N   UNL A   1      33.452  30.932  27.168  1.00  0.00    -0.352 N 
ATOM     24  C   UNL A   1      34.461  31.673  27.756  1.00  0.00     0.251 C 
ATOM     25  H   UNL A   1      32.796  31.451  26.649  1.00  0.00     0.163 HD
ATOM     26  O   UNL A   1      34.336  32.883  27.907  1.00  0.00    -0.269 OA
BRANCH  24  27
ATOM     27  C   UNL A   1      35.691  30.985  28.182  1.00  0.00     0.039 A 
ATOM     28  C   UNL A   1      36.021  29.695  27.755  1.00  0.00     0.014 A 
ATOM     29  C   UNL A   1      36.544  31.694  29.019  1.00  0.00     0.014 A 
ATOM     30  C   UNL A   1      37.256  29.162  28.128  1.00  0.00     0.010 A 
ATOM     31  C   UNL A   1      37.828  31.272  29.187  1.00  0.00     0.010 A 
ATOM     32  C   UNL A   1      38.155  29.971  28.837  1.00  0.00    -0.014 A 
BRANCH  32  33
ATOM     33  C   UNL A   1      39.517  29.561  29.149  1.00  0.00     0.031 A 
ATOM     34  C   UNL A   1      39.735  29.319  30.597  1.00  0.00     0.074 A 
ATOM     35  C   UNL A   1      40.359  29.128  28.181  1.00  0.00     0.049 A 
ATOM     36  N   UNL A   1      40.375  30.067  31.433  1.00  0.00    -0.248 NA
ATOM     37  C   UNL A   1      38.969  28.233  31.242  1.00  0.00     0.031 C 
ATOM     38  C   UNL A   1      40.087  28.995  26.740  1.00  0.00     0.029 A 
ATOM     39  N   UNL A   1      41.593  28.573  28.290  1.00  0.00    -0.354 N 
ATOM     40  C   UNL A   1      40.344  29.374  32.639  1.00  0.00     0.074 A 
ATOM     41  C   UNL A   1      39.249  28.446  32.530  1.00  0.00     0.031 C 
ATOM     42  C   UNL A   1      41.006  28.178  26.176  1.00  0.00     0.029 A 
ATOM     43  C   UNL A   1      42.021  27.870  27.165  1.00  0.00     0.049 A 
ATOM     44  H   UNL A   1      42.142  28.660  29.102  1.00  0.00     0.167 HD
ATOM     45  C   UNL A   1      41.429  29.355  33.465  1.00  0.00     0.031 A 
ATOM     46  C   UNL A   1      43.115  27.067  27.068  1.00  0.00     0.031 A 
ATOM     47  C   UNL A   1      42.410  30.330  33.051  1.00  0.00     0.049 A 
ATOM     48  C   UNL A   1      44.005  27.429  28.200  1.00  0.00     0.074 A 
ATOM     49  C   UNL A   1      42.420  31.697  32.856  1.00  0.00     0.029 A 
ATOM     50  N   UNL A   1      43.494  29.837  32.360  1.00  0.00    -0.354 N 
ATOM     51  N   UNL A   1      44.573  28.598  28.313  1.00  0.00    -0.248 NA
ATOM     52  C   UNL A   1      43.870  26.679  29.437  1.00  0.00     0.031 C 
ATOM     53  C   UNL A   1      43.232  31.899  31.701  1.00  0.00     0.029 A 
ATOM     54  C   UNL A   1      43.749  30.665  31.302  1.00  0.00     0.049 A 
ATOM     55  H   UNL A   1      43.999  29.023  32.588  1.00  0.00     0.167 HD
ATOM     56  C   UNL A   1      44.450  28.919  29.657  1.00  0.00     0.074 A 
ATOM     57  C   UNL A   1      44.106  27.658  30.316  1.00  0.00     0.031 C 
ATOM     58  C   UNL A   1      44.345  30.222  30.058  1.00  0.00     0.031 A 
BRANCH  45  59
ATOM     59  C   UNL A   1      41.834  28.158  34.305  1.00  0.00    -0.014 A 
ATOM     60  C   UNL A   1      42.009  28.353  35.692  1.00  0.00     0.010 A 
ATOM     61  C   UNL A   1      42.333  26.954  33.768  1.00  0.00     0.010 A 
ATOM     62  C   UNL A   1      42.745  27.450  36.469  1.00  0.00     0.020 A 
ATOM     63  C   UNL A   1      43.029  26.024  34.543  1.00  0.00     0.020 A 
ATOM     64  C   UNL A   1      43.266  26.300  35.881  1.00  0.00     0.054 A 
BRANCH  64  65
ATOM     65  S   UNL A   1      44.310  25.198  36.864  1.00  0.00     0.124 S 
ATOM     66  O   UNL A   1      43.798  25.426  38.211  1.00  0.00    -0.237 OA
ATOM     67  O   UNL A   1      44.012  23.894  36.281  1.00  0.00    -0.237 OA
ATOM     68  O   UNL A   1      45.661  25.696  36.610  1.00  0.00    -0.744 OA
ENDBRANCH  64  65
ENDBRANCH  45  59
BRANCH  46  69
ATOM     69  C   UNL A   1      43.310  25.821  26.276  1.00  0.00    -0.014 A 
ATOM     70  C   UNL A   1      44.409  25.676  25.404  1.00  0.00     0.010 A 
ATOM     71  C   UNL A   1      42.583  24.658  26.599  1.00  0.00     0.010 A 
ATOM     72  C   UNL A   1      44.807  24.409  24.934  1.00  0.00     0.020 A 
ATOM     73  C   UNL A   1      42.971  23.393  26.132  1.00  0.00     0.020 A 
ATOM     74  C   UNL A   1      44.097  23.270  25.322  1.00  0.00     0.054 A 
BRANCH  74  75
ATOM     75  S   UNL A   1      44.726  21.621  24.869  1.00  0.00     0.124 S 
ATOM     76  O   UNL A   1      44.860  21.725  23.419  1.00  0.00    -0.237 OA
ATOM     77  O   UNL A   1      45.978  21.540  25.614  1.00  0.00    -0.237 OA
ATOM     78  O   UNL A   1      43.675  20.715  25.330  1.00  0.00    -0.744 OA
ENDBRANCH  74  75
ENDBRANCH  46  69
BRANCH  58  79
ATOM     79  C   UNL A   1      44.693  31.308  29.067  1.00  0.00    -0.014 A 
ATOM     80  C   UNL A   1      45.970  31.891  28.936  1.00  0.00     0.010 A 
ATOM     81  C   UNL A   1      43.704  31.640  28.125  1.00  0.00     0.010 A 
ATOM     82  C   UNL A   1      46.236  32.803  27.900  1.00  0.00     0.020 A 
ATOM     83  C   UNL A   1      43.968  32.530  27.084  1.00  0.00     0.020 A 
ATOM     84  C   UNL A   1      45.228  33.117  26.981  1.00  0.00     0.054 A 
BRANCH  84  85
ATOM     85  S   UNL A   1      45.575  34.271  25.623  1.00  0.00     0.124 S 
ATOM     86  O   UNL A   1      44.799  33.709  24.522  1.00  0.00    -0.237 OA
ATOM     87  O   UNL A   1      45.090  35.546  26.148  1.00  0.00    -0.237 OA
ATOM     88  O   UNL A   1      47.026  34.191  25.460  1.00  0.00    -0.744 OA
ENDBRANCH  84  85
ENDBRANCH  58  79
ENDBRANCH  32  33
ENDBRANCH  24  27
ENDBRANCH  22  23
ENDBRANCH   1  22
TORSDOF 16
ENDMDL
MODEL 3
REMARK VINA RESULT:     -11.4      4.915     11.013
REMARK SMILES CCOc1ccc(-n2ncc(C(=O)NCCCNC(=O)c3ccc(-c4c5nc(c(-c6ccc(S(=O)(=O)[O-])cc6)c6ccc([nH]6)c(-c6ccc(S(=O)(=O)[O-])cc6)c6nc(c(-c7ccc(S(=O)(=O)[O-])cc7)c7ccc4[nH]7)C=C6)C=C5)cc3)c2C)nn1
REMARK SMILES IDX 16 1 15 2 14 3 12 4 13 5 11 7 8 8 9 9 81 10 10 11 82 12 7 13
REMARK SMILES IDX 4 14 5 15 84 16 6 17 83 18 3 19 2 20 1 21 17 22 18 23 19 24
REMARK SMILES IDX 20 26 21 27 22 28 80 29 23 30 79 31 24 32 25 33 26 34 73 35
REMARK SMILES IDX 27 36 78 37 72 38 74 39 28 40 77 41 71 42 70 43 29 45 59 46
REMARK SMILES IDX 40 47 58 48 41 49 44 50 57 51 75 52 42 53 43 54 56 56 76 57
REMARK SMILES IDX 45 58 30 59 31 60 39 61 32 62 38 63 33 64 34 65 35 66 36 67
REMARK SMILES IDX 37 68 60 69 61 70 69 71 62 72 68 73 63 74 64 75 65 76 66 77
REMARK SMILES IDX 67 78 46 79 47 80 55 81 48 82 54 83 49 84 50 85 51 86 52 87
REMARK SMILES IDX 53 88
REMARK H PARENT 14 6 18 25 74 44 44 55
REMARK Flexibility Score: inf
ROOT
ATOM      1  C   UNL A   1      42.954  22.689  28.777  1.00  0.00     0.042 C 
ENDROOT
BRANCH   1   2
ATOM      2  C   UNL A   1      41.955  23.325  27.803  1.00  0.00     0.118 C 
BRANCH   2   3
ATOM      3  N   UNL A   1      42.234  22.967  26.423  1.00  0.00    -0.352 N 
ATOM      4  C   UNL A   1      43.193  23.367  25.532  1.00  0.00     0.254 C 
ATOM      5  O   UNL A   1      43.178  22.810  24.426  1.00  0.00    -0.269 OA
ATOM      6  H   UNL A   1      41.605  22.305  26.053  1.00  0.00     0.163 HD
BRANCH   4   7
ATOM      7  C   UNL A   1      44.215  24.346  25.875  1.00  0.00     0.081 A 
ATOM      8  N   UNL A   1      45.315  26.284  26.065  1.00  0.00    -0.217 N 
ATOM      9  N   UNL A   1      46.216  25.319  26.399  1.00  0.00    -0.174 NA
ATOM     10  C   UNL A   1      44.082  25.734  25.750  1.00  0.00     0.056 A 
ATOM     11  C   UNL A   1      45.513  24.193  26.392  1.00  0.00     0.149 A 
ATOM     12  C   UNL A   1      42.906  26.515  25.264  1.00  0.00     0.068 C 
BRANCH   8  13
ATOM     13  C   UNL A   1      45.745  27.639  26.067  1.00  0.00     0.176 A 
ATOM     14  C   UNL A   1      46.441  30.249  26.093  1.00  0.00     0.233 A 
ATOM     15  C   UNL A   1      46.049  29.675  27.283  1.00  0.00     0.074 A 
ATOM     16  N   UNL A   1      46.495  29.565  24.933  1.00  0.00    -0.110 NA
ATOM     17  C   UNL A   1      45.691  28.338  27.270  1.00  0.00     0.057 A 
ATOM     18  N   UNL A   1      46.162  28.233  24.925  1.00  0.00    -0.127 NA
BRANCH  14  19
ATOM     19  O   UNL A   1      46.704  31.595  26.061  1.00  0.00    -0.477 OA
BRANCH  19  20
ATOM     20  C   UNL A   1      45.488  32.344  26.096  1.00  0.00     0.228 C 
ATOM     21  C   UNL A   1      45.772  33.817  26.355  1.00  0.00     0.049 C 
ENDBRANCH  19  20
ENDBRANCH  14  19
ENDBRANCH   8  13
ENDBRANCH   4   7
ENDBRANCH   2   3
ENDBRANCH   1   2
BRANCH   1  22
ATOM     22  C   UNL A   1      43.182  23.577  29.992  1.00  0.00     0.118 C 
BRANCH  22  23
ATOM     23  N   UNL A   1      44.571  24.055  30.076  1.00  0.00    -0.352 N 
ATOM     24  C   UNL A   1      45.054  25.350  30.049  1.00  0.00     0.251 C 
ATOM     25  H   UNL A   1      45.254  23.351  30.165  1.00  0.00     0.163 HD
ATOM     26  O   UNL A   1      46.235  25.567  29.799  1.00  0.00    -0.269 OA
BRANCH  24  27
ATOM     27  C   UNL A   1      44.131  26.459  30.342  1.00  0.00     0.039 A 
ATOM     28  C   UNL A   1      44.088  27.098  31.585  1.00  0.00     0.014 A 
ATOM     29  C   UNL A   1      43.307  26.874  29.303  1.00  0.00     0.014 A 
ATOM     30  C   UNL A   1      43.254  28.206  31.739  1.00  0.00     0.010 A 
ATOM     31  C   UNL A   1      42.678  28.079  29.383  1.00  0.00     0.010 A 
ATOM     32  C   UNL A   1      42.561  28.692  30.622  1.00  0.00    -0.014 A 
BRANCH  32  33
ATOM     33  C   UNL A   1      41.779  29.920  30.643  1.00  0.00     0.031 A 
ATOM     34  C   UNL A   1      42.581  31.125  30.317  1.00  0.00     0.074 A 
ATOM     35  C   UNL A   1      40.426  29.891  30.624  1.00  0.00     0.049 A 
ATOM     36  N   UNL A   1      42.989  32.044  31.128  1.00  0.00    -0.248 NA
ATOM     37  C   UNL A   1      43.189  31.212  28.973  1.00  0.00     0.031 C 
ATOM     38  C   UNL A   1      39.548  28.710  30.579  1.00  0.00     0.029 A 
ATOM     39  N   UNL A   1      39.539  30.910  30.491  1.00  0.00    -0.354 N 
ATOM     40  C   UNL A   1      43.641  32.975  30.326  1.00  0.00     0.074 A 
ATOM     41  C   UNL A   1      43.979  32.278  29.112  1.00  0.00     0.031 C 
ATOM     42  C   UNL A   1      38.309  29.077  30.178  1.00  0.00     0.029 A 
ATOM     43  C   UNL A   1      38.257  30.524  30.102  1.00  0.00     0.049 A 
ATOM     44  H   UNL A   1      39.783  31.849  30.655  1.00  0.00     0.167 HD
ATOM     45  C   UNL A   1      43.519  34.313  30.563  1.00  0.00     0.031 A 
ATOM     46  C   UNL A   1      37.239  31.340  29.714  1.00  0.00     0.031 A 
ATOM     47  C   UNL A   1      42.901  34.554  31.845  1.00  0.00     0.049 A 
ATOM     48  C   UNL A   1      37.575  32.698  30.211  1.00  0.00     0.074 A 
ATOM     49  C   UNL A   1      43.181  34.216  33.154  1.00  0.00     0.029 A 
ATOM     50  N   UNL A   1      41.568  34.898  31.815  1.00  0.00    -0.354 N 
ATOM     51  N   UNL A   1      37.651  32.994  31.478  1.00  0.00    -0.248 NA
ATOM     52  C   UNL A   1      38.297  33.588  29.317  1.00  0.00     0.031 C 
ATOM     53  C   UNL A   1      41.913  33.939  33.743  1.00  0.00     0.029 A 
ATOM     54  C   UNL A   1      40.918  34.206  32.799  1.00  0.00     0.049 A 
ATOM     55  H   UNL A   1      41.153  35.534  31.189  1.00  0.00     0.167 HD
ATOM     56  C   UNL A   1      38.774  33.804  31.582  1.00  0.00     0.074 A 
ATOM     57  C   UNL A   1      39.066  34.220  30.209  1.00  0.00     0.031 C 
ATOM     58  C   UNL A   1      39.526  33.814  32.724  1.00  0.00     0.031 A 
BRANCH  45  59
ATOM     59  C   UNL A   1      43.478  35.366  29.472  1.00  0.00    -0.014 A 
ATOM     60  C   UNL A   1      44.318  36.493  29.609  1.00  0.00     0.010 A 
ATOM     61  C   UNL A   1      42.462  35.451  28.499  1.00  0.00     0.010 A 
ATOM     62  C   UNL A   1      44.077  37.674  28.898  1.00  0.00     0.020 A 
ATOM     63  C   UNL A   1      42.241  36.609  27.750  1.00  0.00     0.020 A 
ATOM     64  C   UNL A   1      43.026  37.728  27.986  1.00  0.00     0.054 A 
BRANCH  64  65
ATOM     65  S   UNL A   1      42.651  39.290  27.157  1.00  0.00     0.124 S 
ATOM     66  O   UNL A   1      42.399  40.174  28.291  1.00  0.00    -0.237 OA
ATOM     67  O   UNL A   1      43.881  39.544  26.414  1.00  0.00    -0.237 OA
ATOM     68  O   UNL A   1      41.486  38.968  26.337  1.00  0.00    -0.744 OA
ENDBRANCH  64  65
ENDBRANCH  45  59
BRANCH  46  69
ATOM     69  C   UNL A   1      36.172  31.108  28.702  1.00  0.00    -0.014 A 
ATOM     70  C   UNL A   1      36.047  29.866  28.046  1.00  0.00     0.010 A 
ATOM     71  C   UNL A   1      35.091  32.006  28.598  1.00  0.00     0.010 A 
ATOM     72  C   UNL A   1      34.861  29.510  27.374  1.00  0.00     0.020 A 
ATOM     73  C   UNL A   1      33.907  31.659  27.928  1.00  0.00     0.020 A 
ATOM     74  C   UNL A   1      33.787  30.403  27.340  1.00  0.00     0.054 A 
BRANCH  74  75
ATOM     75  S   UNL A   1      32.194  29.867  26.639  1.00  0.00     0.124 S 
ATOM     76  O   UNL A   1      31.448  31.119  26.565  1.00  0.00    -0.237 OA
ATOM     77  O   UNL A   1      32.586  29.289  25.357  1.00  0.00    -0.237 OA
ATOM     78  O   UNL A   1      31.693  28.905  27.620  1.00  0.00    -0.744 OA
ENDBRANCH  74  75
ENDBRANCH  46  69
BRANCH  58  79
ATOM     79  C   UNL A   1      38.943  33.194  33.972  1.00  0.00    -0.014 A 
ATOM     80  C   UNL A   1      39.144  31.856  34.369  1.00  0.00     0.010 A 
ATOM     81  C   UNL A   1      38.283  34.064  34.857  1.00  0.00     0.010 A 
ATOM     82  C   UNL A   1      38.671  31.400  35.611  1.00  0.00     0.020 A 
ATOM     83  C   UNL A   1      37.827  33.622  36.098  1.00  0.00     0.020 A 
ATOM     84  C   UNL A   1      38.013  32.290  36.468  1.00  0.00     0.054 A 
BRANCH  84  85
ATOM     85  S   UNL A   1      37.426  31.715  38.086  1.00  0.00     0.124 S 
ATOM     86  O   UNL A   1      37.218  30.288  37.860  1.00  0.00    -0.237 OA
ATOM     87  O   UNL A   1      38.535  32.057  38.975  1.00  0.00    -0.237 OA
ATOM     88  O   UNL A   1      36.205  32.490  38.310  1.00  0.00    -0.744 OA
ENDBRANCH  84  85
ENDBRANCH  58  79
ENDBRANCH  32  33
ENDBRANCH  24  27
ENDBRANCH  22  23
ENDBRANCH   1  22
TORSDOF 16
ENDMDL
