MODEL 1
REMARK VINA RESULT:     -12.6      0.000      0.000
REMARK SMILES CC1(C)[C@H](C(=O)N(Cc2ccccc2)Cc2ccccc2)CC[C@@]1(C)C(=O)NCCCNC(=O)c1ccc(-c2c3nc(c(-c4ccc(S(=O)(=O)[O-])cc4)c4ccc([nH]4)c(-c4ccc(S(=O)(=O)[O-])cc4)c4nc(c(-c5ccc(S(=O)(=O)[O-])cc5)c5ccc2[nH]5)C=C4)C=C3)cc1
REMARK SMILES IDX 30 1 29 2 28 3 26 4 27 5 24 7 1 8 2 9 3 10 4 11 22 12 23 13
REMARK SMILES IDX 25 14 5 15 6 16 7 17 8 18 9 19 10 20 14 21 11 22 13 23 12 24
REMARK SMILES IDX 15 25 16 26 17 27 21 28 18 29 20 30 19 31 31 32 32 33 33 34
REMARK SMILES IDX 34 36 35 37 36 38 94 39 37 40 93 41 38 42 39 43 40 44 87 45
REMARK SMILES IDX 41 46 92 47 86 48 88 49 42 50 91 51 85 52 84 53 43 55 73 56
REMARK SMILES IDX 54 57 72 58 55 59 58 60 71 61 89 62 56 63 57 64 70 66 90 67
REMARK SMILES IDX 59 68 44 69 45 70 53 71 46 72 52 73 47 74 48 75 49 76 50 77
REMARK SMILES IDX 51 78 74 79 75 80 83 81 76 82 82 83 77 84 78 85 79 86 80 87
REMARK SMILES IDX 81 88 60 89 61 90 69 91 62 92 68 93 63 94 64 95 65 96 66 97
REMARK SMILES IDX 67 98
REMARK H PARENT 28 6 32 35 88 54 58 65
REMARK Flexibility Score: inf
ROOT
ATOM      1  C   UNL A   1      40.527  21.597  27.368  1.00  0.00     0.042 C 
ENDROOT
BRANCH   1   2
ATOM      2  C   UNL A   1      39.632  21.863  26.160  1.00  0.00     0.117 C 
BRANCH   2   3
ATOM      3  N   UNL A   1      38.619  22.868  26.425  1.00  0.00    -0.356 N 
ATOM      4  C   UNL A   1      37.369  23.119  25.976  1.00  0.00     0.226 C 
ATOM      5  O   UNL A   1      36.844  24.118  26.490  1.00  0.00    -0.274 OA
ATOM      6  H   UNL A   1      38.914  23.528  27.094  1.00  0.00     0.163 HD
BRANCH   4   7
ATOM      7  C   UNL A   1      36.611  22.323  24.871  1.00  0.00     0.052 C 
ATOM      8  C   UNL A   1      34.607  22.508  26.568  1.00  0.00     0.013 C 
ATOM      9  C   UNL A   1      35.042  22.213  25.114  1.00  0.00    -0.010 C 
ATOM     10  C   UNL A   1      34.527  20.803  24.834  1.00  0.00     0.013 C 
ATOM     11  C   UNL A   1      34.473  23.282  24.144  1.00  0.00     0.085 C 
ATOM     12  C   UNL A   1      35.388  23.298  22.928  1.00  0.00     0.015 C 
ATOM     13  C   UNL A   1      36.776  22.909  23.444  1.00  0.00     0.018 C 
ATOM     14  C   UNL A   1      37.319  20.933  24.846  1.00  0.00     0.022 C 
BRANCH  11  15
ATOM     15  C   UNL A   1      32.974  23.564  23.881  1.00  0.00     0.226 C 
ATOM     16  O   UNL A   1      32.490  22.910  22.941  1.00  0.00    -0.275 OA
ATOM     17  N   UNL A   1      32.150  24.392  24.628  1.00  0.00    -0.334 N 
BRANCH  17  18
ATOM     18  C   UNL A   1      32.448  24.929  25.954  1.00  0.00     0.155 C 
BRANCH  18  19
ATOM     19  C   UNL A   1      32.647  26.426  26.097  1.00  0.00    -0.029 A 
ATOM     20  C   UNL A   1      31.746  27.267  26.760  1.00  0.00     0.005 A 
ATOM     21  C   UNL A   1      33.711  27.025  25.402  1.00  0.00     0.005 A 
ATOM     22  C   UNL A   1      31.879  28.656  26.718  1.00  0.00     0.000 A 
ATOM     23  C   UNL A   1      33.850  28.416  25.359  1.00  0.00     0.000 A 
ATOM     24  C   UNL A   1      32.928  29.231  26.011  1.00  0.00     0.000 A 
ENDBRANCH  18  19
ENDBRANCH  17  18
BRANCH  17  25
ATOM     25  C   UNL A   1      30.727  24.465  24.219  1.00  0.00     0.155 C 
BRANCH  25  26
ATOM     26  C   UNL A   1      30.274  25.827  23.739  1.00  0.00    -0.029 A 
ATOM     27  C   UNL A   1      29.014  26.331  24.092  1.00  0.00     0.005 A 
ATOM     28  C   UNL A   1      31.101  26.617  22.926  1.00  0.00     0.005 A 
ATOM     29  C   UNL A   1      28.566  27.555  23.595  1.00  0.00     0.000 A 
ATOM     30  C   UNL A   1      30.645  27.832  22.412  1.00  0.00     0.000 A 
ATOM     31  C   UNL A   1      29.375  28.297  22.740  1.00  0.00     0.000 A 
ENDBRANCH  25  26
ENDBRANCH  17  25
ENDBRANCH  11  15
ENDBRANCH   4   7
ENDBRANCH   2   3
ENDBRANCH   1   2
BRANCH   1  32
ATOM     32  C   UNL A   1      41.439  22.764  27.717  1.00  0.00     0.118 C 
BRANCH  32  33
ATOM     33  N   UNL A   1      41.859  23.486  26.525  1.00  0.00    -0.352 N 
ATOM     34  C   UNL A   1      41.790  24.830  26.252  1.00  0.00     0.251 C 
ATOM     35  H   UNL A   1      42.249  22.930  25.812  1.00  0.00     0.163 HD
ATOM     36  O   UNL A   1      41.898  25.218  25.093  1.00  0.00    -0.269 OA
BRANCH  34  37
ATOM     37  C   UNL A   1      41.593  25.804  27.348  1.00  0.00     0.039 A 
ATOM     38  C   UNL A   1      40.442  25.721  28.135  1.00  0.00     0.014 A 
ATOM     39  C   UNL A   1      42.518  26.830  27.566  1.00  0.00     0.014 A 
ATOM     40  C   UNL A   1      40.239  26.642  29.167  1.00  0.00     0.010 A 
ATOM     41  C   UNL A   1      42.354  27.697  28.641  1.00  0.00     0.010 A 
ATOM     42  C   UNL A   1      41.205  27.624  29.441  1.00  0.00    -0.014 A 
BRANCH  42  43
ATOM     43  C   UNL A   1      41.026  28.602  30.543  1.00  0.00     0.031 A 
ATOM     44  C   UNL A   1      41.887  28.511  31.775  1.00  0.00     0.074 A 
ATOM     45  C   UNL A   1      40.046  29.523  30.466  1.00  0.00     0.049 A 
ATOM     46  N   UNL A   1      41.833  29.218  32.874  1.00  0.00    -0.248 NA
ATOM     47  C   UNL A   1      42.929  27.470  31.783  1.00  0.00     0.031 C 
ATOM     48  C   UNL A   1      39.120  29.683  29.341  1.00  0.00     0.029 A 
ATOM     49  N   UNL A   1      39.659  30.494  31.354  1.00  0.00    -0.354 N 
ATOM     50  C   UNL A   1      42.810  28.691  33.711  1.00  0.00     0.074 A 
ATOM     51  C   UNL A   1      43.411  27.577  33.012  1.00  0.00     0.031 C 
ATOM     52  C   UNL A   1      38.290  30.707  29.598  1.00  0.00     0.029 A 
ATOM     53  C   UNL A   1      38.598  31.250  30.917  1.00  0.00     0.049 A 
ATOM     54  H   UNL A   1      40.101  30.635  32.223  1.00  0.00     0.167 HD
ATOM     55  C   UNL A   1      43.185  29.108  34.945  1.00  0.00     0.031 A 
ATOM     56  C   UNL A   1      37.941  32.262  31.515  1.00  0.00     0.031 A 
ATOM     57  C   UNL A   1      42.597  30.229  35.627  1.00  0.00     0.049 A 
ATOM     58  C   UNL A   1      38.380  32.712  32.881  1.00  0.00     0.074 A 
ATOM     59  C   UNL A   1      42.946  30.772  36.851  1.00  0.00     0.029 A 
ATOM     60  N   UNL A   1      41.537  30.979  35.141  1.00  0.00    -0.354 N 
ATOM     61  N   UNL A   1      39.346  32.241  33.632  1.00  0.00    -0.248 NA
ATOM     62  C   UNL A   1      37.646  33.838  33.475  1.00  0.00     0.031 C 
ATOM     63  C   UNL A   1      42.067  31.827  37.126  1.00  0.00     0.029 A 
ATOM     64  C   UNL A   1      41.204  31.969  36.050  1.00  0.00     0.049 A 
ATOM     65  H   UNL A   1      41.087  30.830  34.279  1.00  0.00     0.167 HD
ATOM     66  C   UNL A   1      39.351  33.025  34.779  1.00  0.00     0.074 A 
ATOM     67  C   UNL A   1      38.300  34.010  34.616  1.00  0.00     0.031 C 
ATOM     68  C   UNL A   1      40.151  32.938  35.870  1.00  0.00     0.031 A 
BRANCH  55  69
ATOM     69  C   UNL A   1      44.282  28.338  35.633  1.00  0.00    -0.014 A 
ATOM     70  C   UNL A   1      45.634  28.696  35.469  1.00  0.00     0.010 A 
ATOM     71  C   UNL A   1      43.960  27.255  36.469  1.00  0.00     0.010 A 
ATOM     72  C   UNL A   1      46.643  27.954  36.088  1.00  0.00     0.020 A 
ATOM     73  C   UNL A   1      44.965  26.527  37.113  1.00  0.00     0.020 A 
ATOM     74  C   UNL A   1      46.302  26.868  36.901  1.00  0.00     0.054 A 
BRANCH  74  75
ATOM     75  S   UNL A   1      47.632  25.927  37.699  1.00  0.00     0.124 S 
ATOM     76  O   UNL A   1      48.775  26.241  36.846  1.00  0.00    -0.237 OA
ATOM     77  O   UNL A   1      47.674  26.502  39.040  1.00  0.00    -0.237 OA
ATOM     78  O   UNL A   1      47.166  24.544  37.632  1.00  0.00    -0.744 OA
ENDBRANCH  74  75
ENDBRANCH  55  69
BRANCH  56  79
ATOM     79  C   UNL A   1      36.813  32.930  30.810  1.00  0.00    -0.014 A 
ATOM     80  C   UNL A   1      35.486  32.673  31.193  1.00  0.00     0.010 A 
ATOM     81  C   UNL A   1      37.062  33.852  29.776  1.00  0.00     0.010 A 
ATOM     82  C   UNL A   1      34.425  33.316  30.546  1.00  0.00     0.020 A 
ATOM     83  C   UNL A   1      36.005  34.515  29.144  1.00  0.00     0.020 A 
ATOM     84  C   UNL A   1      34.692  34.233  29.527  1.00  0.00     0.054 A 
BRANCH  84  85
ATOM     85  S   UNL A   1      33.302  35.098  28.743  1.00  0.00     0.124 S 
ATOM     86  O   UNL A   1      33.982  36.160  28.008  1.00  0.00    -0.237 OA
ATOM     87  O   UNL A   1      32.696  34.049  27.926  1.00  0.00    -0.237 OA
ATOM     88  O   UNL A   1      32.492  35.540  29.876  1.00  0.00    -0.744 OA
ENDBRANCH  84  85
ENDBRANCH  56  79
BRANCH  68  89
ATOM     89  C   UNL A   1      39.938  33.948  36.964  1.00  0.00    -0.014 A 
ATOM     90  C   UNL A   1      40.560  35.208  36.917  1.00  0.00     0.010 A 
ATOM     91  C   UNL A   1      39.058  33.653  38.020  1.00  0.00     0.010 A 
ATOM     92  C   UNL A   1      40.325  36.148  37.924  1.00  0.00     0.020 A 
ATOM     93  C   UNL A   1      38.801  34.599  39.015  1.00  0.00     0.020 A 
ATOM     94  C   UNL A   1      39.446  35.836  38.967  1.00  0.00     0.054 A 
BRANCH  94  95
ATOM     95  S   UNL A   1      39.117  37.090  40.236  1.00  0.00     0.124 S 
ATOM     96  O   UNL A   1      38.283  36.353  41.183  1.00  0.00    -0.237 OA
ATOM     97  O   UNL A   1      40.457  37.428  40.710  1.00  0.00    -0.237 OA
ATOM     98  O   UNL A   1      38.436  38.155  39.503  1.00  0.00    -0.744 OA
ENDBRANCH  94  95
ENDBRANCH  68  89
ENDBRANCH  42  43
ENDBRANCH  34  37
ENDBRANCH  32  33
ENDBRANCH   1  32
TORSDOF 18
ENDMDL
MODEL 2
REMARK VINA RESULT:     -12.5      3.348      4.271
REMARK SMILES CC1(C)[C@H](C(=O)N(Cc2ccccc2)Cc2ccccc2)CC[C@@]1(C)C(=O)NCCCNC(=O)c1ccc(-c2c3nc(c(-c4ccc(S(=O)(=O)[O-])cc4)c4ccc([nH]4)c(-c4ccc(S(=O)(=O)[O-])cc4)c4nc(c(-c5ccc(S(=O)(=O)[O-])cc5)c5ccc2[nH]5)C=C4)C=C3)cc1
REMARK SMILES IDX 30 1 29 2 28 3 26 4 27 5 24 7 1 8 2 9 3 10 4 11 22 12 23 13
REMARK SMILES IDX 25 14 5 15 6 16 7 17 8 18 9 19 10 20 14 21 11 22 13 23 12 24
REMARK SMILES IDX 15 25 16 26 17 27 21 28 18 29 20 30 19 31 31 32 32 33 33 34
REMARK SMILES IDX 34 36 35 37 36 38 94 39 37 40 93 41 38 42 39 43 40 44 87 45
REMARK SMILES IDX 41 46 92 47 86 48 88 49 42 50 91 51 85 52 84 53 43 55 73 56
REMARK SMILES IDX 54 57 72 58 55 59 58 60 71 61 89 62 56 63 57 64 70 66 90 67
REMARK SMILES IDX 59 68 44 69 45 70 53 71 46 72 52 73 47 74 48 75 49 76 50 77
REMARK SMILES IDX 51 78 74 79 75 80 83 81 76 82 82 83 77 84 78 85 79 86 80 87
REMARK SMILES IDX 81 88 60 89 61 90 69 91 62 92 68 93 63 94 64 95 65 96 66 97
REMARK SMILES IDX 67 98
REMARK H PARENT 28 6 32 35 88 54 58 65
REMARK Flexibility Score: inf
ROOT
ATOM      1  C   UNL A   1      36.100  24.455  26.231  1.00  0.00     0.042 C 
ENDROOT
BRANCH   1   2
ATOM      2  C   UNL A   1      34.584  24.426  26.053  1.00  0.00     0.117 C 
BRANCH   2   3
ATOM      3  N   UNL A   1      34.022  23.106  26.271  1.00  0.00    -0.356 N 
ATOM      4  C   UNL A   1      33.349  22.207  25.517  1.00  0.00     0.226 C 
ATOM      5  O   UNL A   1      33.049  21.169  26.124  1.00  0.00    -0.274 OA
ATOM      6  H   UNL A   1      34.164  22.786  27.191  1.00  0.00     0.163 HD
BRANCH   4   7
ATOM      7  C   UNL A   1      32.892  22.405  24.040  1.00  0.00     0.052 C 
ATOM      8  C   UNL A   1      31.067  23.943  25.151  1.00  0.00     0.013 C 
ATOM      9  C   UNL A   1      31.799  23.546  23.848  1.00  0.00    -0.010 C 
ATOM     10  C   UNL A   1      30.687  23.105  22.898  1.00  0.00     0.013 C 
ATOM     11  C   UNL A   1      32.638  24.733  23.307  1.00  0.00     0.085 C 
ATOM     12  C   UNL A   1      33.745  24.131  22.453  1.00  0.00     0.015 C 
ATOM     13  C   UNL A   1      34.045  22.760  23.064  1.00  0.00     0.018 C 
ATOM     14  C   UNL A   1      32.383  20.997  23.603  1.00  0.00     0.022 C 
BRANCH  11  15
ATOM     15  C   UNL A   1      32.083  26.103  22.848  1.00  0.00     0.226 C 
ATOM     16  O   UNL A   1      31.738  26.139  21.654  1.00  0.00    -0.275 OA
ATOM     17  N   UNL A   1      31.878  27.217  23.649  1.00  0.00    -0.334 N 
BRANCH  17  18
ATOM     18  C   UNL A   1      31.872  27.233  25.111  1.00  0.00     0.155 C 
BRANCH  18  19
ATOM     19  C   UNL A   1      32.640  28.331  25.821  1.00  0.00    -0.029 A 
ATOM     20  C   UNL A   1      33.974  28.207  26.226  1.00  0.00     0.005 A 
ATOM     21  C   UNL A   1      31.937  29.478  26.228  1.00  0.00     0.005 A 
ATOM     22  C   UNL A   1      34.587  29.174  27.026  1.00  0.00     0.000 A 
ATOM     23  C   UNL A   1      32.547  30.450  27.027  1.00  0.00     0.000 A 
ATOM     24  C   UNL A   1      33.870  30.292  27.433  1.00  0.00     0.000 A 
ENDBRANCH  18  19
ENDBRANCH  17  18
BRANCH  17  25
ATOM     25  C   UNL A   1      31.281  28.408  22.998  1.00  0.00     0.155 C 
BRANCH  25  26
ATOM     26  C   UNL A   1      29.773  28.495  23.097  1.00  0.00    -0.029 A 
ATOM     27  C   UNL A   1      29.106  29.704  22.851  1.00  0.00     0.005 A 
ATOM     28  C   UNL A   1      29.006  27.372  23.441  1.00  0.00     0.005 A 
ATOM     29  C   UNL A   1      27.724  29.806  23.009  1.00  0.00     0.000 A 
ATOM     30  C   UNL A   1      27.626  27.478  23.619  1.00  0.00     0.000 A 
ATOM     31  C   UNL A   1      26.986  28.697  23.412  1.00  0.00     0.000 A 
ENDBRANCH  25  26
ENDBRANCH  17  25
ENDBRANCH  11  15
ENDBRANCH   4   7
ENDBRANCH   2   3
ENDBRANCH   1   2
BRANCH   1  32
ATOM     32  C   UNL A   1      36.859  23.817  25.076  1.00  0.00     0.118 C 
BRANCH  32  33
ATOM     33  N   UNL A   1      37.728  22.745  25.540  1.00  0.00    -0.352 N 
ATOM     34  C   UNL A   1      38.950  22.822  26.160  1.00  0.00     0.251 C 
ATOM     35  H   UNL A   1      37.389  21.833  25.387  1.00  0.00     0.163 HD
ATOM     36  O   UNL A   1      39.673  21.831  26.198  1.00  0.00    -0.269 OA
BRANCH  34  37
ATOM     37  C   UNL A   1      39.391  24.088  26.785  1.00  0.00     0.039 A 
ATOM     38  C   UNL A   1      40.110  25.012  26.020  1.00  0.00     0.014 A 
ATOM     39  C   UNL A   1      39.141  24.344  28.136  1.00  0.00     0.014 A 
ATOM     40  C   UNL A   1      40.541  26.207  26.601  1.00  0.00     0.010 A 
ATOM     41  C   UNL A   1      39.502  25.566  28.692  1.00  0.00     0.010 A 
ATOM     42  C   UNL A   1      40.221  26.503  27.936  1.00  0.00    -0.014 A 
BRANCH  42  43
ATOM     43  C   UNL A   1      40.649  27.774  28.574  1.00  0.00     0.031 A 
ATOM     44  C   UNL A   1      42.033  27.894  29.154  1.00  0.00     0.074 A 
ATOM     45  C   UNL A   1      39.771  28.789  28.693  1.00  0.00     0.049 A 
ATOM     46  N   UNL A   1      42.566  28.887  29.818  1.00  0.00    -0.248 NA
ATOM     47  C   UNL A   1      42.927  26.735  28.989  1.00  0.00     0.031 C 
ATOM     48  C   UNL A   1      38.389  28.775  28.208  1.00  0.00     0.029 A 
ATOM     49  N   UNL A   1      39.909  30.026  29.268  1.00  0.00    -0.354 N 
ATOM     50  C   UNL A   1      43.842  28.463  30.172  1.00  0.00     0.074 A 
ATOM     51  C   UNL A   1      43.987  27.108  29.689  1.00  0.00     0.031 C 
ATOM     52  C   UNL A   1      37.815  29.958  28.484  1.00  0.00     0.029 A 
ATOM     53  C   UNL A   1      38.772  30.797  29.197  1.00  0.00     0.049 A 
ATOM     54  H   UNL A   1      40.743  30.334  29.690  1.00  0.00     0.167 HD
ATOM     55  C   UNL A   1      44.812  29.146  30.826  1.00  0.00     0.031 A 
ATOM     56  C   UNL A   1      38.526  32.036  29.662  1.00  0.00     0.031 A 
ATOM     57  C   UNL A   1      44.669  30.501  31.287  1.00  0.00     0.049 A 
ATOM     58  C   UNL A   1      39.621  32.779  30.378  1.00  0.00     0.074 A 
ATOM     59  C   UNL A   1      45.610  31.306  31.903  1.00  0.00     0.029 A 
ATOM     60  N   UNL A   1      43.508  31.252  31.179  1.00  0.00    -0.354 N 
ATOM     61  N   UNL A   1      40.842  32.384  30.650  1.00  0.00    -0.248 NA
ATOM     62  C   UNL A   1      39.307  34.138  30.840  1.00  0.00     0.031 C 
ATOM     63  C   UNL A   1      45.005  32.531  32.207  1.00  0.00     0.029 A 
ATOM     64  C   UNL A   1      43.701  32.504  31.736  1.00  0.00     0.049 A 
ATOM     65  H   UNL A   1      42.669  30.940  30.767  1.00  0.00     0.167 HD
ATOM     66  C   UNL A   1      41.449  33.453  31.297  1.00  0.00     0.074 A 
ATOM     67  C   UNL A   1      40.466  34.516  31.362  1.00  0.00     0.031 C 
ATOM     68  C   UNL A   1      42.708  33.547  31.794  1.00  0.00     0.031 A 
BRANCH  55  69
ATOM     69  C   UNL A   1      46.112  28.430  31.083  1.00  0.00    -0.014 A 
ATOM     70  C   UNL A   1      47.165  28.477  30.150  1.00  0.00     0.010 A 
ATOM     71  C   UNL A   1      46.294  27.716  32.281  1.00  0.00     0.010 A 
ATOM     72  C   UNL A   1      48.353  27.782  30.387  1.00  0.00     0.020 A 
ATOM     73  C   UNL A   1      47.493  27.042  32.535  1.00  0.00     0.020 A 
ATOM     74  C   UNL A   1      48.507  27.062  31.575  1.00  0.00     0.054 A 
BRANCH  74  75
ATOM     75  S   UNL A   1      50.063  26.174  31.862  1.00  0.00     0.124 S 
ATOM     76  O   UNL A   1      50.671  26.200  30.534  1.00  0.00    -0.237 OA
ATOM     77  O   UNL A   1      50.724  26.999  32.869  1.00  0.00    -0.237 OA
ATOM     78  O   UNL A   1      49.631  24.858  32.324  1.00  0.00    -0.744 OA
ENDBRANCH  74  75
ENDBRANCH  55  69
BRANCH  56  79
ATOM     79  C   UNL A   1      37.193  32.658  29.441  1.00  0.00    -0.014 A 
ATOM     80  C   UNL A   1      36.281  32.776  30.503  1.00  0.00     0.010 A 
ATOM     81  C   UNL A   1      36.840  33.165  28.176  1.00  0.00     0.010 A 
ATOM     82  C   UNL A   1      35.034  33.379  30.304  1.00  0.00     0.020 A 
ATOM     83  C   UNL A   1      35.605  33.790  27.978  1.00  0.00     0.020 A 
ATOM     84  C   UNL A   1      34.706  33.883  29.043  1.00  0.00     0.054 A 
BRANCH  84  85
ATOM     85  S   UNL A   1      33.106  34.713  28.823  1.00  0.00     0.124 S 
ATOM     86  O   UNL A   1      32.564  34.688  30.178  1.00  0.00    -0.237 OA
ATOM     87  O   UNL A   1      33.498  36.028  28.322  1.00  0.00    -0.237 OA
ATOM     88  O   UNL A   1      32.412  33.867  27.854  1.00  0.00    -0.744 OA
ENDBRANCH  84  85
ENDBRANCH  56  79
BRANCH  68  89
ATOM     89  C   UNL A   1      43.102  34.851  32.431  1.00  0.00    -0.014 A 
ATOM     90  C   UNL A   1      43.613  35.909  31.660  1.00  0.00     0.010 A 
ATOM     91  C   UNL A   1      42.900  35.039  33.810  1.00  0.00     0.010 A 
ATOM     92  C   UNL A   1      43.943  37.126  32.263  1.00  0.00     0.020 A 
ATOM     93  C   UNL A   1      43.204  36.263  34.412  1.00  0.00     0.020 A 
ATOM     94  C   UNL A   1      43.736  37.294  33.636  1.00  0.00     0.054 A 
BRANCH  94  95
ATOM     95  S   UNL A   1      44.123  38.899  34.387  1.00  0.00     0.124 S 
ATOM     96  O   UNL A   1      45.455  39.171  33.853  1.00  0.00    -0.237 OA
ATOM     97  O   UNL A   1      43.056  39.758  33.882  1.00  0.00    -0.237 OA
ATOM     98  O   UNL A   1      44.071  38.631  35.823  1.00  0.00    -0.744 OA
ENDBRANCH  94  95
ENDBRANCH  68  89
ENDBRANCH  42  43
ENDBRANCH  34  37
ENDBRANCH  32  33
ENDBRANCH   1  32
TORSDOF 18
ENDMDL
MODEL 3
REMARK VINA RESULT:     -12.5      3.260      4.484
REMARK SMILES CC1(C)[C@H](C(=O)N(Cc2ccccc2)Cc2ccccc2)CC[C@@]1(C)C(=O)NCCCNC(=O)c1ccc(-c2c3nc(c(-c4ccc(S(=O)(=O)[O-])cc4)c4ccc([nH]4)c(-c4ccc(S(=O)(=O)[O-])cc4)c4nc(c(-c5ccc(S(=O)(=O)[O-])cc5)c5ccc2[nH]5)C=C4)C=C3)cc1
REMARK SMILES IDX 30 1 29 2 28 3 26 4 27 5 24 7 1 8 2 9 3 10 4 11 22 12 23 13
REMARK SMILES IDX 25 14 5 15 6 16 7 17 8 18 9 19 10 20 14 21 11 22 13 23 12 24
REMARK SMILES IDX 15 25 16 26 17 27 21 28 18 29 20 30 19 31 31 32 32 33 33 34
REMARK SMILES IDX 34 36 35 37 36 38 94 39 37 40 93 41 38 42 39 43 40 44 87 45
REMARK SMILES IDX 41 46 92 47 86 48 88 49 42 50 91 51 85 52 84 53 43 55 73 56
REMARK SMILES IDX 54 57 72 58 55 59 58 60 71 61 89 62 56 63 57 64 70 66 90 67
REMARK SMILES IDX 59 68 44 69 45 70 53 71 46 72 52 73 47 74 48 75 49 76 50 77
REMARK SMILES IDX 51 78 74 79 75 80 83 81 76 82 82 83 77 84 78 85 79 86 80 87
REMARK SMILES IDX 81 88 60 89 61 90 69 91 62 92 68 93 63 94 64 95 65 96 66 97
REMARK SMILES IDX 67 98
REMARK H PARENT 28 6 32 35 88 54 58 65
REMARK Flexibility Score: inf
ROOT
ATOM      1  C   UNL A   1      36.056  24.258  24.911  1.00  0.00     0.042 C 
ENDROOT
BRANCH   1   2
ATOM      2  C   UNL A   1      35.763  23.317  23.744  1.00  0.00     0.117 C 
BRANCH   2   3
ATOM      3  N   UNL A   1      35.450  21.969  24.179  1.00  0.00    -0.356 N 
ATOM      4  C   UNL A   1      34.316  21.259  24.379  1.00  0.00     0.226 C 
ATOM      5  O   UNL A   1      34.515  20.098  24.766  1.00  0.00    -0.274 OA
ATOM      6  H   UNL A   1      36.258  21.442  24.378  1.00  0.00     0.163 HD
BRANCH   4   7
ATOM      7  C   UNL A   1      32.859  21.791  24.228  1.00  0.00     0.052 C 
ATOM      8  C   UNL A   1      33.073  22.165  26.825  1.00  0.00     0.013 C 
ATOM      9  C   UNL A   1      32.293  22.503  25.534  1.00  0.00    -0.010 C 
ATOM     10  C   UNL A   1      30.855  22.077  25.827  1.00  0.00     0.013 C 
ATOM     11  C   UNL A   1      32.431  24.008  25.189  1.00  0.00     0.085 C 
ATOM     12  C   UNL A   1      32.196  24.135  23.690  1.00  0.00     0.015 C 
ATOM     13  C   UNL A   1      32.677  22.817  23.079  1.00  0.00     0.018 C 
ATOM     14  C   UNL A   1      32.032  20.536  23.814  1.00  0.00     0.022 C 
BRANCH  11  15
ATOM     15  C   UNL A   1      31.948  25.190  26.063  1.00  0.00     0.226 C 
ATOM     16  O   UNL A   1      32.041  24.991  27.287  1.00  0.00    -0.275 OA
ATOM     17  N   UNL A   1      31.513  26.426  25.607  1.00  0.00    -0.334 N 
BRANCH  17  18
ATOM     18  C   UNL A   1      31.691  26.953  24.255  1.00  0.00     0.155 C 
BRANCH  18  19
ATOM     19  C   UNL A   1      30.582  27.801  23.662  1.00  0.00    -0.029 A 
ATOM     20  C   UNL A   1      30.712  29.169  23.396  1.00  0.00     0.005 A 
ATOM     21  C   UNL A   1      29.311  27.222  23.506  1.00  0.00     0.005 A 
ATOM     22  C   UNL A   1      29.615  29.944  23.012  1.00  0.00     0.000 A 
ATOM     23  C   UNL A   1      28.212  27.994  23.120  1.00  0.00     0.000 A 
ATOM     24  C   UNL A   1      28.362  29.357  22.882  1.00  0.00     0.000 A 
ENDBRANCH  18  19
ENDBRANCH  17  18
BRANCH  17  25
ATOM     25  C   UNL A   1      31.149  27.429  26.637  1.00  0.00     0.155 C 
BRANCH  25  26
ATOM     26  C   UNL A   1      32.209  28.476  26.904  1.00  0.00    -0.029 A 
ATOM     27  C   UNL A   1      31.882  29.840  26.922  1.00  0.00     0.005 A 
ATOM     28  C   UNL A   1      33.543  28.110  27.136  1.00  0.00     0.005 A 
ATOM     29  C   UNL A   1      32.868  30.811  27.098  1.00  0.00     0.000 A 
ATOM     30  C   UNL A   1      34.533  29.082  27.292  1.00  0.00     0.000 A 
ATOM     31  C   UNL A   1      34.196  30.432  27.264  1.00  0.00     0.000 A 
ENDBRANCH  25  26
ENDBRANCH  17  25
ENDBRANCH  11  15
ENDBRANCH   4   7
ENDBRANCH   2   3
ENDBRANCH   1   2
BRANCH   1  32
ATOM     32  C   UNL A   1      36.297  23.535  26.228  1.00  0.00     0.118 C 
BRANCH  32  33
ATOM     33  N   UNL A   1      37.430  22.625  26.135  1.00  0.00    -0.352 N 
ATOM     34  C   UNL A   1      38.772  22.892  26.254  1.00  0.00     0.251 C 
ATOM     35  H   UNL A   1      37.201  21.684  25.964  1.00  0.00     0.163 HD
ATOM     36  O   UNL A   1      39.589  22.074  25.843  1.00  0.00    -0.269 OA
BRANCH  34  37
ATOM     37  C   UNL A   1      39.229  24.152  26.879  1.00  0.00     0.039 A 
ATOM     38  C   UNL A   1      39.985  25.053  26.123  1.00  0.00     0.014 A 
ATOM     39  C   UNL A   1      38.958  24.423  28.224  1.00  0.00     0.014 A 
ATOM     40  C   UNL A   1      40.432  26.242  26.705  1.00  0.00     0.010 A 
ATOM     41  C   UNL A   1      39.336  25.641  28.778  1.00  0.00     0.010 A 
ATOM     42  C   UNL A   1      40.093  26.555  28.031  1.00  0.00    -0.014 A 
BRANCH  42  43
ATOM     43  C   UNL A   1      40.536  27.820  28.669  1.00  0.00     0.031 A 
ATOM     44  C   UNL A   1      41.921  27.921  29.253  1.00  0.00     0.074 A 
ATOM     45  C   UNL A   1      39.674  28.848  28.784  1.00  0.00     0.049 A 
ATOM     46  N   UNL A   1      42.466  28.907  29.918  1.00  0.00    -0.248 NA
ATOM     47  C   UNL A   1      42.798  26.749  29.091  1.00  0.00     0.031 C 
ATOM     48  C   UNL A   1      38.293  28.854  28.295  1.00  0.00     0.029 A 
ATOM     49  N   UNL A   1      39.828  30.084  29.359  1.00  0.00    -0.354 N 
ATOM     50  C   UNL A   1      43.735  28.464  30.276  1.00  0.00     0.074 A 
ATOM     51  C   UNL A   1      43.862  27.106  29.795  1.00  0.00     0.031 C 
ATOM     52  C   UNL A   1      37.736  30.045  28.569  1.00  0.00     0.029 A 
ATOM     53  C   UNL A   1      38.703  30.871  29.284  1.00  0.00     0.049 A 
ATOM     54  H   UNL A   1      40.665  30.380  29.783  1.00  0.00     0.167 HD
ATOM     55  C   UNL A   1      44.713  29.134  30.932  1.00  0.00     0.031 A 
ATOM     56  C   UNL A   1      38.474  32.114  29.746  1.00  0.00     0.031 A 
ATOM     57  C   UNL A   1      44.588  30.491  31.391  1.00  0.00     0.049 A 
ATOM     58  C   UNL A   1      39.577  32.841  30.465  1.00  0.00     0.074 A 
ATOM     59  C   UNL A   1      45.540  31.282  32.009  1.00  0.00     0.029 A 
ATOM     60  N   UNL A   1      43.438  31.258  31.279  1.00  0.00    -0.354 N 
ATOM     61  N   UNL A   1      40.791  32.429  30.741  1.00  0.00    -0.248 NA
ATOM     62  C   UNL A   1      39.282  34.205  30.924  1.00  0.00     0.031 C 
ATOM     63  C   UNL A   1      44.951  32.516  32.311  1.00  0.00     0.029 A 
ATOM     64  C   UNL A   1      43.649  32.509  31.835  1.00  0.00     0.049 A 
ATOM     65  H   UNL A   1      42.597  30.959  30.865  1.00  0.00     0.167 HD
ATOM     66  C   UNL A   1      41.413  33.490  31.389  1.00  0.00     0.074 A 
ATOM     67  C   UNL A   1      40.444  34.567  31.450  1.00  0.00     0.031 C 
ATOM     68  C   UNL A   1      42.671  33.566  31.889  1.00  0.00     0.031 A 
BRANCH  55  69
ATOM     69  C   UNL A   1      46.002  28.399  31.194  1.00  0.00    -0.014 A 
ATOM     70  C   UNL A   1      47.058  28.429  30.264  1.00  0.00     0.010 A 
ATOM     71  C   UNL A   1      46.169  27.682  32.393  1.00  0.00     0.010 A 
ATOM     72  C   UNL A   1      48.235  27.717  30.505  1.00  0.00     0.020 A 
ATOM     73  C   UNL A   1      47.357  26.992  32.651  1.00  0.00     0.020 A 
ATOM     74  C   UNL A   1      48.375  26.996  31.695  1.00  0.00     0.054 A 
BRANCH  74  75
ATOM     75  S   UNL A   1      49.917  26.086  31.987  1.00  0.00     0.124 S 
ATOM     76  O   UNL A   1      50.840  27.165  32.333  1.00  0.00    -0.237 OA
ATOM     77  O   UNL A   1      49.561  25.191  33.083  1.00  0.00    -0.237 OA
ATOM     78  O   UNL A   1      50.179  25.429  30.709  1.00  0.00    -0.744 OA
ENDBRANCH  74  75
ENDBRANCH  55  69
BRANCH  56  79
ATOM     79  C   UNL A   1      37.150  32.755  29.521  1.00  0.00    -0.014 A 
ATOM     80  C   UNL A   1      36.177  32.749  30.535  1.00  0.00     0.010 A 
ATOM     81  C   UNL A   1      36.867  33.403  28.304  1.00  0.00     0.010 A 
ATOM     82  C   UNL A   1      34.940  33.369  30.333  1.00  0.00     0.020 A 
ATOM     83  C   UNL A   1      35.640  34.045  28.108  1.00  0.00     0.020 A 
ATOM     84  C   UNL A   1      34.680  34.014  29.121  1.00  0.00     0.054 A 
BRANCH  84  85
ATOM     85  S   UNL A   1      33.089  34.861  28.906  1.00  0.00     0.124 S 
ATOM     86  O   UNL A   1      33.509  36.172  28.420  1.00  0.00    -0.237 OA
ATOM     87  O   UNL A   1      32.408  34.013  27.930  1.00  0.00    -0.237 OA
ATOM     88  O   UNL A   1      32.509  34.846  30.247  1.00  0.00    -0.744 OA
ENDBRANCH  84  85
ENDBRANCH  56  79
BRANCH  68  89
ATOM     89  C   UNL A   1      43.082  34.865  32.527  1.00  0.00    -0.014 A 
ATOM     90  C   UNL A   1      43.667  35.891  31.766  1.00  0.00     0.010 A 
ATOM     91  C   UNL A   1      42.822  35.081  33.892  1.00  0.00     0.010 A 
ATOM     92  C   UNL A   1      44.013  37.105  32.367  1.00  0.00     0.020 A 
ATOM     93  C   UNL A   1      43.143  36.302  34.491  1.00  0.00     0.020 A 
ATOM     94  C   UNL A   1      43.747  37.302  33.726  1.00  0.00     0.054 A 
BRANCH  94  95
ATOM     95  S   UNL A   1      44.158  38.903  34.473  1.00  0.00     0.124 S 
ATOM     96  O   UNL A   1      43.097  39.762  33.952  1.00  0.00    -0.237 OA
ATOM     97  O   UNL A   1      44.090  38.618  35.903  1.00  0.00    -0.237 OA
ATOM     98  O   UNL A   1      45.498  39.189  33.964  1.00  0.00    -0.744 OA
ENDBRANCH  94  95
ENDBRANCH  68  89
ENDBRANCH  42  43
ENDBRANCH  34  37
ENDBRANCH  32  33
ENDBRANCH   1  32
TORSDOF 18
ENDMDL
