MODEL 1
REMARK VINA RESULT:     -11.4      0.000      0.000
REMARK SMILES CCc1ccc(C(=O)NCCCNC(=O)c2ccc(-c3c4nc(c(-c5ccc(S(=O)(=O)[O-])cc5)c5ccc([nH]5)c(-c5ccc(S(=O)(=O)[O-])cc5)c5nc(c(-c6ccc(S(=O)(=O)[O-])cc6)c6ccc3[nH]6)C=C5)C=C4)cc2)cc1S(=O)(=O)Nc1ccc(F)c(F)c1F
REMARK SMILES IDX 11 1 10 2 9 3 7 4 8 5 6 7 3 8 4 9 77 10 5 11 76 12 2 13 1 14
REMARK SMILES IDX 78 15 79 16 80 17 81 18 82 20 83 21 89 22 84 23 87 24 90 25
REMARK SMILES IDX 85 26 88 27 86 28 12 29 13 30 14 31 15 33 16 34 17 35 75 36
REMARK SMILES IDX 18 37 74 38 19 39 20 40 21 41 68 42 22 43 73 44 67 45 69 46
REMARK SMILES IDX 23 47 72 48 66 49 65 50 24 52 54 53 35 54 53 55 36 56 39 57
REMARK SMILES IDX 52 58 70 59 37 60 38 61 51 63 71 64 40 65 25 66 26 67 34 68
REMARK SMILES IDX 27 69 33 70 28 71 29 72 30 73 31 74 32 75 55 76 56 77 64 78
REMARK SMILES IDX 57 79 63 80 58 81 59 82 60 83 61 84 62 85 41 86 42 87 50 88
REMARK SMILES IDX 43 89 49 90 44 91 45 92 46 93 47 94 48 95
REMARK H PARENT 9 6 81 19 13 32 69 51 39 62
REMARK Flexibility Score: inf
ROOT
ATOM      1  C   UNL A   1      33.429  28.125  25.102  1.00  0.00     0.042 C 
ENDROOT
BRANCH   1   2
ATOM      2  C   UNL A   1      32.122  28.908  24.996  1.00  0.00     0.118 C 
BRANCH   2   3
ATOM      3  N   UNL A   1      31.536  28.726  23.677  1.00  0.00    -0.352 N 
ATOM      4  C   UNL A   1      31.053  27.616  23.035  1.00  0.00     0.251 C 
ATOM      5  O   UNL A   1      30.651  27.728  21.879  1.00  0.00    -0.269 OA
ATOM      6  H   UNL A   1      31.476  29.554  23.147  1.00  0.00     0.163 HD
BRANCH   4   7
ATOM      7  C   UNL A   1      30.856  26.337  23.754  1.00  0.00     0.041 A 
ATOM      8  C   UNL A   1      30.686  24.207  25.613  1.00  0.00    -0.028 A 
ATOM      9  C   UNL A   1      29.757  25.274  25.608  1.00  0.00     0.006 A 
ATOM     10  C   UNL A   1      31.606  24.146  24.541  1.00  0.00     0.091 A 
ATOM     11  C   UNL A   1      29.839  26.321  24.698  1.00  0.00     0.014 A 
ATOM     12  C   UNL A   1      31.663  25.212  23.608  1.00  0.00     0.036 A 
BRANCH   8  13
ATOM     13  C   UNL A   1      30.715  23.381  26.877  1.00  0.00     0.033 C 
ATOM     14  C   UNL A   1      29.394  22.714  27.265  1.00  0.00     0.009 C 
ENDBRANCH   8  13
BRANCH  10  15
ATOM     15  S   UNL A   1      32.867  22.910  24.214  1.00  0.00     0.262 S 
ATOM     16  O   UNL A   1      32.220  21.625  24.118  1.00  0.00    -0.201 OA
ATOM     17  O   UNL A   1      33.610  23.437  23.080  1.00  0.00    -0.201 OA
BRANCH  15  18
ATOM     18  N   UNL A   1      33.993  22.838  25.429  1.00  0.00    -0.277 N 
ATOM     19  H   UNL A   1      33.647  22.927  26.347  1.00  0.00     0.180 HD
BRANCH  18  20
ATOM     20  C   UNL A   1      35.401  22.662  25.306  1.00  0.00     0.088 A 
ATOM     21  C   UNL A   1      36.170  23.752  25.754  1.00  0.00     0.033 A 
ATOM     22  C   UNL A   1      36.048  21.463  24.989  1.00  0.00     0.185 A 
ATOM     23  C   UNL A   1      37.540  23.613  25.972  1.00  0.00     0.045 A 
ATOM     24  C   UNL A   1      37.419  21.336  25.184  1.00  0.00     0.196 A 
ATOM     25  F   UNL A   1      35.362  20.388  24.580  1.00  0.00    -0.201 F 
ATOM     26  C   UNL A   1      38.152  22.396  25.699  1.00  0.00     0.162 A 
ATOM     27  F   UNL A   1      38.025  20.165  24.940  1.00  0.00    -0.200 F 
ATOM     28  F   UNL A   1      39.454  22.246  25.977  1.00  0.00    -0.204 F 
ENDBRANCH  18  20
ENDBRANCH  15  18
ENDBRANCH  10  15
ENDBRANCH   4   7
ENDBRANCH   2   3
ENDBRANCH   1   2
BRANCH   1  29
ATOM     29  C   UNL A   1      34.139  28.341  26.435  1.00  0.00     0.118 C 
BRANCH  29  30
ATOM     30  N   UNL A   1      33.848  29.649  27.002  1.00  0.00    -0.352 N 
ATOM     31  C   UNL A   1      34.593  30.393  27.882  1.00  0.00     0.251 C 
ATOM     32  H   UNL A   1      32.999  30.057  26.715  1.00  0.00     0.163 HD
ATOM     33  O   UNL A   1      34.094  31.380  28.416  1.00  0.00    -0.269 OA
BRANCH  31  34
ATOM     34  C   UNL A   1      35.985  30.002  28.192  1.00  0.00     0.039 A 
ATOM     35  C   UNL A   1      36.274  29.490  29.459  1.00  0.00     0.014 A 
ATOM     36  C   UNL A   1      37.008  30.177  27.255  1.00  0.00     0.014 A 
ATOM     37  C   UNL A   1      37.585  29.128  29.779  1.00  0.00     0.010 A 
ATOM     38  C   UNL A   1      38.302  29.756  27.553  1.00  0.00     0.010 A 
ATOM     39  C   UNL A   1      38.607  29.247  28.824  1.00  0.00    -0.014 A 
BRANCH  39  40
ATOM     40  C   UNL A   1      40.009  28.888  29.151  1.00  0.00     0.031 A 
ATOM     41  C   UNL A   1      40.904  29.901  29.817  1.00  0.00     0.074 A 
ATOM     42  C   UNL A   1      40.491  27.678  28.806  1.00  0.00     0.049 A 
ATOM     43  N   UNL A   1      42.173  29.808  30.121  1.00  0.00    -0.248 NA
ATOM     44  C   UNL A   1      40.299  31.199  30.164  1.00  0.00     0.031 C 
ATOM     45  C   UNL A   1      39.733  26.625  28.125  1.00  0.00     0.029 A 
ATOM     46  N   UNL A   1      41.739  27.132  28.973  1.00  0.00    -0.354 N 
ATOM     47  C   UNL A   1      42.523  31.038  30.667  1.00  0.00     0.074 A 
ATOM     48  C   UNL A   1      41.345  31.874  30.618  1.00  0.00     0.031 C 
ATOM     49  C   UNL A   1      40.527  25.555  27.949  1.00  0.00     0.029 A 
ATOM     50  C   UNL A   1      41.856  25.856  28.472  1.00  0.00     0.049 A 
ATOM     51  H   UNL A   1      42.481  27.609  29.410  1.00  0.00     0.167 HD
ATOM     52  C   UNL A   1      43.714  31.430  31.178  1.00  0.00     0.031 A 
ATOM     53  C   UNL A   1      42.916  25.026  28.434  1.00  0.00     0.031 A 
ATOM     54  C   UNL A   1      44.874  30.583  31.254  1.00  0.00     0.049 A 
ATOM     55  C   UNL A   1      44.221  25.478  29.032  1.00  0.00     0.074 A 
ATOM     56  C   UNL A   1      46.111  30.867  31.807  1.00  0.00     0.029 A 
ATOM     57  N   UNL A   1      44.938  29.285  30.771  1.00  0.00    -0.354 N 
ATOM     58  N   UNL A   1      44.516  26.626  29.595  1.00  0.00    -0.248 NA
ATOM     59  C   UNL A   1      45.331  24.516  29.006  1.00  0.00     0.031 C 
ATOM     60  C   UNL A   1      46.935  29.752  31.626  1.00  0.00     0.029 A 
ATOM     61  C   UNL A   1      46.196  28.757  31.006  1.00  0.00     0.049 A 
ATOM     62  H   UNL A   1      44.198  28.810  30.328  1.00  0.00     0.167 HD
ATOM     63  C   UNL A   1      45.834  26.510  30.020  1.00  0.00     0.074 A 
ATOM     64  C   UNL A   1      46.276  25.179  29.660  1.00  0.00     0.031 C 
ATOM     65  C   UNL A   1      46.611  27.424  30.654  1.00  0.00     0.031 A 
BRANCH  52  66
ATOM     66  C   UNL A   1      43.824  32.837  31.702  1.00  0.00    -0.014 A 
ATOM     67  C   UNL A   1      44.212  33.896  30.862  1.00  0.00     0.010 A 
ATOM     68  C   UNL A   1      43.479  33.114  33.037  1.00  0.00     0.010 A 
ATOM     69  C   UNL A   1      44.282  35.202  31.355  1.00  0.00     0.020 A 
ATOM     70  C   UNL A   1      43.521  34.423  33.527  1.00  0.00     0.020 A 
ATOM     71  C   UNL A   1      43.935  35.457  32.686  1.00  0.00     0.054 A 
BRANCH  71  72
ATOM     72  S   UNL A   1      43.993  37.168  33.286  1.00  0.00     0.124 S 
ATOM     73  O   UNL A   1      45.249  37.185  34.031  1.00  0.00    -0.237 OA
ATOM     74  O   UNL A   1      43.986  37.943  32.048  1.00  0.00    -0.237 OA
ATOM     75  O   UNL A   1      42.785  37.291  34.099  1.00  0.00    -0.744 OA
ENDBRANCH  71  72
ENDBRANCH  52  66
BRANCH  53  76
ATOM     76  C   UNL A   1      42.788  23.675  27.823  1.00  0.00    -0.014 A 
ATOM     77  C   UNL A   1      43.123  23.468  26.473  1.00  0.00     0.010 A 
ATOM     78  C   UNL A   1      42.319  22.589  28.585  1.00  0.00     0.010 A 
ATOM     79  C   UNL A   1      42.960  22.210  25.887  1.00  0.00     0.020 A 
ATOM     80  C   UNL A   1      42.180  21.323  28.009  1.00  0.00     0.020 A 
ATOM     81  C   UNL A   1      42.485  21.145  26.658  1.00  0.00     0.054 A 
BRANCH  81  82
ATOM     82  S   UNL A   1      42.304  19.514  25.884  1.00  0.00     0.124 S 
ATOM     83  O   UNL A   1      40.897  19.517  25.498  1.00  0.00    -0.237 OA
ATOM     84  O   UNL A   1      43.263  19.575  24.785  1.00  0.00    -0.237 OA
ATOM     85  O   UNL A   1      42.658  18.586  26.958  1.00  0.00    -0.744 OA
ENDBRANCH  81  82
ENDBRANCH  53  76
BRANCH  65  86
ATOM     86  C   UNL A   1      47.998  26.999  31.049  1.00  0.00    -0.014 A 
ATOM     87  C   UNL A   1      49.101  27.229  30.211  1.00  0.00     0.010 A 
ATOM     88  C   UNL A   1      48.204  26.406  32.309  1.00  0.00     0.010 A 
ATOM     89  C   UNL A   1      50.384  26.845  30.611  1.00  0.00     0.020 A 
ATOM     90  C   UNL A   1      49.488  26.046  32.724  1.00  0.00     0.020 A 
ATOM     91  C   UNL A   1      50.569  26.254  31.865  1.00  0.00     0.054 A 
BRANCH  91  92
ATOM     92  S   UNL A   1      52.247  25.802  32.381  1.00  0.00     0.124 S 
ATOM     93  O   UNL A   1      52.029  24.511  33.027  1.00  0.00    -0.237 OA
ATOM     94  O   UNL A   1      52.973  25.755  31.114  1.00  0.00    -0.237 OA
ATOM     95  O   UNL A   1      52.638  26.888  33.276  1.00  0.00    -0.744 OA
ENDBRANCH  91  92
ENDBRANCH  65  86
ENDBRANCH  39  40
ENDBRANCH  31  34
ENDBRANCH  29  30
ENDBRANCH   1  29
TORSDOF 17
ENDMDL
MODEL 2
REMARK VINA RESULT:     -11.4      4.615     10.223
REMARK SMILES CCc1ccc(C(=O)NCCCNC(=O)c2ccc(-c3c4nc(c(-c5ccc(S(=O)(=O)[O-])cc5)c5ccc([nH]5)c(-c5ccc(S(=O)(=O)[O-])cc5)c5nc(c(-c6ccc(S(=O)(=O)[O-])cc6)c6ccc3[nH]6)C=C5)C=C4)cc2)cc1S(=O)(=O)Nc1ccc(F)c(F)c1F
REMARK SMILES IDX 11 1 10 2 9 3 7 4 8 5 6 7 3 8 4 9 77 10 5 11 76 12 2 13 1 14
REMARK SMILES IDX 78 15 79 16 80 17 81 18 82 20 83 21 89 22 84 23 87 24 90 25
REMARK SMILES IDX 85 26 88 27 86 28 12 29 13 30 14 31 15 33 16 34 17 35 75 36
REMARK SMILES IDX 18 37 74 38 19 39 20 40 21 41 68 42 22 43 73 44 67 45 69 46
REMARK SMILES IDX 23 47 72 48 66 49 65 50 24 52 54 53 35 54 53 55 36 56 39 57
REMARK SMILES IDX 52 58 70 59 37 60 38 61 51 63 71 64 40 65 25 66 26 67 34 68
REMARK SMILES IDX 27 69 33 70 28 71 29 72 30 73 31 74 32 75 55 76 56 77 64 78
REMARK SMILES IDX 57 79 63 80 58 81 59 82 60 83 61 84 62 85 41 86 42 87 50 88
REMARK SMILES IDX 43 89 49 90 44 91 45 92 46 93 47 94 48 95
REMARK H PARENT 9 6 81 19 13 32 69 51 39 62
REMARK Flexibility Score: inf
ROOT
ATOM      1  C   UNL A   1      37.760  23.511  25.649  1.00  0.00     0.042 C 
ENDROOT
BRANCH   1   2
ATOM      2  C   UNL A   1      36.328  23.959  25.936  1.00  0.00     0.118 C 
BRANCH   2   3
ATOM      3  N   UNL A   1      35.626  22.934  26.692  1.00  0.00    -0.352 N 
ATOM      4  C   UNL A   1      34.303  22.579  26.744  1.00  0.00     0.251 C 
ATOM      5  O   UNL A   1      33.957  21.692  27.520  1.00  0.00    -0.269 OA
ATOM      6  H   UNL A   1      36.208  22.395  27.276  1.00  0.00     0.163 HD
BRANCH   4   7
ATOM      7  C   UNL A   1      33.324  23.123  25.776  1.00  0.00     0.041 A 
ATOM      8  C   UNL A   1      31.949  24.379  23.642  1.00  0.00    -0.028 A 
ATOM      9  C   UNL A   1      32.662  23.170  23.466  1.00  0.00     0.006 A 
ATOM     10  C   UNL A   1      31.797  24.853  24.966  1.00  0.00     0.091 A 
ATOM     11  C   UNL A   1      33.339  22.552  24.511  1.00  0.00     0.014 A 
ATOM     12  C   UNL A   1      32.476  24.199  26.024  1.00  0.00     0.036 A 
BRANCH   8  13
ATOM     13  C   UNL A   1      31.618  25.126  22.371  1.00  0.00     0.033 C 
ATOM     14  C   UNL A   1      32.747  25.976  21.787  1.00  0.00     0.009 C 
ENDBRANCH   8  13
BRANCH  10  15
ATOM     15  S   UNL A   1      30.913  26.306  25.543  1.00  0.00     0.262 S 
ATOM     16  O   UNL A   1      29.547  26.206  25.093  1.00  0.00    -0.201 OA
ATOM     17  O   UNL A   1      31.207  26.372  26.965  1.00  0.00    -0.201 OA
BRANCH  15  18
ATOM     18  N   UNL A   1      31.562  27.707  24.936  1.00  0.00    -0.277 N 
ATOM     19  H   UNL A   1      31.352  27.909  23.995  1.00  0.00     0.180 HD
BRANCH  18  20
ATOM     20  C   UNL A   1      32.386  28.651  25.611  1.00  0.00     0.088 A 
ATOM     21  C   UNL A   1      31.763  29.883  25.884  1.00  0.00     0.033 A 
ATOM     22  C   UNL A   1      33.633  28.382  26.185  1.00  0.00     0.185 A 
ATOM     23  C   UNL A   1      32.330  30.782  26.788  1.00  0.00     0.045 A 
ATOM     24  C   UNL A   1      34.208  29.293  27.066  1.00  0.00     0.196 A 
ATOM     25  F   UNL A   1      34.260  27.218  25.976  1.00  0.00    -0.201 F 
ATOM     26  C   UNL A   1      33.545  30.470  27.385  1.00  0.00     0.162 A 
ATOM     27  F   UNL A   1      35.373  29.003  27.663  1.00  0.00    -0.200 F 
ATOM     28  F   UNL A   1      34.050  31.303  28.305  1.00  0.00    -0.204 F 
ENDBRANCH  18  20
ENDBRANCH  15  18
ENDBRANCH  10  15
ENDBRANCH   4   7
ENDBRANCH   2   3
ENDBRANCH   1   2
BRANCH   1  29
ATOM     29  C   UNL A   1      38.771  24.104  26.626  1.00  0.00     0.118 C 
BRANCH  29  30
ATOM     30  N   UNL A   1      40.116  24.127  26.070  1.00  0.00    -0.352 N 
ATOM     31  C   UNL A   1      41.135  25.014  26.314  1.00  0.00     0.251 C 
ATOM     32  H   UNL A   1      40.323  23.408  25.431  1.00  0.00     0.163 HD
ATOM     33  O   UNL A   1      42.132  25.004  25.597  1.00  0.00    -0.269 OA
BRANCH  31  34
ATOM     34  C   UNL A   1      41.026  25.982  27.427  1.00  0.00     0.039 A 
ATOM     35  C   UNL A   1      40.095  25.738  28.440  1.00  0.00     0.014 A 
ATOM     36  C   UNL A   1      41.804  27.143  27.451  1.00  0.00     0.014 A 
ATOM     37  C   UNL A   1      39.964  26.647  29.493  1.00  0.00     0.010 A 
ATOM     38  C   UNL A   1      41.717  28.015  28.534  1.00  0.00     0.010 A 
ATOM     39  C   UNL A   1      40.782  27.786  29.554  1.00  0.00    -0.014 A 
BRANCH  39  40
ATOM     40  C   UNL A   1      40.644  28.774  30.654  1.00  0.00     0.031 A 
ATOM     41  C   UNL A   1      41.518  28.659  31.875  1.00  0.00     0.074 A 
ATOM     42  C   UNL A   1      39.706  29.738  30.577  1.00  0.00     0.049 A 
ATOM     43  N   UNL A   1      41.505  29.376  32.970  1.00  0.00    -0.248 NA
ATOM     44  C   UNL A   1      42.521  27.579  31.879  1.00  0.00     0.031 C 
ATOM     45  C   UNL A   1      38.775  29.929  29.461  1.00  0.00     0.029 A 
ATOM     46  N   UNL A   1      39.372  30.732  31.462  1.00  0.00    -0.354 N 
ATOM     47  C   UNL A   1      42.473  28.819  33.798  1.00  0.00     0.074 A 
ATOM     48  C   UNL A   1      43.029  27.683  33.098  1.00  0.00     0.031 C 
ATOM     49  C   UNL A   1      37.990  30.988  29.721  1.00  0.00     0.029 A 
ATOM     50  C   UNL A   1      38.336  31.529  31.033  1.00  0.00     0.049 A 
ATOM     51  H   UNL A   1      39.831  30.863  32.322  1.00  0.00     0.167 HD
ATOM     52  C   UNL A   1      42.876  29.228  35.025  1.00  0.00     0.031 A 
ATOM     53  C   UNL A   1      37.729  32.572  31.631  1.00  0.00     0.031 A 
ATOM     54  C   UNL A   1      42.343  30.380  35.703  1.00  0.00     0.049 A 
ATOM     55  C   UNL A   1      38.214  33.021  32.984  1.00  0.00     0.074 A 
ATOM     56  C   UNL A   1      42.724  30.912  36.922  1.00  0.00     0.029 A 
ATOM     57  N   UNL A   1      41.322  31.181  35.216  1.00  0.00    -0.354 N 
ATOM     58  N   UNL A   1      39.170  32.516  33.727  1.00  0.00    -0.248 NA
ATOM     59  C   UNL A   1      37.549  34.193  33.571  1.00  0.00     0.031 C 
ATOM     60  C   UNL A   1      41.908  32.015  37.190  1.00  0.00     0.029 A 
ATOM     61  C   UNL A   1      41.054  32.199  36.115  1.00  0.00     0.049 A 
ATOM     62  H   UNL A   1      40.857  31.046  34.359  1.00  0.00     0.167 HD
ATOM     63  C   UNL A   1      39.243  33.329  34.852  1.00  0.00     0.074 A 
ATOM     64  C   UNL A   1      38.244  34.364  34.687  1.00  0.00     0.031 C 
ATOM     65  C   UNL A   1      40.066  33.229  35.925  1.00  0.00     0.031 A 
BRANCH  52  66
ATOM     66  C   UNL A   1      43.950  28.430  35.713  1.00  0.00    -0.014 A 
ATOM     67  C   UNL A   1      45.310  28.643  35.425  1.00  0.00     0.010 A 
ATOM     68  C   UNL A   1      43.599  27.496  36.705  1.00  0.00     0.010 A 
ATOM     69  C   UNL A   1      46.298  27.914  36.093  1.00  0.00     0.020 A 
ATOM     70  C   UNL A   1      44.585  26.785  37.395  1.00  0.00     0.020 A 
ATOM     71  C   UNL A   1      45.929  26.989  37.075  1.00  0.00     0.054 A 
BRANCH  71  72
ATOM     72  S   UNL A   1      47.234  26.091  37.958  1.00  0.00     0.124 S 
ATOM     73  O   UNL A   1      48.417  26.425  37.169  1.00  0.00    -0.237 OA
ATOM     74  O   UNL A   1      47.183  26.679  39.294  1.00  0.00    -0.237 OA
ATOM     75  O   UNL A   1      46.808  24.695  37.880  1.00  0.00    -0.744 OA
ENDBRANCH  71  72
ENDBRANCH  52  66
BRANCH  53  76
ATOM     76  C   UNL A   1      36.608  33.277  30.953  1.00  0.00    -0.014 A 
ATOM     77  C   UNL A   1      35.326  33.299  31.531  1.00  0.00     0.010 A 
ATOM     78  C   UNL A   1      36.813  33.921  29.720  1.00  0.00     0.010 A 
ATOM     79  C   UNL A   1      34.263  33.922  30.872  1.00  0.00     0.020 A 
ATOM     80  C   UNL A   1      35.758  34.569  29.071  1.00  0.00     0.020 A 
ATOM     81  C   UNL A   1      34.484  34.551  29.644  1.00  0.00     0.054 A 
BRANCH  81  82
ATOM     82  S   UNL A   1      33.095  35.376  28.817  1.00  0.00     0.124 S 
ATOM     83  O   UNL A   1      33.778  36.386  28.015  1.00  0.00    -0.237 OA
ATOM     84  O   UNL A   1      32.476  34.285  28.069  1.00  0.00    -0.237 OA
ATOM     85  O   UNL A   1      32.296  35.892  29.926  1.00  0.00    -0.744 OA
ENDBRANCH  81  82
ENDBRANCH  53  76
BRANCH  65  86
ATOM     86  C   UNL A   1      39.960  34.296  36.980  1.00  0.00    -0.014 A 
ATOM     87  C   UNL A   1      40.606  35.535  36.836  1.00  0.00     0.010 A 
ATOM     88  C   UNL A   1      39.153  34.069  38.110  1.00  0.00     0.010 A 
ATOM     89  C   UNL A   1      40.473  36.518  37.820  1.00  0.00     0.020 A 
ATOM     90  C   UNL A   1      38.995  35.059  39.082  1.00  0.00     0.020 A 
ATOM     91  C   UNL A   1      39.669  36.273  38.939  1.00  0.00     0.054 A 
BRANCH  91  92
ATOM     92  S   UNL A   1      39.477  37.578  40.182  1.00  0.00     0.124 S 
ATOM     93  O   UNL A   1      38.455  38.427  39.577  1.00  0.00    -0.237 OA
ATOM     94  O   UNL A   1      39.056  36.835  41.368  1.00  0.00    -0.237 OA
ATOM     95  O   UNL A   1      40.810  38.172  40.269  1.00  0.00    -0.744 OA
ENDBRANCH  91  92
ENDBRANCH  65  86
ENDBRANCH  39  40
ENDBRANCH  31  34
ENDBRANCH  29  30
ENDBRANCH   1  29
TORSDOF 17
ENDMDL
MODEL 3
REMARK VINA RESULT:     -11.3      3.266      4.288
REMARK SMILES CCc1ccc(C(=O)NCCCNC(=O)c2ccc(-c3c4nc(c(-c5ccc(S(=O)(=O)[O-])cc5)c5ccc([nH]5)c(-c5ccc(S(=O)(=O)[O-])cc5)c5nc(c(-c6ccc(S(=O)(=O)[O-])cc6)c6ccc3[nH]6)C=C5)C=C4)cc2)cc1S(=O)(=O)Nc1ccc(F)c(F)c1F
REMARK SMILES IDX 11 1 10 2 9 3 7 4 8 5 6 7 3 8 4 9 77 10 5 11 76 12 2 13 1 14
REMARK SMILES IDX 78 15 79 16 80 17 81 18 82 20 83 21 89 22 84 23 87 24 90 25
REMARK SMILES IDX 85 26 88 27 86 28 12 29 13 30 14 31 15 33 16 34 17 35 75 36
REMARK SMILES IDX 18 37 74 38 19 39 20 40 21 41 68 42 22 43 73 44 67 45 69 46
REMARK SMILES IDX 23 47 72 48 66 49 65 50 24 52 54 53 35 54 53 55 36 56 39 57
REMARK SMILES IDX 52 58 70 59 37 60 38 61 51 63 71 64 40 65 25 66 26 67 34 68
REMARK SMILES IDX 27 69 33 70 28 71 29 72 30 73 31 74 32 75 55 76 56 77 64 78
REMARK SMILES IDX 57 79 63 80 58 81 59 82 60 83 61 84 62 85 41 86 42 87 50 88
REMARK SMILES IDX 43 89 49 90 44 91 45 92 46 93 47 94 48 95
REMARK H PARENT 9 6 81 19 13 32 69 51 39 62
REMARK Flexibility Score: inf
ROOT
ATOM      1  C   UNL A   1      33.915  29.000  27.304  1.00  0.00     0.042 C 
ENDROOT
BRANCH   1   2
ATOM      2  C   UNL A   1      33.662  28.884  25.802  1.00  0.00     0.118 C 
BRANCH   2   3
ATOM      3  N   UNL A   1      32.365  28.272  25.559  1.00  0.00    -0.352 N 
ATOM      4  C   UNL A   1      32.002  26.989  25.243  1.00  0.00     0.251 C 
ATOM      5  O   UNL A   1      30.817  26.743  25.036  1.00  0.00    -0.269 OA
ATOM      6  H   UNL A   1      31.607  28.897  25.633  1.00  0.00     0.163 HD
BRANCH   4   7
ATOM      7  C   UNL A   1      32.976  25.877  25.310  1.00  0.00     0.041 A 
ATOM      8  C   UNL A   1      34.620  23.611  24.882  1.00  0.00    -0.028 A 
ATOM      9  C   UNL A   1      34.855  24.841  24.226  1.00  0.00     0.006 A 
ATOM     10  C   UNL A   1      33.638  23.597  25.899  1.00  0.00     0.091 A 
ATOM     11  C   UNL A   1      34.049  25.954  24.433  1.00  0.00     0.014 A 
ATOM     12  C   UNL A   1      32.838  24.748  26.112  1.00  0.00     0.036 A 
BRANCH   8  13
ATOM     13  C   UNL A   1      35.304  22.410  24.270  1.00  0.00     0.033 C 
ATOM     14  C   UNL A   1      36.588  22.704  23.492  1.00  0.00     0.009 C 
ENDBRANCH   8  13
BRANCH  10  15
ATOM     15  S   UNL A   1      33.135  22.235  26.955  1.00  0.00     0.262 S 
ATOM     16  O   UNL A   1      34.323  21.532  27.375  1.00  0.00    -0.201 OA
ATOM     17  O   UNL A   1      32.262  22.843  27.946  1.00  0.00    -0.201 OA
BRANCH  15  18
ATOM     18  N   UNL A   1      32.149  21.165  26.159  1.00  0.00    -0.277 N 
ATOM     19  H   UNL A   1      31.293  20.954  26.598  1.00  0.00     0.180 HD
BRANCH  18  20
ATOM     20  C   UNL A   1      32.391  20.515  24.915  1.00  0.00     0.088 A 
ATOM     21  C   UNL A   1      32.706  19.148  25.019  1.00  0.00     0.033 A 
ATOM     22  C   UNL A   1      32.140  21.058  23.650  1.00  0.00     0.185 A 
ATOM     23  C   UNL A   1      32.674  18.324  23.894  1.00  0.00     0.045 A 
ATOM     24  C   UNL A   1      32.135  20.237  22.527  1.00  0.00     0.196 A 
ATOM     25  F   UNL A   1      31.815  22.347  23.496  1.00  0.00    -0.201 F 
ATOM     26  C   UNL A   1      32.372  18.875  22.655  1.00  0.00     0.162 A 
ATOM     27  F   UNL A   1      31.831  20.748  21.325  1.00  0.00    -0.200 F 
ATOM     28  F   UNL A   1      32.273  18.068  21.590  1.00  0.00    -0.204 F 
ENDBRANCH  18  20
ENDBRANCH  15  18
ENDBRANCH  10  15
ENDBRANCH   4   7
ENDBRANCH   2   3
ENDBRANCH   1   2
BRANCH   1  29
ATOM     29  C   UNL A   1      35.282  29.596  27.628  1.00  0.00     0.118 C 
BRANCH  29  30
ATOM     30  N   UNL A   1      35.297  30.248  28.929  1.00  0.00    -0.352 N 
ATOM     31  C   UNL A   1      36.313  30.313  29.849  1.00  0.00     0.251 C 
ATOM     32  H   UNL A   1      34.463  30.704  29.184  1.00  0.00     0.163 HD
ATOM     33  O   UNL A   1      36.080  30.725  30.982  1.00  0.00    -0.269 OA
BRANCH  31  34
ATOM     34  C   UNL A   1      37.678  29.881  29.479  1.00  0.00     0.039 A 
ATOM     35  C   UNL A   1      38.562  29.503  30.493  1.00  0.00     0.014 A 
ATOM     36  C   UNL A   1      38.100  29.889  28.146  1.00  0.00     0.014 A 
ATOM     37  C   UNL A   1      39.861  29.107  30.168  1.00  0.00     0.010 A 
ATOM     38  C   UNL A   1      39.375  29.432  27.819  1.00  0.00     0.010 A 
ATOM     39  C   UNL A   1      40.274  29.057  28.828  1.00  0.00    -0.014 A 
BRANCH  39  40
ATOM     40  C   UNL A   1      41.657  28.659  28.463  1.00  0.00     0.031 A 
ATOM     41  C   UNL A   1      42.747  29.697  28.422  1.00  0.00     0.074 A 
ATOM     42  C   UNL A   1      41.921  27.382  28.122  1.00  0.00     0.049 A 
ATOM     43  N   UNL A   1      43.998  29.567  28.062  1.00  0.00    -0.248 NA
ATOM     44  C   UNL A   1      42.376  31.069  28.811  1.00  0.00     0.031 C 
ATOM     45  C   UNL A   1      40.941  26.292  28.089  1.00  0.00     0.029 A 
ATOM     46  N   UNL A   1      43.093  26.786  27.729  1.00  0.00    -0.354 N 
ATOM     47  C   UNL A   1      44.553  30.838  28.156  1.00  0.00     0.074 A 
ATOM     48  C   UNL A   1      43.496  31.733  28.569  1.00  0.00     0.031 C 
ATOM     49  C   UNL A   1      41.557  25.159  27.714  1.00  0.00     0.029 A 
ATOM     50  C   UNL A   1      42.964  25.446  27.448  1.00  0.00     0.049 A 
ATOM     51  H   UNL A   1      43.944  27.272  27.654  1.00  0.00     0.167 HD
ATOM     52  C   UNL A   1      45.833  31.223  27.934  1.00  0.00     0.031 A 
ATOM     53  C   UNL A   1      43.875  24.551  27.019  1.00  0.00     0.031 A 
ATOM     54  C   UNL A   1      46.888  30.322  27.555  1.00  0.00     0.049 A 
ATOM     55  C   UNL A   1      45.296  25.000  26.805  1.00  0.00     0.074 A 
ATOM     56  C   UNL A   1      48.230  30.602  27.363  1.00  0.00     0.029 A 
ATOM     57  N   UNL A   1      46.724  28.966  27.319  1.00  0.00    -0.354 N 
ATOM     58  N   UNL A   1      45.813  26.196  26.954  1.00  0.00    -0.248 NA
ATOM     59  C   UNL A   1      46.259  23.974  26.382  1.00  0.00     0.031 C 
ATOM     60  C   UNL A   1      48.871  29.421  26.976  1.00  0.00     0.029 A 
ATOM     61  C   UNL A   1      47.937  28.397  26.975  1.00  0.00     0.049 A 
ATOM     62  H   UNL A   1      45.870  28.480  27.387  1.00  0.00     0.167 HD
ATOM     63  C   UNL A   1      47.169  26.058  26.676  1.00  0.00     0.074 A 
ATOM     64  C   UNL A   1      47.392  24.662  26.361  1.00  0.00     0.031 C 
ATOM     65  C   UNL A   1      48.142  27.002  26.682  1.00  0.00     0.031 A 
BRANCH  52  66
ATOM     66  C   UNL A   1      46.167  32.681  28.100  1.00  0.00    -0.014 A 
ATOM     67  C   UNL A   1      46.021  33.585  27.033  1.00  0.00     0.010 A 
ATOM     68  C   UNL A   1      46.575  33.165  29.356  1.00  0.00     0.010 A 
ATOM     69  C   UNL A   1      46.308  34.941  27.210  1.00  0.00     0.020 A 
ATOM     70  C   UNL A   1      46.837  34.526  29.545  1.00  0.00     0.020 A 
ATOM     71  C   UNL A   1      46.714  35.404  28.467  1.00  0.00     0.054 A 
BRANCH  71  72
ATOM     72  S   UNL A   1      47.035  37.176  28.679  1.00  0.00     0.124 S 
ATOM     73  O   UNL A   1      45.762  37.765  28.272  1.00  0.00    -0.237 OA
ATOM     74  O   UNL A   1      47.349  37.278  30.101  1.00  0.00    -0.237 OA
ATOM     75  O   UNL A   1      48.157  37.435  27.778  1.00  0.00    -0.744 OA
ENDBRANCH  71  72
ENDBRANCH  52  66
BRANCH  53  76
ATOM     76  C   UNL A   1      43.481  23.136  26.779  1.00  0.00    -0.014 A 
ATOM     77  C   UNL A   1      42.941  22.359  27.820  1.00  0.00     0.010 A 
ATOM     78  C   UNL A   1      43.653  22.554  25.511  1.00  0.00     0.010 A 
ATOM     79  C   UNL A   1      42.613  21.018  27.607  1.00  0.00     0.020 A 
ATOM     80  C   UNL A   1      43.300  21.220  25.286  1.00  0.00     0.020 A 
ATOM     81  C   UNL A   1      42.798  20.454  26.341  1.00  0.00     0.054 A 
BRANCH  81  82
ATOM     82  S   UNL A   1      42.343  18.718  26.079  1.00  0.00     0.124 S 
ATOM     83  O   UNL A   1      42.606  18.134  27.390  1.00  0.00    -0.237 OA
ATOM     84  O   UNL A   1      40.936  18.812  25.698  1.00  0.00    -0.237 OA
ATOM     85  O   UNL A   1      43.242  18.288  25.009  1.00  0.00    -0.744 OA
ENDBRANCH  81  82
ENDBRANCH  53  76
BRANCH  65  86
ATOM     86  C   UNL A   1      49.547  26.550  26.394  1.00  0.00    -0.014 A 
ATOM     87  C   UNL A   1      50.114  26.691  25.117  1.00  0.00     0.010 A 
ATOM     88  C   UNL A   1      50.329  26.023  27.439  1.00  0.00     0.010 A 
ATOM     89  C   UNL A   1      51.430  26.283  24.880  1.00  0.00     0.020 A 
ATOM     90  C   UNL A   1      51.653  25.640  27.214  1.00  0.00     0.020 A 
ATOM     91  C   UNL A   1      52.191  25.759  25.931  1.00  0.00     0.054 A 
BRANCH  91  92
ATOM     92  S   UNL A   1      53.909  25.276  25.611  1.00  0.00     0.124 S 
ATOM     93  O   UNL A   1      54.452  25.172  26.963  1.00  0.00    -0.237 OA
ATOM     94  O   UNL A   1      53.761  24.011  24.895  1.00  0.00    -0.237 OA
ATOM     95  O   UNL A   1      54.436  26.379  24.811  1.00  0.00    -0.744 OA
ENDBRANCH  91  92
ENDBRANCH  65  86
ENDBRANCH  39  40
ENDBRANCH  31  34
ENDBRANCH  29  30
ENDBRANCH   1  29
TORSDOF 17
ENDMDL
