MODEL 1
REMARK VINA RESULT:     -11.8      0.000      0.000
REMARK SMILES O=C(NCCCNC(=O)c1cc(F)c(F)cc1NS(=O)(=O)c1ccc2c(c1)CCC2)c1ccc(-c2c3nc(c(-c4ccc(S(=O)(=O)[O-])cc4)c4ccc([nH]4)c(-c4ccc(S(=O)(=O)[O-])cc4)c4nc(c(-c5ccc(S(=O)(=O)[O-])cc5)c5ccc2[nH]5)C=C4)C=C3)cc1
REMARK SMILES IDX 5 1 4 2 3 3 1 4 2 5 31 7 32 8 90 9 33 10 89 11 34 12 35 13
REMARK SMILES IDX 36 14 83 15 37 16 88 17 82 18 84 19 38 20 87 21 81 22 80 23
REMARK SMILES IDX 39 25 69 26 50 27 68 28 51 29 54 30 67 31 85 32 52 33 53 34
REMARK SMILES IDX 66 36 86 37 55 38 40 39 41 40 49 41 42 42 48 43 43 44 44 45
REMARK SMILES IDX 45 46 46 47 47 48 70 49 71 50 79 51 72 52 78 53 73 54 74 55
REMARK SMILES IDX 75 56 76 57 77 58 56 59 57 60 65 61 58 62 64 63 59 64 60 65
REMARK SMILES IDX 61 66 62 67 63 68 6 69 7 70 8 71 9 73 10 74 11 75 17 76
REMARK SMILES IDX 12 77 16 78 13 79 14 80 15 81 18 82 19 84 20 85 21 86 22 87
REMARK SMILES IDX 23 88 27 89 24 90 26 91 25 92 28 93 30 94 29 95
REMARK H PARENT 3 6 84 24 54 35 7 72 18 83
REMARK Flexibility Score: inf
ROOT
ATOM      1  C   UNL A   1      33.556  27.618  25.346  1.00  0.00     0.042 C 
ENDROOT
BRANCH   1   2
ATOM      2  C   UNL A   1      33.659  27.973  26.825  1.00  0.00     0.118 C 
BRANCH   2   3
ATOM      3  N   UNL A   1      33.419  29.385  27.081  1.00  0.00    -0.352 N 
ATOM      4  O   UNL A   1      33.755  31.412  27.995  1.00  0.00    -0.269 OA
ATOM      5  C   UNL A   1      34.218  30.312  27.707  1.00  0.00     0.251 C 
ATOM      6  H   UNL A   1      32.555  29.729  26.757  1.00  0.00     0.163 HD
BRANCH   5   7
ATOM      7  C   UNL A   1      35.619  29.980  28.050  1.00  0.00     0.039 A 
ATOM      8  C   UNL A   1      35.959  29.540  29.331  1.00  0.00     0.014 A 
ATOM      9  C   UNL A   1      36.605  30.082  27.062  1.00  0.00     0.014 A 
ATOM     10  C   UNL A   1      37.294  29.334  29.662  1.00  0.00     0.010 A 
ATOM     11  C   UNL A   1      37.937  29.792  27.374  1.00  0.00     0.010 A 
ATOM     12  C   UNL A   1      38.296  29.440  28.683  1.00  0.00    -0.014 A 
BRANCH  12  13
ATOM     13  C   UNL A   1      39.695  29.100  29.043  1.00  0.00     0.031 A 
ATOM     14  C   UNL A   1      40.567  30.067  29.796  1.00  0.00     0.074 A 
ATOM     15  C   UNL A   1      40.166  27.882  28.710  1.00  0.00     0.049 A 
ATOM     16  N   UNL A   1      41.796  29.903  30.218  1.00  0.00    -0.248 NA
ATOM     17  C   UNL A   1      39.997  31.388  30.110  1.00  0.00     0.031 C 
ATOM     18  C   UNL A   1      39.418  26.865  27.963  1.00  0.00     0.029 A 
ATOM     19  N   UNL A   1      41.368  27.279  28.975  1.00  0.00    -0.354 N 
ATOM     20  C   UNL A   1      42.155  31.101  30.824  1.00  0.00     0.074 A 
ATOM     21  C   UNL A   1      41.019  31.990  30.707  1.00  0.00     0.031 C 
ATOM     22  C   UNL A   1      40.158  25.750  27.875  1.00  0.00     0.029 A 
ATOM     23  C   UNL A   1      41.448  25.988  28.510  1.00  0.00     0.049 A 
ATOM     24  H   UNL A   1      42.103  27.729  29.451  1.00  0.00     0.167 HD
ATOM     25  C   UNL A   1      43.325  31.426  31.424  1.00  0.00     0.031 A 
ATOM     26  C   UNL A   1      42.451  25.094  28.577  1.00  0.00     0.031 A 
ATOM     27  C   UNL A   1      44.448  30.534  31.555  1.00  0.00     0.049 A 
ATOM     28  C   UNL A   1      43.731  25.480  29.256  1.00  0.00     0.074 A 
ATOM     29  C   UNL A   1      45.661  30.765  32.183  1.00  0.00     0.029 A 
ATOM     30  N   UNL A   1      44.497  29.244  31.054  1.00  0.00    -0.354 N 
ATOM     31  N   UNL A   1      44.036  26.609  29.849  1.00  0.00    -0.248 NA
ATOM     32  C   UNL A   1      44.800  24.475  29.273  1.00  0.00     0.031 C 
ATOM     33  C   UNL A   1      46.457  29.624  32.029  1.00  0.00     0.029 A 
ATOM     34  C   UNL A   1      45.726  28.671  31.339  1.00  0.00     0.049 A 
ATOM     35  H   UNL A   1      43.766  28.798  30.566  1.00  0.00     0.167 HD
ATOM     36  C   UNL A   1      45.336  26.450  30.309  1.00  0.00     0.074 A 
ATOM     37  C   UNL A   1      45.749  25.108  29.951  1.00  0.00     0.031 C 
ATOM     38  C   UNL A   1      46.121  27.339  30.963  1.00  0.00     0.031 A 
BRANCH  25  39
ATOM     39  C   UNL A   1      43.466  32.818  31.977  1.00  0.00    -0.014 A 
ATOM     40  C   UNL A   1      43.094  33.114  33.300  1.00  0.00     0.010 A 
ATOM     41  C   UNL A   1      44.047  33.825  31.185  1.00  0.00     0.010 A 
ATOM     42  C   UNL A   1      43.282  34.400  33.815  1.00  0.00     0.020 A 
ATOM     43  C   UNL A   1      44.252  35.108  31.702  1.00  0.00     0.020 A 
ATOM     44  C   UNL A   1      43.856  35.390  33.011  1.00  0.00     0.054 A 
BRANCH  44  45
ATOM     45  S   UNL A   1      44.125  37.042  33.715  1.00  0.00     0.124 S 
ATOM     46  O   UNL A   1      43.827  37.905  32.574  1.00  0.00    -0.237 OA
ATOM     47  O   UNL A   1      43.157  37.089  34.807  1.00  0.00    -0.237 OA
ATOM     48  O   UNL A   1      45.526  37.018  34.129  1.00  0.00    -0.744 OA
ENDBRANCH  44  45
ENDBRANCH  25  39
BRANCH  26  49
ATOM     49  C   UNL A   1      42.282  23.752  27.963  1.00  0.00    -0.014 A 
ATOM     50  C   UNL A   1      42.687  23.516  26.637  1.00  0.00     0.010 A 
ATOM     51  C   UNL A   1      41.739  22.695  28.716  1.00  0.00     0.010 A 
ATOM     52  C   UNL A   1      42.539  22.247  26.071  1.00  0.00     0.020 A 
ATOM     53  C   UNL A   1      41.613  21.421  28.160  1.00  0.00     0.020 A 
ATOM     54  C   UNL A   1      42.003  21.207  26.836  1.00  0.00     0.054 A 
BRANCH  54  55
ATOM     55  S   UNL A   1      41.873  19.549  26.112  1.00  0.00     0.124 S 
ATOM     56  O   UNL A   1      42.321  18.703  27.213  1.00  0.00    -0.237 OA
ATOM     57  O   UNL A   1      40.455  19.453  25.774  1.00  0.00    -0.237 OA
ATOM     58  O   UNL A   1      42.773  19.614  24.961  1.00  0.00    -0.744 OA
ENDBRANCH  54  55
ENDBRANCH  26  49
BRANCH  38  59
ATOM     59  C   UNL A   1      47.503  26.882  31.332  1.00  0.00    -0.014 A 
ATOM     60  C   UNL A   1      48.587  27.102  30.465  1.00  0.00     0.010 A 
ATOM     61  C   UNL A   1      47.724  26.249  32.568  1.00  0.00     0.010 A 
ATOM     62  C   UNL A   1      49.868  26.669  30.815  1.00  0.00     0.020 A 
ATOM     63  C   UNL A   1      49.007  25.832  32.929  1.00  0.00     0.020 A 
ATOM     64  C   UNL A   1      50.068  26.031  32.042  1.00  0.00     0.054 A 
BRANCH  64  65
ATOM     65  S   UNL A   1      51.743  25.502  32.494  1.00  0.00     0.124 S 
ATOM     66  O   UNL A   1      51.708  24.077  32.172  1.00  0.00    -0.237 OA
ATOM     67  O   UNL A   1      52.588  26.321  31.628  1.00  0.00    -0.237 OA
ATOM     68  O   UNL A   1      51.831  25.818  33.918  1.00  0.00    -0.744 OA
ENDBRANCH  64  65
ENDBRANCH  38  59
ENDBRANCH  12  13
ENDBRANCH   5   7
ENDBRANCH   2   3
ENDBRANCH   1   2
BRANCH   1  69
ATOM     69  C   UNL A   1      32.467  28.375  24.595  1.00  0.00     0.118 C 
BRANCH  69  70
ATOM     70  N   UNL A   1      31.152  27.809  24.855  1.00  0.00    -0.352 N 
ATOM     71  C   UNL A   1      30.482  26.822  24.188  1.00  0.00     0.253 C 
ATOM     72  H   UNL A   1      30.674  28.194  25.625  1.00  0.00     0.163 HD
ATOM     73  O   UNL A   1      29.258  26.758  24.272  1.00  0.00    -0.269 OA
BRANCH  71  74
ATOM     74  C   UNL A   1      31.202  25.821  23.372  1.00  0.00     0.067 A 
ATOM     75  C   UNL A   1      31.822  26.242  22.181  1.00  0.00     0.058 A 
ATOM     76  C   UNL A   1      31.359  24.498  23.843  1.00  0.00     0.065 A 
ATOM     77  C   UNL A   1      32.533  25.332  21.418  1.00  0.00     0.159 A 
ATOM     78  C   UNL A   1      32.104  23.615  23.054  1.00  0.00     0.070 A 
ATOM     79  F   UNL A   1      33.073  25.721  20.255  1.00  0.00    -0.204 F 
ATOM     80  C   UNL A   1      32.678  24.027  21.854  1.00  0.00     0.160 A 
ATOM     81  F   UNL A   1      33.356  23.139  21.114  1.00  0.00    -0.204 F 
BRANCH  76  82
ATOM     82  N   UNL A   1      30.580  24.033  24.971  1.00  0.00    -0.279 N 
ATOM     83  H   UNL A   1      29.662  23.713  24.816  1.00  0.00     0.180 HD
BRANCH  82  84
ATOM     84  S   UNL A   1      31.193  24.020  26.552  1.00  0.00     0.261 S 
ATOM     85  O   UNL A   1      31.461  25.392  26.928  1.00  0.00    -0.201 OA
ATOM     86  O   UNL A   1      30.319  23.176  27.337  1.00  0.00    -0.201 OA
BRANCH  84  87
ATOM     87  C   UNL A   1      32.747  23.168  26.427  1.00  0.00     0.088 A 
ATOM     88  C   UNL A   1      32.765  21.779  26.189  1.00  0.00     0.022 A 
ATOM     89  C   UNL A   1      33.905  23.949  26.312  1.00  0.00     0.026 A 
ATOM     90  C   UNL A   1      33.932  21.175  25.710  1.00  0.00     0.005 A 
ATOM     91  C   UNL A   1      35.040  23.337  25.821  1.00  0.00    -0.043 A 
ATOM     92  C   UNL A   1      35.043  21.977  25.485  1.00  0.00    -0.045 A 
ATOM     93  C   UNL A   1      36.359  23.970  25.510  1.00  0.00     0.036 C 
ATOM     94  C   UNL A   1      36.347  21.598  24.854  1.00  0.00     0.036 C 
ATOM     95  C   UNL A   1      36.903  22.981  24.471  1.00  0.00     0.010 C 
ENDBRANCH  84  87
ENDBRANCH  82  84
ENDBRANCH  76  82
ENDBRANCH  71  74
ENDBRANCH  69  70
ENDBRANCH   1  69
TORSDOF 16
ENDMDL
MODEL 2
REMARK VINA RESULT:     -11.8      0.490      8.041
REMARK SMILES O=C(NCCCNC(=O)c1cc(F)c(F)cc1NS(=O)(=O)c1ccc2c(c1)CCC2)c1ccc(-c2c3nc(c(-c4ccc(S(=O)(=O)[O-])cc4)c4ccc([nH]4)c(-c4ccc(S(=O)(=O)[O-])cc4)c4nc(c(-c5ccc(S(=O)(=O)[O-])cc5)c5ccc2[nH]5)C=C4)C=C3)cc1
REMARK SMILES IDX 5 1 4 2 3 3 1 4 2 5 31 7 32 8 90 9 33 10 89 11 34 12 35 13
REMARK SMILES IDX 36 14 83 15 37 16 88 17 82 18 84 19 38 20 87 21 81 22 80 23
REMARK SMILES IDX 39 25 69 26 50 27 68 28 51 29 54 30 67 31 85 32 52 33 53 34
REMARK SMILES IDX 66 36 86 37 55 38 40 39 41 40 49 41 42 42 48 43 43 44 44 45
REMARK SMILES IDX 45 46 46 47 47 48 70 49 71 50 79 51 72 52 78 53 73 54 74 55
REMARK SMILES IDX 75 56 76 57 77 58 56 59 57 60 65 61 58 62 64 63 59 64 60 65
REMARK SMILES IDX 61 66 62 67 63 68 6 69 7 70 8 71 9 73 10 74 11 75 17 76
REMARK SMILES IDX 12 77 16 78 13 79 14 80 15 81 18 82 19 84 20 85 21 86 22 87
REMARK SMILES IDX 23 88 27 89 24 90 26 91 25 92 28 93 30 94 29 95
REMARK H PARENT 3 6 84 24 54 35 7 72 18 83
REMARK Flexibility Score: inf
ROOT
ATOM      1  C   UNL A   1      33.453  27.549  25.418  1.00  0.00     0.042 C 
ENDROOT
BRANCH   1   2
ATOM      2  C   UNL A   1      33.789  27.951  26.849  1.00  0.00     0.118 C 
BRANCH   2   3
ATOM      3  N   UNL A   1      33.559  29.366  27.103  1.00  0.00    -0.352 N 
ATOM      4  O   UNL A   1      33.908  31.391  28.015  1.00  0.00    -0.269 OA
ATOM      5  C   UNL A   1      34.363  30.287  27.730  1.00  0.00     0.251 C 
ATOM      6  H   UNL A   1      32.699  29.716  26.775  1.00  0.00     0.163 HD
BRANCH   5   7
ATOM      7  C   UNL A   1      35.761  29.945  28.079  1.00  0.00     0.039 A 
ATOM      8  C   UNL A   1      36.088  29.475  29.352  1.00  0.00     0.014 A 
ATOM      9  C   UNL A   1      36.756  30.066  27.103  1.00  0.00     0.014 A 
ATOM     10  C   UNL A   1      37.418  29.258  29.691  1.00  0.00     0.010 A 
ATOM     11  C   UNL A   1      38.084  29.766  27.421  1.00  0.00     0.010 A 
ATOM     12  C   UNL A   1      38.430  29.385  28.725  1.00  0.00    -0.014 A 
BRANCH  12  13
ATOM     13  C   UNL A   1      39.825  29.033  29.091  1.00  0.00     0.031 A 
ATOM     14  C   UNL A   1      40.422  27.706  28.711  1.00  0.00     0.074 A 
ATOM     15  C   UNL A   1      40.568  29.947  29.745  1.00  0.00     0.049 A 
ATOM     16  N   UNL A   1      41.637  27.264  28.923  1.00  0.00    -0.248 NA
ATOM     17  C   UNL A   1      39.549  26.745  28.016  1.00  0.00     0.031 C 
ATOM     18  C   UNL A   1      40.091  31.264  30.182  1.00  0.00     0.029 A 
ATOM     19  N   UNL A   1      41.882  29.926  30.135  1.00  0.00    -0.354 N 
ATOM     20  C   UNL A   1      41.670  25.973  28.411  1.00  0.00     0.074 A 
ATOM     21  C   UNL A   1      40.349  25.694  27.887  1.00  0.00     0.031 C 
ATOM     22  C   UNL A   1      41.110  31.940  30.732  1.00  0.00     0.029 A 
ATOM     23  C   UNL A   1      42.294  31.091  30.735  1.00  0.00     0.049 A 
ATOM     24  H   UNL A   1      42.472  29.149  29.999  1.00  0.00     0.167 HD
ATOM     25  C   UNL A   1      42.707  25.103  28.380  1.00  0.00     0.031 A 
ATOM     26  C   UNL A   1      43.491  31.439  31.242  1.00  0.00     0.031 A 
ATOM     27  C   UNL A   1      44.025  25.389  28.885  1.00  0.00     0.049 A 
ATOM     28  C   UNL A   1      44.623  30.458  31.185  1.00  0.00     0.074 A 
ATOM     29  C   UNL A   1      45.149  24.581  28.861  1.00  0.00     0.029 A 
ATOM     30  N   UNL A   1      44.396  26.571  29.504  1.00  0.00    -0.354 N 
ATOM     31  N   UNL A   1      44.638  29.253  30.668  1.00  0.00    -0.248 NA
ATOM     32  C   UNL A   1      45.896  30.880  31.781  1.00  0.00     0.031 C 
ATOM     33  C   UNL A   1      46.192  25.264  29.497  1.00  0.00     0.029 A 
ATOM     34  C   UNL A   1      45.726  26.510  29.884  1.00  0.00     0.049 A 
ATOM     35  H   UNL A   1      43.802  27.343  29.651  1.00  0.00     0.167 HD
ATOM     36  C   UNL A   1      45.923  28.772  30.877  1.00  0.00     0.074 A 
ATOM     37  C   UNL A   1      46.663  29.825  31.543  1.00  0.00     0.031 C 
ATOM     38  C   UNL A   1      46.442  27.563  30.556  1.00  0.00     0.031 A 
BRANCH  25  39
ATOM     39  C   UNL A   1      42.462  23.740  27.791  1.00  0.00    -0.014 A 
ATOM     40  C   UNL A   1      42.723  23.478  26.435  1.00  0.00     0.010 A 
ATOM     41  C   UNL A   1      42.033  22.690  28.623  1.00  0.00     0.010 A 
ATOM     42  C   UNL A   1      42.541  22.192  25.916  1.00  0.00     0.020 A 
ATOM     43  C   UNL A   1      41.865  21.399  28.112  1.00  0.00     0.020 A 
ATOM     44  C   UNL A   1      42.110  21.162  26.758  1.00  0.00     0.054 A 
BRANCH  44  45
ATOM     45  S   UNL A   1      41.917  19.493  26.070  1.00  0.00     0.124 S 
ATOM     46  O   UNL A   1      42.410  18.660  27.164  1.00  0.00    -0.237 OA
ATOM     47  O   UNL A   1      40.480  19.411  25.818  1.00  0.00    -0.237 OA
ATOM     48  O   UNL A   1      42.755  19.513  24.874  1.00  0.00    -0.744 OA
ENDBRANCH  44  45
ENDBRANCH  25  39
BRANCH  26  49
ATOM     49  C   UNL A   1      43.664  32.776  31.867  1.00  0.00    -0.014 A 
ATOM     50  C   UNL A   1      43.457  32.955  33.245  1.00  0.00     0.010 A 
ATOM     51  C   UNL A   1      44.067  33.873  31.084  1.00  0.00     0.010 A 
ATOM     52  C   UNL A   1      43.637  34.212  33.829  1.00  0.00     0.020 A 
ATOM     53  C   UNL A   1      44.271  35.124  31.668  1.00  0.00     0.020 A 
ATOM     54  C   UNL A   1      44.043  35.289  33.035  1.00  0.00     0.054 A 
BRANCH  54  55
ATOM     55  S   UNL A   1      44.335  36.902  33.813  1.00  0.00     0.124 S 
ATOM     56  O   UNL A   1      43.087  37.604  33.529  1.00  0.00    -0.237 OA
ATOM     57  O   UNL A   1      44.560  36.551  35.213  1.00  0.00    -0.237 OA
ATOM     58  O   UNL A   1      45.514  37.406  33.110  1.00  0.00    -0.744 OA
ENDBRANCH  54  55
ENDBRANCH  26  49
BRANCH  38  59
ATOM     59  C   UNL A   1      47.878  27.322  30.918  1.00  0.00    -0.014 A 
ATOM     60  C   UNL A   1      48.217  26.712  32.138  1.00  0.00     0.010 A 
ATOM     61  C   UNL A   1      48.897  27.685  30.020  1.00  0.00     0.010 A 
ATOM     62  C   UNL A   1      49.557  26.496  32.469  1.00  0.00     0.020 A 
ATOM     63  C   UNL A   1      50.237  27.453  30.340  1.00  0.00     0.020 A 
ATOM     64  C   UNL A   1      50.558  26.874  31.570  1.00  0.00     0.054 A 
BRANCH  64  65
ATOM     65  S   UNL A   1      52.292  26.558  32.003  1.00  0.00     0.124 S 
ATOM     66  O   UNL A   1      53.002  27.335  30.990  1.00  0.00    -0.237 OA
ATOM     67  O   UNL A   1      52.385  27.071  33.367  1.00  0.00    -0.237 OA
ATOM     68  O   UNL A   1      52.417  25.108  31.879  1.00  0.00    -0.744 OA
ENDBRANCH  64  65
ENDBRANCH  38  59
ENDBRANCH  12  13
ENDBRANCH   5   7
ENDBRANCH   2   3
ENDBRANCH   1   2
BRANCH   1  69
ATOM     69  C   UNL A   1      32.370  28.399  24.766  1.00  0.00     0.118 C 
BRANCH  69  70
ATOM     70  N   UNL A   1      31.049  27.824  24.971  1.00  0.00    -0.352 N 
ATOM     71  C   UNL A   1      30.400  26.857  24.255  1.00  0.00     0.253 C 
ATOM     72  H   UNL A   1      30.549  28.185  25.739  1.00  0.00     0.163 HD
ATOM     73  O   UNL A   1      29.175  26.789  24.303  1.00  0.00    -0.269 OA
BRANCH  71  74
ATOM     74  C   UNL A   1      31.144  25.883  23.429  1.00  0.00     0.067 A 
ATOM     75  C   UNL A   1      31.763  26.334  22.249  1.00  0.00     0.058 A 
ATOM     76  C   UNL A   1      31.325  24.556  23.882  1.00  0.00     0.065 A 
ATOM     77  C   UNL A   1      32.497  25.450  21.477  1.00  0.00     0.159 A 
ATOM     78  C   UNL A   1      32.093  23.700  23.085  1.00  0.00     0.070 A 
ATOM     79  F   UNL A   1      33.035  25.866  20.323  1.00  0.00    -0.204 F 
ATOM     80  C   UNL A   1      32.665  24.142  21.894  1.00  0.00     0.160 A 
ATOM     81  F   UNL A   1      33.365  23.278  21.146  1.00  0.00    -0.204 F 
BRANCH  76  82
ATOM     82  N   UNL A   1      30.548  24.060  24.999  1.00  0.00    -0.279 N 
ATOM     83  H   UNL A   1      29.628  23.752  24.837  1.00  0.00     0.180 HD
BRANCH  82  84
ATOM     84  S   UNL A   1      31.171  23.988  26.575  1.00  0.00     0.261 S 
ATOM     85  O   UNL A   1      31.456  25.343  26.994  1.00  0.00    -0.201 OA
ATOM     86  O   UNL A   1      30.292  23.127  27.337  1.00  0.00    -0.201 OA
BRANCH  84  87
ATOM     87  C   UNL A   1      32.715  23.123  26.412  1.00  0.00     0.088 A 
ATOM     88  C   UNL A   1      32.717  21.748  26.104  1.00  0.00     0.022 A 
ATOM     89  C   UNL A   1      33.882  23.894  26.341  1.00  0.00     0.026 A 
ATOM     90  C   UNL A   1      33.878  21.155  25.600  1.00  0.00     0.005 A 
ATOM     91  C   UNL A   1      35.012  23.294  25.823  1.00  0.00    -0.043 A 
ATOM     92  C   UNL A   1      34.999  21.953  25.419  1.00  0.00    -0.045 A 
ATOM     93  C   UNL A   1      36.340  23.925  25.549  1.00  0.00     0.036 C 
ATOM     94  C   UNL A   1      36.301  21.590  24.774  1.00  0.00     0.036 C 
ATOM     95  C   UNL A   1      36.876  22.983  24.463  1.00  0.00     0.010 C 
ENDBRANCH  84  87
ENDBRANCH  82  84
ENDBRANCH  76  82
ENDBRANCH  71  74
ENDBRANCH  69  70
ENDBRANCH   1  69
TORSDOF 16
ENDMDL
MODEL 3
REMARK VINA RESULT:     -11.4      3.990      5.220
REMARK SMILES O=C(NCCCNC(=O)c1cc(F)c(F)cc1NS(=O)(=O)c1ccc2c(c1)CCC2)c1ccc(-c2c3nc(c(-c4ccc(S(=O)(=O)[O-])cc4)c4ccc([nH]4)c(-c4ccc(S(=O)(=O)[O-])cc4)c4nc(c(-c5ccc(S(=O)(=O)[O-])cc5)c5ccc2[nH]5)C=C4)C=C3)cc1
REMARK SMILES IDX 5 1 4 2 3 3 1 4 2 5 31 7 32 8 90 9 33 10 89 11 34 12 35 13
REMARK SMILES IDX 36 14 83 15 37 16 88 17 82 18 84 19 38 20 87 21 81 22 80 23
REMARK SMILES IDX 39 25 69 26 50 27 68 28 51 29 54 30 67 31 85 32 52 33 53 34
REMARK SMILES IDX 66 36 86 37 55 38 40 39 41 40 49 41 42 42 48 43 43 44 44 45
REMARK SMILES IDX 45 46 46 47 47 48 70 49 71 50 79 51 72 52 78 53 73 54 74 55
REMARK SMILES IDX 75 56 76 57 77 58 56 59 57 60 65 61 58 62 64 63 59 64 60 65
REMARK SMILES IDX 61 66 62 67 63 68 6 69 7 70 8 71 9 73 10 74 11 75 17 76
REMARK SMILES IDX 12 77 16 78 13 79 14 80 15 81 18 82 19 84 20 85 21 86 22 87
REMARK SMILES IDX 23 88 27 89 24 90 26 91 25 92 28 93 30 94 29 95
REMARK H PARENT 3 6 84 24 54 35 7 72 18 83
REMARK Flexibility Score: inf
ROOT
ATOM      1  C   UNL A   1      31.774  31.379  26.501  1.00  0.00     0.042 C 
ENDROOT
BRANCH   1   2
ATOM      2  C   UNL A   1      32.925  31.980  27.299  1.00  0.00     0.118 C 
BRANCH   2   3
ATOM      3  N   UNL A   1      32.722  33.389  27.601  1.00  0.00    -0.352 N 
ATOM      4  O   UNL A   1      32.902  35.306  28.763  1.00  0.00    -0.269 OA
ATOM      5  C   UNL A   1      33.348  34.186  28.529  1.00  0.00     0.251 C 
ATOM      6  H   UNL A   1      32.034  33.839  27.060  1.00  0.00     0.163 HD
BRANCH   5   7
ATOM      7  C   UNL A   1      34.540  33.692  29.256  1.00  0.00     0.039 A 
ATOM      8  C   UNL A   1      35.818  34.155  28.936  1.00  0.00     0.014 A 
ATOM      9  C   UNL A   1      34.371  32.773  30.298  1.00  0.00     0.014 A 
ATOM     10  C   UNL A   1      36.932  33.604  29.559  1.00  0.00     0.010 A 
ATOM     11  C   UNL A   1      35.488  32.282  30.981  1.00  0.00     0.010 A 
ATOM     12  C   UNL A   1      36.779  32.673  30.600  1.00  0.00    -0.014 A 
BRANCH  12  13
ATOM     13  C   UNL A   1      37.984  32.193  31.321  1.00  0.00     0.031 A 
ATOM     14  C   UNL A   1      38.352  32.732  32.676  1.00  0.00     0.074 A 
ATOM     15  C   UNL A   1      38.733  31.229  30.749  1.00  0.00     0.049 A 
ATOM     16  N   UNL A   1      39.350  32.387  33.451  1.00  0.00    -0.248 NA
ATOM     17  C   UNL A   1      37.503  33.798  33.233  1.00  0.00     0.031 C 
ATOM     18  C   UNL A   1      38.485  30.641  29.429  1.00  0.00     0.029 A 
ATOM     19  N   UNL A   1      39.835  30.555  31.209  1.00  0.00    -0.354 N 
ATOM     20  C   UNL A   1      39.265  33.204  34.571  1.00  0.00     0.074 A 
ATOM     21  C   UNL A   1      38.124  34.073  34.374  1.00  0.00     0.031 C 
ATOM     22  C   UNL A   1      39.374  29.662  29.210  1.00  0.00     0.029 A 
ATOM     23  C   UNL A   1      40.285  29.587  30.344  1.00  0.00     0.049 A 
ATOM     24  H   UNL A   1      40.262  30.748  32.075  1.00  0.00     0.167 HD
ATOM     25  C   UNL A   1      40.066  33.225  35.664  1.00  0.00     0.031 A 
ATOM     26  C   UNL A   1      41.323  28.737  30.445  1.00  0.00     0.031 A 
ATOM     27  C   UNL A   1      41.189  32.348  35.866  1.00  0.00     0.049 A 
ATOM     28  C   UNL A   1      42.185  28.778  31.671  1.00  0.00     0.074 A 
ATOM     29  C   UNL A   1      42.034  32.272  36.961  1.00  0.00     0.029 A 
ATOM     30  N   UNL A   1      41.625  31.397  34.959  1.00  0.00    -0.354 N 
ATOM     31  N   UNL A   1      42.067  29.539  32.731  1.00  0.00    -0.248 NA
ATOM     32  C   UNL A   1      43.321  27.849  31.712  1.00  0.00     0.031 C 
ATOM     33  C   UNL A   1      43.003  31.296  36.699  1.00  0.00     0.029 A 
ATOM     34  C   UNL A   1      42.739  30.741  35.457  1.00  0.00     0.049 A 
ATOM     35  H   UNL A   1      41.205  31.213  34.087  1.00  0.00     0.167 HD
ATOM     36  C   UNL A   1      43.115  29.181  33.568  1.00  0.00     0.074 A 
ATOM     37  C   UNL A   1      43.840  28.117  32.903  1.00  0.00     0.031 C 
ATOM     38  C   UNL A   1      43.453  29.694  34.776  1.00  0.00     0.031 A 
BRANCH  25  39
ATOM     39  C   UNL A   1      39.769  34.244  36.731  1.00  0.00    -0.014 A 
ATOM     40  C   UNL A   1      39.052  33.894  37.888  1.00  0.00     0.010 A 
ATOM     41  C   UNL A   1      40.277  35.549  36.606  1.00  0.00     0.010 A 
ATOM     42  C   UNL A   1      38.831  34.839  38.895  1.00  0.00     0.020 A 
ATOM     43  C   UNL A   1      40.073  36.493  37.618  1.00  0.00     0.020 A 
ATOM     44  C   UNL A   1      39.340  36.134  38.751  1.00  0.00     0.054 A 
BRANCH  44  45
ATOM     45  S   UNL A   1      39.074  37.332  40.088  1.00  0.00     0.124 S 
ATOM     46  O   UNL A   1      38.172  38.291  39.455  1.00  0.00    -0.237 OA
ATOM     47  O   UNL A   1      38.479  36.514  41.142  1.00  0.00    -0.237 OA
ATOM     48  O   UNL A   1      40.415  37.834  40.376  1.00  0.00    -0.744 OA
ENDBRANCH  44  45
ENDBRANCH  25  39
BRANCH  26  49
ATOM     49  C   UNL A   1      41.609  27.791  29.336  1.00  0.00    -0.014 A 
ATOM     50  C   UNL A   1      42.533  28.124  28.331  1.00  0.00     0.010 A 
ATOM     51  C   UNL A   1      40.974  26.536  29.299  1.00  0.00     0.010 A 
ATOM     52  C   UNL A   1      42.809  27.222  27.299  1.00  0.00     0.020 A 
ATOM     53  C   UNL A   1      41.266  25.624  28.283  1.00  0.00     0.020 A 
ATOM     54  C   UNL A   1      42.173  25.977  27.282  1.00  0.00     0.054 A 
BRANCH  54  55
ATOM     55  S   UNL A   1      42.584  24.790  25.974  1.00  0.00     0.124 S 
ATOM     56  O   UNL A   1      43.882  24.291  26.416  1.00  0.00    -0.237 OA
ATOM     57  O   UNL A   1      41.480  23.835  26.044  1.00  0.00    -0.237 OA
ATOM     58  O   UNL A   1      42.604  25.614  24.766  1.00  0.00    -0.744 OA
ENDBRANCH  54  55
ENDBRANCH  26  49
BRANCH  38  59
ATOM     59  C   UNL A   1      44.657  29.104  35.451  1.00  0.00    -0.014 A 
ATOM     60  C   UNL A   1      45.934  29.656  35.251  1.00  0.00     0.010 A 
ATOM     61  C   UNL A   1      44.507  28.004  36.313  1.00  0.00     0.010 A 
ATOM     62  C   UNL A   1      47.049  29.098  35.880  1.00  0.00     0.020 A 
ATOM     63  C   UNL A   1      45.617  27.455  36.959  1.00  0.00     0.020 A 
ATOM     64  C   UNL A   1      46.884  27.996  36.725  1.00  0.00     0.054 A 
BRANCH  64  65
ATOM     65  S   UNL A   1      48.338  27.303  37.557  1.00  0.00     0.124 S 
ATOM     66  O   UNL A   1      49.333  27.314  36.488  1.00  0.00    -0.237 OA
ATOM     67  O   UNL A   1      48.574  28.250  38.644  1.00  0.00    -0.237 OA
ATOM     68  O   UNL A   1      47.892  25.978  37.981  1.00  0.00    -0.744 OA
ENDBRANCH  64  65
ENDBRANCH  38  59
ENDBRANCH  12  13
ENDBRANCH   5   7
ENDBRANCH   2   3
ENDBRANCH   1   2
BRANCH   1  69
ATOM     69  C   UNL A   1      31.971  29.917  26.120  1.00  0.00     0.118 C 
BRANCH  69  70
ATOM     70  N   UNL A   1      32.492  29.786  24.768  1.00  0.00    -0.352 N 
ATOM     71  C   UNL A   1      31.933  29.186  23.674  1.00  0.00     0.253 C 
ATOM     72  H   UNL A   1      33.378  30.189  24.619  1.00  0.00     0.163 HD
ATOM     73  O   UNL A   1      32.656  28.808  22.757  1.00  0.00    -0.269 OA
BRANCH  71  74
ATOM     74  C   UNL A   1      30.472  28.991  23.568  1.00  0.00     0.067 A 
ATOM     75  C   UNL A   1      29.662  30.104  23.276  1.00  0.00     0.058 A 
ATOM     76  C   UNL A   1      29.919  27.692  23.643  1.00  0.00     0.065 A 
ATOM     77  C   UNL A   1      28.295  29.942  23.135  1.00  0.00     0.159 A 
ATOM     78  C   UNL A   1      28.536  27.567  23.472  1.00  0.00     0.070 A 
ATOM     79  F   UNL A   1      27.519  31.012  22.916  1.00  0.00    -0.204 F 
ATOM     80  C   UNL A   1      27.735  28.680  23.227  1.00  0.00     0.160 A 
ATOM     81  F   UNL A   1      26.410  28.518  23.103  1.00  0.00    -0.204 F 
BRANCH  76  82
ATOM     82  N   UNL A   1      30.729  26.587  24.111  1.00  0.00    -0.279 N 
ATOM     83  H   UNL A   1      30.949  26.531  25.068  1.00  0.00     0.180 HD
BRANCH  82  84
ATOM     84  S   UNL A   1      31.310  25.383  23.066  1.00  0.00     0.261 S 
ATOM     85  O   UNL A   1      30.464  24.221  23.226  1.00  0.00    -0.201 OA
ATOM     86  O   UNL A   1      31.509  26.005  21.775  1.00  0.00    -0.201 OA
BRANCH  84  87
ATOM     87  C   UNL A   1      32.924  24.983  23.693  1.00  0.00     0.088 A 
ATOM     88  C   UNL A   1      33.581  25.881  24.557  1.00  0.00     0.022 A 
ATOM     89  C   UNL A   1      33.379  23.670  23.512  1.00  0.00     0.026 A 
ATOM     90  C   UNL A   1      34.641  25.429  25.348  1.00  0.00     0.005 A 
ATOM     91  C   UNL A   1      34.414  23.238  24.316  1.00  0.00    -0.043 A 
ATOM     92  C   UNL A   1      35.011  24.094  25.251  1.00  0.00    -0.045 A 
ATOM     93  C   UNL A   1      35.006  21.867  24.389  1.00  0.00     0.036 C 
ATOM     94  C   UNL A   1      36.009  23.346  26.080  1.00  0.00     0.036 C 
ATOM     95  C   UNL A   1      35.588  21.891  25.808  1.00  0.00     0.010 C 
ENDBRANCH  84  87
ENDBRANCH  82  84
ENDBRANCH  76  82
ENDBRANCH  71  74
ENDBRANCH  69  70
ENDBRANCH   1  69
TORSDOF 16
ENDMDL
