MODEL 1
REMARK VINA RESULT:     -11.3      0.000      0.000
REMARK SMILES O=C(NCCCNC(=O)[C@H]1CCCN(c2ccc(O)nn2)C1)c1ccc(-c2c3nc(c(-c4ccc(S(=O)(=O)[O-])cc4)c4ccc([nH]4)c(-c4ccc(S(=O)(=O)[O-])cc4)c4nc(c(-c5ccc(S(=O)(=O)[O-])cc5)c5ccc2[nH]5)C=C4)C=C3)cc1
REMARK SMILES IDX 4 1 3 2 1 3 2 4 23 6 24 7 82 8 25 9 81 10 26 11 27 12 28 13
REMARK SMILES IDX 75 14 29 15 80 16 74 17 76 18 30 19 79 20 73 21 72 22 31 24
REMARK SMILES IDX 61 25 42 26 60 27 43 28 46 29 59 30 77 31 44 32 45 33 58 35
REMARK SMILES IDX 78 36 47 37 32 38 33 39 41 40 34 41 40 42 35 43 36 44 37 45
REMARK SMILES IDX 38 46 39 47 62 48 63 49 71 50 64 51 70 52 65 53 66 54 67 55
REMARK SMILES IDX 68 56 69 57 48 58 49 59 57 60 50 61 56 62 51 63 52 64 53 65
REMARK SMILES IDX 54 66 55 67 5 68 6 69 7 70 8 71 9 73 10 74 11 75 22 76 12 77
REMARK SMILES IDX 14 78 13 79 15 80 16 81 21 82 17 83 20 84 18 85 19 86
REMARK H PARENT 3 5 76 23 46 34 7 72 19 87
REMARK Flexibility Score: inf
ROOT
ATOM      1  C   UNL A   1      33.654  28.019  26.915  1.00  0.00     0.118 C 
ENDROOT
BRANCH   1   2
ATOM      2  N   UNL A   1      33.522  29.469  27.040  1.00  0.00    -0.352 N 
ATOM      3  O   UNL A   1      33.892  31.491  27.947  1.00  0.00    -0.269 OA
ATOM      4  C   UNL A   1      34.329  30.370  27.681  1.00  0.00     0.251 C 
ATOM      5  H   UNL A   1      32.734  29.857  26.596  1.00  0.00     0.163 HD
BRANCH   4   6
ATOM      6  C   UNL A   1      35.712  30.009  28.039  1.00  0.00     0.039 A 
ATOM      7  C   UNL A   1      36.006  29.533  29.319  1.00  0.00     0.014 A 
ATOM      8  C   UNL A   1      36.715  30.082  27.066  1.00  0.00     0.014 A 
ATOM      9  C   UNL A   1      37.318  29.224  29.660  1.00  0.00     0.010 A 
ATOM     10  C   UNL A   1      38.024  29.722  27.393  1.00  0.00     0.010 A 
ATOM     11  C   UNL A   1      38.335  29.309  28.697  1.00  0.00    -0.014 A 
BRANCH  11  12
ATOM     12  C   UNL A   1      39.715  28.922  29.068  1.00  0.00     0.031 A 
ATOM     13  C   UNL A   1      40.569  29.840  29.891  1.00  0.00     0.074 A 
ATOM     14  C   UNL A   1      40.167  27.707  28.702  1.00  0.00     0.049 A 
ATOM     15  N   UNL A   1      41.779  29.643  30.346  1.00  0.00    -0.248 NA
ATOM     16  C   UNL A   1      39.992  31.144  30.260  1.00  0.00     0.031 C 
ATOM     17  C   UNL A   1      39.406  26.723  27.926  1.00  0.00     0.029 A 
ATOM     18  N   UNL A   1      41.358  27.080  28.959  1.00  0.00    -0.354 N 
ATOM     19  C   UNL A   1      42.109  30.790  31.056  1.00  0.00     0.074 A 
ATOM     20  C   UNL A   1      40.984  31.693  30.951  1.00  0.00     0.031 C 
ATOM     21  C   UNL A   1      40.132  25.601  27.811  1.00  0.00     0.029 A 
ATOM     22  C   UNL A   1      41.422  25.799  28.463  1.00  0.00     0.049 A 
ATOM     23  H   UNL A   1      42.097  27.506  29.451  1.00  0.00     0.167 HD
ATOM     24  C   UNL A   1      43.244  31.057  31.742  1.00  0.00     0.031 A 
ATOM     25  C   UNL A   1      42.410  24.887  28.525  1.00  0.00     0.031 A 
ATOM     26  C   UNL A   1      44.360  30.156  31.838  1.00  0.00     0.049 A 
ATOM     27  C   UNL A   1      43.685  25.237  29.233  1.00  0.00     0.074 A 
ATOM     28  C   UNL A   1      45.558  30.343  32.505  1.00  0.00     0.029 A 
ATOM     29  N   UNL A   1      44.417  28.900  31.253  1.00  0.00    -0.354 N 
ATOM     30  N   UNL A   1      43.985  26.335  29.883  1.00  0.00    -0.248 NA
ATOM     31  C   UNL A   1      44.757  24.232  29.210  1.00  0.00     0.031 C 
ATOM     32  C   UNL A   1      46.355  29.214  32.295  1.00  0.00     0.029 A 
ATOM     33  C   UNL A   1      45.636  28.307  31.533  1.00  0.00     0.049 A 
ATOM     34  H   UNL A   1      43.698  28.492  30.720  1.00  0.00     0.167 HD
ATOM     35  C   UNL A   1      45.275  26.150  30.361  1.00  0.00     0.074 A 
ATOM     36  C   UNL A   1      45.697  24.831  29.932  1.00  0.00     0.031 C 
ATOM     37  C   UNL A   1      46.040  26.996  31.092  1.00  0.00     0.031 A 
BRANCH  24  38
ATOM     38  C   UNL A   1      43.346  32.379  32.448  1.00  0.00    -0.014 A 
ATOM     39  C   UNL A   1      42.964  32.503  33.794  1.00  0.00     0.010 A 
ATOM     40  C   UNL A   1      43.918  33.483  31.790  1.00  0.00     0.010 A 
ATOM     41  C   UNL A   1      43.146  33.712  34.470  1.00  0.00     0.020 A 
ATOM     42  C   UNL A   1      44.117  34.689  32.467  1.00  0.00     0.020 A 
ATOM     43  C   UNL A   1      43.729  34.795  33.804  1.00  0.00     0.054 A 
BRANCH  43  44
ATOM     44  S   UNL A   1      43.991  36.336  34.726  1.00  0.00     0.124 S 
ATOM     45  O   UNL A   1      42.820  37.122  34.342  1.00  0.00    -0.237 OA
ATOM     46  O   UNL A   1      44.011  35.873  36.111  1.00  0.00    -0.237 OA
ATOM     47  O   UNL A   1      45.265  36.836  34.216  1.00  0.00    -0.744 OA
ENDBRANCH  43  44
ENDBRANCH  24  38
BRANCH  25  48
ATOM     48  C   UNL A   1      42.213  23.554  27.900  1.00  0.00    -0.014 A 
ATOM     49  C   UNL A   1      42.605  23.330  26.569  1.00  0.00     0.010 A 
ATOM     50  C   UNL A   1      41.685  22.487  28.650  1.00  0.00     0.010 A 
ATOM     51  C   UNL A   1      42.477  22.060  26.000  1.00  0.00     0.020 A 
ATOM     52  C   UNL A   1      41.574  21.212  28.090  1.00  0.00     0.020 A 
ATOM     53  C   UNL A   1      41.972  21.006  26.768  1.00  0.00     0.054 A 
BRANCH  53  54
ATOM     54  S   UNL A   1      41.875  19.356  26.021  1.00  0.00     0.124 S 
ATOM     55  O   UNL A   1      40.452  19.240  25.718  1.00  0.00    -0.237 OA
ATOM     56  O   UNL A   1      42.760  19.490  24.866  1.00  0.00    -0.237 OA
ATOM     57  O   UNL A   1      42.363  18.471  27.075  1.00  0.00    -0.744 OA
ENDBRANCH  53  54
ENDBRANCH  25  48
BRANCH  37  58
ATOM     58  C   UNL A   1      47.409  26.529  31.492  1.00  0.00    -0.014 A 
ATOM     59  C   UNL A   1      47.612  25.857  32.709  1.00  0.00     0.010 A 
ATOM     60  C   UNL A   1      48.482  26.672  30.593  1.00  0.00     0.010 A 
ATOM     61  C   UNL A   1      48.869  25.336  33.022  1.00  0.00     0.020 A 
ATOM     62  C   UNL A   1      49.735  26.137  30.896  1.00  0.00     0.020 A 
ATOM     63  C   UNL A   1      49.920  25.471  32.109  1.00  0.00     0.054 A 
BRANCH  63  64
ATOM     64  S   UNL A   1      51.523  24.727  32.518  1.00  0.00     0.124 S 
ATOM     65  O   UNL A   1      52.442  25.502  31.687  1.00  0.00    -0.237 OA
ATOM     66  O   UNL A   1      51.621  24.966  33.955  1.00  0.00    -0.237 OA
ATOM     67  O   UNL A   1      51.367  23.328  32.130  1.00  0.00    -0.744 OA
ENDBRANCH  63  64
ENDBRANCH  37  58
ENDBRANCH  11  12
ENDBRANCH   4   6
ENDBRANCH   1   2
BRANCH   1  68
ATOM     68  C   UNL A   1      33.716  27.593  25.449  1.00  0.00     0.042 C 
BRANCH  68  69
ATOM     69  C   UNL A   1      32.394  27.014  24.960  1.00  0.00     0.117 C 
BRANCH  69  70
ATOM     70  N   UNL A   1      31.768  26.153  25.947  1.00  0.00    -0.356 N 
ATOM     71  C   UNL A   1      31.932  24.864  26.324  1.00  0.00     0.224 C 
ATOM     72  H   UNL A   1      31.062  26.611  26.458  1.00  0.00     0.163 HD
ATOM     73  O   UNL A   1      31.209  24.503  27.263  1.00  0.00    -0.275 OA
BRANCH  71  74
ATOM     74  C   UNL A   1      32.862  23.844  25.651  1.00  0.00     0.098 C 
ATOM     75  C   UNL A   1      34.366  23.970  25.915  1.00  0.00     0.017 C 
ATOM     76  C   UNL A   1      32.337  22.450  26.070  1.00  0.00     0.131 C 
ATOM     77  C   UNL A   1      35.185  22.759  25.467  1.00  0.00     0.022 C 
ATOM     78  N   UNL A   1      33.252  21.381  25.684  1.00  0.00    -0.354 N 
ATOM     79  C   UNL A   1      34.634  21.495  26.111  1.00  0.00     0.118 C 
BRANCH  78  80
ATOM     80  C   UNL A   1      32.946  20.387  24.783  1.00  0.00     0.151 A 
ATOM     81  C   UNL A   1      33.005  19.040  25.125  1.00  0.00     0.054 A 
ATOM     82  N   UNL A   1      32.518  20.738  23.543  1.00  0.00    -0.129 NA
ATOM     83  C   UNL A   1      32.618  18.072  24.202  1.00  0.00     0.074 A 
ATOM     84  N   UNL A   1      32.163  19.796  22.616  1.00  0.00    -0.110 NA
ATOM     85  C   UNL A   1      32.214  18.505  22.966  1.00  0.00     0.231 A 
BRANCH  85  86
ATOM     86  O   UNL A   1      31.829  17.626  22.007  1.00  0.00    -0.492 OA
ATOM     87  H   UNL A   1      31.109  17.046  22.164  1.00  0.00     0.295 HD
ENDBRANCH  85  86
ENDBRANCH  78  80
ENDBRANCH  71  74
ENDBRANCH  69  70
ENDBRANCH  68  69
ENDBRANCH   1  68
TORSDOF 15
ENDMDL
MODEL 2
REMARK VINA RESULT:     -11.2      3.085      9.621
REMARK SMILES O=C(NCCCNC(=O)[C@H]1CCCN(c2ccc(O)nn2)C1)c1ccc(-c2c3nc(c(-c4ccc(S(=O)(=O)[O-])cc4)c4ccc([nH]4)c(-c4ccc(S(=O)(=O)[O-])cc4)c4nc(c(-c5ccc(S(=O)(=O)[O-])cc5)c5ccc2[nH]5)C=C4)C=C3)cc1
REMARK SMILES IDX 4 1 3 2 1 3 2 4 23 6 24 7 82 8 25 9 81 10 26 11 27 12 28 13
REMARK SMILES IDX 75 14 29 15 80 16 74 17 76 18 30 19 79 20 73 21 72 22 31 24
REMARK SMILES IDX 61 25 42 26 60 27 43 28 46 29 59 30 77 31 44 32 45 33 58 35
REMARK SMILES IDX 78 36 47 37 32 38 33 39 41 40 34 41 40 42 35 43 36 44 37 45
REMARK SMILES IDX 38 46 39 47 62 48 63 49 71 50 64 51 70 52 65 53 66 54 67 55
REMARK SMILES IDX 68 56 69 57 48 58 49 59 57 60 50 61 56 62 51 63 52 64 53 65
REMARK SMILES IDX 54 66 55 67 5 68 6 69 7 70 8 71 9 73 10 74 11 75 22 76 12 77
REMARK SMILES IDX 14 78 13 79 15 80 16 81 21 82 17 83 20 84 18 85 19 86
REMARK H PARENT 3 5 76 23 46 34 7 72 19 87
REMARK Flexibility Score: inf
ROOT
ATOM      1  C   UNL A   1      36.712  23.891  25.058  1.00  0.00     0.118 C 
ENDROOT
BRANCH   1   2
ATOM      2  N   UNL A   1      37.595  22.818  25.510  1.00  0.00    -0.352 N 
ATOM      3  O   UNL A   1      39.544  21.895  26.139  1.00  0.00    -0.269 OA
ATOM      4  C   UNL A   1      38.817  22.889  26.123  1.00  0.00     0.251 C 
ATOM      5  H   UNL A   1      37.260  21.907  25.350  1.00  0.00     0.163 HD
BRANCH   4   6
ATOM      6  C   UNL A   1      39.255  24.138  26.771  1.00  0.00     0.039 A 
ATOM      7  C   UNL A   1      38.942  24.382  28.111  1.00  0.00     0.014 A 
ATOM      8  C   UNL A   1      40.044  25.044  26.055  1.00  0.00     0.014 A 
ATOM      9  C   UNL A   1      39.331  25.576  28.707  1.00  0.00     0.010 A 
ATOM     10  C   UNL A   1      40.480  26.219  26.670  1.00  0.00     0.010 A 
ATOM     11  C   UNL A   1      40.109  26.500  27.993  1.00  0.00    -0.014 A 
BRANCH  11  12
ATOM     12  C   UNL A   1      40.558  27.739  28.667  1.00  0.00     0.031 A 
ATOM     13  C   UNL A   1      41.984  27.893  29.108  1.00  0.00     0.074 A 
ATOM     14  C   UNL A   1      39.679  28.748  28.823  1.00  0.00     0.049 A 
ATOM     15  N   UNL A   1      42.560  28.924  29.669  1.00  0.00    -0.248 NA
ATOM     16  C   UNL A   1      42.883  26.748  28.887  1.00  0.00     0.031 C 
ATOM     17  C   UNL A   1      38.276  28.714  28.401  1.00  0.00     0.029 A 
ATOM     18  N   UNL A   1      39.840  30.004  29.347  1.00  0.00    -0.354 N 
ATOM     19  C   UNL A   1      43.886  28.559  29.864  1.00  0.00     0.074 A 
ATOM     20  C   UNL A   1      44.026  27.200  29.389  1.00  0.00     0.031 C 
ATOM     21  C   UNL A   1      37.718  29.911  28.641  1.00  0.00     0.029 A 
ATOM     22  C   UNL A   1      38.707  30.779  29.272  1.00  0.00     0.049 A 
ATOM     23  H   UNL A   1      40.685  30.320  29.740  1.00  0.00     0.167 HD
ATOM     24  C   UNL A   1      44.894  29.297  30.383  1.00  0.00     0.031 A 
ATOM     25  C   UNL A   1      38.487  32.046  29.668  1.00  0.00     0.031 A 
ATOM     26  C   UNL A   1      44.745  30.646  30.858  1.00  0.00     0.049 A 
ATOM     27  C   UNL A   1      39.605  32.816  30.305  1.00  0.00     0.074 A 
ATOM     28  C   UNL A   1      45.709  31.472  31.408  1.00  0.00     0.029 A 
ATOM     29  N   UNL A   1      43.562  31.366  30.838  1.00  0.00    -0.354 N 
ATOM     30  N   UNL A   1      40.849  32.446  30.498  1.00  0.00    -0.248 NA
ATOM     31  C   UNL A   1      39.294  34.170  30.783  1.00  0.00     0.031 C 
ATOM     32  C   UNL A   1      45.101  32.682  31.755  1.00  0.00     0.029 A 
ATOM     33  C   UNL A   1      43.768  32.623  31.380  1.00  0.00     0.049 A 
ATOM     34  H   UNL A   1      42.703  31.034  30.491  1.00  0.00     0.167 HD
ATOM     35  C   UNL A   1      41.473  33.526  31.108  1.00  0.00     0.074 A 
ATOM     36  C   UNL A   1      40.474  34.567  31.244  1.00  0.00     0.031 C 
ATOM     37  C   UNL A   1      42.760  33.644  31.513  1.00  0.00     0.031 A 
BRANCH  24  38
ATOM     38  C   UNL A   1      46.255  28.667  30.470  1.00  0.00    -0.014 A 
ATOM     39  C   UNL A   1      47.185  28.826  29.428  1.00  0.00     0.010 A 
ATOM     40  C   UNL A   1      46.642  27.993  31.642  1.00  0.00     0.010 A 
ATOM     41  C   UNL A   1      48.479  28.315  29.555  1.00  0.00     0.020 A 
ATOM     42  C   UNL A   1      47.941  27.496  31.779  1.00  0.00     0.020 A 
ATOM     43  C   UNL A   1      48.851  27.660  30.733  1.00  0.00     0.054 A 
BRANCH  43  44
ATOM     44  S   UNL A   1      50.553  27.048  30.880  1.00  0.00     0.124 S 
ATOM     45  O   UNL A   1      51.246  27.828  29.857  1.00  0.00    -0.237 OA
ATOM     46  O   UNL A   1      50.888  27.383  32.262  1.00  0.00    -0.237 OA
ATOM     47  O   UNL A   1      50.436  25.620  30.595  1.00  0.00    -0.744 OA
ENDBRANCH  43  44
ENDBRANCH  24  38
BRANCH  25  48
ATOM     48  C   UNL A   1      37.148  32.655  29.461  1.00  0.00    -0.014 A 
ATOM     49  C   UNL A   1      36.219  32.702  30.514  1.00  0.00     0.010 A 
ATOM     50  C   UNL A   1      36.817  33.242  28.226  1.00  0.00     0.010 A 
ATOM     51  C   UNL A   1      34.983  33.329  30.337  1.00  0.00     0.020 A 
ATOM     52  C   UNL A   1      35.591  33.887  28.051  1.00  0.00     0.020 A 
ATOM     53  C   UNL A   1      34.681  33.927  29.109  1.00  0.00     0.054 A 
BRANCH  53  54
ATOM     54  S   UNL A   1      33.094  34.787  28.930  1.00  0.00     0.124 S 
ATOM     55  O   UNL A   1      32.575  34.759  30.294  1.00  0.00    -0.237 OA
ATOM     56  O   UNL A   1      33.509  36.099  28.439  1.00  0.00    -0.237 OA
ATOM     57  O   UNL A   1      32.364  33.968  27.967  1.00  0.00    -0.744 OA
ENDBRANCH  53  54
ENDBRANCH  25  48
BRANCH  37  58
ATOM     58  C   UNL A   1      43.178  34.944  32.136  1.00  0.00    -0.014 A 
ATOM     59  C   UNL A   1      43.706  35.980  31.349  1.00  0.00     0.010 A 
ATOM     60  C   UNL A   1      42.941  35.166  33.505  1.00  0.00     0.010 A 
ATOM     61  C   UNL A   1      43.993  37.221  31.922  1.00  0.00     0.020 A 
ATOM     62  C   UNL A   1      43.211  36.411  34.078  1.00  0.00     0.020 A 
ATOM     63  C   UNL A   1      43.735  37.431  33.282  1.00  0.00     0.054 A 
BRANCH  63  64
ATOM     64  S   UNL A   1      44.060  39.073  33.980  1.00  0.00     0.124 S 
ATOM     65  O   UNL A   1      44.025  38.807  35.417  1.00  0.00    -0.237 OA
ATOM     66  O   UNL A   1      45.374  39.393  33.432  1.00  0.00    -0.237 OA
ATOM     67  O   UNL A   1      42.960  39.891  33.475  1.00  0.00    -0.744 OA
ENDBRANCH  63  64
ENDBRANCH  37  58
ENDBRANCH  11  12
ENDBRANCH   4   6
ENDBRANCH   1   2
BRANCH   1  68
ATOM     68  C   UNL A   1      35.432  23.943  25.890  1.00  0.00     0.042 C 
BRANCH  68  69
ATOM     69  C   UNL A   1      34.273  23.222  25.212  1.00  0.00     0.117 C 
BRANCH  69  70
ATOM     70  N   UNL A   1      34.174  23.541  23.800  1.00  0.00    -0.356 N 
ATOM     71  C   UNL A   1      33.718  24.601  23.094  1.00  0.00     0.224 C 
ATOM     72  H   UNL A   1      34.517  22.820  23.223  1.00  0.00     0.163 HD
ATOM     73  O   UNL A   1      33.850  24.502  21.867  1.00  0.00    -0.275 OA
BRANCH  71  74
ATOM     74  C   UNL A   1      33.015  25.834  23.681  1.00  0.00     0.098 C 
ATOM     75  C   UNL A   1      33.882  26.870  24.405  1.00  0.00     0.017 C 
ATOM     76  C   UNL A   1      32.237  26.478  22.509  1.00  0.00     0.131 C 
ATOM     77  C   UNL A   1      33.171  28.192  24.691  1.00  0.00     0.022 C 
ATOM     78  N   UNL A   1      31.694  27.784  22.864  1.00  0.00    -0.354 N 
ATOM     79  C   UNL A   1      32.615  28.771  23.397  1.00  0.00     0.118 C 
BRANCH  78  80
ATOM     80  C   UNL A   1      30.350  28.076  22.920  1.00  0.00     0.151 A 
ATOM     81  C   UNL A   1      29.831  29.255  22.394  1.00  0.00     0.054 A 
ATOM     82  N   UNL A   1      29.503  27.157  23.449  1.00  0.00    -0.129 NA
ATOM     83  C   UNL A   1      28.456  29.475  22.409  1.00  0.00     0.074 A 
ATOM     84  N   UNL A   1      28.153  27.373  23.497  1.00  0.00    -0.110 NA
ATOM     85  C   UNL A   1      27.669  28.507  22.976  1.00  0.00     0.231 A 
BRANCH  85  86
ATOM     86  O   UNL A   1      26.320  28.648  23.039  1.00  0.00    -0.492 OA
ATOM     87  H   UNL A   1      25.944  29.330  23.561  1.00  0.00     0.295 HD
ENDBRANCH  85  86
ENDBRANCH  78  80
ENDBRANCH  71  74
ENDBRANCH  69  70
ENDBRANCH  68  69
ENDBRANCH   1  68
TORSDOF 15
ENDMDL
MODEL 3
REMARK VINA RESULT:     -11.1      4.024     11.309
REMARK SMILES O=C(NCCCNC(=O)[C@H]1CCCN(c2ccc(O)nn2)C1)c1ccc(-c2c3nc(c(-c4ccc(S(=O)(=O)[O-])cc4)c4ccc([nH]4)c(-c4ccc(S(=O)(=O)[O-])cc4)c4nc(c(-c5ccc(S(=O)(=O)[O-])cc5)c5ccc2[nH]5)C=C4)C=C3)cc1
REMARK SMILES IDX 4 1 3 2 1 3 2 4 23 6 24 7 82 8 25 9 81 10 26 11 27 12 28 13
REMARK SMILES IDX 75 14 29 15 80 16 74 17 76 18 30 19 79 20 73 21 72 22 31 24
REMARK SMILES IDX 61 25 42 26 60 27 43 28 46 29 59 30 77 31 44 32 45 33 58 35
REMARK SMILES IDX 78 36 47 37 32 38 33 39 41 40 34 41 40 42 35 43 36 44 37 45
REMARK SMILES IDX 38 46 39 47 62 48 63 49 71 50 64 51 70 52 65 53 66 54 67 55
REMARK SMILES IDX 68 56 69 57 48 58 49 59 57 60 50 61 56 62 51 63 52 64 53 65
REMARK SMILES IDX 54 66 55 67 5 68 6 69 7 70 8 71 9 73 10 74 11 75 22 76 12 77
REMARK SMILES IDX 14 78 13 79 15 80 16 81 21 82 17 83 20 84 18 85 19 86
REMARK H PARENT 3 5 76 23 46 34 7 72 19 87
REMARK Flexibility Score: inf
ROOT
ATOM      1  C   UNL A   1      40.463  21.460  26.943  1.00  0.00     0.118 C 
ENDROOT
BRANCH   1   2
ATOM      2  N   UNL A   1      39.403  21.884  26.031  1.00  0.00    -0.352 N 
ATOM      3  O   UNL A   1      37.613  23.076  25.380  1.00  0.00    -0.269 OA
ATOM      4  C   UNL A   1      38.664  23.036  26.022  1.00  0.00     0.251 C 
ATOM      5  H   UNL A   1      39.187  21.244  25.315  1.00  0.00     0.163 HD
BRANCH   4   6
ATOM      6  C   UNL A   1      39.128  24.224  26.760  1.00  0.00     0.039 A 
ATOM      7  C   UNL A   1      39.925  25.181  26.124  1.00  0.00     0.014 A 
ATOM      8  C   UNL A   1      38.706  24.422  28.079  1.00  0.00     0.014 A 
ATOM      9  C   UNL A   1      40.384  26.283  26.835  1.00  0.00     0.010 A 
ATOM     10  C   UNL A   1      39.124  25.557  28.777  1.00  0.00     0.010 A 
ATOM     11  C   UNL A   1      39.982  26.483  28.164  1.00  0.00    -0.014 A 
BRANCH  11  12
ATOM     12  C   UNL A   1      40.439  27.693  28.883  1.00  0.00     0.031 A 
ATOM     13  C   UNL A   1      41.848  27.794  29.388  1.00  0.00     0.074 A 
ATOM     14  C   UNL A   1      39.584  28.725  29.024  1.00  0.00     0.049 A 
ATOM     15  N   UNL A   1      42.430  28.795  29.994  1.00  0.00    -0.248 NA
ATOM     16  C   UNL A   1      42.721  26.626  29.180  1.00  0.00     0.031 C 
ATOM     17  C   UNL A   1      38.200  28.744  28.542  1.00  0.00     0.029 A 
ATOM     18  N   UNL A   1      39.760  29.965  29.581  1.00  0.00    -0.354 N 
ATOM     19  C   UNL A   1      43.735  28.384  30.238  1.00  0.00     0.074 A 
ATOM     20  C   UNL A   1      43.854  27.032  29.739  1.00  0.00     0.031 C 
ATOM     21  C   UNL A   1      37.669  29.952  28.784  1.00  0.00     0.029 A 
ATOM     22  C   UNL A   1      38.655  30.776  29.475  1.00  0.00     0.049 A 
ATOM     23  H   UNL A   1      40.596  30.247  30.016  1.00  0.00     0.167 HD
ATOM     24  C   UNL A   1      44.741  29.080  30.815  1.00  0.00     0.031 A 
ATOM     25  C   UNL A   1      38.457  32.041  29.890  1.00  0.00     0.031 A 
ATOM     26  C   UNL A   1      44.613  30.423  31.313  1.00  0.00     0.049 A 
ATOM     27  C   UNL A   1      39.569  32.763  30.589  1.00  0.00     0.074 A 
ATOM     28  C   UNL A   1      45.576  31.207  31.921  1.00  0.00     0.029 A 
ATOM     29  N   UNL A   1      43.454  31.180  31.259  1.00  0.00    -0.354 N 
ATOM     30  N   UNL A   1      40.791  32.350  30.827  1.00  0.00    -0.248 NA
ATOM     31  C   UNL A   1      39.278  34.116  31.083  1.00  0.00     0.031 C 
ATOM     32  C   UNL A   1      44.991  32.428  32.268  1.00  0.00     0.029 A 
ATOM     33  C   UNL A   1      43.674  32.418  31.836  1.00  0.00     0.049 A 
ATOM     34  H   UNL A   1      42.601  30.882  30.868  1.00  0.00     0.167 HD
ATOM     35  C   UNL A   1      41.421  33.398  31.486  1.00  0.00     0.074 A 
ATOM     36  C   UNL A   1      40.449  34.466  31.603  1.00  0.00     0.031 C 
ATOM     37  C   UNL A   1      42.692  33.467  31.949  1.00  0.00     0.031 A 
BRANCH  24  38
ATOM     38  C   UNL A   1      46.078  28.407  30.946  1.00  0.00    -0.014 A 
ATOM     39  C   UNL A   1      46.332  27.520  32.006  1.00  0.00     0.010 A 
ATOM     40  C   UNL A   1      47.054  28.588  29.950  1.00  0.00     0.010 A 
ATOM     41  C   UNL A   1      47.543  26.828  32.071  1.00  0.00     0.020 A 
ATOM     42  C   UNL A   1      48.261  27.885  30.003  1.00  0.00     0.020 A 
ATOM     43  C   UNL A   1      48.498  27.010  31.065  1.00  0.00     0.054 A 
BRANCH  43  44
ATOM     44  S   UNL A   1      50.042  26.063  31.160  1.00  0.00     0.124 S 
ATOM     45  O   UNL A   1      49.951  25.213  29.975  1.00  0.00    -0.237 OA
ATOM     46  O   UNL A   1      51.057  27.112  31.104  1.00  0.00    -0.237 OA
ATOM     47  O   UNL A   1      49.943  25.358  32.436  1.00  0.00    -0.744 OA
ENDBRANCH  43  44
ENDBRANCH  24  38
BRANCH  25  48
ATOM     48  C   UNL A   1      37.147  32.696  29.639  1.00  0.00    -0.014 A 
ATOM     49  C   UNL A   1      36.142  32.669  30.620  1.00  0.00     0.010 A 
ATOM     50  C   UNL A   1      36.920  33.397  28.440  1.00  0.00     0.010 A 
ATOM     51  C   UNL A   1      34.932  33.337  30.408  1.00  0.00     0.020 A 
ATOM     52  C   UNL A   1      35.720  34.081  28.234  1.00  0.00     0.020 A 
ATOM     53  C   UNL A   1      34.734  34.048  29.220  1.00  0.00     0.054 A 
BRANCH  53  54
ATOM     54  S   UNL A   1      33.178  34.955  29.002  1.00  0.00     0.124 S 
ATOM     55  O   UNL A   1      32.620  34.936  30.351  1.00  0.00    -0.237 OA
ATOM     56  O   UNL A   1      33.645  36.256  28.529  1.00  0.00    -0.237 OA
ATOM     57  O   UNL A   1      32.451  34.162  28.015  1.00  0.00    -0.744 OA
ENDBRANCH  53  54
ENDBRANCH  25  48
BRANCH  37  58
ATOM     58  C   UNL A   1      43.122  34.740  32.617  1.00  0.00    -0.014 A 
ATOM     59  C   UNL A   1      43.726  35.771  31.878  1.00  0.00     0.010 A 
ATOM     60  C   UNL A   1      42.822  34.947  33.976  1.00  0.00     0.010 A 
ATOM     61  C   UNL A   1      44.026  36.990  32.489  1.00  0.00     0.020 A 
ATOM     62  C   UNL A   1      43.105  36.171  34.586  1.00  0.00     0.020 A 
ATOM     63  C   UNL A   1      43.705  37.186  33.837  1.00  0.00     0.054 A 
BRANCH  63  64
ATOM     64  S   UNL A   1      44.049  38.803  34.583  1.00  0.00     0.124 S 
ATOM     65  O   UNL A   1      45.360  39.125  34.025  1.00  0.00    -0.237 OA
ATOM     66  O   UNL A   1      42.940  39.616  34.092  1.00  0.00    -0.237 OA
ATOM     67  O   UNL A   1      44.035  38.535  36.019  1.00  0.00    -0.744 OA
ENDBRANCH  63  64
ENDBRANCH  37  58
ENDBRANCH  11  12
ENDBRANCH   4   6
ENDBRANCH   1   2
BRANCH   1  68
ATOM     68  C   UNL A   1      41.813  21.399  26.232  1.00  0.00     0.042 C 
BRANCH  68  69
ATOM     69  C   UNL A   1      42.563  22.724  26.303  1.00  0.00     0.117 C 
BRANCH  69  70
ATOM     70  N   UNL A   1      43.491  22.894  25.199  1.00  0.00    -0.356 N 
ATOM     71  C   UNL A   1      44.592  23.652  24.992  1.00  0.00     0.224 C 
ATOM     72  H   UNL A   1      43.266  22.330  24.424  1.00  0.00     0.163 HD
ATOM     73  O   UNL A   1      45.145  23.474  23.898  1.00  0.00    -0.275 OA
BRANCH  71  74
ATOM     74  C   UNL A   1      45.139  24.722  25.949  1.00  0.00     0.098 C 
ATOM     75  C   UNL A   1      46.239  24.302  26.931  1.00  0.00     0.017 C 
ATOM     76  C   UNL A   1      45.606  25.894  25.055  1.00  0.00     0.131 C 
ATOM     77  C   UNL A   1      46.935  25.470  27.629  1.00  0.00     0.022 C 
ATOM     78  N   UNL A   1      46.351  26.896  25.809  1.00  0.00    -0.354 N 
ATOM     79  C   UNL A   1      47.485  26.440  26.592  1.00  0.00     0.118 C 
BRANCH  78  80
ATOM     80  C   UNL A   1      45.937  28.196  25.991  1.00  0.00     0.151 A 
ATOM     81  C   UNL A   1      44.902  28.524  26.860  1.00  0.00     0.054 A 
ATOM     82  N   UNL A   1      46.601  29.189  25.346  1.00  0.00    -0.129 NA
ATOM     83  C   UNL A   1      44.565  29.859  27.066  1.00  0.00     0.074 A 
ATOM     84  N   UNL A   1      46.261  30.503  25.516  1.00  0.00    -0.110 NA
ATOM     85  C   UNL A   1      45.270  30.802  26.365  1.00  0.00     0.231 A 
BRANCH  85  86
ATOM     86  O   UNL A   1      44.999  32.125  26.501  1.00  0.00    -0.492 OA
ATOM     87  H   UNL A   1      45.665  32.760  26.324  1.00  0.00     0.295 HD
ENDBRANCH  85  86
ENDBRANCH  78  80
ENDBRANCH  71  74
ENDBRANCH  69  70
ENDBRANCH  68  69
ENDBRANCH   1  68
TORSDOF 15
ENDMDL
