MODEL 1
REMARK VINA RESULT:     -10.7      0.000      0.000
REMARK SMILES CCC(CC)(NC(=O)NC[C@H](C)[NH+]1CCCCC1)C(=O)NCCCNC(=O)c1ccc(-c2c3nc(c(-c4ccc(S(=O)(=O)[O-])cc4)c4ccc([nH]4)c(-c4ccc(S(=O)(=O)[O-])cc4)c4nc(c(-c5ccc(S(=O)(=O)[O-])cc5)c5ccc2[nH]5)C=C4)C=C3)cc1
REMARK SMILES IDX 22 1 21 2 19 3 20 4 3 6 2 7 1 8 4 9 5 10 6 11 7 12 8 14 9 15
REMARK SMILES IDX 10 17 11 18 12 19 13 20 14 21 18 22 15 24 17 25 16 26 23 27
REMARK SMILES IDX 24 28 25 29 26 30 27 32 28 33 29 34 87 35 30 36 86 37 31 38
REMARK SMILES IDX 32 39 33 40 80 41 34 42 85 43 79 44 81 45 35 46 84 47 78 48
REMARK SMILES IDX 77 49 36 51 66 52 47 53 65 54 48 55 51 56 64 57 82 58 49 59
REMARK SMILES IDX 50 60 63 62 83 63 52 64 37 65 38 66 46 67 39 68 45 69 40 70
REMARK SMILES IDX 41 71 42 72 43 73 44 74 67 75 68 76 76 77 69 78 75 79 70 80
REMARK SMILES IDX 71 81 72 82 73 83 74 84 53 85 54 86 62 87 55 88 61 89 56 90
REMARK SMILES IDX 57 91 58 92 59 93 60 94
REMARK H PARENT 21 5 6 13 9 16 13 23 25 31 81 50 51 61
REMARK Flexibility Score: inf
ROOT
ATOM      1  C   UNL A   1      33.186  26.987  25.149  1.00  0.00     0.117 C 
ENDROOT
BRANCH   1   2
ATOM      2  N   UNL A   1      33.287  25.801  26.003  1.00  0.00    -0.354 N 
ATOM      3  C   UNL A   1      32.802  24.509  25.899  1.00  0.00     0.245 C 
ATOM      4  O   UNL A   1      33.506  23.636  26.423  1.00  0.00    -0.272 OA
ATOM      5  H   UNL A   1      33.811  25.956  26.822  1.00  0.00     0.163 HD
BRANCH   3   6
ATOM      6  C   UNL A   1      31.508  24.123  25.105  1.00  0.00     0.120 C 
BRANCH   6   7
ATOM      7  C   UNL A   1      30.343  25.178  25.141  1.00  0.00     0.035 C 
ATOM      8  C   UNL A   1      29.906  25.872  23.858  1.00  0.00     0.007 C 
ENDBRANCH   6   7
BRANCH   6   9
ATOM      9  C   UNL A   1      30.966  22.778  25.699  1.00  0.00     0.035 C 
ATOM     10  C   UNL A   1      30.078  22.872  26.938  1.00  0.00     0.007 C 
ENDBRANCH   6   9
BRANCH   6  11
ATOM     11  N   UNL A   1      31.911  23.984  23.686  1.00  0.00    -0.324 N 
ATOM     12  C   UNL A   1      33.042  23.447  23.193  1.00  0.00     0.315 C 
ATOM     13  H   UNL A   1      31.272  24.327  23.021  1.00  0.00     0.166 HD
ATOM     14  O   UNL A   1      33.607  24.067  22.288  1.00  0.00    -0.249 OA
ATOM     15  N   UNL A   1      33.580  22.282  23.576  1.00  0.00    -0.332 N 
ATOM     16  H   UNL A   1      34.542  22.241  23.370  1.00  0.00     0.165 HD
BRANCH  15  17
ATOM     17  C   UNL A   1      33.114  21.054  24.222  1.00  0.00     0.182 C 
BRANCH  17  18
ATOM     18  C   UNL A   1      34.070  20.352  25.255  1.00  0.00     0.200 C 
ATOM     19  C   UNL A   1      35.508  20.868  24.993  1.00  0.00     0.077 C 
BRANCH  18  20
ATOM     20  N   UNL A   1      33.982  18.866  25.370  1.00  0.00    -0.331 N 
ATOM     21  C   UNL A   1      34.765  18.159  24.358  1.00  0.00     0.262 C 
ATOM     22  C   UNL A   1      32.669  18.316  25.690  1.00  0.00     0.262 C 
ATOM     23  H   UNL A   1      34.468  18.654  26.242  1.00  0.00     0.348 HD
ATOM     24  C   UNL A   1      34.305  16.846  23.747  1.00  0.00     0.062 C 
ATOM     25  C   UNL A   1      32.288  16.962  25.090  1.00  0.00     0.062 C 
ATOM     26  C   UNL A   1      33.427  16.066  24.681  1.00  0.00     0.012 C 
ENDBRANCH  18  20
ENDBRANCH  17  18
ENDBRANCH  15  17
ENDBRANCH   6  11
ENDBRANCH   3   6
ENDBRANCH   1   2
BRANCH   1  27
ATOM     27  C   UNL A   1      33.158  28.402  25.752  1.00  0.00     0.042 C 
BRANCH  27  28
ATOM     28  C   UNL A   1      33.075  28.665  27.265  1.00  0.00     0.118 C 
BRANCH  28  29
ATOM     29  N   UNL A   1      33.070  30.038  27.736  1.00  0.00    -0.352 N 
ATOM     30  C   UNL A   1      34.164  30.840  28.046  1.00  0.00     0.251 C 
ATOM     31  H   UNL A   1      32.185  30.453  27.849  1.00  0.00     0.163 HD
ATOM     32  O   UNL A   1      34.008  32.057  28.122  1.00  0.00    -0.269 OA
BRANCH  30  33
ATOM     33  C   UNL A   1      35.524  30.279  28.295  1.00  0.00     0.039 A 
ATOM     34  C   UNL A   1      36.455  30.181  27.262  1.00  0.00     0.014 A 
ATOM     35  C   UNL A   1      35.859  29.716  29.528  1.00  0.00     0.014 A 
ATOM     36  C   UNL A   1      37.743  29.639  27.501  1.00  0.00     0.010 A 
ATOM     37  C   UNL A   1      37.180  29.259  29.778  1.00  0.00     0.010 A 
ATOM     38  C   UNL A   1      38.183  29.264  28.790  1.00  0.00    -0.014 A 
BRANCH  38  39
ATOM     39  C   UNL A   1      39.664  28.989  29.078  1.00  0.00     0.031 A 
ATOM     40  C   UNL A   1      40.614  30.011  29.711  1.00  0.00     0.074 A 
ATOM     41  C   UNL A   1      40.237  27.813  28.705  1.00  0.00     0.049 A 
ATOM     42  N   UNL A   1      41.895  29.885  30.000  1.00  0.00    -0.248 NA
ATOM     43  C   UNL A   1      40.082  31.343  30.024  1.00  0.00     0.031 C 
ATOM     44  C   UNL A   1      39.573  26.728  27.977  1.00  0.00     0.029 A 
ATOM     45  N   UNL A   1      41.520  27.319  28.890  1.00  0.00    -0.354 N 
ATOM     46  C   UNL A   1      42.318  31.120  30.490  1.00  0.00     0.074 A 
ATOM     47  C   UNL A   1      41.174  32.001  30.395  1.00  0.00     0.031 C 
ATOM     48  C   UNL A   1      40.408  25.685  27.854  1.00  0.00     0.029 A 
ATOM     49  C   UNL A   1      41.704  26.028  28.430  1.00  0.00     0.049 A 
ATOM     50  H   UNL A   1      42.238  27.842  29.314  1.00  0.00     0.167 HD
ATOM     51  C   UNL A   1      43.517  31.502  31.010  1.00  0.00     0.031 A 
ATOM     52  C   UNL A   1      42.767  25.193  28.449  1.00  0.00     0.031 A 
ATOM     53  C   UNL A   1      44.675  30.656  31.169  1.00  0.00     0.049 A 
ATOM     54  C   UNL A   1      44.080  25.621  29.053  1.00  0.00     0.074 A 
ATOM     55  C   UNL A   1      45.879  30.957  31.791  1.00  0.00     0.029 A 
ATOM     56  N   UNL A   1      44.790  29.356  30.709  1.00  0.00    -0.354 N 
ATOM     57  N   UNL A   1      44.394  26.757  29.623  1.00  0.00    -0.248 NA
ATOM     58  C   UNL A   1      45.183  24.644  29.022  1.00  0.00     0.031 C 
ATOM     59  C   UNL A   1      46.739  29.862  31.658  1.00  0.00     0.029 A 
ATOM     60  C   UNL A   1      46.050  28.854  31.007  1.00  0.00     0.049 A 
ATOM     61  H   UNL A   1      44.081  28.859  30.240  1.00  0.00     0.167 HD
ATOM     62  C   UNL A   1      45.717  26.619  30.040  1.00  0.00     0.074 A 
ATOM     63  C   UNL A   1      46.140  25.286  29.678  1.00  0.00     0.031 C 
ATOM     64  C   UNL A   1      46.502  27.529  30.665  1.00  0.00     0.031 A 
BRANCH  51  65
ATOM     65  C   UNL A   1      43.646  32.930  31.497  1.00  0.00    -0.014 A 
ATOM     66  C   UNL A   1      43.305  33.275  32.818  1.00  0.00     0.010 A 
ATOM     67  C   UNL A   1      44.179  33.924  30.652  1.00  0.00     0.010 A 
ATOM     68  C   UNL A   1      43.429  34.594  33.263  1.00  0.00     0.020 A 
ATOM     69  C   UNL A   1      44.337  35.239  31.104  1.00  0.00     0.020 A 
ATOM     70  C   UNL A   1      43.937  35.570  32.400  1.00  0.00     0.054 A 
BRANCH  70  71
ATOM     71  S   UNL A   1      44.082  37.272  33.012  1.00  0.00     0.124 S 
ATOM     72  O   UNL A   1      43.956  38.044  31.779  1.00  0.00    -0.237 OA
ATOM     73  O   UNL A   1      42.962  37.378  33.938  1.00  0.00    -0.237 OA
ATOM     74  O   UNL A   1      45.408  37.306  33.634  1.00  0.00    -0.744 OA
ENDBRANCH  70  71
ENDBRANCH  51  65
BRANCH  52  75
ATOM     75  C   UNL A   1      42.646  23.814  27.885  1.00  0.00    -0.014 A 
ATOM     76  C   UNL A   1      42.898  23.579  26.519  1.00  0.00     0.010 A 
ATOM     77  C   UNL A   1      42.250  22.736  28.697  1.00  0.00     0.010 A 
ATOM     78  C   UNL A   1      42.733  22.302  25.974  1.00  0.00     0.020 A 
ATOM     79  C   UNL A   1      42.117  21.451  28.162  1.00  0.00     0.020 A 
ATOM     80  C   UNL A   1      42.348  21.244  26.801  1.00  0.00     0.054 A 
BRANCH  80  81
ATOM     81  S   UNL A   1      42.189  19.585  26.080  1.00  0.00     0.124 S 
ATOM     82  O   UNL A   1      43.038  19.683  24.899  1.00  0.00    -0.237 OA
ATOM     83  O   UNL A   1      42.689  18.728  27.152  1.00  0.00    -0.237 OA
ATOM     84  O   UNL A   1      40.756  19.464  25.815  1.00  0.00    -0.744 OA
ENDBRANCH  80  81
ENDBRANCH  52  75
BRANCH  64  85
ATOM     85  C   UNL A   1      47.906  27.124  31.045  1.00  0.00    -0.014 A 
ATOM     86  C   UNL A   1      48.160  26.306  32.161  1.00  0.00     0.010 A 
ATOM     87  C   UNL A   1      48.989  27.517  30.234  1.00  0.00     0.010 A 
ATOM     88  C   UNL A   1      49.466  25.910  32.473  1.00  0.00     0.020 A 
ATOM     89  C   UNL A   1      50.293  27.101  30.526  1.00  0.00     0.020 A 
ATOM     90  C   UNL A   1      50.524  26.307  31.651  1.00  0.00     0.054 A 
BRANCH  90  91
ATOM     91  S   UNL A   1      52.202  25.733  32.044  1.00  0.00     0.124 S 
ATOM     92  O   UNL A   1      52.852  25.769  30.737  1.00  0.00    -0.237 OA
ATOM     93  O   UNL A   1      52.666  26.733  33.004  1.00  0.00    -0.237 OA
ATOM     94  O   UNL A   1      51.993  24.398  32.598  1.00  0.00    -0.744 OA
ENDBRANCH  90  91
ENDBRANCH  64  85
ENDBRANCH  38  39
ENDBRANCH  30  33
ENDBRANCH  28  29
ENDBRANCH  27  28
ENDBRANCH   1  27
TORSDOF 19
ENDMDL
MODEL 2
REMARK VINA RESULT:     -10.5      2.677      8.532
REMARK SMILES CCC(CC)(NC(=O)NC[C@H](C)[NH+]1CCCCC1)C(=O)NCCCNC(=O)c1ccc(-c2c3nc(c(-c4ccc(S(=O)(=O)[O-])cc4)c4ccc([nH]4)c(-c4ccc(S(=O)(=O)[O-])cc4)c4nc(c(-c5ccc(S(=O)(=O)[O-])cc5)c5ccc2[nH]5)C=C4)C=C3)cc1
REMARK SMILES IDX 22 1 21 2 19 3 20 4 3 6 2 7 1 8 4 9 5 10 6 11 7 12 8 14 9 15
REMARK SMILES IDX 10 17 11 18 12 19 13 20 14 21 18 22 15 24 17 25 16 26 23 27
REMARK SMILES IDX 24 28 25 29 26 30 27 32 28 33 29 34 87 35 30 36 86 37 31 38
REMARK SMILES IDX 32 39 33 40 80 41 34 42 85 43 79 44 81 45 35 46 84 47 78 48
REMARK SMILES IDX 77 49 36 51 66 52 47 53 65 54 48 55 51 56 64 57 82 58 49 59
REMARK SMILES IDX 50 60 63 62 83 63 52 64 37 65 38 66 46 67 39 68 45 69 40 70
REMARK SMILES IDX 41 71 42 72 43 73 44 74 67 75 68 76 76 77 69 78 75 79 70 80
REMARK SMILES IDX 71 81 72 82 73 83 74 84 53 85 54 86 62 87 55 88 61 89 56 90
REMARK SMILES IDX 57 91 58 92 59 93 60 94
REMARK H PARENT 21 5 6 13 9 16 13 23 25 31 81 50 51 61
REMARK Flexibility Score: inf
ROOT
ATOM      1  C   UNL A   1      34.694  23.657  24.125  1.00  0.00     0.117 C 
ENDROOT
BRANCH   1   2
ATOM      2  N   UNL A   1      33.503  23.016  23.561  1.00  0.00    -0.354 N 
ATOM      3  C   UNL A   1      32.341  22.510  24.116  1.00  0.00     0.245 C 
ATOM      4  O   UNL A   1      31.336  22.586  23.399  1.00  0.00    -0.272 OA
ATOM      5  H   UNL A   1      33.538  22.927  22.581  1.00  0.00     0.163 HD
BRANCH   3   6
ATOM      6  C   UNL A   1      32.239  21.960  25.579  1.00  0.00     0.120 C 
BRANCH   6   7
ATOM      7  C   UNL A   1      33.167  22.660  26.639  1.00  0.00     0.035 C 
ATOM      8  C   UNL A   1      34.057  21.818  27.543  1.00  0.00     0.007 C 
ENDBRANCH   6   7
BRANCH   6   9
ATOM      9  C   UNL A   1      32.604  20.436  25.543  1.00  0.00     0.035 C 
ATOM     10  C   UNL A   1      32.618  19.755  24.177  1.00  0.00     0.007 C 
ENDBRANCH   6   9
BRANCH   6  11
ATOM     11  N   UNL A   1      30.843  22.190  26.020  1.00  0.00    -0.324 N 
ATOM     12  C   UNL A   1      30.373  23.178  26.802  1.00  0.00     0.315 C 
ATOM     13  H   UNL A   1      30.178  21.541  25.699  1.00  0.00     0.166 HD
ATOM     14  O   UNL A   1      29.578  22.856  27.691  1.00  0.00    -0.249 OA
ATOM     15  N   UNL A   1      30.665  24.478  26.673  1.00  0.00    -0.332 N 
ATOM     16  H   UNL A   1      30.520  24.968  27.514  1.00  0.00     0.165 HD
BRANCH  15  17
ATOM     17  C   UNL A   1      31.145  25.362  25.610  1.00  0.00     0.182 C 
BRANCH  17  18
ATOM     18  C   UNL A   1      31.044  26.914  25.836  1.00  0.00     0.200 C 
ATOM     19  C   UNL A   1      30.832  27.580  24.452  1.00  0.00     0.077 C 
BRANCH  18  20
ATOM     20  N   UNL A   1      32.117  27.560  26.649  1.00  0.00    -0.331 N 
ATOM     21  C   UNL A   1      31.743  28.879  27.159  1.00  0.00     0.262 C 
ATOM     22  C   UNL A   1      33.483  27.407  26.160  1.00  0.00     0.262 C 
ATOM     23  H   UNL A   1      32.176  26.984  27.489  1.00  0.00     0.348 HD
ATOM     24  C   UNL A   1      32.747  30.011  27.296  1.00  0.00     0.062 C 
ATOM     25  C   UNL A   1      34.463  28.560  26.381  1.00  0.00     0.062 C 
ATOM     26  C   UNL A   1      34.143  29.503  27.511  1.00  0.00     0.012 C 
ENDBRANCH  18  20
ENDBRANCH  17  18
ENDBRANCH  15  17
ENDBRANCH   6  11
ENDBRANCH   3   6
ENDBRANCH   1   2
BRANCH   1  27
ATOM     27  C   UNL A   1      35.943  22.835  24.490  1.00  0.00     0.042 C 
BRANCH  27  28
ATOM     28  C   UNL A   1      37.280  23.480  24.890  1.00  0.00     0.118 C 
BRANCH  28  29
ATOM     29  N   UNL A   1      38.392  22.617  25.247  1.00  0.00    -0.352 N 
ATOM     30  C   UNL A   1      39.330  22.805  26.257  1.00  0.00     0.251 C 
ATOM     31  H   UNL A   1      38.494  21.799  24.709  1.00  0.00     0.163 HD
ATOM     32  O   UNL A   1      40.002  21.846  26.632  1.00  0.00    -0.269 OA
BRANCH  30  33
ATOM     33  C   UNL A   1      39.559  24.130  26.904  1.00  0.00     0.039 A 
ATOM     34  C   UNL A   1      38.990  24.427  28.141  1.00  0.00     0.014 A 
ATOM     35  C   UNL A   1      40.232  25.154  26.234  1.00  0.00     0.014 A 
ATOM     36  C   UNL A   1      39.201  25.691  28.747  1.00  0.00     0.010 A 
ATOM     37  C   UNL A   1      40.512  26.382  26.890  1.00  0.00     0.010 A 
ATOM     38  C   UNL A   1      40.060  26.666  28.193  1.00  0.00    -0.014 A 
BRANCH  38  39
ATOM     39  C   UNL A   1      40.523  27.878  29.011  1.00  0.00     0.031 A 
ATOM     40  C   UNL A   1      39.653  29.112  29.273  1.00  0.00     0.074 A 
ATOM     41  C   UNL A   1      41.793  27.946  29.494  1.00  0.00     0.049 A 
ATOM     42  N   UNL A   1      39.946  30.203  29.954  1.00  0.00    -0.248 NA
ATOM     43  C   UNL A   1      38.314  29.151  28.673  1.00  0.00     0.031 C 
ATOM     44  C   UNL A   1      42.848  26.953  29.274  1.00  0.00     0.029 A 
ATOM     45  N   UNL A   1      42.423  28.895  30.283  1.00  0.00    -0.354 N 
ATOM     46  C   UNL A   1      38.850  31.057  29.833  1.00  0.00     0.074 A 
ATOM     47  C   UNL A   1      37.915  30.384  28.956  1.00  0.00     0.031 C 
ATOM     48  C   UNL A   1      43.945  27.293  29.968  1.00  0.00     0.029 A 
ATOM     49  C   UNL A   1      43.718  28.569  30.640  1.00  0.00     0.049 A 
ATOM     50  H   UNL A   1      41.986  29.731  30.566  1.00  0.00     0.167 HD
ATOM     51  C   UNL A   1      38.600  32.264  30.411  1.00  0.00     0.031 A 
ATOM     52  C   UNL A   1      44.641  29.192  31.407  1.00  0.00     0.031 A 
ATOM     53  C   UNL A   1      39.475  32.958  31.324  1.00  0.00     0.049 A 
ATOM     54  C   UNL A   1      44.340  30.516  32.063  1.00  0.00     0.074 A 
ATOM     55  C   UNL A   1      39.227  34.129  32.027  1.00  0.00     0.029 A 
ATOM     56  N   UNL A   1      40.757  32.565  31.665  1.00  0.00    -0.354 N 
ATOM     57  N   UNL A   1      43.239  31.223  32.024  1.00  0.00    -0.248 NA
ATOM     58  C   UNL A   1      45.410  31.121  32.875  1.00  0.00     0.031 C 
ATOM     59  C   UNL A   1      40.376  34.473  32.747  1.00  0.00     0.029 A 
ATOM     60  C   UNL A   1      41.320  33.483  32.542  1.00  0.00     0.049 A 
ATOM     61  H   UNL A   1      41.205  31.752  31.334  1.00  0.00     0.167 HD
ATOM     62  C   UNL A   1      43.477  32.338  32.827  1.00  0.00     0.074 A 
ATOM     63  C   UNL A   1      44.815  32.204  33.355  1.00  0.00     0.031 C 
ATOM     64  C   UNL A   1      42.648  33.377  33.091  1.00  0.00     0.031 A 
BRANCH  51  65
ATOM     65  C   UNL A   1      37.276  32.929  30.098  1.00  0.00    -0.014 A 
ATOM     66  C   UNL A   1      37.169  33.868  29.055  1.00  0.00     0.010 A 
ATOM     67  C   UNL A   1      36.112  32.562  30.803  1.00  0.00     0.010 A 
ATOM     68  C   UNL A   1      35.944  34.476  28.769  1.00  0.00     0.020 A 
ATOM     69  C   UNL A   1      34.877  33.142  30.496  1.00  0.00     0.020 A 
ATOM     70  C   UNL A   1      34.806  34.115  29.497  1.00  0.00     0.054 A 
BRANCH  70  71
ATOM     71  S   UNL A   1      33.233  34.927  29.098  1.00  0.00     0.124 S 
ATOM     72  O   UNL A   1      33.685  36.219  28.590  1.00  0.00    -0.237 OA
ATOM     73  O   UNL A   1      32.650  34.032  28.107  1.00  0.00    -0.237 OA
ATOM     74  O   UNL A   1      32.531  34.975  30.383  1.00  0.00    -0.744 OA
ENDBRANCH  70  71
ENDBRANCH  51  65
BRANCH  52  75
ATOM     75  C   UNL A   1      45.977  28.560  31.635  1.00  0.00    -0.014 A 
ATOM     76  C   UNL A   1      47.049  28.828  30.761  1.00  0.00     0.010 A 
ATOM     77  C   UNL A   1      46.177  27.666  32.701  1.00  0.00     0.010 A 
ATOM     78  C   UNL A   1      48.284  28.197  30.936  1.00  0.00     0.020 A 
ATOM     79  C   UNL A   1      47.423  27.060  32.899  1.00  0.00     0.020 A 
ATOM     80  C   UNL A   1      48.465  27.320  32.008  1.00  0.00     0.054 A 
BRANCH  80  81
ATOM     81  S   UNL A   1      50.094  26.552  32.243  1.00  0.00     0.124 S 
ATOM     82  O   UNL A   1      50.619  27.294  33.382  1.00  0.00    -0.237 OA
ATOM     83  O   UNL A   1      49.748  25.156  32.499  1.00  0.00    -0.237 OA
ATOM     84  O   UNL A   1      50.771  26.793  30.969  1.00  0.00    -0.744 OA
ENDBRANCH  80  81
ENDBRANCH  52  75
BRANCH  64  85
ATOM     85  C   UNL A   1      43.132  34.459  34.026  1.00  0.00    -0.014 A 
ATOM     86  C   UNL A   1      43.881  35.555  33.558  1.00  0.00     0.010 A 
ATOM     87  C   UNL A   1      42.780  34.414  35.389  1.00  0.00     0.010 A 
ATOM     88  C   UNL A   1      44.287  36.568  34.435  1.00  0.00     0.020 A 
ATOM     89  C   UNL A   1      43.160  35.437  36.263  1.00  0.00     0.020 A 
ATOM     90  C   UNL A   1      43.921  36.505  35.782  1.00  0.00     0.054 A 
BRANCH  90  91
ATOM     91  S   UNL A   1      44.411  37.859  36.888  1.00  0.00     0.124 S 
ATOM     92  O   UNL A   1      43.491  37.687  38.010  1.00  0.00    -0.237 OA
ATOM     93  O   UNL A   1      45.811  37.551  37.171  1.00  0.00    -0.237 OA
ATOM     94  O   UNL A   1      44.194  39.060  36.086  1.00  0.00    -0.744 OA
ENDBRANCH  90  91
ENDBRANCH  64  85
ENDBRANCH  38  39
ENDBRANCH  30  33
ENDBRANCH  28  29
ENDBRANCH  27  28
ENDBRANCH   1  27
TORSDOF 19
ENDMDL
MODEL 3
REMARK VINA RESULT:     -10.4      2.587      9.566
REMARK SMILES CCC(CC)(NC(=O)NC[C@H](C)[NH+]1CCCCC1)C(=O)NCCCNC(=O)c1ccc(-c2c3nc(c(-c4ccc(S(=O)(=O)[O-])cc4)c4ccc([nH]4)c(-c4ccc(S(=O)(=O)[O-])cc4)c4nc(c(-c5ccc(S(=O)(=O)[O-])cc5)c5ccc2[nH]5)C=C4)C=C3)cc1
REMARK SMILES IDX 22 1 21 2 19 3 20 4 3 6 2 7 1 8 4 9 5 10 6 11 7 12 8 14 9 15
REMARK SMILES IDX 10 17 11 18 12 19 13 20 14 21 18 22 15 24 17 25 16 26 23 27
REMARK SMILES IDX 24 28 25 29 26 30 27 32 28 33 29 34 87 35 30 36 86 37 31 38
REMARK SMILES IDX 32 39 33 40 80 41 34 42 85 43 79 44 81 45 35 46 84 47 78 48
REMARK SMILES IDX 77 49 36 51 66 52 47 53 65 54 48 55 51 56 64 57 82 58 49 59
REMARK SMILES IDX 50 60 63 62 83 63 52 64 37 65 38 66 46 67 39 68 45 69 40 70
REMARK SMILES IDX 41 71 42 72 43 73 44 74 67 75 68 76 76 77 69 78 75 79 70 80
REMARK SMILES IDX 71 81 72 82 73 83 74 84 53 85 54 86 62 87 55 88 61 89 56 90
REMARK SMILES IDX 57 91 58 92 59 93 60 94
REMARK H PARENT 21 5 6 13 9 16 13 23 25 31 81 50 51 61
REMARK Flexibility Score: inf
ROOT
ATOM      1  C   UNL A   1      34.989  23.854  23.837  1.00  0.00     0.117 C 
ENDROOT
BRANCH   1   2
ATOM      2  N   UNL A   1      33.724  23.299  23.348  1.00  0.00    -0.354 N 
ATOM      3  C   UNL A   1      32.550  22.913  23.971  1.00  0.00     0.245 C 
ATOM      4  O   UNL A   1      31.523  23.051  23.295  1.00  0.00    -0.272 OA
ATOM      5  H   UNL A   1      33.705  23.177  22.371  1.00  0.00     0.163 HD
BRANCH   3   6
ATOM      6  C   UNL A   1      32.470  22.420  25.455  1.00  0.00     0.120 C 
BRANCH   6   7
ATOM      7  C   UNL A   1      33.366  23.203  26.484  1.00  0.00     0.035 C 
ATOM      8  C   UNL A   1      34.029  22.458  27.634  1.00  0.00     0.007 C 
ENDBRANCH   6   7
BRANCH   6   9
ATOM      9  C   UNL A   1      32.901  20.913  25.483  1.00  0.00     0.035 C 
ATOM     10  C   UNL A   1      33.214  20.253  24.141  1.00  0.00     0.007 C 
ENDBRANCH   6   9
BRANCH   6  11
ATOM     11  N   UNL A   1      31.065  22.607  25.886  1.00  0.00    -0.324 N 
ATOM     12  C   UNL A   1      30.563  23.568  26.682  1.00  0.00     0.315 C 
ATOM     13  H   UNL A   1      30.419  21.947  25.548  1.00  0.00     0.166 HD
ATOM     14  O   UNL A   1      29.769  23.211  27.557  1.00  0.00    -0.249 OA
ATOM     15  N   UNL A   1      30.823  24.877  26.579  1.00  0.00    -0.332 N 
ATOM     16  H   UNL A   1      30.658  25.348  27.427  1.00  0.00     0.165 HD
BRANCH  15  17
ATOM     17  C   UNL A   1      31.290  25.792  25.535  1.00  0.00     0.182 C 
BRANCH  17  18
ATOM     18  C   UNL A   1      31.151  27.337  25.789  1.00  0.00     0.200 C 
ATOM     19  C   UNL A   1      30.991  28.029  24.411  1.00  0.00     0.077 C 
BRANCH  18  20
ATOM     20  N   UNL A   1      32.173  27.984  26.665  1.00  0.00    -0.331 N 
ATOM     21  C   UNL A   1      31.869  29.380  26.976  1.00  0.00     0.262 C 
ATOM     22  C   UNL A   1      33.568  27.660  26.384  1.00  0.00     0.262 C 
ATOM     23  H   UNL A   1      32.070  27.509  27.563  1.00  0.00     0.348 HD
ATOM     24  C   UNL A   1      32.955  30.433  27.125  1.00  0.00     0.062 C 
ATOM     25  C   UNL A   1      34.621  28.745  26.610  1.00  0.00     0.062 C 
ATOM     26  C   UNL A   1      34.257  29.839  27.579  1.00  0.00     0.012 C 
ENDBRANCH  18  20
ENDBRANCH  17  18
ENDBRANCH  15  17
ENDBRANCH   6  11
ENDBRANCH   3   6
ENDBRANCH   1   2
BRANCH   1  27
ATOM     27  C   UNL A   1      36.059  22.952  24.476  1.00  0.00     0.042 C 
BRANCH  27  28
ATOM     28  C   UNL A   1      37.541  23.350  24.571  1.00  0.00     0.118 C 
BRANCH  28  29
ATOM     29  N   UNL A   1      38.472  22.433  25.202  1.00  0.00    -0.352 N 
ATOM     30  C   UNL A   1      39.219  22.634  26.359  1.00  0.00     0.251 C 
ATOM     31  H   UNL A   1      38.588  21.562  24.759  1.00  0.00     0.163 HD
ATOM     32  O   UNL A   1      39.707  21.660  26.930  1.00  0.00    -0.269 OA
BRANCH  30  33
ATOM     33  C   UNL A   1      39.458  23.989  26.934  1.00  0.00     0.039 A 
ATOM     34  C   UNL A   1      38.916  24.346  28.169  1.00  0.00     0.014 A 
ATOM     35  C   UNL A   1      40.111  24.982  26.201  1.00  0.00     0.014 A 
ATOM     36  C   UNL A   1      39.136  25.638  28.707  1.00  0.00     0.010 A 
ATOM     37  C   UNL A   1      40.402  26.241  26.789  1.00  0.00     0.010 A 
ATOM     38  C   UNL A   1      39.978  26.587  28.086  1.00  0.00    -0.014 A 
BRANCH  38  39
ATOM     39  C   UNL A   1      40.456  27.839  28.833  1.00  0.00     0.031 A 
ATOM     40  C   UNL A   1      41.840  27.972  29.476  1.00  0.00     0.074 A 
ATOM     41  C   UNL A   1      39.618  28.893  29.028  1.00  0.00     0.049 A 
ATOM     42  N   UNL A   1      42.352  28.991  30.138  1.00  0.00    -0.248 NA
ATOM     43  C   UNL A   1      42.746  26.819  29.405  1.00  0.00     0.031 C 
ATOM     44  C   UNL A   1      38.213  28.958  28.619  1.00  0.00     0.029 A 
ATOM     45  N   UNL A   1      39.825  30.130  29.620  1.00  0.00    -0.354 N 
ATOM     46  C   UNL A   1      43.611  28.587  30.584  1.00  0.00     0.074 A 
ATOM     47  C   UNL A   1      43.756  27.206  30.174  1.00  0.00     0.031 C 
ATOM     48  C   UNL A   1      37.717  30.176  28.888  1.00  0.00     0.029 A 
ATOM     49  C   UNL A   1      38.735  30.979  29.556  1.00  0.00     0.049 A 
ATOM     50  H   UNL A   1      40.674  30.382  30.049  1.00  0.00     0.167 HD
ATOM     51  C   UNL A   1      44.584  29.282  31.234  1.00  0.00     0.031 A 
ATOM     52  C   UNL A   1      38.541  32.250  29.974  1.00  0.00     0.031 A 
ATOM     53  C   UNL A   1      44.512  30.669  31.626  1.00  0.00     0.049 A 
ATOM     54  C   UNL A   1      39.639  33.016  30.668  1.00  0.00     0.074 A 
ATOM     55  C   UNL A   1      45.508  31.456  32.187  1.00  0.00     0.029 A 
ATOM     56  N   UNL A   1      43.396  31.479  31.512  1.00  0.00    -0.354 N 
ATOM     57  N   UNL A   1      40.858  32.634  30.951  1.00  0.00    -0.248 NA
ATOM     58  C   UNL A   1      39.330  34.394  31.092  1.00  0.00     0.031 C 
ATOM     59  C   UNL A   1      44.980  32.721  32.462  1.00  0.00     0.029 A 
ATOM     60  C   UNL A   1      43.671  32.743  32.015  1.00  0.00     0.049 A 
ATOM     61  H   UNL A   1      42.533  31.200  31.127  1.00  0.00     0.167 HD
ATOM     62  C   UNL A   1      41.466  33.731  31.559  1.00  0.00     0.074 A 
ATOM     63  C   UNL A   1      40.492  34.798  31.585  1.00  0.00     0.031 C 
ATOM     64  C   UNL A   1      42.725  33.830  32.051  1.00  0.00     0.031 A 
BRANCH  51  65
ATOM     65  C   UNL A   1      45.874  28.553  31.549  1.00  0.00    -0.014 A 
ATOM     66  C   UNL A   1      46.053  27.905  32.785  1.00  0.00     0.010 A 
ATOM     67  C   UNL A   1      46.888  28.450  30.576  1.00  0.00     0.010 A 
ATOM     68  C   UNL A   1      47.243  27.230  33.068  1.00  0.00     0.020 A 
ATOM     69  C   UNL A   1      48.067  27.746  30.843  1.00  0.00     0.020 A 
ATOM     70  C   UNL A   1      48.247  27.162  32.098  1.00  0.00     0.054 A 
BRANCH  70  71
ATOM     71  S   UNL A   1      49.780  26.278  32.502  1.00  0.00     0.124 S 
ATOM     72  O   UNL A   1      50.682  26.753  31.457  1.00  0.00    -0.237 OA
ATOM     73  O   UNL A   1      50.076  26.747  33.849  1.00  0.00    -0.237 OA
ATOM     74  O   UNL A   1      49.403  24.866  32.403  1.00  0.00    -0.744 OA
ENDBRANCH  70  71
ENDBRANCH  51  65
BRANCH  52  75
ATOM     75  C   UNL A   1      37.229  32.926  29.731  1.00  0.00    -0.014 A 
ATOM     76  C   UNL A   1      36.305  33.084  30.782  1.00  0.00     0.010 A 
ATOM     77  C   UNL A   1      36.884  33.385  28.448  1.00  0.00     0.010 A 
ATOM     78  C   UNL A   1      35.055  33.666  30.549  1.00  0.00     0.020 A 
ATOM     79  C   UNL A   1      35.647  33.999  28.219  1.00  0.00     0.020 A 
ATOM     80  C   UNL A   1      34.736  34.124  29.269  1.00  0.00     0.054 A 
BRANCH  80  81
ATOM     81  S   UNL A   1      33.126  34.921  29.003  1.00  0.00     0.124 S 
ATOM     82  O   UNL A   1      33.514  36.239  28.517  1.00  0.00    -0.237 OA
ATOM     83  O   UNL A   1      32.499  34.041  28.020  1.00  0.00    -0.237 OA
ATOM     84  O   UNL A   1      32.510  34.896  30.329  1.00  0.00    -0.744 OA
ENDBRANCH  80  81
ENDBRANCH  52  75
BRANCH  64  85
ATOM     85  C   UNL A   1      43.162  35.150  32.641  1.00  0.00    -0.014 A 
ATOM     86  C   UNL A   1      43.774  36.141  31.852  1.00  0.00     0.010 A 
ATOM     87  C   UNL A   1      42.902  35.430  33.996  1.00  0.00     0.010 A 
ATOM     88  C   UNL A   1      44.137  37.373  32.409  1.00  0.00     0.020 A 
ATOM     89  C   UNL A   1      43.238  36.669  34.551  1.00  0.00     0.020 A 
ATOM     90  C   UNL A   1      43.863  37.631  33.755  1.00  0.00     0.054 A 
BRANCH  90  91
ATOM     91  S   UNL A   1      44.292  39.257  34.440  1.00  0.00     0.124 S 
ATOM     92  O   UNL A   1      44.269  39.000  35.878  1.00  0.00    -0.237 OA
ATOM     93  O   UNL A   1      45.613  39.508  33.869  1.00  0.00    -0.237 OA
ATOM     94  O   UNL A   1      43.231  40.133  33.950  1.00  0.00    -0.744 OA
ENDBRANCH  90  91
ENDBRANCH  64  85
ENDBRANCH  38  39
ENDBRANCH  30  33
ENDBRANCH  28  29
ENDBRANCH  27  28
ENDBRANCH   1  27
TORSDOF 19
ENDMDL
