MODEL 1
REMARK VINA RESULT:     -12.5      0.000      0.000
REMARK SMILES Cc1ccc(C)c([C@@H](C)[C@](C)(O)C(=O)NCCCNC(=O)c2ccc(-c3c4nc(c(-c5ccc(S(=O)(=O)[O-])cc5)c5ccc([nH]5)c(-c5ccc(S(=O)(=O)[O-])cc5)c5nc(c(-c6ccc(S(=O)(=O)[O-])cc6)c6ccc3[nH]6)C=C5)C=C4)cc2)c1
REMARK SMILES IDX 17 1 16 2 15 3 13 4 14 5 10 7 11 8 8 9 9 10 7 11 1 12 2 13
REMARK SMILES IDX 3 14 82 15 4 16 5 17 6 18 12 19 18 21 19 22 20 23 21 25
REMARK SMILES IDX 22 26 23 27 81 28 24 29 80 30 25 31 26 32 27 33 74 34 28 35
REMARK SMILES IDX 79 36 73 37 75 38 29 39 78 40 72 41 71 42 30 44 60 45 41 46
REMARK SMILES IDX 59 47 42 48 45 49 58 50 76 51 43 52 44 53 57 55 77 56 46 57
REMARK SMILES IDX 31 58 32 59 40 60 33 61 39 62 34 63 35 64 36 65 37 66 38 67
REMARK SMILES IDX 61 68 62 69 70 70 63 71 69 72 64 73 65 74 66 75 67 76 68 77
REMARK SMILES IDX 47 78 48 79 56 80 49 81 55 82 50 83 51 84 52 85 53 86 54 87
REMARK H PARENT 15 6 12 20 19 24 75 43 45 54
REMARK Flexibility Score: inf
ROOT
ATOM      1  C   UNL A   1      37.422  20.722  25.043  1.00  0.00     0.042 C 
ENDROOT
BRANCH   1   2
ATOM      2  C   UNL A   1      35.949  21.068  24.821  1.00  0.00     0.117 C 
BRANCH   2   3
ATOM      3  N   UNL A   1      35.012  20.011  25.155  1.00  0.00    -0.354 N 
ATOM      4  C   UNL A   1      33.656  20.035  25.302  1.00  0.00     0.252 C 
ATOM      5  O   UNL A   1      33.109  18.933  25.426  1.00  0.00    -0.272 OA
ATOM      6  H   UNL A   1      35.425  19.129  25.299  1.00  0.00     0.163 HD
BRANCH   4   7
ATOM      7  C   UNL A   1      32.835  21.363  25.355  1.00  0.00     0.146 C 
ATOM      8  C   UNL A   1      32.643  21.861  23.906  1.00  0.00     0.053 C 
BRANCH   7   9
ATOM      9  C   UNL A   1      33.419  22.439  26.349  1.00  0.00     0.057 C 
ATOM     10  C   UNL A   1      33.139  22.178  27.837  1.00  0.00     0.016 C 
BRANCH   9  11
ATOM     11  C   UNL A   1      33.272  23.919  25.979  1.00  0.00    -0.039 A 
ATOM     12  C   UNL A   1      30.319  26.369  26.169  1.00  0.00     0.044 C 
ATOM     13  C   UNL A   1      31.696  25.824  25.933  1.00  0.00    -0.051 A 
ATOM     14  C   UNL A   1      32.748  26.681  25.642  1.00  0.00     0.004 A 
ATOM     15  C   UNL A   1      31.960  24.455  26.050  1.00  0.00     0.007 A 
ATOM     16  C   UNL A   1      34.035  26.170  25.480  1.00  0.00     0.004 A 
ATOM     17  C   UNL A   1      34.317  24.797  25.639  1.00  0.00    -0.048 A 
ATOM     18  C   UNL A   1      35.756  24.409  25.456  1.00  0.00     0.044 C 
ENDBRANCH   9  11
ENDBRANCH   7   9
BRANCH   7  19
ATOM     19  O   UNL A   1      31.492  21.059  25.817  1.00  0.00    -0.380 OA
ATOM     20  H   UNL A   1      30.894  20.998  25.057  1.00  0.00     0.212 HD
ENDBRANCH   7  19
ENDBRANCH   4   7
ENDBRANCH   2   3
ENDBRANCH   1   2
BRANCH   1  21
ATOM     21  C   UNL A   1      38.264  21.784  25.756  1.00  0.00     0.118 C 
BRANCH  21  22
ATOM     22  N   UNL A   1      39.690  21.421  25.903  1.00  0.00    -0.352 N 
ATOM     23  C   UNL A   1      40.839  22.168  26.182  1.00  0.00     0.251 C 
ATOM     24  H   UNL A   1      39.866  20.461  25.779  1.00  0.00     0.163 HD
ATOM     25  O   UNL A   1      41.932  21.708  25.927  1.00  0.00    -0.269 OA
BRANCH  23  26
ATOM     26  C   UNL A   1      40.726  23.515  26.794  1.00  0.00     0.039 A 
ATOM     27  C   UNL A   1      39.614  24.362  26.700  1.00  0.00     0.014 A 
ATOM     28  C   UNL A   1      41.805  23.948  27.515  1.00  0.00     0.014 A 
ATOM     29  C   UNL A   1      39.671  25.612  27.339  1.00  0.00     0.010 A 
ATOM     30  C   UNL A   1      41.565  24.811  28.527  1.00  0.00     0.010 A 
ATOM     31  C   UNL A   1      40.711  25.842  28.236  1.00  0.00    -0.014 A 
BRANCH  31  32
ATOM     32  C   UNL A   1      40.979  27.066  28.975  1.00  0.00     0.031 A 
ATOM     33  C   UNL A   1      42.098  27.866  28.453  1.00  0.00     0.074 A 
ATOM     34  C   UNL A   1      40.068  27.644  29.795  1.00  0.00     0.049 A 
ATOM     35  N   UNL A   1      43.292  27.934  28.931  1.00  0.00    -0.248 NA
ATOM     36  C   UNL A   1      41.923  28.536  27.155  1.00  0.00     0.031 C 
ATOM     37  C   UNL A   1      38.693  27.215  30.089  1.00  0.00     0.029 A 
ATOM     38  N   UNL A   1      40.148  28.841  30.441  1.00  0.00    -0.354 N 
ATOM     39  C   UNL A   1      43.953  28.850  28.127  1.00  0.00     0.074 A 
ATOM     40  C   UNL A   1      43.165  28.963  26.924  1.00  0.00     0.031 C 
ATOM     41  C   UNL A   1      38.017  28.231  30.673  1.00  0.00     0.029 A 
ATOM     42  C   UNL A   1      38.937  29.327  30.924  1.00  0.00     0.049 A 
ATOM     43  H   UNL A   1      40.997  29.325  30.556  1.00  0.00     0.167 HD
ATOM     44  C   UNL A   1      44.929  29.661  28.620  1.00  0.00     0.031 A 
ATOM     45  C   UNL A   1      38.714  30.562  31.443  1.00  0.00     0.031 A 
ATOM     46  C   UNL A   1      45.240  29.338  29.993  1.00  0.00     0.049 A 
ATOM     47  C   UNL A   1      40.038  31.106  31.850  1.00  0.00     0.074 A 
ATOM     48  C   UNL A   1      45.650  28.196  30.654  1.00  0.00     0.029 A 
ATOM     49  N   UNL A   1      44.705  30.165  30.959  1.00  0.00    -0.354 N 
ATOM     50  N   UNL A   1      40.757  30.599  32.813  1.00  0.00    -0.248 NA
ATOM     51  C   UNL A   1      40.776  31.938  30.909  1.00  0.00     0.031 C 
ATOM     52  C   UNL A   1      44.919  28.197  31.880  1.00  0.00     0.029 A 
ATOM     53  C   UNL A   1      44.162  29.370  31.939  1.00  0.00     0.049 A 
ATOM     54  H   UNL A   1      44.711  31.151  30.949  1.00  0.00     0.167 HD
ATOM     55  C   UNL A   1      42.066  30.657  32.352  1.00  0.00     0.074 A 
ATOM     56  C   UNL A   1      42.028  31.608  31.243  1.00  0.00     0.031 C 
ATOM     57  C   UNL A   1      42.986  29.713  32.718  1.00  0.00     0.031 A 
BRANCH  44  58
ATOM     58  C   UNL A   1      45.323  30.981  28.011  1.00  0.00    -0.014 A 
ATOM     59  C   UNL A   1      44.347  31.991  27.911  1.00  0.00     0.010 A 
ATOM     60  C   UNL A   1      46.540  31.195  27.333  1.00  0.00     0.010 A 
ATOM     61  C   UNL A   1      44.560  33.130  27.124  1.00  0.00     0.020 A 
ATOM     62  C   UNL A   1      46.783  32.350  26.590  1.00  0.00     0.020 A 
ATOM     63  C   UNL A   1      45.774  33.294  26.460  1.00  0.00     0.054 A 
BRANCH  63  64
ATOM     64  S   UNL A   1      46.000  34.712  25.361  1.00  0.00     0.124 S 
ATOM     65  O   UNL A   1      45.583  35.820  26.216  1.00  0.00    -0.237 OA
ATOM     66  O   UNL A   1      47.427  34.647  25.060  1.00  0.00    -0.237 OA
ATOM     67  O   UNL A   1      45.116  34.418  24.236  1.00  0.00    -0.744 OA
ENDBRANCH  63  64
ENDBRANCH  44  58
BRANCH  45  68
ATOM     68  C   UNL A   1      37.483  31.393  31.375  1.00  0.00    -0.014 A 
ATOM     69  C   UNL A   1      36.481  31.276  32.358  1.00  0.00     0.010 A 
ATOM     70  C   UNL A   1      37.411  32.500  30.504  1.00  0.00     0.010 A 
ATOM     71  C   UNL A   1      35.507  32.277  32.525  1.00  0.00     0.020 A 
ATOM     72  C   UNL A   1      36.435  33.493  30.654  1.00  0.00     0.020 A 
ATOM     73  C   UNL A   1      35.508  33.395  31.687  1.00  0.00     0.054 A 
BRANCH  73  74
ATOM     74  S   UNL A   1      34.405  34.791  32.053  1.00  0.00     0.124 S 
ATOM     75  O   UNL A   1      34.053  35.270  30.720  1.00  0.00    -0.237 OA
ATOM     76  O   UNL A   1      33.325  34.156  32.802  1.00  0.00    -0.237 OA
ATOM     77  O   UNL A   1      35.243  35.697  32.837  1.00  0.00    -0.744 OA
ENDBRANCH  73  74
ENDBRANCH  45  68
BRANCH  57  78
ATOM     78  C   UNL A   1      42.635  28.781  33.863  1.00  0.00    -0.014 A 
ATOM     79  C   UNL A   1      41.743  27.696  33.744  1.00  0.00     0.010 A 
ATOM     80  C   UNL A   1      43.332  28.933  35.075  1.00  0.00     0.010 A 
ATOM     81  C   UNL A   1      41.521  26.819  34.817  1.00  0.00     0.020 A 
ATOM     82  C   UNL A   1      43.134  28.049  36.141  1.00  0.00     0.020 A 
ATOM     83  C   UNL A   1      42.216  27.006  36.013  1.00  0.00     0.054 A 
BRANCH  83  84
ATOM     84  S   UNL A   1      41.945  25.852  37.387  1.00  0.00     0.124 S 
ATOM     85  O   UNL A   1      42.869  26.348  38.404  1.00  0.00    -0.237 OA
ATOM     86  O   UNL A   1      40.527  26.027  37.687  1.00  0.00    -0.237 OA
ATOM     87  O   UNL A   1      42.293  24.549  36.821  1.00  0.00    -0.744 OA
ENDBRANCH  83  84
ENDBRANCH  57  78
ENDBRANCH  31  32
ENDBRANCH  23  26
ENDBRANCH  21  22
ENDBRANCH   1  21
TORSDOF 16
ENDMDL
MODEL 2
REMARK VINA RESULT:     -12.2      3.245      9.744
REMARK SMILES Cc1ccc(C)c([C@@H](C)[C@](C)(O)C(=O)NCCCNC(=O)c2ccc(-c3c4nc(c(-c5ccc(S(=O)(=O)[O-])cc5)c5ccc([nH]5)c(-c5ccc(S(=O)(=O)[O-])cc5)c5nc(c(-c6ccc(S(=O)(=O)[O-])cc6)c6ccc3[nH]6)C=C5)C=C4)cc2)c1
REMARK SMILES IDX 17 1 16 2 15 3 13 4 14 5 10 7 11 8 8 9 9 10 7 11 1 12 2 13
REMARK SMILES IDX 3 14 82 15 4 16 5 17 6 18 12 19 18 21 19 22 20 23 21 25
REMARK SMILES IDX 22 26 23 27 81 28 24 29 80 30 25 31 26 32 27 33 74 34 28 35
REMARK SMILES IDX 79 36 73 37 75 38 29 39 78 40 72 41 71 42 30 44 60 45 41 46
REMARK SMILES IDX 59 47 42 48 45 49 58 50 76 51 43 52 44 53 57 55 77 56 46 57
REMARK SMILES IDX 31 58 32 59 40 60 33 61 39 62 34 63 35 64 36 65 37 66 38 67
REMARK SMILES IDX 61 68 62 69 70 70 63 71 69 72 64 73 65 74 66 75 67 76 68 77
REMARK SMILES IDX 47 78 48 79 56 80 49 81 55 82 50 83 51 84 52 85 53 86 54 87
REMARK H PARENT 15 6 12 20 19 24 75 43 45 54
REMARK Flexibility Score: inf
ROOT
ATOM      1  C   UNL A   1      31.988  30.860  26.482  1.00  0.00     0.042 C 
ENDROOT
BRANCH   1   2
ATOM      2  C   UNL A   1      31.596  29.686  25.583  1.00  0.00     0.117 C 
BRANCH   2   3
ATOM      3  N   UNL A   1      31.020  30.056  24.303  1.00  0.00    -0.354 N 
ATOM      4  C   UNL A   1      30.752  29.306  23.196  1.00  0.00     0.252 C 
ATOM      5  O   UNL A   1      30.101  29.869  22.309  1.00  0.00    -0.272 OA
ATOM      6  H   UNL A   1      30.783  31.008  24.221  1.00  0.00     0.163 HD
BRANCH   4   7
ATOM      7  C   UNL A   1      31.265  27.839  23.024  1.00  0.00     0.146 C 
ATOM      8  C   UNL A   1      30.345  26.915  23.851  1.00  0.00     0.053 C 
BRANCH   7   9
ATOM      9  C   UNL A   1      32.805  27.661  23.308  1.00  0.00     0.057 C 
ATOM     10  C   UNL A   1      33.739  28.138  22.185  1.00  0.00     0.016 C 
BRANCH   9  11
ATOM     11  C   UNL A   1      33.276  26.345  23.938  1.00  0.00    -0.039 A 
ATOM     12  C   UNL A   1      33.833  22.825  22.503  1.00  0.00     0.044 C 
ATOM     13  C   UNL A   1      33.783  23.971  23.469  1.00  0.00    -0.051 A 
ATOM     14  C   UNL A   1      34.351  23.848  24.730  1.00  0.00     0.004 A 
ATOM     15  C   UNL A   1      33.212  25.196  23.108  1.00  0.00     0.007 A 
ATOM     16  C   UNL A   1      34.350  24.937  25.601  1.00  0.00     0.004 A 
ATOM     17  C   UNL A   1      33.815  26.189  25.228  1.00  0.00    -0.048 A 
ATOM     18  C   UNL A   1      33.911  27.267  26.268  1.00  0.00     0.044 C 
ENDBRANCH   9  11
ENDBRANCH   7   9
BRANCH   7  19
ATOM     19  O   UNL A   1      31.048  27.432  21.647  1.00  0.00    -0.380 OA
ATOM     20  H   UNL A   1      30.139  27.647  21.385  1.00  0.00     0.212 HD
ENDBRANCH   7  19
ENDBRANCH   4   7
ENDBRANCH   2   3
ENDBRANCH   1   2
BRANCH   1  21
ATOM     21  C   UNL A   1      33.366  30.774  27.142  1.00  0.00     0.118 C 
BRANCH  21  22
ATOM     22  N   UNL A   1      33.699  31.937  27.993  1.00  0.00    -0.352 N 
ATOM     23  C   UNL A   1      34.703  32.170  28.938  1.00  0.00     0.251 C 
ATOM     24  H   UNL A   1      33.091  32.701  27.869  1.00  0.00     0.163 HD
ATOM     25  O   UNL A   1      34.576  33.070  29.741  1.00  0.00    -0.269 OA
BRANCH  23  26
ATOM     26  C   UNL A   1      35.924  31.325  28.957  1.00  0.00     0.039 A 
ATOM     27  C   UNL A   1      36.024  30.028  28.437  1.00  0.00     0.014 A 
ATOM     28  C   UNL A   1      37.037  31.879  29.527  1.00  0.00     0.014 A 
ATOM     29  C   UNL A   1      37.257  29.362  28.540  1.00  0.00     0.010 A 
ATOM     30  C   UNL A   1      38.238  31.460  29.067  1.00  0.00     0.010 A 
ATOM     31  C   UNL A   1      38.374  30.105  28.915  1.00  0.00    -0.014 A 
BRANCH  31  32
ATOM     32  C   UNL A   1      39.729  29.615  29.116  1.00  0.00     0.031 A 
ATOM     33  C   UNL A   1      40.077  29.328  30.515  1.00  0.00     0.074 A 
ATOM     34  C   UNL A   1      40.471  29.078  28.117  1.00  0.00     0.049 A 
ATOM     35  N   UNL A   1      40.785  30.061  31.304  1.00  0.00    -0.248 NA
ATOM     36  C   UNL A   1      39.428  28.181  31.169  1.00  0.00     0.031 C 
ATOM     37  C   UNL A   1      40.100  28.860  26.711  1.00  0.00     0.029 A 
ATOM     38  N   UNL A   1      41.691  28.477  28.197  1.00  0.00    -0.354 N 
ATOM     39  C   UNL A   1      40.869  29.343  32.487  1.00  0.00     0.074 A 
ATOM     40  C   UNL A   1      39.813  28.362  32.433  1.00  0.00     0.031 C 
ATOM     41  C   UNL A   1      40.977  28.002  26.139  1.00  0.00     0.029 A 
ATOM     42  C   UNL A   1      42.045  27.721  27.084  1.00  0.00     0.049 A 
ATOM     43  H   UNL A   1      42.277  28.570  28.982  1.00  0.00     0.167 HD
ATOM     44  C   UNL A   1      41.970  29.408  33.286  1.00  0.00     0.031 A 
ATOM     45  C   UNL A   1      43.113  26.890  26.981  1.00  0.00     0.031 A 
ATOM     46  C   UNL A   1      42.915  30.389  32.804  1.00  0.00     0.049 A 
ATOM     47  C   UNL A   1      44.079  27.292  28.040  1.00  0.00     0.074 A 
ATOM     48  C   UNL A   1      42.855  31.740  32.524  1.00  0.00     0.029 A 
ATOM     49  N   UNL A   1      44.010  29.907  32.117  1.00  0.00    -0.354 N 
ATOM     50  N   UNL A   1      44.702  28.437  28.045  1.00  0.00    -0.248 NA
ATOM     51  C   UNL A   1      44.028  26.617  29.330  1.00  0.00     0.031 C 
ATOM     52  C   UNL A   1      43.615  31.904  31.327  1.00  0.00     0.029 A 
ATOM     53  C   UNL A   1      44.160  30.664  30.981  1.00  0.00     0.049 A 
ATOM     54  H   UNL A   1      44.582  29.153  32.391  1.00  0.00     0.167 HD
ATOM     55  C   UNL A   1      44.709  28.836  29.376  1.00  0.00     0.074 A 
ATOM     56  C   UNL A   1      44.405  27.621  30.129  1.00  0.00     0.031 C 
ATOM     57  C   UNL A   1      44.666  30.160  29.717  1.00  0.00     0.031 A 
BRANCH  44  58
ATOM     58  C   UNL A   1      42.376  28.335  34.261  1.00  0.00    -0.014 A 
ATOM     59  C   UNL A   1      42.752  28.719  35.563  1.00  0.00     0.010 A 
ATOM     60  C   UNL A   1      42.621  26.997  33.891  1.00  0.00     0.010 A 
ATOM     61  C   UNL A   1      43.391  27.822  36.427  1.00  0.00     0.020 A 
ATOM     62  C   UNL A   1      43.209  26.081  34.763  1.00  0.00     0.020 A 
ATOM     63  C   UNL A   1      43.625  26.512  36.015  1.00  0.00     0.054 A 
BRANCH  63  64
ATOM     64  S   UNL A   1      44.547  25.392  37.095  1.00  0.00     0.124 S 
ATOM     65  O   UNL A   1      44.253  24.093  36.496  1.00  0.00    -0.237 OA
ATOM     66  O   UNL A   1      45.918  25.868  36.938  1.00  0.00    -0.237 OA
ATOM     67  O   UNL A   1      43.958  25.624  38.412  1.00  0.00    -0.744 OA
ENDBRANCH  63  64
ENDBRANCH  44  58
BRANCH  45  68
ATOM     68  C   UNL A   1      43.241  25.626  26.207  1.00  0.00    -0.014 A 
ATOM     69  C   UNL A   1      44.339  25.416  25.349  1.00  0.00     0.010 A 
ATOM     70  C   UNL A   1      42.437  24.511  26.517  1.00  0.00     0.010 A 
ATOM     71  C   UNL A   1      44.673  24.125  24.901  1.00  0.00     0.020 A 
ATOM     72  C   UNL A   1      42.755  23.224  26.062  1.00  0.00     0.020 A 
ATOM     73  C   UNL A   1      43.893  23.032  25.285  1.00  0.00     0.054 A 
BRANCH  73  74
ATOM     74  S   UNL A   1      44.458  21.348  24.904  1.00  0.00     0.124 S 
ATOM     75  O   UNL A   1      43.395  20.525  25.472  1.00  0.00    -0.237 OA
ATOM     76  O   UNL A   1      44.539  21.361  23.446  1.00  0.00    -0.237 OA
ATOM     77  O   UNL A   1      45.748  21.255  25.587  1.00  0.00    -0.744 OA
ENDBRANCH  73  74
ENDBRANCH  45  68
BRANCH  57  78
ATOM     78  C   UNL A   1      44.912  31.186  28.626  1.00  0.00    -0.014 A 
ATOM     79  C   UNL A   1      43.989  31.476  27.601  1.00  0.00     0.010 A 
ATOM     80  C   UNL A   1      46.070  31.980  28.715  1.00  0.00     0.010 A 
ATOM     81  C   UNL A   1      44.237  32.493  26.668  1.00  0.00     0.020 A 
ATOM     82  C   UNL A   1      46.313  33.012  27.803  1.00  0.00     0.020 A 
ATOM     83  C   UNL A   1      45.403  33.253  26.772  1.00  0.00     0.054 A 
BRANCH  83  84
ATOM     84  S   UNL A   1      45.705  34.586  25.579  1.00  0.00     0.124 S 
ATOM     85  O   UNL A   1      45.311  35.777  26.328  1.00  0.00    -0.237 OA
ATOM     86  O   UNL A   1      47.134  34.461  25.302  1.00  0.00    -0.237 OA
ATOM     87  O   UNL A   1      44.834  34.249  24.454  1.00  0.00    -0.744 OA
ENDBRANCH  83  84
ENDBRANCH  57  78
ENDBRANCH  31  32
ENDBRANCH  23  26
ENDBRANCH  21  22
ENDBRANCH   1  21
TORSDOF 16
ENDMDL
MODEL 3
REMARK VINA RESULT:     -12.2      4.445     11.259
REMARK SMILES Cc1ccc(C)c([C@@H](C)[C@](C)(O)C(=O)NCCCNC(=O)c2ccc(-c3c4nc(c(-c5ccc(S(=O)(=O)[O-])cc5)c5ccc([nH]5)c(-c5ccc(S(=O)(=O)[O-])cc5)c5nc(c(-c6ccc(S(=O)(=O)[O-])cc6)c6ccc3[nH]6)C=C5)C=C4)cc2)c1
REMARK SMILES IDX 17 1 16 2 15 3 13 4 14 5 10 7 11 8 8 9 9 10 7 11 1 12 2 13
REMARK SMILES IDX 3 14 82 15 4 16 5 17 6 18 12 19 18 21 19 22 20 23 21 25
REMARK SMILES IDX 22 26 23 27 81 28 24 29 80 30 25 31 26 32 27 33 74 34 28 35
REMARK SMILES IDX 79 36 73 37 75 38 29 39 78 40 72 41 71 42 30 44 60 45 41 46
REMARK SMILES IDX 59 47 42 48 45 49 58 50 76 51 43 52 44 53 57 55 77 56 46 57
REMARK SMILES IDX 31 58 32 59 40 60 33 61 39 62 34 63 35 64 36 65 37 66 38 67
REMARK SMILES IDX 61 68 62 69 70 70 63 71 69 72 64 73 65 74 66 75 67 76 68 77
REMARK SMILES IDX 47 78 48 79 56 80 49 81 55 82 50 83 51 84 52 85 53 86 54 87
REMARK H PARENT 15 6 12 20 19 24 75 43 45 54
REMARK Flexibility Score: inf
ROOT
ATOM      1  C   UNL A   1      33.788  34.627  29.042  1.00  0.00     0.042 C 
ENDROOT
BRANCH   1   2
ATOM      2  C   UNL A   1      34.421  34.561  30.433  1.00  0.00     0.117 C 
BRANCH   2   3
ATOM      3  N   UNL A   1      33.666  33.807  31.418  1.00  0.00    -0.354 N 
ATOM      4  C   UNL A   1      33.951  33.499  32.715  1.00  0.00     0.252 C 
ATOM      5  O   UNL A   1      33.032  32.981  33.360  1.00  0.00    -0.272 OA
ATOM      6  H   UNL A   1      32.803  33.461  31.094  1.00  0.00     0.163 HD
BRANCH   4   7
ATOM      7  C   UNL A   1      35.358  33.740  33.351  1.00  0.00     0.146 C 
ATOM      8  C   UNL A   1      35.602  35.263  33.402  1.00  0.00     0.053 C 
BRANCH   7   9
ATOM      9  C   UNL A   1      36.517  32.908  32.678  1.00  0.00     0.057 C 
ATOM     10  C   UNL A   1      36.300  31.388  32.645  1.00  0.00     0.016 C 
BRANCH   9  11
ATOM     11  C   UNL A   1      37.965  33.284  33.015  1.00  0.00    -0.039 A 
ATOM     12  C   UNL A   1      40.395  32.092  35.741  1.00  0.00     0.044 C 
ATOM     13  C   UNL A   1      39.846  32.821  34.550  1.00  0.00    -0.051 A 
ATOM     14  C   UNL A   1      40.689  33.560  33.733  1.00  0.00     0.004 A 
ATOM     15  C   UNL A   1      38.492  32.731  34.210  1.00  0.00     0.007 A 
ATOM     16  C   UNL A   1      40.179  34.188  32.597  1.00  0.00     0.004 A 
ATOM     17  C   UNL A   1      38.824  34.067  32.224  1.00  0.00    -0.048 A 
ATOM     18  C   UNL A   1      38.436  34.782  30.962  1.00  0.00     0.044 C 
ENDBRANCH   9  11
ENDBRANCH   7   9
BRANCH   7  19
ATOM     19  O   UNL A   1      35.312  33.331  34.745  1.00  0.00    -0.380 OA
ATOM     20  H   UNL A   1      36.181  32.997  35.012  1.00  0.00     0.212 HD
ENDBRANCH   7  19
ENDBRANCH   4   7
ENDBRANCH   2   3
ENDBRANCH   1   2
BRANCH   1  21
ATOM     21  C   UNL A   1      34.487  33.822  27.944  1.00  0.00     0.118 C 
BRANCH  21  22
ATOM     22  N   UNL A   1      33.974  32.444  27.790  1.00  0.00    -0.352 N 
ATOM     23  C   UNL A   1      34.604  31.199  27.684  1.00  0.00     0.251 C 
ATOM     24  H   UNL A   1      32.992  32.392  27.754  1.00  0.00     0.163 HD
ATOM     25  O   UNL A   1      33.992  30.252  27.236  1.00  0.00    -0.269 OA
BRANCH  23  26
ATOM     26  C   UNL A   1      36.011  31.033  28.124  1.00  0.00     0.039 A 
ATOM     27  C   UNL A   1      36.718  31.922  28.944  1.00  0.00     0.014 A 
ATOM     28  C   UNL A   1      36.654  29.906  27.691  1.00  0.00     0.014 A 
ATOM     29  C   UNL A   1      38.052  31.616  29.266  1.00  0.00     0.010 A 
ATOM     30  C   UNL A   1      37.635  29.414  28.480  1.00  0.00     0.010 A 
ATOM     31  C   UNL A   1      38.520  30.337  28.972  1.00  0.00    -0.014 A 
BRANCH  31  32
ATOM     32  C   UNL A   1      39.863  29.823  29.186  1.00  0.00     0.031 A 
ATOM     33  C   UNL A   1      40.204  29.562  30.592  1.00  0.00     0.074 A 
ATOM     34  C   UNL A   1      40.594  29.247  28.201  1.00  0.00     0.049 A 
ATOM     35  N   UNL A   1      40.928  30.298  31.364  1.00  0.00    -0.248 NA
ATOM     36  C   UNL A   1      39.531  28.445  31.272  1.00  0.00     0.031 C 
ATOM     37  C   UNL A   1      40.220  29.003  26.800  1.00  0.00     0.029 A 
ATOM     38  N   UNL A   1      41.801  28.622  28.296  1.00  0.00    -0.354 N 
ATOM     39  C   UNL A   1      40.996  29.606  32.564  1.00  0.00     0.074 A 
ATOM     40  C   UNL A   1      39.919  28.648  32.532  1.00  0.00     0.031 C 
ATOM     41  C   UNL A   1      41.078  28.114  26.250  1.00  0.00     0.029 A 
ATOM     42  C   UNL A   1      42.139  27.832  27.202  1.00  0.00     0.049 A 
ATOM     43  H   UNL A   1      42.389  28.721  29.079  1.00  0.00     0.167 HD
ATOM     44  C   UNL A   1      42.097  29.667  33.362  1.00  0.00     0.031 A 
ATOM     45  C   UNL A   1      43.190  26.976  27.120  1.00  0.00     0.031 A 
ATOM     46  C   UNL A   1      43.064  30.615  32.858  1.00  0.00     0.049 A 
ATOM     47  C   UNL A   1      44.163  27.382  28.170  1.00  0.00     0.074 A 
ATOM     48  C   UNL A   1      43.033  31.961  32.546  1.00  0.00     0.029 A 
ATOM     49  N   UNL A   1      44.148  30.094  32.183  1.00  0.00    -0.354 N 
ATOM     50  N   UNL A   1      44.810  28.514  28.149  1.00  0.00    -0.248 NA
ATOM     51  C   UNL A   1      44.097  26.739  29.476  1.00  0.00     0.031 C 
ATOM     52  C   UNL A   1      43.797  32.079  31.347  1.00  0.00     0.029 A 
ATOM     53  C   UNL A   1      44.316  30.821  31.030  1.00  0.00     0.049 A 
ATOM     54  H   UNL A   1      44.704  29.334  32.477  1.00  0.00     0.167 HD
ATOM     55  C   UNL A   1      44.826  28.944  29.469  1.00  0.00     0.074 A 
ATOM     56  C   UNL A   1      44.495  27.754  30.251  1.00  0.00     0.031 C 
ATOM     57  C   UNL A   1      44.811  30.276  29.780  1.00  0.00     0.031 A 
BRANCH  44  58
ATOM     58  C   UNL A   1      42.480  28.609  34.363  1.00  0.00    -0.014 A 
ATOM     59  C   UNL A   1      42.475  28.946  35.730  1.00  0.00     0.010 A 
ATOM     60  C   UNL A   1      43.057  27.372  34.009  1.00  0.00     0.010 A 
ATOM     61  C   UNL A   1      43.070  28.112  36.684  1.00  0.00     0.020 A 
ATOM     62  C   UNL A   1      43.606  26.510  34.957  1.00  0.00     0.020 A 
ATOM     63  C   UNL A   1      43.642  26.904  36.287  1.00  0.00     0.054 A 
BRANCH  63  64
ATOM     64  S   UNL A   1      44.502  25.885  37.508  1.00  0.00     0.124 S 
ATOM     65  O   UNL A   1      43.913  26.357  38.757  1.00  0.00    -0.237 OA
ATOM     66  O   UNL A   1      44.129  24.533  37.102  1.00  0.00    -0.237 OA
ATOM     67  O   UNL A   1      45.909  26.225  37.308  1.00  0.00    -0.744 OA
ENDBRANCH  63  64
ENDBRANCH  44  58
BRANCH  45  68
ATOM     68  C   UNL A   1      43.290  25.692  26.376  1.00  0.00    -0.014 A 
ATOM     69  C   UNL A   1      44.260  25.519  25.368  1.00  0.00     0.010 A 
ATOM     70  C   UNL A   1      42.625  24.540  26.840  1.00  0.00     0.010 A 
ATOM     71  C   UNL A   1      44.615  24.235  24.915  1.00  0.00     0.020 A 
ATOM     72  C   UNL A   1      42.962  23.259  26.384  1.00  0.00     0.020 A 
ATOM     73  C   UNL A   1      43.982  23.110  25.448  1.00  0.00     0.054 A 
BRANCH  73  74
ATOM     74  S   UNL A   1      44.604  21.453  25.039  1.00  0.00     0.124 S 
ATOM     75  O   UNL A   1      44.587  21.463  23.580  1.00  0.00    -0.237 OA
ATOM     76  O   UNL A   1      45.927  21.448  25.657  1.00  0.00    -0.237 OA
ATOM     77  O   UNL A   1      43.633  20.556  25.665  1.00  0.00    -0.744 OA
ENDBRANCH  73  74
ENDBRANCH  45  68
BRANCH  57  78
ATOM     78  C   UNL A   1      45.080  31.271  28.665  1.00  0.00    -0.014 A 
ATOM     79  C   UNL A   1      44.100  31.703  27.748  1.00  0.00     0.010 A 
ATOM     80  C   UNL A   1      46.342  31.889  28.622  1.00  0.00     0.010 A 
ATOM     81  C   UNL A   1      44.386  32.686  26.790  1.00  0.00     0.020 A 
ATOM     82  C   UNL A   1      46.629  32.887  27.685  1.00  0.00     0.020 A 
ATOM     83  C   UNL A   1      45.654  33.269  26.762  1.00  0.00     0.054 A 
BRANCH  83  84
ATOM     84  S   UNL A   1      46.011  34.561  25.538  1.00  0.00     0.124 S 
ATOM     85  O   UNL A   1      45.602  35.778  26.234  1.00  0.00    -0.237 OA
ATOM     86  O   UNL A   1      47.447  34.416  25.317  1.00  0.00    -0.237 OA
ATOM     87  O   UNL A   1      45.177  34.195  24.394  1.00  0.00    -0.744 OA
ENDBRANCH  83  84
ENDBRANCH  57  78
ENDBRANCH  31  32
ENDBRANCH  23  26
ENDBRANCH  21  22
ENDBRANCH   1  21
TORSDOF 16
ENDMDL
