MODEL 1
REMARK VINA RESULT:     -11.0      0.000      0.000
REMARK SMILES Cc1cc(=O)cc(C)n1C[C@H]1CCCC[C@@H]1C(=O)NCCCNC(=O)c1ccc(-c2c3nc(c(-c4ccc(S(=O)(=O)[O-])cc4)c4ccc([nH]4)c(-c4ccc(S(=O)(=O)[O-])cc4)c4nc(c(-c5ccc(S(=O)(=O)[O-])cc5)c5ccc2[nH]5)C=C4)C=C3)cc1
REMARK SMILES IDX 21 1 20 2 19 3 17 4 18 5 16 7 11 8 12 9 13 10 15 11 14 12
REMARK SMILES IDX 10 13 9 14 1 15 2 16 3 17 4 18 7 19 5 20 6 21 8 22 22 23
REMARK SMILES IDX 23 24 24 25 25 27 26 28 27 29 85 30 28 31 84 32 29 33 30 34
REMARK SMILES IDX 31 35 78 36 32 37 83 38 77 39 79 40 33 41 82 42 76 43 75 44
REMARK SMILES IDX 34 46 64 47 45 48 63 49 46 50 49 51 62 52 80 53 47 54 48 55
REMARK SMILES IDX 61 57 81 58 50 59 35 60 36 61 44 62 37 63 43 64 38 65 39 66
REMARK SMILES IDX 40 67 41 68 42 69 65 70 66 71 74 72 67 73 73 74 68 75 69 76
REMARK SMILES IDX 70 77 71 78 72 79 51 80 52 81 60 82 53 83 59 84 54 85 55 86
REMARK SMILES IDX 56 87 57 88 58 89
REMARK H PARENT 19 6 23 26 79 45 49 56
REMARK Flexibility Score: inf
ROOT
ATOM      1  C   UNL A   1      34.805  31.634  27.697  1.00  0.00     0.042 C 
ENDROOT
BRANCH   1   2
ATOM      2  C   UNL A   1      35.092  32.987  28.335  1.00  0.00     0.117 C 
BRANCH   2   3
ATOM      3  N   UNL A   1      33.878  33.647  28.759  1.00  0.00    -0.356 N 
ATOM      4  C   UNL A   1      33.625  34.516  29.764  1.00  0.00     0.223 C 
ATOM      5  O   UNL A   1      32.466  34.932  29.829  1.00  0.00    -0.275 OA
ATOM      6  H   UNL A   1      33.088  33.423  28.215  1.00  0.00     0.163 HD
BRANCH   4   7
ATOM      7  C   UNL A   1      34.720  34.946  30.755  1.00  0.00     0.083 C 
ATOM      8  C   UNL A   1      35.532  33.738  31.318  1.00  0.00     0.021 C 
ATOM      9  C   UNL A   1      34.571  32.877  32.159  1.00  0.00     0.006 C 
ATOM     10  C   UNL A   1      33.911  33.655  33.303  1.00  0.00     0.000 C 
ATOM     11  C   UNL A   1      34.071  35.770  31.885  1.00  0.00     0.014 C 
ATOM     12  C   UNL A   1      33.231  34.944  32.861  1.00  0.00     0.001 C 
BRANCH   8  13
ATOM     13  C   UNL A   1      36.777  34.233  32.129  1.00  0.00     0.126 C 
BRANCH  13  14
ATOM     14  N   UNL A   1      37.941  33.287  32.178  1.00  0.00    -0.349 N 
ATOM     15  C   UNL A   1      37.180  32.459  34.470  1.00  0.00     0.064 C 
ATOM     16  C   UNL A   1      38.176  32.484  33.335  1.00  0.00     0.018 A 
ATOM     17  C   UNL A   1      39.238  31.662  33.451  1.00  0.00     0.073 A 
ATOM     18  C   UNL A   1      40.202  31.548  32.349  1.00  0.00     0.182 A 
ATOM     19  C   UNL A   1      38.787  33.057  31.054  1.00  0.00     0.018 A 
ATOM     20  O   UNL A   1      41.191  30.831  32.423  1.00  0.00    -0.290 OA
ATOM     21  C   UNL A   1      39.880  32.272  31.114  1.00  0.00     0.073 A 
ATOM     22  C   UNL A   1      38.463  33.582  29.679  1.00  0.00     0.064 C 
ENDBRANCH  13  14
ENDBRANCH   8  13
ENDBRANCH   4   7
ENDBRANCH   2   3
ENDBRANCH   1   2
BRANCH   1  23
ATOM     23  C   UNL A   1      35.605  30.470  28.280  1.00  0.00     0.118 C 
BRANCH  23  24
ATOM     24  N   UNL A   1      35.622  30.452  29.736  1.00  0.00    -0.352 N 
ATOM     25  C   UNL A   1      36.568  29.962  30.607  1.00  0.00     0.251 C 
ATOM     26  H   UNL A   1      34.831  30.853  30.166  1.00  0.00     0.163 HD
ATOM     27  O   UNL A   1      36.320  29.903  31.803  1.00  0.00    -0.269 OA
BRANCH  25  28
ATOM     28  C   UNL A   1      37.868  29.479  30.092  1.00  0.00     0.039 A 
ATOM     29  C   UNL A   1      38.259  29.846  28.801  1.00  0.00     0.014 A 
ATOM     30  C   UNL A   1      38.698  28.672  30.872  1.00  0.00     0.014 A 
ATOM     31  C   UNL A   1      39.515  29.468  28.325  1.00  0.00     0.010 A 
ATOM     32  C   UNL A   1      39.981  28.363  30.428  1.00  0.00     0.010 A 
ATOM     33  C   UNL A   1      40.404  28.757  29.151  1.00  0.00    -0.014 A 
BRANCH  33  34
ATOM     34  C   UNL A   1      41.774  28.415  28.690  1.00  0.00     0.031 A 
ATOM     35  C   UNL A   1      42.845  29.471  28.657  1.00  0.00     0.074 A 
ATOM     36  C   UNL A   1      42.042  27.166  28.262  1.00  0.00     0.049 A 
ATOM     37  N   UNL A   1      44.087  29.372  28.256  1.00  0.00    -0.248 NA
ATOM     38  C   UNL A   1      42.470  30.818  29.121  1.00  0.00     0.031 C 
ATOM     39  C   UNL A   1      41.082  26.060  28.219  1.00  0.00     0.029 A 
ATOM     40  N   UNL A   1      43.204  26.612  27.783  1.00  0.00    -0.354 N 
ATOM     41  C   UNL A   1      44.636  30.639  28.413  1.00  0.00     0.074 A 
ATOM     42  C   UNL A   1      43.581  31.503  28.891  1.00  0.00     0.031 C 
ATOM     43  C   UNL A   1      41.704  24.954  27.779  1.00  0.00     0.029 A 
ATOM     44  C   UNL A   1      43.092  25.279  27.466  1.00  0.00     0.049 A 
ATOM     45  H   UNL A   1      44.039  27.123  27.677  1.00  0.00     0.167 HD
ATOM     46  C   UNL A   1      45.912  31.041  28.205  1.00  0.00     0.031 A 
ATOM     47  C   UNL A   1      44.003  24.413  26.978  1.00  0.00     0.031 A 
ATOM     48  C   UNL A   1      46.962  30.178  27.734  1.00  0.00     0.049 A 
ATOM     49  C   UNL A   1      45.404  24.895  26.715  1.00  0.00     0.074 A 
ATOM     50  C   UNL A   1      48.295  30.484  27.525  1.00  0.00     0.029 A 
ATOM     51  N   UNL A   1      46.800  28.842  27.400  1.00  0.00    -0.354 N 
ATOM     52  N   UNL A   1      45.916  26.086  26.915  1.00  0.00    -0.248 NA
ATOM     53  C   UNL A   1      46.351  23.914  26.165  1.00  0.00     0.031 C 
ATOM     54  C   UNL A   1      48.928  29.347  27.014  1.00  0.00     0.029 A 
ATOM     55  C   UNL A   1      48.004  28.316  26.963  1.00  0.00     0.049 A 
ATOM     56  H   UNL A   1      45.955  28.342  27.465  1.00  0.00     0.167 HD
ATOM     57  C   UNL A   1      47.250  25.992  26.535  1.00  0.00     0.074 A 
ATOM     58  C   UNL A   1      47.470  24.625  26.111  1.00  0.00     0.031 C 
ATOM     59  C   UNL A   1      48.207  26.953  26.539  1.00  0.00     0.031 A 
BRANCH  46  60
ATOM     60  C   UNL A   1      46.245  32.481  28.493  1.00  0.00    -0.014 A 
ATOM     61  C   UNL A   1      46.199  33.449  27.472  1.00  0.00     0.010 A 
ATOM     62  C   UNL A   1      46.557  32.884  29.804  1.00  0.00     0.010 A 
ATOM     63  C   UNL A   1      46.490  34.786  27.751  1.00  0.00     0.020 A 
ATOM     64  C   UNL A   1      46.822  34.226  30.092  1.00  0.00     0.020 A 
ATOM     65  C   UNL A   1      46.799  35.166  29.061  1.00  0.00     0.054 A 
BRANCH  65  66
ATOM     66  S   UNL A   1      47.140  36.916  29.395  1.00  0.00     0.124 S 
ATOM     67  O   UNL A   1      47.384  37.438  28.052  1.00  0.00    -0.237 OA
ATOM     68  O   UNL A   1      45.903  37.366  30.028  1.00  0.00    -0.237 OA
ATOM     69  O   UNL A   1      48.309  36.882  30.270  1.00  0.00    -0.744 OA
ENDBRANCH  65  66
ENDBRANCH  46  60
BRANCH  47  70
ATOM     70  C   UNL A   1      43.622  22.994  26.735  1.00  0.00    -0.014 A 
ATOM     71  C   UNL A   1      44.032  22.341  25.559  1.00  0.00     0.010 A 
ATOM     72  C   UNL A   1      42.871  22.280  27.686  1.00  0.00     0.010 A 
ATOM     73  C   UNL A   1      43.694  21.003  25.336  1.00  0.00     0.020 A 
ATOM     74  C   UNL A   1      42.553  20.934  27.480  1.00  0.00     0.020 A 
ATOM     75  C   UNL A   1      42.963  20.306  26.301  1.00  0.00     0.054 A 
BRANCH  75  76
ATOM     76  S   UNL A   1      42.595  18.552  26.016  1.00  0.00     0.124 S 
ATOM     77  O   UNL A   1      43.415  18.254  24.848  1.00  0.00    -0.237 OA
ATOM     78  O   UNL A   1      43.026  17.935  27.268  1.00  0.00    -0.237 OA
ATOM     79  O   UNL A   1      41.152  18.537  25.789  1.00  0.00    -0.744 OA
ENDBRANCH  75  76
ENDBRANCH  47  70
BRANCH  59  80
ATOM     80  C   UNL A   1      49.588  26.566  26.084  1.00  0.00    -0.014 A 
ATOM     81  C   UNL A   1      50.044  26.890  24.794  1.00  0.00     0.010 A 
ATOM     82  C   UNL A   1      50.469  25.942  26.988  1.00  0.00     0.010 A 
ATOM     83  C   UNL A   1      51.351  26.580  24.410  1.00  0.00     0.020 A 
ATOM     84  C   UNL A   1      51.785  25.657  26.617  1.00  0.00     0.020 A 
ATOM     85  C   UNL A   1      52.216  25.970  25.326  1.00  0.00     0.054 A 
BRANCH  85  86
ATOM     86  S   UNL A   1      53.925  25.637  24.819  1.00  0.00     0.124 S 
ATOM     87  O   UNL A   1      54.688  26.414  25.793  1.00  0.00    -0.237 OA
ATOM     88  O   UNL A   1      54.021  24.186  24.958  1.00  0.00    -0.237 OA
ATOM     89  O   UNL A   1      53.983  26.132  23.446  1.00  0.00    -0.744 OA
ENDBRANCH  85  86
ENDBRANCH  59  80
ENDBRANCH  33  34
ENDBRANCH  25  28
ENDBRANCH  23  24
ENDBRANCH   1  23
TORSDOF 15
ENDMDL
MODEL 2
REMARK VINA RESULT:     -10.9      3.720      5.915
REMARK SMILES Cc1cc(=O)cc(C)n1C[C@H]1CCCC[C@@H]1C(=O)NCCCNC(=O)c1ccc(-c2c3nc(c(-c4ccc(S(=O)(=O)[O-])cc4)c4ccc([nH]4)c(-c4ccc(S(=O)(=O)[O-])cc4)c4nc(c(-c5ccc(S(=O)(=O)[O-])cc5)c5ccc2[nH]5)C=C4)C=C3)cc1
REMARK SMILES IDX 21 1 20 2 19 3 17 4 18 5 16 7 11 8 12 9 13 10 15 11 14 12
REMARK SMILES IDX 10 13 9 14 1 15 2 16 3 17 4 18 7 19 5 20 6 21 8 22 22 23
REMARK SMILES IDX 23 24 24 25 25 27 26 28 27 29 85 30 28 31 84 32 29 33 30 34
REMARK SMILES IDX 31 35 78 36 32 37 83 38 77 39 79 40 33 41 82 42 76 43 75 44
REMARK SMILES IDX 34 46 64 47 45 48 63 49 46 50 49 51 62 52 80 53 47 54 48 55
REMARK SMILES IDX 61 57 81 58 50 59 35 60 36 61 44 62 37 63 43 64 38 65 39 66
REMARK SMILES IDX 40 67 41 68 42 69 65 70 66 71 74 72 67 73 73 74 68 75 69 76
REMARK SMILES IDX 70 77 71 78 72 79 51 80 52 81 60 82 53 83 59 84 54 85 55 86
REMARK SMILES IDX 56 87 57 88 58 89
REMARK H PARENT 19 6 23 26 79 45 49 56
REMARK Flexibility Score: inf
ROOT
ATOM      1  C   UNL A   1      34.704  29.468  27.399  1.00  0.00     0.042 C 
ENDROOT
BRANCH   1   2
ATOM      2  C   UNL A   1      33.517  29.886  26.541  1.00  0.00     0.117 C 
BRANCH   2   3
ATOM      3  N   UNL A   1      33.617  29.364  25.197  1.00  0.00    -0.356 N 
ATOM      4  C   UNL A   1      33.327  28.150  24.675  1.00  0.00     0.223 C 
ATOM      5  O   UNL A   1      33.490  28.042  23.457  1.00  0.00    -0.275 OA
ATOM      6  H   UNL A   1      33.960  30.010  24.540  1.00  0.00     0.163 HD
BRANCH   4   7
ATOM      7  C   UNL A   1      32.828  26.990  25.553  1.00  0.00     0.083 C 
ATOM      8  C   UNL A   1      33.446  25.616  25.145  1.00  0.00     0.021 C 
ATOM      9  C   UNL A   1      32.938  25.273  23.732  1.00  0.00     0.006 C 
ATOM     10  C   UNL A   1      31.410  25.218  23.639  1.00  0.00     0.000 C 
ATOM     11  C   UNL A   1      31.287  26.956  25.503  1.00  0.00     0.014 C 
ATOM     12  C   UNL A   1      30.714  26.463  24.173  1.00  0.00     0.001 C 
BRANCH   8  13
ATOM     13  C   UNL A   1      33.101  24.514  26.202  1.00  0.00     0.126 C 
BRANCH  13  14
ATOM     14  N   UNL A   1      33.224  23.095  25.728  1.00  0.00    -0.349 N 
ATOM     15  C   UNL A   1      35.769  23.270  25.838  1.00  0.00     0.064 C 
ATOM     16  C   UNL A   1      34.507  22.519  25.484  1.00  0.00     0.018 A 
ATOM     17  C   UNL A   1      34.668  21.270  25.004  1.00  0.00     0.073 A 
ATOM     18  C   UNL A   1      33.494  20.432  24.729  1.00  0.00     0.182 A 
ATOM     19  C   UNL A   1      32.097  22.229  25.610  1.00  0.00     0.018 A 
ATOM     20  O   UNL A   1      33.595  19.301  24.271  1.00  0.00    -0.290 OA
ATOM     21  C   UNL A   1      32.188  20.982  25.109  1.00  0.00     0.073 A 
ATOM     22  C   UNL A   1      30.737  22.598  26.143  1.00  0.00     0.064 C 
ENDBRANCH  13  14
ENDBRANCH   8  13
ENDBRANCH   4   7
ENDBRANCH   2   3
ENDBRANCH   1   2
BRANCH   1  23
ATOM     23  C   UNL A   1      35.476  30.626  28.029  1.00  0.00     0.118 C 
BRANCH  23  24
ATOM     24  N   UNL A   1      35.432  30.626  29.485  1.00  0.00    -0.352 N 
ATOM     25  C   UNL A   1      36.410  30.317  30.402  1.00  0.00     0.251 C 
ATOM     26  H   UNL A   1      34.566  30.887  29.874  1.00  0.00     0.163 HD
ATOM     27  O   UNL A   1      36.124  30.228  31.588  1.00  0.00    -0.269 OA
BRANCH  25  28
ATOM     28  C   UNL A   1      37.796  30.063  29.950  1.00  0.00     0.039 A 
ATOM     29  C   UNL A   1      38.766  29.737  30.901  1.00  0.00     0.014 A 
ATOM     30  C   UNL A   1      38.139  30.143  28.599  1.00  0.00     0.014 A 
ATOM     31  C   UNL A   1      40.060  29.416  30.488  1.00  0.00     0.010 A 
ATOM     32  C   UNL A   1      39.406  29.745  28.180  1.00  0.00     0.010 A 
ATOM     33  C   UNL A   1      40.380  29.377  29.120  1.00  0.00    -0.014 A 
BRANCH  33  34
ATOM     34  C   UNL A   1      41.729  28.961  28.658  1.00  0.00     0.031 A 
ATOM     35  C   UNL A   1      42.846  29.967  28.587  1.00  0.00     0.074 A 
ATOM     36  C   UNL A   1      41.938  27.690  28.263  1.00  0.00     0.049 A 
ATOM     37  N   UNL A   1      44.078  29.802  28.178  1.00  0.00    -0.248 NA
ATOM     38  C   UNL A   1      42.535  31.342  29.015  1.00  0.00     0.031 C 
ATOM     39  C   UNL A   1      40.929  26.627  28.260  1.00  0.00     0.029 A 
ATOM     40  N   UNL A   1      43.070  27.072  27.791  1.00  0.00    -0.354 N 
ATOM     41  C   UNL A   1      44.684  31.046  28.295  1.00  0.00     0.074 A 
ATOM     42  C   UNL A   1      43.673  31.970  28.757  1.00  0.00     0.031 C 
ATOM     43  C   UNL A   1      41.497  25.483  27.847  1.00  0.00     0.029 A 
ATOM     44  C   UNL A   1      42.895  25.736  27.513  1.00  0.00     0.049 A 
ATOM     45  H   UNL A   1      43.925  27.541  27.664  1.00  0.00     0.167 HD
ATOM     46  C   UNL A   1      45.975  31.385  28.066  1.00  0.00     0.031 A 
ATOM     47  C   UNL A   1      43.763  24.818  27.043  1.00  0.00     0.031 A 
ATOM     48  C   UNL A   1      46.981  30.464  27.611  1.00  0.00     0.049 A 
ATOM     49  C   UNL A   1      45.181  25.229  26.754  1.00  0.00     0.074 A 
ATOM     50  C   UNL A   1      48.325  30.704  27.383  1.00  0.00     0.029 A 
ATOM     51  N   UNL A   1      46.757  29.128  27.317  1.00  0.00    -0.354 N 
ATOM     52  N   UNL A   1      45.747  26.401  26.916  1.00  0.00    -0.248 NA
ATOM     53  C   UNL A   1      46.078  24.192  26.225  1.00  0.00     0.031 C 
ATOM     54  C   UNL A   1      48.902  29.526  26.899  1.00  0.00     0.029 A 
ATOM     55  C   UNL A   1      47.932  28.537  26.885  1.00  0.00     0.049 A 
ATOM     56  H   UNL A   1      45.891  28.668  27.403  1.00  0.00     0.167 HD
ATOM     57  C   UNL A   1      47.072  26.237  26.529  1.00  0.00     0.074 A 
ATOM     58  C   UNL A   1      47.228  24.850  26.142  1.00  0.00     0.031 C 
ATOM     59  C   UNL A   1      48.070  27.155  26.497  1.00  0.00     0.031 A 
BRANCH  46  60
ATOM     60  C   UNL A   1      46.375  32.817  28.310  1.00  0.00    -0.014 A 
ATOM     61  C   UNL A   1      46.255  33.781  27.292  1.00  0.00     0.010 A 
ATOM     62  C   UNL A   1      46.825  33.216  29.581  1.00  0.00     0.010 A 
ATOM     63  C   UNL A   1      46.609  35.111  27.532  1.00  0.00     0.020 A 
ATOM     64  C   UNL A   1      47.153  34.551  29.833  1.00  0.00     0.020 A 
ATOM     65  C   UNL A   1      47.055  35.488  28.803  1.00  0.00     0.054 A 
BRANCH  65  66
ATOM     66  S   UNL A   1      47.475  37.229  29.091  1.00  0.00     0.124 S 
ATOM     67  O   UNL A   1      46.489  37.918  28.260  1.00  0.00    -0.237 OA
ATOM     68  O   UNL A   1      47.288  37.367  30.532  1.00  0.00    -0.237 OA
ATOM     69  O   UNL A   1      48.857  37.334  28.630  1.00  0.00    -0.744 OA
ENDBRANCH  65  66
ENDBRANCH  46  60
BRANCH  47  70
ATOM     70  C   UNL A   1      43.317  23.411  26.843  1.00  0.00    -0.014 A 
ATOM     71  C   UNL A   1      42.962  22.954  25.561  1.00  0.00     0.010 A 
ATOM     72  C   UNL A   1      43.269  22.513  27.924  1.00  0.00     0.010 A 
ATOM     73  C   UNL A   1      42.563  21.629  25.365  1.00  0.00     0.020 A 
ATOM     74  C   UNL A   1      42.896  21.180  27.729  1.00  0.00     0.020 A 
ATOM     75  C   UNL A   1      42.539  20.748  26.450  1.00  0.00     0.054 A 
BRANCH  75  76
ATOM     76  S   UNL A   1      42.081  19.017  26.156  1.00  0.00     0.124 S 
ATOM     77  O   UNL A   1      43.003  18.634  25.092  1.00  0.00    -0.237 OA
ATOM     78  O   UNL A   1      42.327  18.403  27.459  1.00  0.00    -0.237 OA
ATOM     79  O   UNL A   1      40.675  19.096  25.769  1.00  0.00    -0.744 OA
ENDBRANCH  75  76
ENDBRANCH  47  70
BRANCH  59  80
ATOM     80  C   UNL A   1      49.429  26.693  26.043  1.00  0.00    -0.014 A 
ATOM     81  C   UNL A   1      49.897  26.982  24.750  1.00  0.00     0.010 A 
ATOM     82  C   UNL A   1      50.280  26.033  26.950  1.00  0.00     0.010 A 
ATOM     83  C   UNL A   1      51.186  26.603  24.365  1.00  0.00     0.020 A 
ATOM     84  C   UNL A   1      51.578  25.679  26.578  1.00  0.00     0.020 A 
ATOM     85  C   UNL A   1      52.021  25.958  25.284  1.00  0.00     0.054 A 
BRANCH  85  86
ATOM     86  S   UNL A   1      53.709  25.534  24.775  1.00  0.00     0.124 S 
ATOM     87  O   UNL A   1      54.514  26.348  25.683  1.00  0.00    -0.237 OA
ATOM     88  O   UNL A   1      53.760  24.093  25.011  1.00  0.00    -0.237 OA
ATOM     89  O   UNL A   1      53.760  25.933  23.371  1.00  0.00    -0.744 OA
ENDBRANCH  85  86
ENDBRANCH  59  80
ENDBRANCH  33  34
ENDBRANCH  25  28
ENDBRANCH  23  24
ENDBRANCH   1  23
TORSDOF 15
ENDMDL
MODEL 3
REMARK VINA RESULT:     -10.9      3.607      9.972
REMARK SMILES Cc1cc(=O)cc(C)n1C[C@H]1CCCC[C@@H]1C(=O)NCCCNC(=O)c1ccc(-c2c3nc(c(-c4ccc(S(=O)(=O)[O-])cc4)c4ccc([nH]4)c(-c4ccc(S(=O)(=O)[O-])cc4)c4nc(c(-c5ccc(S(=O)(=O)[O-])cc5)c5ccc2[nH]5)C=C4)C=C3)cc1
REMARK SMILES IDX 21 1 20 2 19 3 17 4 18 5 16 7 11 8 12 9 13 10 15 11 14 12
REMARK SMILES IDX 10 13 9 14 1 15 2 16 3 17 4 18 7 19 5 20 6 21 8 22 22 23
REMARK SMILES IDX 23 24 24 25 25 27 26 28 27 29 85 30 28 31 84 32 29 33 30 34
REMARK SMILES IDX 31 35 78 36 32 37 83 38 77 39 79 40 33 41 82 42 76 43 75 44
REMARK SMILES IDX 34 46 64 47 45 48 63 49 46 50 49 51 62 52 80 53 47 54 48 55
REMARK SMILES IDX 61 57 81 58 50 59 35 60 36 61 44 62 37 63 43 64 38 65 39 66
REMARK SMILES IDX 40 67 41 68 42 69 65 70 66 71 74 72 67 73 73 74 68 75 69 76
REMARK SMILES IDX 70 77 71 78 72 79 51 80 52 81 60 82 53 83 59 84 54 85 55 86
REMARK SMILES IDX 56 87 57 88 58 89
REMARK H PARENT 19 6 23 26 79 45 49 56
REMARK Flexibility Score: inf
ROOT
ATOM      1  C   UNL A   1      34.499  29.048  27.311  1.00  0.00     0.042 C 
ENDROOT
BRANCH   1   2
ATOM      2  C   UNL A   1      33.422  29.732  26.479  1.00  0.00     0.117 C 
BRANCH   2   3
ATOM      3  N   UNL A   1      33.699  29.639  25.064  1.00  0.00    -0.356 N 
ATOM      4  C   UNL A   1      33.341  28.727  24.131  1.00  0.00     0.223 C 
ATOM      5  O   UNL A   1      33.714  28.967  22.981  1.00  0.00    -0.275 OA
ATOM      6  H   UNL A   1      34.250  30.375  24.713  1.00  0.00     0.163 HD
BRANCH   4   7
ATOM      7  C   UNL A   1      32.523  27.476  24.496  1.00  0.00     0.083 C 
ATOM      8  C   UNL A   1      32.473  26.430  23.337  1.00  0.00     0.021 C 
ATOM      9  C   UNL A   1      31.701  27.065  22.165  1.00  0.00     0.006 C 
ATOM     10  C   UNL A   1      30.284  27.506  22.547  1.00  0.00     0.000 C 
ATOM     11  C   UNL A   1      31.109  27.915  24.926  1.00  0.00     0.014 C 
ATOM     12  C   UNL A   1      30.227  28.403  23.776  1.00  0.00     0.001 C 
BRANCH   8  13
ATOM     13  C   UNL A   1      31.840  25.085  23.829  1.00  0.00     0.126 C 
BRANCH  13  14
ATOM     14  N   UNL A   1      32.800  24.086  24.406  1.00  0.00    -0.349 N 
ATOM     15  C   UNL A   1      31.873  24.534  26.743  1.00  0.00     0.064 C 
ATOM     16  C   UNL A   1      32.866  23.873  25.816  1.00  0.00     0.018 A 
ATOM     17  C   UNL A   1      33.749  23.031  26.387  1.00  0.00     0.073 A 
ATOM     18  C   UNL A   1      34.685  22.269  25.550  1.00  0.00     0.182 A 
ATOM     19  C   UNL A   1      33.598  23.232  23.589  1.00  0.00     0.018 A 
ATOM     20  O   UNL A   1      35.518  21.511  26.030  1.00  0.00    -0.290 OA
ATOM     21  C   UNL A   1      34.519  22.392  24.098  1.00  0.00     0.073 A 
ATOM     22  C   UNL A   1      33.393  23.119  22.101  1.00  0.00     0.064 C 
ENDBRANCH  13  14
ENDBRANCH   8  13
ENDBRANCH   4   7
ENDBRANCH   2   3
ENDBRANCH   1   2
BRANCH   1  23
ATOM     23  C   UNL A   1      35.550  29.990  27.897  1.00  0.00     0.118 C 
BRANCH  23  24
ATOM     24  N   UNL A   1      35.540  30.033  29.353  1.00  0.00    -0.352 N 
ATOM     25  C   UNL A   1      36.507  29.659  30.258  1.00  0.00     0.251 C 
ATOM     26  H   UNL A   1      34.711  30.384  29.753  1.00  0.00     0.163 HD
ATOM     27  O   UNL A   1      36.241  29.629  31.452  1.00  0.00    -0.269 OA
BRANCH  25  28
ATOM     28  C   UNL A   1      37.852  29.265  29.785  1.00  0.00     0.039 A 
ATOM     29  C   UNL A   1      38.206  29.539  28.461  1.00  0.00     0.014 A 
ATOM     30  C   UNL A   1      38.759  28.632  30.636  1.00  0.00     0.014 A 
ATOM     31  C   UNL A   1      39.496  29.247  28.016  1.00  0.00     0.010 A 
ATOM     32  C   UNL A   1      40.069  28.415  30.216  1.00  0.00     0.010 A 
ATOM     33  C   UNL A   1      40.452  28.721  28.902  1.00  0.00    -0.014 A 
BRANCH  33  34
ATOM     34  C   UNL A   1      41.851  28.478  28.467  1.00  0.00     0.031 A 
ATOM     35  C   UNL A   1      42.278  27.103  28.030  1.00  0.00     0.074 A 
ATOM     36  C   UNL A   1      42.747  29.483  28.506  1.00  0.00     0.049 A 
ATOM     37  N   UNL A   1      43.460  26.689  27.651  1.00  0.00    -0.248 NA
ATOM     38  C   UNL A   1      41.248  26.050  28.035  1.00  0.00     0.031 C 
ATOM     39  C   UNL A   1      42.463  30.855  28.935  1.00  0.00     0.029 A 
ATOM     40  N   UNL A   1      44.080  29.511  28.175  1.00  0.00    -0.354 N 
ATOM     41  C   UNL A   1      43.317  25.335  27.378  1.00  0.00     0.074 A 
ATOM     42  C   UNL A   1      41.951  24.981  27.690  1.00  0.00     0.031 C 
ATOM     43  C   UNL A   1      43.575  31.597  28.804  1.00  0.00     0.029 A 
ATOM     44  C   UNL A   1      44.662  30.748  28.325  1.00  0.00     0.049 A 
ATOM     45  H   UNL A   1      44.572  28.719  27.860  1.00  0.00     0.167 HD
ATOM     46  C   UNL A   1      44.232  24.468  26.885  1.00  0.00     0.031 A 
ATOM     47  C   UNL A   1      45.927  31.155  28.102  1.00  0.00     0.031 A 
ATOM     48  C   UNL A   1      45.590  24.822  26.571  1.00  0.00     0.049 A 
ATOM     49  C   UNL A   1      46.938  30.162  27.595  1.00  0.00     0.074 A 
ATOM     50  C   UNL A   1      46.584  24.023  26.035  1.00  0.00     0.029 A 
ATOM     51  N   UNL A   1      46.146  26.078  26.762  1.00  0.00    -0.354 N 
ATOM     52  N   UNL A   1      46.769  28.896  27.299  1.00  0.00    -0.248 NA
ATOM     53  C   UNL A   1      48.307  30.656  27.388  1.00  0.00     0.031 C 
ATOM     54  C   UNL A   1      47.756  24.781  25.951  1.00  0.00     0.029 A 
ATOM     55  C   UNL A   1      47.476  26.069  26.377  1.00  0.00     0.049 A 
ATOM     56  H   UNL A   1      45.666  26.860  27.118  1.00  0.00     0.167 HD
ATOM     57  C   UNL A   1      48.007  28.446  26.850  1.00  0.00     0.074 A 
ATOM     58  C   UNL A   1      48.907  29.579  26.897  1.00  0.00     0.031 C 
ATOM     59  C   UNL A   1      48.362  27.205  26.435  1.00  0.00     0.031 A 
BRANCH  46  60
ATOM     60  C   UNL A   1      43.792  23.047  26.649  1.00  0.00    -0.014 A 
ATOM     61  C   UNL A   1      44.270  22.320  25.543  1.00  0.00     0.010 A 
ATOM     62  C   UNL A   1      42.935  22.413  27.566  1.00  0.00     0.010 A 
ATOM     63  C   UNL A   1      43.872  20.996  25.341  1.00  0.00     0.020 A 
ATOM     64  C   UNL A   1      42.557  21.080  27.382  1.00  0.00     0.020 A 
ATOM     65  C   UNL A   1      43.019  20.384  26.264  1.00  0.00     0.054 A 
BRANCH  65  66
ATOM     66  S   UNL A   1      42.548  18.654  25.990  1.00  0.00     0.124 S 
ATOM     67  O   UNL A   1      41.124  18.773  25.682  1.00  0.00    -0.237 OA
ATOM     68  O   UNL A   1      43.402  18.265  24.871  1.00  0.00    -0.237 OA
ATOM     69  O   UNL A   1      42.856  18.004  27.261  1.00  0.00    -0.744 OA
ENDBRANCH  65  66
ENDBRANCH  46  60
BRANCH  47  70
ATOM     70  C   UNL A   1      46.300  32.579  28.331  1.00  0.00    -0.014 A 
ATOM     71  C   UNL A   1      46.796  32.990  29.581  1.00  0.00     0.010 A 
ATOM     72  C   UNL A   1      46.186  33.526  27.297  1.00  0.00     0.010 A 
ATOM     73  C   UNL A   1      47.167  34.321  29.794  1.00  0.00     0.020 A 
ATOM     74  C   UNL A   1      46.579  34.852  27.497  1.00  0.00     0.020 A 
ATOM     75  C   UNL A   1      47.062  35.242  28.748  1.00  0.00     0.054 A 
BRANCH  75  76
ATOM     76  S   UNL A   1      47.612  36.948  29.032  1.00  0.00     0.124 S 
ATOM     77  O   UNL A   1      48.481  37.185  27.884  1.00  0.00    -0.237 OA
ATOM     78  O   UNL A   1      46.351  37.686  29.036  1.00  0.00    -0.237 OA
ATOM     79  O   UNL A   1      48.288  36.879  30.326  1.00  0.00    -0.744 OA
ENDBRANCH  75  76
ENDBRANCH  47  70
BRANCH  59  80
ATOM     80  C   UNL A   1      49.784  27.000  25.983  1.00  0.00    -0.014 A 
ATOM     81  C   UNL A   1      50.759  26.500  26.863  1.00  0.00     0.010 A 
ATOM     82  C   UNL A   1      50.127  27.234  24.638  1.00  0.00     0.010 A 
ATOM     83  C   UNL A   1      52.058  26.255  26.411  1.00  0.00     0.020 A 
ATOM     84  C   UNL A   1      51.416  26.963  24.176  1.00  0.00     0.020 A 
ATOM     85  C   UNL A   1      52.377  26.483  25.068  1.00  0.00     0.054 A 
BRANCH  85  86
ATOM     86  S   UNL A   1      54.054  26.096  24.495  1.00  0.00     0.124 S 
ATOM     87  O   UNL A   1      54.859  27.068  25.233  1.00  0.00    -0.237 OA
ATOM     88  O   UNL A   1      54.219  24.704  24.906  1.00  0.00    -0.237 OA
ATOM     89  O   UNL A   1      53.987  26.313  23.052  1.00  0.00    -0.744 OA
ENDBRANCH  85  86
ENDBRANCH  59  80
ENDBRANCH  33  34
ENDBRANCH  25  28
ENDBRANCH  23  24
ENDBRANCH   1  23
TORSDOF 15
ENDMDL
