MODEL 1
REMARK VINA RESULT:     -11.7      0.000      0.000
REMARK SMILES N#C/C(=C/c1cccc(OCC(=O)NCCCNC(=O)c2ccc(-c3c4nc(c(-c5ccc(S(=O)(=O)[O-])cc5)c5ccc([nH]5)c(-c5ccc(S(=O)(=O)[O-])cc5)c5nc(c(-c6ccc(S(=O)(=O)[O-])cc6)c6ccc3[nH]6)C=C5)C=C4)cc2)c1)c1nc2ccccc2[nH]1
REMARK SMILES IDX 15 1 14 2 12 3 13 4 11 6 10 7 9 8 5 9 6 10 81 11 7 12 8 13
REMARK SMILES IDX 4 14 3 15 2 16 1 17 82 18 83 19 90 20 84 21 89 22 85 24
REMARK SMILES IDX 88 25 86 26 87 27 16 28 17 29 18 30 19 31 20 33 21 34 22 35
REMARK SMILES IDX 80 36 23 37 79 38 24 39 25 40 26 41 73 42 27 43 78 44 72 45
REMARK SMILES IDX 74 46 28 47 77 48 71 49 70 50 29 52 59 53 40 54 58 55 41 56
REMARK SMILES IDX 44 57 57 58 75 59 42 60 43 61 56 63 76 64 45 65 30 66 31 67
REMARK SMILES IDX 39 68 32 69 38 70 33 71 34 72 35 73 36 74 37 75 60 76 61 77
REMARK SMILES IDX 69 78 62 79 68 80 63 81 64 82 65 83 66 84 67 85 46 86 47 87
REMARK SMILES IDX 55 88 48 89 54 90 49 91 50 92 51 93 52 94 53 95
REMARK H PARENT 14 5 90 23 18 32 74 51 44 62
REMARK Flexibility Score: inf
ROOT
ATOM      1  C   UNL A   1      31.555  29.434  25.094  1.00  0.00     0.117 C 
ENDROOT
BRANCH   1   2
ATOM      2  N   UNL A   1      31.225  29.407  23.681  1.00  0.00    -0.353 N 
ATOM      3  C   UNL A   1      30.495  28.460  23.013  1.00  0.00     0.257 C 
ATOM      4  O   UNL A   1      30.040  28.710  21.893  1.00  0.00    -0.271 OA
ATOM      5  H   UNL A   1      31.564  30.157  23.140  1.00  0.00     0.163 HD
BRANCH   3   6
ATOM      6  C   UNL A   1      30.212  27.111  23.683  1.00  0.00     0.329 C 
BRANCH   6   7
ATOM      7  O   UNL A   1      31.318  26.484  24.311  1.00  0.00    -0.484 OA
BRANCH   7   8
ATOM      8  C   UNL A   1      31.823  25.347  23.741  1.00  0.00     0.120 A 
ATOM      9  C   UNL A   1      32.225  22.955  23.521  1.00  0.00    -0.021 A 
ATOM     10  C   UNL A   1      32.902  23.182  22.320  1.00  0.00     0.008 A 
ATOM     11  C   UNL A   1      31.710  24.046  24.241  1.00  0.00     0.054 A 
ATOM     12  C   UNL A   1      33.043  24.481  21.832  1.00  0.00     0.004 A 
ATOM     13  C   UNL A   1      32.502  25.556  22.539  1.00  0.00     0.046 A 
BRANCH   9  14
ATOM     14  C   UNL A   1      32.064  21.574  24.010  1.00  0.00     0.031 C 
ATOM     15  C   UNL A   1      32.988  20.863  24.688  1.00  0.00     0.095 C 
BRANCH  15  16
ATOM     16  C   UNL A   1      32.670  19.448  25.141  1.00  0.00     0.103 C 
ATOM     17  N   UNL A   1      32.406  18.273  25.516  1.00  0.00    -0.192 NA
ENDBRANCH  15  16
BRANCH  15  18
ATOM     18  C   UNL A   1      34.241  21.418  25.072  1.00  0.00     0.149 A 
ATOM     19  N   UNL A   1      34.542  22.607  25.558  1.00  0.00    -0.228 NA
ATOM     20  N   UNL A   1      35.381  20.656  24.931  1.00  0.00    -0.337 N 
ATOM     21  C   UNL A   1      35.907  22.625  25.694  1.00  0.00     0.089 A 
ATOM     22  C   UNL A   1      36.462  21.415  25.300  1.00  0.00     0.066 A 
ATOM     23  H   UNL A   1      35.413  19.723  24.617  1.00  0.00     0.168 HD
ATOM     24  C   UNL A   1      36.752  23.652  26.134  1.00  0.00     0.030 A 
ATOM     25  C   UNL A   1      37.836  21.167  25.294  1.00  0.00     0.028 A 
ATOM     26  C   UNL A   1      38.138  23.440  26.119  1.00  0.00     0.002 A 
ATOM     27  C   UNL A   1      38.668  22.217  25.702  1.00  0.00     0.002 A 
ENDBRANCH  15  18
ENDBRANCH   9  14
ENDBRANCH   7   8
ENDBRANCH   6   7
ENDBRANCH   3   6
ENDBRANCH   1   2
BRANCH   1  28
ATOM     28  C   UNL A   1      32.969  28.980  25.442  1.00  0.00     0.042 C 
BRANCH  28  29
ATOM     29  C   UNL A   1      33.374  29.009  26.915  1.00  0.00     0.118 C 
BRANCH  29  30
ATOM     30  N   UNL A   1      33.383  30.324  27.541  1.00  0.00    -0.352 N 
ATOM     31  C   UNL A   1      34.407  30.953  28.212  1.00  0.00     0.251 C 
ATOM     32  H   UNL A   1      32.541  30.831  27.476  1.00  0.00     0.163 HD
ATOM     33  O   UNL A   1      34.239  32.077  28.676  1.00  0.00    -0.269 OA
BRANCH  31  34
ATOM     34  C   UNL A   1      35.695  30.255  28.411  1.00  0.00     0.039 A 
ATOM     35  C   UNL A   1      36.616  30.239  27.359  1.00  0.00     0.014 A 
ATOM     36  C   UNL A   1      36.012  29.658  29.635  1.00  0.00     0.014 A 
ATOM     37  C   UNL A   1      37.898  29.726  27.570  1.00  0.00     0.010 A 
ATOM     38  C   UNL A   1      37.303  29.175  29.853  1.00  0.00     0.010 A 
ATOM     39  C   UNL A   1      38.268  29.243  28.836  1.00  0.00    -0.014 A 
BRANCH  39  40
ATOM     40  C   UNL A   1      39.686  28.932  29.149  1.00  0.00     0.031 A 
ATOM     41  C   UNL A   1      40.605  29.970  29.725  1.00  0.00     0.074 A 
ATOM     42  C   UNL A   1      40.163  27.709  28.836  1.00  0.00     0.049 A 
ATOM     43  N   UNL A   1      41.886  29.883  29.975  1.00  0.00    -0.248 NA
ATOM     44  C   UNL A   1      40.010  31.273  30.061  1.00  0.00     0.031 C 
ATOM     45  C   UNL A   1      39.376  26.617  28.254  1.00  0.00     0.029 A 
ATOM     46  N   UNL A   1      41.425  27.181  28.948  1.00  0.00    -0.354 N 
ATOM     47  C   UNL A   1      42.256  31.114  30.499  1.00  0.00     0.074 A 
ATOM     48  C   UNL A   1      41.067  31.944  30.501  1.00  0.00     0.031 C 
ATOM     49  C   UNL A   1      40.170  25.550  28.071  1.00  0.00     0.029 A 
ATOM     50  C   UNL A   1      41.528  25.892  28.480  1.00  0.00     0.049 A 
ATOM     51  H   UNL A   1      42.185  27.679  29.329  1.00  0.00     0.167 HD
ATOM     52  C   UNL A   1      43.471  31.513  30.949  1.00  0.00     0.031 A 
ATOM     53  C   UNL A   1      42.598  25.081  28.370  1.00  0.00     0.031 A 
ATOM     54  C   UNL A   1      44.656  30.694  30.932  1.00  0.00     0.049 A 
ATOM     55  C   UNL A   1      43.948  25.577  28.807  1.00  0.00     0.074 A 
ATOM     56  C   UNL A   1      45.924  31.009  31.391  1.00  0.00     0.029 A 
ATOM     57  N   UNL A   1      44.723  29.407  30.425  1.00  0.00    -0.354 N 
ATOM     58  N   UNL A   1      44.266  26.731  29.341  1.00  0.00    -0.248 NA
ATOM     59  C   UNL A   1      45.084  24.661  28.622  1.00  0.00     0.031 C 
ATOM     60  C   UNL A   1      46.769  29.927  31.121  1.00  0.00     0.029 A 
ATOM     61  C   UNL A   1      46.017  28.922  30.535  1.00  0.00     0.049 A 
ATOM     62  H   UNL A   1      43.964  28.909  30.042  1.00  0.00     0.167 HD
ATOM     63  C   UNL A   1      45.636  26.673  29.571  1.00  0.00     0.074 A 
ATOM     64  C   UNL A   1      46.082  25.366  29.135  1.00  0.00     0.031 C 
ATOM     65  C   UNL A   1      46.449  27.621  30.095  1.00  0.00     0.031 A 
BRANCH  52  66
ATOM     66  C   UNL A   1      43.585  32.906  31.506  1.00  0.00    -0.014 A 
ATOM     67  C   UNL A   1      43.392  33.146  32.878  1.00  0.00     0.010 A 
ATOM     68  C   UNL A   1      43.956  33.971  30.667  1.00  0.00     0.010 A 
ATOM     69  C   UNL A   1      43.544  34.434  33.398  1.00  0.00     0.020 A 
ATOM     70  C   UNL A   1      44.128  35.259  31.189  1.00  0.00     0.020 A 
ATOM     71  C   UNL A   1      43.907  35.484  32.549  1.00  0.00     0.054 A 
BRANCH  71  72
ATOM     72  S   UNL A   1      44.130  37.138  33.258  1.00  0.00     0.124 S 
ATOM     73  O   UNL A   1      42.960  37.252  34.126  1.00  0.00    -0.237 OA
ATOM     74  O   UNL A   1      45.413  37.024  33.946  1.00  0.00    -0.237 OA
ATOM     75  O   UNL A   1      44.128  38.019  32.092  1.00  0.00    -0.744 OA
ENDBRANCH  71  72
ENDBRANCH  52  66
BRANCH  53  76
ATOM     76  C   UNL A   1      42.446  23.717  27.797  1.00  0.00    -0.014 A 
ATOM     77  C   UNL A   1      42.251  22.609  28.640  1.00  0.00     0.010 A 
ATOM     78  C   UNL A   1      42.512  23.517  26.406  1.00  0.00     0.010 A 
ATOM     79  C   UNL A   1      42.153  21.322  28.105  1.00  0.00     0.020 A 
ATOM     80  C   UNL A   1      42.389  22.235  25.866  1.00  0.00     0.020 A 
ATOM     81  C   UNL A   1      42.227  21.142  26.721  1.00  0.00     0.054 A 
BRANCH  81  82
ATOM     82  S   UNL A   1      42.070  19.468  26.040  1.00  0.00     0.124 S 
ATOM     83  O   UNL A   1      40.631  19.364  25.825  1.00  0.00    -0.237 OA
ATOM     84  O   UNL A   1      42.889  19.537  24.831  1.00  0.00    -0.237 OA
ATOM     85  O   UNL A   1      42.611  18.620  27.100  1.00  0.00    -0.744 OA
ENDBRANCH  81  82
ENDBRANCH  53  76
BRANCH  65  86
ATOM     86  C   UNL A   1      47.906  27.276  30.243  1.00  0.00    -0.014 A 
ATOM     87  C   UNL A   1      48.807  27.487  29.185  1.00  0.00     0.010 A 
ATOM     88  C   UNL A   1      48.389  26.795  31.474  1.00  0.00     0.010 A 
ATOM     89  C   UNL A   1      50.166  27.205  29.350  1.00  0.00     0.020 A 
ATOM     90  C   UNL A   1      49.749  26.531  31.648  1.00  0.00     0.020 A 
ATOM     91  C   UNL A   1      50.629  26.730  30.581  1.00  0.00     0.054 A 
BRANCH  91  92
ATOM     92  S   UNL A   1      52.406  26.432  30.791  1.00  0.00     0.124 S 
ATOM     93  O   UNL A   1      52.418  25.195  31.567  1.00  0.00    -0.237 OA
ATOM     94  O   UNL A   1      52.877  26.312  29.412  1.00  0.00    -0.237 OA
ATOM     95  O   UNL A   1      52.875  27.619  31.501  1.00  0.00    -0.744 OA
ENDBRANCH  91  92
ENDBRANCH  65  86
ENDBRANCH  39  40
ENDBRANCH  31  34
ENDBRANCH  29  30
ENDBRANCH  28  29
ENDBRANCH   1  28
TORSDOF 18
ENDMDL
MODEL 2
REMARK VINA RESULT:     -11.5      0.961      2.403
REMARK SMILES N#C/C(=C/c1cccc(OCC(=O)NCCCNC(=O)c2ccc(-c3c4nc(c(-c5ccc(S(=O)(=O)[O-])cc5)c5ccc([nH]5)c(-c5ccc(S(=O)(=O)[O-])cc5)c5nc(c(-c6ccc(S(=O)(=O)[O-])cc6)c6ccc3[nH]6)C=C5)C=C4)cc2)c1)c1nc2ccccc2[nH]1
REMARK SMILES IDX 15 1 14 2 12 3 13 4 11 6 10 7 9 8 5 9 6 10 81 11 7 12 8 13
REMARK SMILES IDX 4 14 3 15 2 16 1 17 82 18 83 19 90 20 84 21 89 22 85 24
REMARK SMILES IDX 88 25 86 26 87 27 16 28 17 29 18 30 19 31 20 33 21 34 22 35
REMARK SMILES IDX 80 36 23 37 79 38 24 39 25 40 26 41 73 42 27 43 78 44 72 45
REMARK SMILES IDX 74 46 28 47 77 48 71 49 70 50 29 52 59 53 40 54 58 55 41 56
REMARK SMILES IDX 44 57 57 58 75 59 42 60 43 61 56 63 76 64 45 65 30 66 31 67
REMARK SMILES IDX 39 68 32 69 38 70 33 71 34 72 35 73 36 74 37 75 60 76 61 77
REMARK SMILES IDX 69 78 62 79 68 80 63 81 64 82 65 83 66 84 67 85 46 86 47 87
REMARK SMILES IDX 55 88 48 89 54 90 49 91 50 92 51 93 52 94 53 95
REMARK H PARENT 14 5 90 23 18 32 74 51 44 62
REMARK Flexibility Score: inf
ROOT
ATOM      1  C   UNL A   1      31.514  29.329  24.898  1.00  0.00     0.117 C 
ENDROOT
BRANCH   1   2
ATOM      2  N   UNL A   1      31.217  29.666  23.518  1.00  0.00    -0.353 N 
ATOM      3  C   UNL A   1      30.308  29.062  22.690  1.00  0.00     0.257 C 
ATOM      4  O   UNL A   1      29.944  29.630  21.657  1.00  0.00    -0.271 OA
ATOM      5  H   UNL A   1      31.726  30.416  23.133  1.00  0.00     0.163 HD
BRANCH   3   6
ATOM      6  C   UNL A   1      29.716  27.702  23.078  1.00  0.00     0.329 C 
BRANCH   6   7
ATOM      7  O   UNL A   1      30.555  26.578  22.870  1.00  0.00    -0.484 OA
BRANCH   7   8
ATOM      8  C   UNL A   1      31.161  26.015  23.961  1.00  0.00     0.120 A 
ATOM      9  C   UNL A   1      33.027  25.237  25.318  1.00  0.00    -0.021 A 
ATOM     10  C   UNL A   1      32.139  24.909  26.346  1.00  0.00     0.008 A 
ATOM     11  C   UNL A   1      32.527  25.766  24.116  1.00  0.00     0.054 A 
ATOM     12  C   UNL A   1      30.771  25.128  26.185  1.00  0.00     0.004 A 
ATOM     13  C   UNL A   1      30.288  25.682  24.998  1.00  0.00     0.046 A 
BRANCH   9  14
ATOM     14  C   UNL A   1      34.471  25.021  25.515  1.00  0.00     0.031 C 
ATOM     15  C   UNL A   1      35.098  23.828  25.524  1.00  0.00     0.095 C 
BRANCH  15  16
ATOM     16  C   UNL A   1      36.604  23.766  25.726  1.00  0.00     0.103 C 
ATOM     17  N   UNL A   1      37.852  23.714  25.893  1.00  0.00    -0.192 NA
ENDBRANCH  15  16
BRANCH  15  18
ATOM     18  C   UNL A   1      34.410  22.607  25.272  1.00  0.00     0.149 A 
ATOM     19  N   UNL A   1      34.295  21.518  26.007  1.00  0.00    -0.228 NA
ATOM     20  N   UNL A   1      33.741  22.452  24.077  1.00  0.00    -0.337 N 
ATOM     21  C   UNL A   1      33.570  20.629  25.255  1.00  0.00     0.089 A 
ATOM     22  C   UNL A   1      33.215  21.185  24.034  1.00  0.00     0.066 A 
ATOM     23  H   UNL A   1      33.655  23.135  23.373  1.00  0.00     0.168 HD
ATOM     24  C   UNL A   1      33.187  19.313  25.541  1.00  0.00     0.030 A 
ATOM     25  C   UNL A   1      32.509  20.490  23.049  1.00  0.00     0.028 A 
ATOM     26  C   UNL A   1      32.496  18.582  24.565  1.00  0.00     0.002 A 
ATOM     27  C   UNL A   1      32.167  19.164  23.339  1.00  0.00     0.002 A 
ENDBRANCH  15  18
ENDBRANCH   9  14
ENDBRANCH   7   8
ENDBRANCH   6   7
ENDBRANCH   3   6
ENDBRANCH   1   2
BRANCH   1  28
ATOM     28  C   UNL A   1      32.983  29.048  25.198  1.00  0.00     0.042 C 
BRANCH  28  29
ATOM     29  C   UNL A   1      33.406  29.012  26.666  1.00  0.00     0.118 C 
BRANCH  29  30
ATOM     30  N   UNL A   1      33.328  30.280  27.377  1.00  0.00    -0.352 N 
ATOM     31  C   UNL A   1      34.287  30.899  28.145  1.00  0.00     0.251 C 
ATOM     32  H   UNL A   1      32.471  30.760  27.298  1.00  0.00     0.163 HD
ATOM     33  O   UNL A   1      34.049  31.982  28.672  1.00  0.00    -0.269 OA
BRANCH  31  34
ATOM     34  C   UNL A   1      35.589  30.237  28.371  1.00  0.00     0.039 A 
ATOM     35  C   UNL A   1      36.521  30.223  27.328  1.00  0.00     0.014 A 
ATOM     36  C   UNL A   1      35.908  29.673  29.610  1.00  0.00     0.014 A 
ATOM     37  C   UNL A   1      37.814  29.745  27.562  1.00  0.00     0.010 A 
ATOM     38  C   UNL A   1      37.208  29.225  29.851  1.00  0.00     0.010 A 
ATOM     39  C   UNL A   1      38.182  29.297  28.842  1.00  0.00    -0.014 A 
BRANCH  39  40
ATOM     40  C   UNL A   1      39.604  29.026  29.175  1.00  0.00     0.031 A 
ATOM     41  C   UNL A   1      40.486  30.092  29.758  1.00  0.00     0.074 A 
ATOM     42  C   UNL A   1      40.118  27.816  28.875  1.00  0.00     0.049 A 
ATOM     43  N   UNL A   1      41.766  30.043  30.024  1.00  0.00    -0.248 NA
ATOM     44  C   UNL A   1      39.851  31.380  30.078  1.00  0.00     0.031 C 
ATOM     45  C   UNL A   1      39.370  26.700  28.289  1.00  0.00     0.029 A 
ATOM     46  N   UNL A   1      41.393  27.323  29.006  1.00  0.00    -0.354 N 
ATOM     47  C   UNL A   1      42.095  31.286  30.546  1.00  0.00     0.074 A 
ATOM     48  C   UNL A   1      40.884  32.082  30.529  1.00  0.00     0.031 C 
ATOM     49  C   UNL A   1      40.195  25.654  28.122  1.00  0.00     0.029 A 
ATOM     50  C   UNL A   1      41.538  26.036  28.547  1.00  0.00     0.049 A 
ATOM     51  H   UNL A   1      42.134  27.844  29.394  1.00  0.00     0.167 HD
ATOM     52  C   UNL A   1      43.292  31.720  31.010  1.00  0.00     0.031 A 
ATOM     53  C   UNL A   1      42.631  25.254  28.455  1.00  0.00     0.031 A 
ATOM     54  C   UNL A   1      44.499  30.935  31.013  1.00  0.00     0.049 A 
ATOM     55  C   UNL A   1      43.961  25.789  28.906  1.00  0.00     0.074 A 
ATOM     56  C   UNL A   1      45.752  31.286  31.487  1.00  0.00     0.029 A 
ATOM     57  N   UNL A   1      44.609  29.647  30.514  1.00  0.00    -0.354 N 
ATOM     58  N   UNL A   1      44.240  26.954  29.438  1.00  0.00    -0.248 NA
ATOM     59  C   UNL A   1      45.124  24.904  28.742  1.00  0.00     0.031 C 
ATOM     60  C   UNL A   1      46.630  30.227  31.234  1.00  0.00     0.029 A 
ATOM     61  C   UNL A   1      45.913  29.199  30.644  1.00  0.00     0.049 A 
ATOM     62  H   UNL A   1      43.869  29.126  30.124  1.00  0.00     0.167 HD
ATOM     63  C   UNL A   1      45.607  26.935  29.686  1.00  0.00     0.074 A 
ATOM     64  C   UNL A   1      46.095  25.639  29.263  1.00  0.00     0.031 C 
ATOM     65  C   UNL A   1      46.388  27.908  30.216  1.00  0.00     0.031 A 
BRANCH  52  66
ATOM     66  C   UNL A   1      43.360  33.118  31.561  1.00  0.00    -0.014 A 
ATOM     67  C   UNL A   1      43.216  33.353  32.940  1.00  0.00     0.010 A 
ATOM     68  C   UNL A   1      43.640  34.199  30.706  1.00  0.00     0.010 A 
ATOM     69  C   UNL A   1      43.326  34.648  33.452  1.00  0.00     0.020 A 
ATOM     70  C   UNL A   1      43.770  35.495  31.219  1.00  0.00     0.020 A 
ATOM     71  C   UNL A   1      43.598  35.712  32.588  1.00  0.00     0.054 A 
BRANCH  71  72
ATOM     72  S   UNL A   1      43.768  37.377  33.286  1.00  0.00     0.124 S 
ATOM     73  O   UNL A   1      43.868  38.199  32.082  1.00  0.00    -0.237 OA
ATOM     74  O   UNL A   1      42.534  37.534  34.052  1.00  0.00    -0.237 OA
ATOM     75  O   UNL A   1      44.988  37.295  34.086  1.00  0.00    -0.744 OA
ENDBRANCH  71  72
ENDBRANCH  52  66
BRANCH  53  76
ATOM     76  C   UNL A   1      42.524  23.884  27.887  1.00  0.00    -0.014 A 
ATOM     77  C   UNL A   1      42.800  23.653  26.529  1.00  0.00     0.010 A 
ATOM     78  C   UNL A   1      42.127  22.806  28.699  1.00  0.00     0.010 A 
ATOM     79  C   UNL A   1      42.656  22.373  25.985  1.00  0.00     0.020 A 
ATOM     80  C   UNL A   1      42.007  21.520  28.166  1.00  0.00     0.020 A 
ATOM     81  C   UNL A   1      42.255  21.315  26.807  1.00  0.00     0.054 A 
BRANCH  81  82
ATOM     82  S   UNL A   1      42.100  19.655  26.092  1.00  0.00     0.124 S 
ATOM     83  O   UNL A   1      42.546  18.809  27.194  1.00  0.00    -0.237 OA
ATOM     84  O   UNL A   1      40.677  19.579  25.769  1.00  0.00    -0.237 OA
ATOM     85  O   UNL A   1      42.990  19.701  24.933  1.00  0.00    -0.744 OA
ENDBRANCH  81  82
ENDBRANCH  53  76
BRANCH  65  86
ATOM     86  C   UNL A   1      47.851  27.605  30.385  1.00  0.00    -0.014 A 
ATOM     87  C   UNL A   1      48.325  26.961  31.541  1.00  0.00     0.010 A 
ATOM     88  C   UNL A   1      48.752  27.911  29.349  1.00  0.00     0.010 A 
ATOM     89  C   UNL A   1      49.681  26.644  31.666  1.00  0.00     0.020 A 
ATOM     90  C   UNL A   1      50.104  27.577  29.462  1.00  0.00     0.020 A 
ATOM     91  C   UNL A   1      50.562  26.953  30.625  1.00  0.00     0.054 A 
BRANCH  91  92
ATOM     92  S   UNL A   1      52.304  26.475  30.784  1.00  0.00     0.124 S 
ATOM     93  O   UNL A   1      52.859  27.593  31.542  1.00  0.00    -0.237 OA
ATOM     94  O   UNL A   1      52.226  25.206  31.504  1.00  0.00    -0.237 OA
ATOM     95  O   UNL A   1      52.762  26.370  29.401  1.00  0.00    -0.744 OA
ENDBRANCH  91  92
ENDBRANCH  65  86
ENDBRANCH  39  40
ENDBRANCH  31  34
ENDBRANCH  29  30
ENDBRANCH  28  29
ENDBRANCH   1  28
TORSDOF 18
ENDMDL
MODEL 3
REMARK VINA RESULT:     -11.3      1.029      8.290
REMARK SMILES N#C/C(=C/c1cccc(OCC(=O)NCCCNC(=O)c2ccc(-c3c4nc(c(-c5ccc(S(=O)(=O)[O-])cc5)c5ccc([nH]5)c(-c5ccc(S(=O)(=O)[O-])cc5)c5nc(c(-c6ccc(S(=O)(=O)[O-])cc6)c6ccc3[nH]6)C=C5)C=C4)cc2)c1)c1nc2ccccc2[nH]1
REMARK SMILES IDX 15 1 14 2 12 3 13 4 11 6 10 7 9 8 5 9 6 10 81 11 7 12 8 13
REMARK SMILES IDX 4 14 3 15 2 16 1 17 82 18 83 19 90 20 84 21 89 22 85 24
REMARK SMILES IDX 88 25 86 26 87 27 16 28 17 29 18 30 19 31 20 33 21 34 22 35
REMARK SMILES IDX 80 36 23 37 79 38 24 39 25 40 26 41 73 42 27 43 78 44 72 45
REMARK SMILES IDX 74 46 28 47 77 48 71 49 70 50 29 52 59 53 40 54 58 55 41 56
REMARK SMILES IDX 44 57 57 58 75 59 42 60 43 61 56 63 76 64 45 65 30 66 31 67
REMARK SMILES IDX 39 68 32 69 38 70 33 71 34 72 35 73 36 74 37 75 60 76 61 77
REMARK SMILES IDX 69 78 62 79 68 80 63 81 64 82 65 83 66 84 67 85 46 86 47 87
REMARK SMILES IDX 55 88 48 89 54 90 49 91 50 92 51 93 52 94 53 95
REMARK H PARENT 14 5 90 23 18 32 74 51 44 62
REMARK Flexibility Score: inf
ROOT
ATOM      1  C   UNL A   1      31.647  28.984  25.213  1.00  0.00     0.117 C 
ENDROOT
BRANCH   1   2
ATOM      2  N   UNL A   1      31.198  29.241  23.857  1.00  0.00    -0.353 N 
ATOM      3  C   UNL A   1      30.640  28.349  22.981  1.00  0.00     0.257 C 
ATOM      4  O   UNL A   1      30.035  28.760  21.986  1.00  0.00    -0.271 OA
ATOM      5  H   UNL A   1      31.306  30.164  23.530  1.00  0.00     0.163 HD
BRANCH   3   6
ATOM      6  C   UNL A   1      30.733  26.846  23.267  1.00  0.00     0.329 C 
BRANCH   6   7
ATOM      7  O   UNL A   1      32.021  26.267  23.135  1.00  0.00    -0.484 OA
BRANCH   7   8
ATOM      8  C   UNL A   1      32.509  25.536  24.184  1.00  0.00     0.120 A 
ATOM      9  C   UNL A   1      34.203  24.372  25.490  1.00  0.00    -0.021 A 
ATOM     10  C   UNL A   1      33.255  24.115  26.485  1.00  0.00     0.008 A 
ATOM     11  C   UNL A   1      33.816  25.061  24.329  1.00  0.00     0.054 A 
ATOM     12  C   UNL A   1      31.942  24.561  26.331  1.00  0.00     0.004 A 
ATOM     13  C   UNL A   1      31.575  25.271  25.187  1.00  0.00     0.046 A 
BRANCH   9  14
ATOM     14  C   UNL A   1      35.591  23.915  25.679  1.00  0.00     0.031 C 
ATOM     15  C   UNL A   1      36.043  22.659  25.484  1.00  0.00     0.095 C 
BRANCH  15  16
ATOM     16  C   UNL A   1      37.512  22.341  25.708  1.00  0.00     0.103 C 
ATOM     17  N   UNL A   1      38.731  22.078  25.894  1.00  0.00    -0.192 NA
ENDBRANCH  15  16
BRANCH  15  18
ATOM     18  C   UNL A   1      35.204  21.618  24.995  1.00  0.00     0.149 A 
ATOM     19  N   UNL A   1      34.033  21.670  24.391  1.00  0.00    -0.228 NA
ATOM     20  N   UNL A   1      35.604  20.308  25.153  1.00  0.00    -0.337 N 
ATOM     21  C   UNL A   1      33.652  20.367  24.192  1.00  0.00     0.089 A 
ATOM     22  C   UNL A   1      34.616  19.489  24.668  1.00  0.00     0.066 A 
ATOM     23  H   UNL A   1      36.455  20.011  25.549  1.00  0.00     0.168 HD
ATOM     24  C   UNL A   1      32.481  19.851  23.623  1.00  0.00     0.030 A 
ATOM     25  C   UNL A   1      34.473  18.100  24.635  1.00  0.00     0.028 A 
ATOM     26  C   UNL A   1      32.300  18.461  23.594  1.00  0.00     0.002 A 
ATOM     27  C   UNL A   1      33.281  17.603  24.096  1.00  0.00     0.002 A 
ENDBRANCH  15  18
ENDBRANCH   9  14
ENDBRANCH   7   8
ENDBRANCH   6   7
ENDBRANCH   3   6
ENDBRANCH   1   2
BRANCH   1  28
ATOM     28  C   UNL A   1      33.150  29.117  25.439  1.00  0.00     0.042 C 
BRANCH  28  29
ATOM     29  C   UNL A   1      33.656  29.014  26.877  1.00  0.00     0.118 C 
BRANCH  29  30
ATOM     30  N   UNL A   1      33.620  30.248  27.649  1.00  0.00    -0.352 N 
ATOM     31  C   UNL A   1      34.618  30.829  28.397  1.00  0.00     0.251 C 
ATOM     32  H   UNL A   1      32.762  30.733  27.634  1.00  0.00     0.163 HD
ATOM     33  O   UNL A   1      34.411  31.887  28.984  1.00  0.00    -0.269 OA
BRANCH  31  34
ATOM     34  C   UNL A   1      35.927  30.153  28.528  1.00  0.00     0.039 A 
ATOM     35  C   UNL A   1      36.794  30.159  27.431  1.00  0.00     0.014 A 
ATOM     36  C   UNL A   1      36.315  29.558  29.731  1.00  0.00     0.014 A 
ATOM     37  C   UNL A   1      38.094  29.667  27.575  1.00  0.00     0.010 A 
ATOM     38  C   UNL A   1      37.624  29.096  29.882  1.00  0.00     0.010 A 
ATOM     39  C   UNL A   1      38.535  29.186  28.819  1.00  0.00    -0.014 A 
BRANCH  39  40
ATOM     40  C   UNL A   1      39.973  28.899  29.059  1.00  0.00     0.031 A 
ATOM     41  C   UNL A   1      40.565  27.558  28.738  1.00  0.00     0.074 A 
ATOM     42  C   UNL A   1      40.731  29.848  29.646  1.00  0.00     0.049 A 
ATOM     43  N   UNL A   1      41.777  27.121  28.966  1.00  0.00    -0.248 NA
ATOM     44  C   UNL A   1      39.684  26.580  28.081  1.00  0.00     0.031 C 
ATOM     45  C   UNL A   1      40.269  31.186  30.025  1.00  0.00     0.029 A 
ATOM     46  N   UNL A   1      42.046  29.830  30.041  1.00  0.00    -0.354 N 
ATOM     47  C   UNL A   1      41.812  25.821  28.479  1.00  0.00     0.074 A 
ATOM     48  C   UNL A   1      40.486  25.528  27.973  1.00  0.00     0.031 C 
ATOM     49  C   UNL A   1      41.285  31.862  30.586  1.00  0.00     0.029 A 
ATOM     50  C   UNL A   1      42.456  30.994  30.647  1.00  0.00     0.049 A 
ATOM     51  H   UNL A   1      42.639  29.057  29.902  1.00  0.00     0.167 HD
ATOM     52  C   UNL A   1      42.855  24.956  28.446  1.00  0.00     0.031 A 
ATOM     53  C   UNL A   1      43.634  31.323  31.211  1.00  0.00     0.031 A 
ATOM     54  C   UNL A   1      44.168  25.242  28.964  1.00  0.00     0.049 A 
ATOM     55  C   UNL A   1      44.750  30.316  31.228  1.00  0.00     0.074 A 
ATOM     56  C   UNL A   1      45.292  24.433  28.951  1.00  0.00     0.029 A 
ATOM     57  N   UNL A   1      44.533  26.421  29.594  1.00  0.00    -0.354 N 
ATOM     58  N   UNL A   1      44.774  29.107  30.722  1.00  0.00    -0.248 NA
ATOM     59  C   UNL A   1      45.998  30.718  31.894  1.00  0.00     0.031 C 
ATOM     60  C   UNL A   1      46.325  25.106  29.612  1.00  0.00     0.029 A 
ATOM     61  C   UNL A   1      45.857  26.351  29.998  1.00  0.00     0.049 A 
ATOM     62  H   UNL A   1      43.940  27.194  29.736  1.00  0.00     0.167 HD
ATOM     63  C   UNL A   1      46.043  28.610  30.996  1.00  0.00     0.074 A 
ATOM     64  C   UNL A   1      46.763  29.653  31.695  1.00  0.00     0.031 C 
ATOM     65  C   UNL A   1      46.562  27.395  30.695  1.00  0.00     0.031 A 
BRANCH  52  66
ATOM     66  C   UNL A   1      42.622  23.607  27.823  1.00  0.00    -0.014 A 
ATOM     67  C   UNL A   1      43.077  23.332  26.521  1.00  0.00     0.010 A 
ATOM     68  C   UNL A   1      42.007  22.584  28.566  1.00  0.00     0.010 A 
ATOM     69  C   UNL A   1      42.898  22.063  25.964  1.00  0.00     0.020 A 
ATOM     70  C   UNL A   1      41.844  21.307  28.018  1.00  0.00     0.020 A 
ATOM     71  C   UNL A   1      42.279  21.059  26.714  1.00  0.00     0.054 A 
BRANCH  71  72
ATOM     72  S   UNL A   1      42.091  19.413  25.976  1.00  0.00     0.124 S 
ATOM     73  O   UNL A   1      42.920  19.525  24.778  1.00  0.00    -0.237 OA
ATOM     74  O   UNL A   1      42.610  18.531  27.019  1.00  0.00    -0.237 OA
ATOM     75  O   UNL A   1      40.655  19.305  25.731  1.00  0.00    -0.744 OA
ENDBRANCH  71  72
ENDBRANCH  52  66
BRANCH  53  76
ATOM     76  C   UNL A   1      43.818  32.661  31.833  1.00  0.00    -0.014 A 
ATOM     77  C   UNL A   1      43.545  32.854  33.198  1.00  0.00     0.010 A 
ATOM     78  C   UNL A   1      44.250  33.753  31.058  1.00  0.00     0.010 A 
ATOM     79  C   UNL A   1      43.675  34.122  33.772  1.00  0.00     0.020 A 
ATOM     80  C   UNL A   1      44.405  35.016  31.634  1.00  0.00     0.020 A 
ATOM     81  C   UNL A   1      44.099  35.196  32.985  1.00  0.00     0.054 A 
BRANCH  81  82
ATOM     82  S   UNL A   1      44.289  36.829  33.752  1.00  0.00     0.124 S 
ATOM     83  O   UNL A   1      43.072  37.508  33.322  1.00  0.00    -0.237 OA
ATOM     84  O   UNL A   1      44.367  36.506  35.176  1.00  0.00    -0.237 OA
ATOM     85  O   UNL A   1      45.531  37.335  33.170  1.00  0.00    -0.744 OA
ENDBRANCH  81  82
ENDBRANCH  53  76
BRANCH  65  86
ATOM     86  C   UNL A   1      47.984  27.131  31.106  1.00  0.00    -0.014 A 
ATOM     87  C   UNL A   1      48.275  26.475  32.315  1.00  0.00     0.010 A 
ATOM     88  C   UNL A   1      49.038  27.488  30.245  1.00  0.00     0.010 A 
ATOM     89  C   UNL A   1      49.600  26.195  32.664  1.00  0.00     0.020 A 
ATOM     90  C   UNL A   1      50.361  27.191  30.582  1.00  0.00     0.020 A 
ATOM     91  C   UNL A   1      50.634  26.554  31.795  1.00  0.00     0.054 A 
BRANCH  91  92
ATOM     92  S   UNL A   1      52.339  26.123  32.240  1.00  0.00     0.124 S 
ATOM     93  O   UNL A   1      52.782  27.323  32.945  1.00  0.00    -0.237 OA
ATOM     94  O   UNL A   1      52.164  24.935  33.072  1.00  0.00    -0.237 OA
ATOM     95  O   UNL A   1      52.984  25.883  30.952  1.00  0.00    -0.744 OA
ENDBRANCH  91  92
ENDBRANCH  65  86
ENDBRANCH  39  40
ENDBRANCH  31  34
ENDBRANCH  29  30
ENDBRANCH  28  29
ENDBRANCH   1  28
TORSDOF 18
ENDMDL
