MODEL 1
REMARK VINA RESULT:     -12.3      0.000      0.000
REMARK SMILES C[C@@H]1C[C@@H](C)CN(C(=O)CCn2cc(C(=O)NCCCNC(=O)c3ccc(-c4c5nc(c(-c6ccc(S(=O)(=O)[O-])cc6)c6ccc([nH]6)c(-c6ccc(S(=O)(=O)[O-])cc6)c6nc(c(-c7ccc(S(=O)(=O)[O-])cc7)c7ccc4[nH]7)C=C6)C=C5)cc3)cn2)C1
REMARK SMILES IDX 19 1 18 2 17 3 15 4 16 5 14 7 12 8 13 9 85 10 84 11 11 12
REMARK SMILES IDX 10 13 8 14 1 15 2 16 3 17 86 18 4 19 7 20 6 21 5 22 9 23
REMARK SMILES IDX 20 24 21 25 22 26 23 28 24 29 25 30 83 31 26 32 82 33 27 34
REMARK SMILES IDX 28 35 29 36 76 37 30 38 81 39 75 40 77 41 31 42 80 43 74 44
REMARK SMILES IDX 73 45 32 47 62 48 43 49 61 50 44 51 47 52 60 53 78 54 45 55
REMARK SMILES IDX 46 56 59 58 79 59 48 60 33 61 34 62 42 63 35 64 41 65 36 66
REMARK SMILES IDX 37 67 38 68 39 69 40 70 63 71 64 72 72 73 65 74 71 75 66 76
REMARK SMILES IDX 67 77 68 78 69 79 70 80 49 81 50 82 58 83 51 84 57 85 52 86
REMARK SMILES IDX 53 87 54 88 55 89 56 90
REMARK H PARENT 17 6 21 27 77 46 47 57
REMARK Flexibility Score: inf
ROOT
ATOM      1  C   UNL A   1      38.981  22.884  26.386  1.00  0.00     0.042 C 
ENDROOT
BRANCH   1   2
ATOM      2  C   UNL A   1      38.106  21.881  25.625  1.00  0.00     0.118 C 
BRANCH   2   3
ATOM      3  N   UNL A   1      37.565  22.465  24.411  1.00  0.00    -0.352 N 
ATOM      4  C   UNL A   1      36.276  22.548  23.937  1.00  0.00     0.254 C 
ATOM      5  O   UNL A   1      36.119  22.974  22.799  1.00  0.00    -0.269 OA
ATOM      6  H   UNL A   1      38.239  22.875  23.823  1.00  0.00     0.163 HD
BRANCH   4   7
ATOM      7  C   UNL A   1      35.140  22.259  24.798  1.00  0.00     0.077 A 
ATOM      8  N   UNL A   1      33.338  22.453  26.031  1.00  0.00    -0.271 N 
ATOM      9  C   UNL A   1      34.604  22.941  25.870  1.00  0.00     0.122 A 
ATOM     10  N   UNL A   1      33.138  21.295  25.390  1.00  0.00    -0.181 NA
ATOM     11  C   UNL A   1      34.241  21.169  24.643  1.00  0.00     0.149 A 
BRANCH   8  12
ATOM     12  C   UNL A   1      32.249  23.152  26.691  1.00  0.00     0.154 C 
BRANCH  12  13
ATOM     13  C   UNL A   1      30.972  23.176  25.849  1.00  0.00     0.124 C 
BRANCH  13  14
ATOM     14  C   UNL A   1      31.081  24.127  24.678  1.00  0.00     0.224 C 
ATOM     15  C   UNL A   1      33.445  26.699  23.692  1.00  0.00     0.009 C 
ATOM     16  C   UNL A   1      32.066  27.371  23.777  1.00  0.00     0.006 C 
ATOM     17  C   UNL A   1      31.899  28.184  25.067  1.00  0.00     0.010 C 
ATOM     18  C   UNL A   1      30.928  26.350  23.670  1.00  0.00     0.122 C 
ATOM     19  C   UNL A   1      31.786  27.286  26.308  1.00  0.00     0.006 C 
ATOM     20  N   UNL A   1      30.881  25.486  24.852  1.00  0.00    -0.342 N 
ATOM     21  C   UNL A   1      30.694  26.215  26.114  1.00  0.00     0.122 C 
ATOM     22  C   UNL A   1      31.552  28.147  27.552  1.00  0.00     0.009 C 
ATOM     23  O   UNL A   1      31.327  23.638  23.570  1.00  0.00    -0.275 OA
ENDBRANCH  13  14
ENDBRANCH  12  13
ENDBRANCH   8  12
ENDBRANCH   4   7
ENDBRANCH   2   3
ENDBRANCH   1   2
BRANCH   1  24
ATOM     24  C   UNL A   1      40.075  22.184  27.170  1.00  0.00     0.118 C 
BRANCH  24  25
ATOM     25  N   UNL A   1      41.308  22.046  26.389  1.00  0.00    -0.352 N 
ATOM     26  C   UNL A   1      42.088  23.041  25.822  1.00  0.00     0.251 C 
ATOM     27  H   UNL A   1      41.624  21.124  26.250  1.00  0.00     0.163 HD
ATOM     28  O   UNL A   1      42.847  22.784  24.904  1.00  0.00    -0.269 OA
BRANCH  26  29
ATOM     29  C   UNL A   1      41.980  24.409  26.363  1.00  0.00     0.039 A 
ATOM     30  C   UNL A   1      41.302  25.433  25.696  1.00  0.00     0.014 A 
ATOM     31  C   UNL A   1      42.570  24.641  27.598  1.00  0.00     0.014 A 
ATOM     32  C   UNL A   1      41.192  26.674  26.322  1.00  0.00     0.010 A 
ATOM     33  C   UNL A   1      42.228  25.747  28.312  1.00  0.00     0.010 A 
ATOM     34  C   UNL A   1      41.662  26.813  27.635  1.00  0.00    -0.014 A 
BRANCH  34  35
ATOM     35  C   UNL A   1      41.576  28.057  28.381  1.00  0.00     0.031 A 
ATOM     36  C   UNL A   1      42.683  29.007  28.122  1.00  0.00     0.074 A 
ATOM     37  C   UNL A   1      40.438  28.425  29.011  1.00  0.00     0.049 A 
ATOM     38  N   UNL A   1      43.663  29.309  28.904  1.00  0.00    -0.248 NA
ATOM     39  C   UNL A   1      42.810  29.559  26.762  1.00  0.00     0.031 C 
ATOM     40  C   UNL A   1      39.127  27.755  29.009  1.00  0.00     0.029 A 
ATOM     41  N   UNL A   1      40.172  29.574  29.679  1.00  0.00    -0.354 N 
ATOM     42  C   UNL A   1      44.400  30.274  28.226  1.00  0.00     0.074 A 
ATOM     43  C   UNL A   1      43.973  30.205  26.851  1.00  0.00     0.031 C 
ATOM     44  C   UNL A   1      38.173  28.623  29.415  1.00  0.00     0.029 A 
ATOM     45  C   UNL A   1      38.822  29.831  29.882  1.00  0.00     0.049 A 
ATOM     46  H   UNL A   1      40.882  30.180  29.995  1.00  0.00     0.167 HD
ATOM     47  C   UNL A   1      45.101  31.235  28.894  1.00  0.00     0.031 A 
ATOM     48  C   UNL A   1      38.281  30.977  30.365  1.00  0.00     0.031 A 
ATOM     49  C   UNL A   1      45.150  30.954  30.308  1.00  0.00     0.049 A 
ATOM     50  C   UNL A   1      39.379  31.707  31.053  1.00  0.00     0.074 A 
ATOM     51  C   UNL A   1      45.641  29.921  31.079  1.00  0.00     0.029 A 
ATOM     52  N   UNL A   1      44.246  31.629  31.099  1.00  0.00    -0.354 N 
ATOM     53  N   UNL A   1      39.990  31.252  32.114  1.00  0.00    -0.248 NA
ATOM     54  C   UNL A   1      40.123  32.693  30.284  1.00  0.00     0.031 C 
ATOM     55  C   UNL A   1      44.670  29.742  32.107  1.00  0.00     0.029 A 
ATOM     56  C   UNL A   1      43.685  30.722  31.961  1.00  0.00     0.049 A 
ATOM     57  H   UNL A   1      44.039  32.590  31.053  1.00  0.00     0.167 HD
ATOM     58  C   UNL A   1      41.331  31.561  31.918  1.00  0.00     0.074 A 
ATOM     59  C   UNL A   1      41.336  32.529  30.821  1.00  0.00     0.031 C 
ATOM     60  C   UNL A   1      42.326  30.797  32.462  1.00  0.00     0.031 A 
BRANCH  47  61
ATOM     61  C   UNL A   1      45.374  32.621  28.362  1.00  0.00    -0.014 A 
ATOM     62  C   UNL A   1      46.638  33.197  28.613  1.00  0.00     0.010 A 
ATOM     63  C   UNL A   1      44.370  33.480  27.870  1.00  0.00     0.010 A 
ATOM     64  C   UNL A   1      46.853  34.574  28.471  1.00  0.00     0.020 A 
ATOM     65  C   UNL A   1      44.587  34.846  27.682  1.00  0.00     0.020 A 
ATOM     66  C   UNL A   1      45.816  35.391  28.024  1.00  0.00     0.054 A 
BRANCH  66  67
ATOM     67  S   UNL A   1      46.062  37.182  27.968  1.00  0.00     0.124 S 
ATOM     68  O   UNL A   1      44.702  37.676  28.157  1.00  0.00    -0.237 OA
ATOM     69  O   UNL A   1      46.980  37.403  29.081  1.00  0.00    -0.237 OA
ATOM     70  O   UNL A   1      46.632  37.406  26.641  1.00  0.00    -0.744 OA
ENDBRANCH  66  67
ENDBRANCH  47  61
BRANCH  48  71
ATOM     71  C   UNL A   1      36.990  31.606  29.983  1.00  0.00    -0.014 A 
ATOM     72  C   UNL A   1      36.021  31.943  30.945  1.00  0.00     0.010 A 
ATOM     73  C   UNL A   1      36.820  32.120  28.679  1.00  0.00     0.010 A 
ATOM     74  C   UNL A   1      34.946  32.795  30.626  1.00  0.00     0.020 A 
ATOM     75  C   UNL A   1      35.752  32.966  28.353  1.00  0.00     0.020 A 
ATOM     76  C   UNL A   1      34.828  33.316  29.334  1.00  0.00     0.054 A 
BRANCH  76  77
ATOM     77  S   UNL A   1      33.525  34.533  28.971  1.00  0.00     0.124 S 
ATOM     78  O   UNL A   1      34.283  35.635  28.385  1.00  0.00    -0.237 OA
ATOM     79  O   UNL A   1      32.656  33.805  28.051  1.00  0.00    -0.237 OA
ATOM     80  O   UNL A   1      32.938  34.813  30.280  1.00  0.00    -0.744 OA
ENDBRANCH  76  77
ENDBRANCH  48  71
BRANCH  60  81
ATOM     81  C   UNL A   1      41.971  29.776  33.519  1.00  0.00    -0.014 A 
ATOM     82  C   UNL A   1      41.512  28.475  33.232  1.00  0.00     0.010 A 
ATOM     83  C   UNL A   1      42.331  30.084  34.843  1.00  0.00     0.010 A 
ATOM     84  C   UNL A   1      41.426  27.508  34.248  1.00  0.00     0.020 A 
ATOM     85  C   UNL A   1      42.265  29.123  35.852  1.00  0.00     0.020 A 
ATOM     86  C   UNL A   1      41.813  27.837  35.552  1.00  0.00     0.054 A 
BRANCH  86  87
ATOM     87  S   UNL A   1      41.800  26.562  36.845  1.00  0.00     0.124 S 
ATOM     88  O   UNL A   1      42.962  26.919  37.655  1.00  0.00    -0.237 OA
ATOM     89  O   UNL A   1      40.502  26.761  37.487  1.00  0.00    -0.237 OA
ATOM     90  O   UNL A   1      41.925  25.309  36.102  1.00  0.00    -0.744 OA
ENDBRANCH  86  87
ENDBRANCH  60  81
ENDBRANCH  34  35
ENDBRANCH  26  29
ENDBRANCH  24  25
ENDBRANCH   1  24
TORSDOF 16
ENDMDL
MODEL 2
REMARK VINA RESULT:     -12.3      1.120      1.896
REMARK SMILES C[C@@H]1C[C@@H](C)CN(C(=O)CCn2cc(C(=O)NCCCNC(=O)c3ccc(-c4c5nc(c(-c6ccc(S(=O)(=O)[O-])cc6)c6ccc([nH]6)c(-c6ccc(S(=O)(=O)[O-])cc6)c6nc(c(-c7ccc(S(=O)(=O)[O-])cc7)c7ccc4[nH]7)C=C6)C=C5)cc3)cn2)C1
REMARK SMILES IDX 19 1 18 2 17 3 15 4 16 5 14 7 12 8 13 9 85 10 84 11 11 12
REMARK SMILES IDX 10 13 8 14 1 15 2 16 3 17 86 18 4 19 7 20 6 21 5 22 9 23
REMARK SMILES IDX 20 24 21 25 22 26 23 28 24 29 25 30 83 31 26 32 82 33 27 34
REMARK SMILES IDX 28 35 29 36 76 37 30 38 81 39 75 40 77 41 31 42 80 43 74 44
REMARK SMILES IDX 73 45 32 47 62 48 43 49 61 50 44 51 47 52 60 53 78 54 45 55
REMARK SMILES IDX 46 56 59 58 79 59 48 60 33 61 34 62 42 63 35 64 41 65 36 66
REMARK SMILES IDX 37 67 38 68 39 69 40 70 63 71 64 72 72 73 65 74 71 75 66 76
REMARK SMILES IDX 67 77 68 78 69 79 70 80 49 81 50 82 58 83 51 84 57 85 52 86
REMARK SMILES IDX 53 87 54 88 55 89 56 90
REMARK H PARENT 17 6 21 27 77 46 47 57
REMARK Flexibility Score: inf
ROOT
ATOM      1  C   UNL A   1      38.839  21.450  25.678  1.00  0.00     0.042 C 
ENDROOT
BRANCH   1   2
ATOM      2  C   UNL A   1      38.020  22.743  25.772  1.00  0.00     0.118 C 
BRANCH   2   3
ATOM      3  N   UNL A   1      37.418  23.081  24.496  1.00  0.00    -0.352 N 
ATOM      4  C   UNL A   1      36.171  22.813  23.979  1.00  0.00     0.254 C 
ATOM      5  O   UNL A   1      35.975  23.097  22.803  1.00  0.00    -0.269 OA
ATOM      6  H   UNL A   1      38.003  23.593  23.894  1.00  0.00     0.163 HD
BRANCH   4   7
ATOM      7  C   UNL A   1      35.094  22.329  24.828  1.00  0.00     0.077 A 
ATOM      8  N   UNL A   1      33.250  22.189  26.005  1.00  0.00    -0.271 N 
ATOM      9  C   UNL A   1      34.386  22.931  25.846  1.00  0.00     0.122 A 
ATOM     10  N   UNL A   1      33.328  20.984  25.427  1.00  0.00    -0.181 NA
ATOM     11  C   UNL A   1      34.458  21.063  24.714  1.00  0.00     0.149 A 
BRANCH   8  12
ATOM     12  C   UNL A   1      32.014  22.668  26.598  1.00  0.00     0.154 C 
BRANCH  12  13
ATOM     13  C   UNL A   1      30.997  23.121  25.548  1.00  0.00     0.124 C 
BRANCH  13  14
ATOM     14  C   UNL A   1      30.661  24.590  25.680  1.00  0.00     0.224 C 
ATOM     15  C   UNL A   1      28.852  26.987  23.643  1.00  0.00     0.009 C 
ATOM     16  C   UNL A   1      30.264  27.556  23.849  1.00  0.00     0.006 C 
ATOM     17  C   UNL A   1      31.153  27.356  22.615  1.00  0.00     0.010 C 
ATOM     18  C   UNL A   1      30.950  26.942  25.075  1.00  0.00     0.122 C 
ATOM     19  C   UNL A   1      31.533  25.882  22.409  1.00  0.00     0.006 C 
ATOM     20  N   UNL A   1      31.258  25.527  24.853  1.00  0.00    -0.342 N 
ATOM     21  C   UNL A   1      32.132  25.282  23.697  1.00  0.00     0.122 C 
ATOM     22  C   UNL A   1      32.474  25.752  21.207  1.00  0.00     0.009 C 
ATOM     23  O   UNL A   1      29.863  24.913  26.565  1.00  0.00    -0.275 OA
ENDBRANCH  13  14
ENDBRANCH  12  13
ENDBRANCH   8  12
ENDBRANCH   4   7
ENDBRANCH   2   3
ENDBRANCH   1   2
BRANCH   1  24
ATOM     24  C   UNL A   1      40.043  21.488  26.600  1.00  0.00     0.118 C 
BRANCH  24  25
ATOM     25  N   UNL A   1      41.305  21.519  25.856  1.00  0.00    -0.352 N 
ATOM     26  C   UNL A   1      42.158  22.591  25.643  1.00  0.00     0.251 C 
ATOM     27  H   UNL A   1      41.584  20.665  25.453  1.00  0.00     0.163 HD
ATOM     28  O   UNL A   1      42.948  22.579  24.716  1.00  0.00    -0.269 OA
BRANCH  26  29
ATOM     29  C   UNL A   1      42.088  23.736  26.572  1.00  0.00     0.039 A 
ATOM     30  C   UNL A   1      42.697  23.726  27.829  1.00  0.00     0.014 A 
ATOM     31  C   UNL A   1      41.398  24.856  26.131  1.00  0.00     0.014 A 
ATOM     32  C   UNL A   1      42.636  24.882  28.605  1.00  0.00     0.010 A 
ATOM     33  C   UNL A   1      41.576  26.049  26.761  1.00  0.00     0.010 A 
ATOM     34  C   UNL A   1      42.070  26.038  28.053  1.00  0.00    -0.014 A 
BRANCH  34  35
ATOM     35  C   UNL A   1      41.978  27.297  28.772  1.00  0.00     0.031 A 
ATOM     36  C   UNL A   1      43.116  28.219  28.545  1.00  0.00     0.074 A 
ATOM     37  C   UNL A   1      40.822  27.702  29.344  1.00  0.00     0.049 A 
ATOM     38  N   UNL A   1      44.067  28.514  29.364  1.00  0.00    -0.248 NA
ATOM     39  C   UNL A   1      43.315  28.741  27.182  1.00  0.00     0.031 C 
ATOM     40  C   UNL A   1      39.498  27.061  29.296  1.00  0.00     0.029 A 
ATOM     41  N   UNL A   1      40.553  28.869  29.979  1.00  0.00    -0.354 N 
ATOM     42  C   UNL A   1      44.855  29.450  28.702  1.00  0.00     0.074 A 
ATOM     43  C   UNL A   1      44.488  29.365  27.311  1.00  0.00     0.031 C 
ATOM     44  C   UNL A   1      38.546  27.956  29.643  1.00  0.00     0.029 A 
ATOM     45  C   UNL A   1      39.201  29.159  30.117  1.00  0.00     0.049 A 
ATOM     46  H   UNL A   1      41.261  29.466  30.315  1.00  0.00     0.167 HD
ATOM     47  C   UNL A   1      45.547  30.408  29.383  1.00  0.00     0.031 A 
ATOM     48  C   UNL A   1      38.665  30.325  30.555  1.00  0.00     0.031 A 
ATOM     49  C   UNL A   1      45.528  30.154  30.802  1.00  0.00     0.049 A 
ATOM     50  C   UNL A   1      39.747  31.044  31.277  1.00  0.00     0.074 A 
ATOM     51  C   UNL A   1      45.962  29.126  31.613  1.00  0.00     0.029 A 
ATOM     52  N   UNL A   1      44.605  30.863  31.540  1.00  0.00    -0.354 N 
ATOM     53  N   UNL A   1      40.302  30.596  32.372  1.00  0.00    -0.248 NA
ATOM     54  C   UNL A   1      40.547  31.999  30.525  1.00  0.00     0.031 C 
ATOM     55  C   UNL A   1      44.943  28.986  32.601  1.00  0.00     0.029 A 
ATOM     56  C   UNL A   1      43.987  29.985  32.393  1.00  0.00     0.049 A 
ATOM     57  H   UNL A   1      44.421  31.827  31.468  1.00  0.00     0.167 HD
ATOM     58  C   UNL A   1      41.656  30.873  32.231  1.00  0.00     0.074 A 
ATOM     59  C   UNL A   1      41.731  31.819  31.117  1.00  0.00     0.031 C 
ATOM     60  C   UNL A   1      42.609  30.098  32.832  1.00  0.00     0.031 A 
BRANCH  47  61
ATOM     61  C   UNL A   1      45.874  31.779  28.839  1.00  0.00    -0.014 A 
ATOM     62  C   UNL A   1      44.807  32.645  28.522  1.00  0.00     0.010 A 
ATOM     63  C   UNL A   1      47.153  32.149  28.376  1.00  0.00     0.010 A 
ATOM     64  C   UNL A   1      44.995  33.767  27.705  1.00  0.00     0.020 A 
ATOM     65  C   UNL A   1      47.360  33.289  27.598  1.00  0.00     0.020 A 
ATOM     66  C   UNL A   1      46.272  34.068  27.232  1.00  0.00     0.054 A 
BRANCH  66  67
ATOM     67  S   UNL A   1      46.486  35.440  26.074  1.00  0.00     0.124 S 
ATOM     68  O   UNL A   1      47.880  35.809  26.303  1.00  0.00    -0.237 OA
ATOM     69  O   UNL A   1      46.198  34.808  24.790  1.00  0.00    -0.237 OA
ATOM     70  O   UNL A   1      45.497  36.420  26.519  1.00  0.00    -0.744 OA
ENDBRANCH  66  67
ENDBRANCH  47  61
BRANCH  48  71
ATOM     71  C   UNL A   1      37.407  30.974  30.105  1.00  0.00    -0.014 A 
ATOM     72  C   UNL A   1      36.437  31.417  31.022  1.00  0.00     0.010 A 
ATOM     73  C   UNL A   1      37.277  31.398  28.764  1.00  0.00     0.010 A 
ATOM     74  C   UNL A   1      35.402  32.285  30.622  1.00  0.00     0.020 A 
ATOM     75  C   UNL A   1      36.249  32.259  28.358  1.00  0.00     0.020 A 
ATOM     76  C   UNL A   1      35.324  32.714  29.295  1.00  0.00     0.054 A 
BRANCH  76  77
ATOM     77  S   UNL A   1      34.077  33.951  28.821  1.00  0.00     0.124 S 
ATOM     78  O   UNL A   1      33.468  34.287  30.105  1.00  0.00    -0.237 OA
ATOM     79  O   UNL A   1      34.886  35.003  28.212  1.00  0.00    -0.237 OA
ATOM     80  O   UNL A   1      33.208  33.228  27.894  1.00  0.00    -0.744 OA
ENDBRANCH  76  77
ENDBRANCH  48  71
BRANCH  60  81
ATOM     81  C   UNL A   1      42.185  29.106  33.890  1.00  0.00    -0.014 A 
ATOM     82  C   UNL A   1      41.684  27.819  33.606  1.00  0.00     0.010 A 
ATOM     83  C   UNL A   1      42.520  29.417  35.221  1.00  0.00     0.010 A 
ATOM     84  C   UNL A   1      41.534  26.870  34.631  1.00  0.00     0.020 A 
ATOM     85  C   UNL A   1      42.388  28.472  36.239  1.00  0.00     0.020 A 
ATOM     86  C   UNL A   1      41.896  27.201  35.941  1.00  0.00     0.054 A 
BRANCH  86  87
ATOM     87  S   UNL A   1      41.797  25.944  37.249  1.00  0.00     0.124 S 
ATOM     88  O   UNL A   1      40.418  26.074  37.710  1.00  0.00    -0.237 OA
ATOM     89  O   UNL A   1      42.108  24.707  36.536  1.00  0.00    -0.237 OA
ATOM     90  O   UNL A   1      42.813  26.363  38.213  1.00  0.00    -0.744 OA
ENDBRANCH  86  87
ENDBRANCH  60  81
ENDBRANCH  34  35
ENDBRANCH  26  29
ENDBRANCH  24  25
ENDBRANCH   1  24
TORSDOF 16
ENDMDL
MODEL 3
REMARK VINA RESULT:     -11.8      3.754      7.025
REMARK SMILES C[C@@H]1C[C@@H](C)CN(C(=O)CCn2cc(C(=O)NCCCNC(=O)c3ccc(-c4c5nc(c(-c6ccc(S(=O)(=O)[O-])cc6)c6ccc([nH]6)c(-c6ccc(S(=O)(=O)[O-])cc6)c6nc(c(-c7ccc(S(=O)(=O)[O-])cc7)c7ccc4[nH]7)C=C6)C=C5)cc3)cn2)C1
REMARK SMILES IDX 19 1 18 2 17 3 15 4 16 5 14 7 12 8 13 9 85 10 84 11 11 12
REMARK SMILES IDX 10 13 8 14 1 15 2 16 3 17 86 18 4 19 7 20 6 21 5 22 9 23
REMARK SMILES IDX 20 24 21 25 22 26 23 28 24 29 25 30 83 31 26 32 82 33 27 34
REMARK SMILES IDX 28 35 29 36 76 37 30 38 81 39 75 40 77 41 31 42 80 43 74 44
REMARK SMILES IDX 73 45 32 47 62 48 43 49 61 50 44 51 47 52 60 53 78 54 45 55
REMARK SMILES IDX 46 56 59 58 79 59 48 60 33 61 34 62 42 63 35 64 41 65 36 66
REMARK SMILES IDX 37 67 38 68 39 69 40 70 63 71 64 72 72 73 65 74 71 75 66 76
REMARK SMILES IDX 67 77 68 78 69 79 70 80 49 81 50 82 58 83 51 84 57 85 52 86
REMARK SMILES IDX 53 87 54 88 55 89 56 90
REMARK H PARENT 17 6 21 27 77 46 47 57
REMARK Flexibility Score: inf
ROOT
ATOM      1  C   UNL A   1      41.956  19.518  27.180  1.00  0.00     0.042 C 
ENDROOT
BRANCH   1   2
ATOM      2  C   UNL A   1      42.237  19.541  25.673  1.00  0.00     0.118 C 
BRANCH   2   3
ATOM      3  N   UNL A   1      43.459  18.827  25.352  1.00  0.00    -0.352 N 
ATOM      4  C   UNL A   1      44.673  19.269  24.877  1.00  0.00     0.254 C 
ATOM      5  O   UNL A   1      45.495  18.419  24.554  1.00  0.00    -0.269 OA
ATOM      6  H   UNL A   1      43.412  17.855  25.499  1.00  0.00     0.163 HD
BRANCH   4   7
ATOM      7  C   UNL A   1      45.011  20.683  24.879  1.00  0.00     0.077 A 
ATOM      8  N   UNL A   1      44.886  22.871  24.930  1.00  0.00    -0.271 N 
ATOM      9  C   UNL A   1      44.419  21.769  24.271  1.00  0.00     0.122 A 
ATOM     10  N   UNL A   1      45.973  22.617  25.667  1.00  0.00    -0.181 NA
ATOM     11  C   UNL A   1      46.058  21.282  25.631  1.00  0.00     0.149 A 
BRANCH   8  12
ATOM     12  C   UNL A   1      44.223  24.162  24.975  1.00  0.00     0.154 C 
BRANCH  12  13
ATOM     13  C   UNL A   1      44.652  25.000  26.182  1.00  0.00     0.124 C 
BRANCH  13  14
ATOM     14  C   UNL A   1      45.385  26.256  25.770  1.00  0.00     0.224 C 
ATOM     15  C   UNL A   1      48.468  26.939  23.979  1.00  0.00     0.009 C 
ATOM     16  C   UNL A   1      48.585  27.629  25.347  1.00  0.00     0.006 C 
ATOM     17  C   UNL A   1      49.465  26.835  26.320  1.00  0.00     0.010 C 
ATOM     18  C   UNL A   1      47.211  27.869  25.983  1.00  0.00     0.122 C 
ATOM     19  C   UNL A   1      48.789  25.535  26.783  1.00  0.00     0.006 C 
ATOM     20  N   UNL A   1      46.583  26.604  26.371  1.00  0.00    -0.342 N 
ATOM     21  C   UNL A   1      47.373  25.815  27.327  1.00  0.00     0.122 C 
ATOM     22  C   UNL A   1      49.681  24.821  27.803  1.00  0.00     0.009 C 
ATOM     23  O   UNL A   1      44.860  26.962  24.902  1.00  0.00    -0.275 OA
ENDBRANCH  13  14
ENDBRANCH  12  13
ENDBRANCH   8  12
ENDBRANCH   4   7
ENDBRANCH   2   3
ENDBRANCH   1   2
BRANCH   1  24
ATOM     24  C   UNL A   1      41.071  20.677  27.597  1.00  0.00     0.118 C 
BRANCH  24  25
ATOM     25  N   UNL A   1      40.197  21.122  26.507  1.00  0.00    -0.352 N 
ATOM     26  C   UNL A   1      39.505  22.317  26.386  1.00  0.00     0.251 C 
ATOM     27  H   UNL A   1      40.088  20.487  25.762  1.00  0.00     0.163 HD
ATOM     28  O   UNL A   1      38.543  22.401  25.644  1.00  0.00    -0.269 OA
BRANCH  26  29
ATOM     29  C   UNL A   1      39.970  23.477  27.170  1.00  0.00     0.039 A 
ATOM     30  C   UNL A   1      41.296  23.625  27.584  1.00  0.00     0.014 A 
ATOM     31  C   UNL A   1      39.025  24.449  27.467  1.00  0.00     0.014 A 
ATOM     32  C   UNL A   1      41.654  24.791  28.259  1.00  0.00     0.010 A 
ATOM     33  C   UNL A   1      39.431  25.683  27.871  1.00  0.00     0.010 A 
ATOM     34  C   UNL A   1      40.705  25.814  28.393  1.00  0.00    -0.014 A 
BRANCH  34  35
ATOM     35  C   UNL A   1      40.986  27.074  29.059  1.00  0.00     0.031 A 
ATOM     36  C   UNL A   1      42.030  27.896  28.404  1.00  0.00     0.074 A 
ATOM     37  C   UNL A   1      40.159  27.573  30.005  1.00  0.00     0.049 A 
ATOM     38  N   UNL A   1      43.237  28.107  28.807  1.00  0.00    -0.248 NA
ATOM     39  C   UNL A   1      41.754  28.404  27.050  1.00  0.00     0.031 C 
ATOM     40  C   UNL A   1      38.864  27.046  30.465  1.00  0.00     0.029 A 
ATOM     41  N   UNL A   1      40.237  28.756  30.661  1.00  0.00    -0.354 N 
ATOM     42  C   UNL A   1      43.797  28.975  27.876  1.00  0.00     0.074 A 
ATOM     43  C   UNL A   1      42.937  28.925  26.721  1.00  0.00     0.031 C 
ATOM     44  C   UNL A   1      38.182  28.018  31.113  1.00  0.00     0.029 A 
ATOM     45  C   UNL A   1      39.059  29.159  31.279  1.00  0.00     0.049 A 
ATOM     46  H   UNL A   1      41.065  29.289  30.697  1.00  0.00     0.167 HD
ATOM     47  C   UNL A   1      44.766  29.869  28.228  1.00  0.00     0.031 A 
ATOM     48  C   UNL A   1      38.818  30.365  31.850  1.00  0.00     0.031 A 
ATOM     49  C   UNL A   1      45.251  29.612  29.561  1.00  0.00     0.049 A 
ATOM     50  C   UNL A   1      40.144  30.988  32.103  1.00  0.00     0.074 A 
ATOM     51  C   UNL A   1      45.869  28.548  30.185  1.00  0.00     0.029 A 
ATOM     52  N   UNL A   1      44.725  30.394  30.567  1.00  0.00    -0.354 N 
ATOM     53  N   UNL A   1      41.025  30.490  32.930  1.00  0.00    -0.248 NA
ATOM     54  C   UNL A   1      40.683  31.874  31.083  1.00  0.00     0.031 C 
ATOM     55  C   UNL A   1      45.279  28.492  31.481  1.00  0.00     0.029 A 
ATOM     56  C   UNL A   1      44.397  29.569  31.611  1.00  0.00     0.049 A 
ATOM     57  H   UNL A   1      44.605  31.371  30.540  1.00  0.00     0.167 HD
ATOM     58  C   UNL A   1      42.249  30.652  32.292  1.00  0.00     0.074 A 
ATOM     59  C   UNL A   1      41.984  31.592  31.203  1.00  0.00     0.031 C 
ATOM     60  C   UNL A   1      43.291  29.797  32.522  1.00  0.00     0.031 A 
BRANCH  47  61
ATOM     61  C   UNL A   1      44.978  31.208  27.563  1.00  0.00    -0.014 A 
ATOM     62  C   UNL A   1      46.238  31.478  26.990  1.00  0.00     0.010 A 
ATOM     63  C   UNL A   1      44.099  32.301  27.712  1.00  0.00     0.010 A 
ATOM     64  C   UNL A   1      46.631  32.785  26.674  1.00  0.00     0.020 A 
ATOM     65  C   UNL A   1      44.463  33.601  27.358  1.00  0.00     0.020 A 
ATOM     66  C   UNL A   1      45.743  33.840  26.881  1.00  0.00     0.054 A 
BRANCH  66  67
ATOM     67  S   UNL A   1      46.302  35.536  26.593  1.00  0.00     0.124 S 
ATOM     68  O   UNL A   1      46.992  35.410  25.314  1.00  0.00    -0.237 OA
ATOM     69  O   UNL A   1      45.044  36.276  26.568  1.00  0.00    -0.237 OA
ATOM     70  O   UNL A   1      47.160  35.812  27.744  1.00  0.00    -0.744 OA
ENDBRANCH  66  67
ENDBRANCH  47  61
BRANCH  48  71
ATOM     71  C   UNL A   1      37.538  31.120  31.876  1.00  0.00    -0.014 A 
ATOM     72  C   UNL A   1      36.895  31.439  33.085  1.00  0.00     0.010 A 
ATOM     73  C   UNL A   1      37.079  31.761  30.705  1.00  0.00     0.010 A 
ATOM     74  C   UNL A   1      35.860  32.393  33.128  1.00  0.00     0.020 A 
ATOM     75  C   UNL A   1      36.049  32.711  30.739  1.00  0.00     0.020 A 
ATOM     76  C   UNL A   1      35.455  33.037  31.955  1.00  0.00     0.054 A 
BRANCH  76  77
ATOM     77  S   UNL A   1      34.225  34.374  32.042  1.00  0.00     0.124 S 
ATOM     78  O   UNL A   1      33.247  33.838  32.984  1.00  0.00    -0.237 OA
ATOM     79  O   UNL A   1      35.015  35.503  32.527  1.00  0.00    -0.237 OA
ATOM     80  O   UNL A   1      33.753  34.500  30.665  1.00  0.00    -0.744 OA
ENDBRANCH  76  77
ENDBRANCH  48  71
BRANCH  60  81
ATOM     81  C   UNL A   1      43.210  28.841  33.690  1.00  0.00    -0.014 A 
ATOM     82  C   UNL A   1      43.564  29.181  35.011  1.00  0.00     0.010 A 
ATOM     83  C   UNL A   1      42.538  27.625  33.468  1.00  0.00     0.010 A 
ATOM     84  C   UNL A   1      43.243  28.327  36.079  1.00  0.00     0.020 A 
ATOM     85  C   UNL A   1      42.202  26.781  34.527  1.00  0.00     0.020 A 
ATOM     86  C   UNL A   1      42.555  27.134  35.830  1.00  0.00     0.054 A 
BRANCH  86  87
ATOM     87  S   UNL A   1      42.051  26.077  37.218  1.00  0.00     0.124 S 
ATOM     88  O   UNL A   1      43.001  26.449  38.262  1.00  0.00    -0.237 OA
ATOM     89  O   UNL A   1      40.667  26.485  37.453  1.00  0.00    -0.237 OA
ATOM     90  O   UNL A   1      42.204  24.720  36.696  1.00  0.00    -0.744 OA
ENDBRANCH  86  87
ENDBRANCH  60  81
ENDBRANCH  34  35
ENDBRANCH  26  29
ENDBRANCH  24  25
ENDBRANCH   1  24
TORSDOF 16
ENDMDL
