MODEL 1
REMARK VINA RESULT:     -12.4      0.000      0.000
REMARK SMILES COc1cc(CC(=O)N[C@@H](CC(=O)NCCCNC(=O)c2ccc(-c3c4nc(c(-c5ccc(S(=O)(=O)[O-])cc5)c5ccc([nH]5)c(-c5ccc(S(=O)(=O)[O-])cc5)c5nc(c(-c6ccc(S(=O)(=O)[O-])cc6)c6ccc3[nH]6)C=C5)C=C4)cc2)c2cccs2)ccc1C
REMARK SMILES IDX 15 1 14 2 12 3 13 4 11 6 10 7 9 8 7 9 8 10 6 12 5 13 3 14
REMARK SMILES IDX 4 15 88 16 87 17 89 18 86 19 2 20 1 21 81 22 82 23 85 24
REMARK SMILES IDX 83 25 84 26 16 27 17 28 18 29 19 30 20 32 21 33 22 34 80 35
REMARK SMILES IDX 23 36 79 37 24 38 25 39 26 40 73 41 27 42 78 43 72 44 74 45
REMARK SMILES IDX 28 46 77 47 71 48 70 49 29 51 59 52 40 53 58 54 41 55 44 56
REMARK SMILES IDX 57 57 75 58 42 59 43 60 56 62 76 63 45 64 30 65 31 66 39 67
REMARK SMILES IDX 32 68 38 69 33 70 34 71 35 72 36 73 37 74 60 75 61 76 69 77
REMARK SMILES IDX 62 78 68 79 63 80 64 81 65 82 66 83 67 84 46 85 47 86 55 87
REMARK SMILES IDX 48 88 54 89 49 90 50 91 51 92 52 93 53 94
REMARK H PARENT 14 5 9 11 18 31 74 50 44 61
REMARK Flexibility Score: inf
ROOT
ATOM      1  C   UNL A   1      33.501  28.330  27.131  1.00  0.00     0.117 C 
ENDROOT
BRANCH   1   2
ATOM      2  N   UNL A   1      32.921  28.793  25.878  1.00  0.00    -0.356 N 
ATOM      3  C   UNL A   1      31.768  28.418  25.257  1.00  0.00     0.222 C 
ATOM      4  O   UNL A   1      31.482  28.952  24.182  1.00  0.00    -0.275 OA
ATOM      5  H   UNL A   1      33.441  29.483  25.407  1.00  0.00     0.163 HD
BRANCH   3   6
ATOM      6  C   UNL A   1      30.828  27.409  25.891  1.00  0.00     0.130 C 
BRANCH   6   7
ATOM      7  C   UNL A   1      31.003  25.941  25.473  1.00  0.00     0.131 C 
BRANCH   7   8
ATOM      8  N   UNL A   1      31.334  25.047  26.579  1.00  0.00    -0.348 N 
ATOM      9  C   UNL A   1      31.474  23.703  26.682  1.00  0.00     0.224 C 
ATOM     10  O   UNL A   1      31.729  23.255  27.803  1.00  0.00    -0.275 OA
ATOM     11  H   UNL A   1      31.487  25.520  27.428  1.00  0.00     0.164 HD
BRANCH   9  12
ATOM     12  C   UNL A   1      31.489  22.777  25.490  1.00  0.00     0.135 C 
BRANCH  12  13
ATOM     13  C   UNL A   1      32.689  21.890  25.305  1.00  0.00    -0.035 A 
ATOM     14  C   UNL A   1      33.574  19.657  24.865  1.00  0.00     0.122 A 
ATOM     15  C   UNL A   1      32.496  20.525  25.043  1.00  0.00     0.051 A 
ATOM     16  C   UNL A   1      34.880  20.162  24.946  1.00  0.00    -0.009 A 
ATOM     17  C   UNL A   1      35.076  21.537  25.167  1.00  0.00     0.007 A 
ATOM     18  C   UNL A   1      36.089  19.289  24.758  1.00  0.00     0.048 C 
ATOM     19  C   UNL A   1      33.989  22.397  25.344  1.00  0.00     0.005 A 
BRANCH  14  20
ATOM     20  O   UNL A   1      33.439  18.312  24.640  1.00  0.00    -0.496 OA
ATOM     21  C   UNL A   1      32.620  17.590  25.553  1.00  0.00     0.278 C 
ENDBRANCH  14  20
ENDBRANCH  12  13
ENDBRANCH   9  12
ENDBRANCH   7   8
BRANCH   7  22
ATOM     22  C   UNL A   1      32.023  25.740  24.370  1.00  0.00     0.027 A 
ATOM     23  C   UNL A   1      33.407  25.708  24.432  1.00  0.00     0.017 A 
ATOM     24  S   UNL A   1      31.479  25.511  22.752  1.00  0.00    -0.147 S 
ATOM     25  C   UNL A   1      34.011  25.478  23.163  1.00  0.00     0.012 A 
ATOM     26  C   UNL A   1      33.077  25.367  22.161  1.00  0.00     0.065 A 
ENDBRANCH   7  22
ENDBRANCH   6   7
ENDBRANCH   3   6
ENDBRANCH   1   2
BRANCH   1  27
ATOM     27  C   UNL A   1      34.107  29.482  27.914  1.00  0.00     0.042 C 
BRANCH  27  28
ATOM     28  C   UNL A   1      34.986  30.411  27.091  1.00  0.00     0.118 C 
BRANCH  28  29
ATOM     29  N   UNL A   1      35.766  31.268  27.981  1.00  0.00    -0.352 N 
ATOM     30  C   UNL A   1      36.796  30.960  28.860  1.00  0.00     0.251 C 
ATOM     31  H   UNL A   1      35.522  32.222  27.952  1.00  0.00     0.163 HD
ATOM     32  O   UNL A   1      37.198  31.679  29.726  1.00  0.00    -0.269 OA
BRANCH  30  33
ATOM     33  C   UNL A   1      37.472  29.682  28.568  1.00  0.00     0.039 A 
ATOM     34  C   UNL A   1      37.609  28.824  29.666  1.00  0.00     0.014 A 
ATOM     35  C   UNL A   1      38.313  29.630  27.461  1.00  0.00     0.014 A 
ATOM     36  C   UNL A   1      38.754  28.054  29.768  1.00  0.00     0.010 A 
ATOM     37  C   UNL A   1      39.487  28.927  27.606  1.00  0.00     0.010 A 
ATOM     38  C   UNL A   1      39.730  28.207  28.788  1.00  0.00    -0.014 A 
BRANCH  38  39
ATOM     39  C   UNL A   1      41.078  27.692  28.940  1.00  0.00     0.031 A 
ATOM     40  C   UNL A   1      41.315  26.289  28.548  1.00  0.00     0.074 A 
ATOM     41  C   UNL A   1      42.086  28.492  29.362  1.00  0.00     0.049 A 
ATOM     42  N   UNL A   1      42.288  25.574  28.992  1.00  0.00    -0.248 NA
ATOM     43  C   UNL A   1      40.427  25.551  27.647  1.00  0.00     0.031 C 
ATOM     44  C   UNL A   1      43.515  28.185  29.327  1.00  0.00     0.029 A 
ATOM     45  N   UNL A   1      42.061  29.720  30.025  1.00  0.00    -0.354 N 
ATOM     46  C   UNL A   1      42.346  24.443  28.214  1.00  0.00     0.074 A 
ATOM     47  C   UNL A   1      41.117  24.422  27.463  1.00  0.00     0.031 C 
ATOM     48  C   UNL A   1      44.151  28.996  30.191  1.00  0.00     0.029 A 
ATOM     49  C   UNL A   1      43.129  29.712  30.933  1.00  0.00     0.049 A 
ATOM     50  H   UNL A   1      41.417  30.451  29.882  1.00  0.00     0.167 HD
ATOM     51  C   UNL A   1      43.504  23.729  28.178  1.00  0.00     0.031 A 
ATOM     52  C   UNL A   1      42.980  29.656  32.295  1.00  0.00     0.031 A 
ATOM     53  C   UNL A   1      44.500  24.275  29.097  1.00  0.00     0.049 A 
ATOM     54  C   UNL A   1      43.572  28.389  32.925  1.00  0.00     0.074 A 
ATOM     55  C   UNL A   1      45.628  25.066  28.948  1.00  0.00     0.029 A 
ATOM     56  N   UNL A   1      44.191  24.313  30.447  1.00  0.00    -0.354 N 
ATOM     57  N   UNL A   1      44.129  27.421  32.246  1.00  0.00    -0.248 NA
ATOM     58  C   UNL A   1      43.505  28.072  34.353  1.00  0.00     0.031 C 
ATOM     59  C   UNL A   1      45.988  25.575  30.231  1.00  0.00     0.029 A 
ATOM     60  C   UNL A   1      45.095  25.073  31.160  1.00  0.00     0.049 A 
ATOM     61  H   UNL A   1      43.418  23.852  30.848  1.00  0.00     0.167 HD
ATOM     62  C   UNL A   1      44.422  26.365  33.071  1.00  0.00     0.074 A 
ATOM     63  C   UNL A   1      44.023  26.829  34.389  1.00  0.00     0.031 C 
ATOM     64  C   UNL A   1      44.920  25.181  32.603  1.00  0.00     0.031 A 
BRANCH  51  65
ATOM     65  C   UNL A   1      43.793  22.709  27.110  1.00  0.00    -0.014 A 
ATOM     66  C   UNL A   1      42.885  21.652  26.906  1.00  0.00     0.010 A 
ATOM     67  C   UNL A   1      44.951  22.708  26.306  1.00  0.00     0.010 A 
ATOM     68  C   UNL A   1      43.154  20.606  26.015  1.00  0.00     0.020 A 
ATOM     69  C   UNL A   1      45.252  21.647  25.438  1.00  0.00     0.020 A 
ATOM     70  C   UNL A   1      44.350  20.597  25.302  1.00  0.00     0.054 A 
BRANCH  70  71
ATOM     71  S   UNL A   1      44.693  19.209  24.191  1.00  0.00     0.124 S 
ATOM     72  O   UNL A   1      44.449  19.792  22.874  1.00  0.00    -0.237 OA
ATOM     73  O   UNL A   1      46.088  18.903  24.497  1.00  0.00    -0.237 OA
ATOM     74  O   UNL A   1      43.729  18.189  24.600  1.00  0.00    -0.744 OA
ENDBRANCH  70  71
ENDBRANCH  51  65
BRANCH  52  75
ATOM     75  C   UNL A   1      41.792  30.400  32.803  1.00  0.00    -0.014 A 
ATOM     76  C   UNL A   1      40.586  29.680  32.953  1.00  0.00     0.010 A 
ATOM     77  C   UNL A   1      41.944  31.612  33.498  1.00  0.00     0.010 A 
ATOM     78  C   UNL A   1      39.637  30.064  33.906  1.00  0.00     0.020 A 
ATOM     79  C   UNL A   1      40.989  32.003  34.449  1.00  0.00     0.020 A 
ATOM     80  C   UNL A   1      39.873  31.193  34.688  1.00  0.00     0.054 A 
BRANCH  80  81
ATOM     81  S   UNL A   1      38.817  31.462  36.146  1.00  0.00     0.124 S 
ATOM     82  O   UNL A   1      37.784  32.347  35.621  1.00  0.00    -0.237 OA
ATOM     83  O   UNL A   1      38.376  30.104  36.469  1.00  0.00    -0.237 OA
ATOM     84  O   UNL A   1      39.734  32.057  37.113  1.00  0.00    -0.744 OA
ENDBRANCH  80  81
ENDBRANCH  52  75
BRANCH  64  85
ATOM     85  C   UNL A   1      45.242  23.967  33.448  1.00  0.00    -0.014 A 
ATOM     86  C   UNL A   1      44.289  23.014  33.834  1.00  0.00     0.010 A 
ATOM     87  C   UNL A   1      46.544  23.815  33.990  1.00  0.00     0.010 A 
ATOM     88  C   UNL A   1      44.641  21.922  34.646  1.00  0.00     0.020 A 
ATOM     89  C   UNL A   1      46.903  22.745  34.810  1.00  0.00     0.020 A 
ATOM     90  C   UNL A   1      45.950  21.788  35.116  1.00  0.00     0.054 A 
BRANCH  90  91
ATOM     91  S   UNL A   1      46.384  20.379  36.164  1.00  0.00     0.124 S 
ATOM     92  O   UNL A   1      45.531  20.581  37.333  1.00  0.00    -0.237 OA
ATOM     93  O   UNL A   1      46.025  19.248  35.313  1.00  0.00    -0.237 OA
ATOM     94  O   UNL A   1      47.814  20.547  36.405  1.00  0.00    -0.744 OA
ENDBRANCH  90  91
ENDBRANCH  64  85
ENDBRANCH  38  39
ENDBRANCH  30  33
ENDBRANCH  28  29
ENDBRANCH  27  28
ENDBRANCH   1  27
TORSDOF 19
ENDMDL
MODEL 2
REMARK VINA RESULT:     -12.2      4.908     11.411
REMARK SMILES COc1cc(CC(=O)N[C@@H](CC(=O)NCCCNC(=O)c2ccc(-c3c4nc(c(-c5ccc(S(=O)(=O)[O-])cc5)c5ccc([nH]5)c(-c5ccc(S(=O)(=O)[O-])cc5)c5nc(c(-c6ccc(S(=O)(=O)[O-])cc6)c6ccc3[nH]6)C=C5)C=C4)cc2)c2cccs2)ccc1C
REMARK SMILES IDX 15 1 14 2 12 3 13 4 11 6 10 7 9 8 7 9 8 10 6 12 5 13 3 14
REMARK SMILES IDX 4 15 88 16 87 17 89 18 86 19 2 20 1 21 81 22 82 23 85 24
REMARK SMILES IDX 83 25 84 26 16 27 17 28 18 29 19 30 20 32 21 33 22 34 80 35
REMARK SMILES IDX 23 36 79 37 24 38 25 39 26 40 73 41 27 42 78 43 72 44 74 45
REMARK SMILES IDX 28 46 77 47 71 48 70 49 29 51 59 52 40 53 58 54 41 55 44 56
REMARK SMILES IDX 57 57 75 58 42 59 43 60 56 62 76 63 45 64 30 65 31 66 39 67
REMARK SMILES IDX 32 68 38 69 33 70 34 71 35 72 36 73 37 74 60 75 61 76 69 77
REMARK SMILES IDX 62 78 68 79 63 80 64 81 65 82 66 83 67 84 46 85 47 86 55 87
REMARK SMILES IDX 48 88 54 89 49 90 50 91 51 92 52 93 53 94
REMARK H PARENT 14 5 9 11 18 31 74 50 44 61
REMARK Flexibility Score: inf
ROOT
ATOM      1  C   UNL A   1      36.849  23.494  25.642  1.00  0.00     0.117 C 
ENDROOT
BRANCH   1   2
ATOM      2  N   UNL A   1      36.724  22.118  25.184  1.00  0.00    -0.356 N 
ATOM      3  C   UNL A   1      35.780  21.181  25.480  1.00  0.00     0.222 C 
ATOM      4  O   UNL A   1      35.887  20.063  24.970  1.00  0.00    -0.275 OA
ATOM      5  H   UNL A   1      37.428  21.818  24.566  1.00  0.00     0.163 HD
BRANCH   3   6
ATOM      6  C   UNL A   1      34.597  21.513  26.370  1.00  0.00     0.130 C 
BRANCH   6   7
ATOM      7  C   UNL A   1      33.207  21.478  25.716  1.00  0.00     0.131 C 
BRANCH   7   8
ATOM      8  N   UNL A   1      32.125  21.891  26.605  1.00  0.00    -0.348 N 
ATOM      9  C   UNL A   1      31.164  22.843  26.524  1.00  0.00     0.224 C 
ATOM     10  O   UNL A   1      30.410  22.956  27.494  1.00  0.00    -0.275 OA
ATOM     11  H   UNL A   1      32.086  21.368  27.437  1.00  0.00     0.164 HD
BRANCH   9  12
ATOM     12  C   UNL A   1      30.886  23.637  25.271  1.00  0.00     0.135 C 
BRANCH  12  13
ATOM     13  C   UNL A   1      31.675  24.897  25.048  1.00  0.00    -0.035 A 
ATOM     14  C   UNL A   1      32.599  26.960  25.973  1.00  0.00     0.122 A 
ATOM     15  C   UNL A   1      31.877  25.776  26.124  1.00  0.00     0.051 A 
ATOM     16  C   UNL A   1      33.139  27.277  24.717  1.00  0.00    -0.009 A 
ATOM     17  C   UNL A   1      32.974  26.378  23.648  1.00  0.00     0.007 A 
ATOM     18  C   UNL A   1      33.934  28.531  24.480  1.00  0.00     0.048 C 
ATOM     19  C   UNL A   1      32.248  25.196  23.811  1.00  0.00     0.005 A 
BRANCH  14  20
ATOM     20  O   UNL A   1      32.796  27.866  26.982  1.00  0.00    -0.496 OA
ATOM     21  C   UNL A   1      31.632  28.471  27.534  1.00  0.00     0.278 C 
ENDBRANCH  14  20
ENDBRANCH  12  13
ENDBRANCH   9  12
ENDBRANCH   7   8
BRANCH   7  22
ATOM     22  C   UNL A   1      32.850  20.133  25.116  1.00  0.00     0.027 A 
ATOM     23  C   UNL A   1      32.784  18.882  25.710  1.00  0.00     0.017 A 
ATOM     24  S   UNL A   1      32.455  20.035  23.442  1.00  0.00    -0.147 S 
ATOM     25  C   UNL A   1      32.392  17.859  24.799  1.00  0.00     0.012 A 
ATOM     26  C   UNL A   1      32.196  18.348  23.529  1.00  0.00     0.065 A 
ENDBRANCH   7  22
ENDBRANCH   6   7
ENDBRANCH   3   6
ENDBRANCH   1   2
BRANCH   1  27
ATOM     27  C   UNL A   1      38.300  23.851  25.920  1.00  0.00     0.042 C 
BRANCH  27  28
ATOM     28  C   UNL A   1      38.921  23.098  27.087  1.00  0.00     0.118 C 
BRANCH  28  29
ATOM     29  N   UNL A   1      40.346  23.412  27.173  1.00  0.00    -0.352 N 
ATOM     30  C   UNL A   1      41.004  24.634  27.180  1.00  0.00     0.251 C 
ATOM     31  H   UNL A   1      40.937  22.627  27.237  1.00  0.00     0.163 HD
ATOM     32  O   UNL A   1      42.176  24.784  26.998  1.00  0.00    -0.269 OA
BRANCH  30  33
ATOM     33  C   UNL A   1      40.149  25.774  27.563  1.00  0.00     0.039 A 
ATOM     34  C   UNL A   1      40.277  26.905  26.748  1.00  0.00     0.014 A 
ATOM     35  C   UNL A   1      39.706  25.839  28.880  1.00  0.00     0.014 A 
ATOM     36  C   UNL A   1      40.184  28.157  27.330  1.00  0.00     0.010 A 
ATOM     37  C   UNL A   1      39.697  27.082  29.471  1.00  0.00     0.010 A 
ATOM     38  C   UNL A   1      40.009  28.221  28.709  1.00  0.00    -0.014 A 
BRANCH  38  39
ATOM     39  C   UNL A   1      40.196  29.445  29.465  1.00  0.00     0.031 A 
ATOM     40  C   UNL A   1      39.123  30.457  29.391  1.00  0.00     0.074 A 
ATOM     41  C   UNL A   1      41.282  29.617  30.256  1.00  0.00     0.049 A 
ATOM     42  N   UNL A   1      39.299  31.709  29.631  1.00  0.00    -0.248 NA
ATOM     43  C   UNL A   1      37.753  30.140  28.982  1.00  0.00     0.031 C 
ATOM     44  C   UNL A   1      41.479  30.673  31.248  1.00  0.00     0.029 A 
ATOM     45  N   UNL A   1      42.510  28.955  30.277  1.00  0.00    -0.354 N 
ATOM     46  C   UNL A   1      38.053  32.280  29.732  1.00  0.00     0.074 A 
ATOM     47  C   UNL A   1      37.131  31.296  29.224  1.00  0.00     0.031 C 
ATOM     48  C   UNL A   1      42.793  30.776  31.512  1.00  0.00     0.029 A 
ATOM     49  C   UNL A   1      43.486  29.920  30.566  1.00  0.00     0.049 A 
ATOM     50  H   UNL A   1      42.662  27.995  30.119  1.00  0.00     0.167 HD
ATOM     51  C   UNL A   1      37.926  33.468  30.384  1.00  0.00     0.031 A 
ATOM     52  C   UNL A   1      44.420  30.361  29.665  1.00  0.00     0.031 A 
ATOM     53  C   UNL A   1      39.224  33.994  30.800  1.00  0.00     0.049 A 
ATOM     54  C   UNL A   1      44.292  31.852  29.328  1.00  0.00     0.074 A 
ATOM     55  C   UNL A   1      39.914  34.039  32.000  1.00  0.00     0.029 A 
ATOM     56  N   UNL A   1      40.161  34.268  29.817  1.00  0.00    -0.354 N 
ATOM     57  N   UNL A   1      43.361  32.636  29.803  1.00  0.00    -0.248 NA
ATOM     58  C   UNL A   1      45.142  32.554  28.364  1.00  0.00     0.031 C 
ATOM     59  C   UNL A   1      41.279  34.346  31.718  1.00  0.00     0.029 A 
ATOM     60  C   UNL A   1      41.410  34.512  30.352  1.00  0.00     0.049 A 
ATOM     61  H   UNL A   1      39.960  34.286  28.853  1.00  0.00     0.167 HD
ATOM     62  C   UNL A   1      43.420  33.868  29.202  1.00  0.00     0.074 A 
ATOM     63  C   UNL A   1      44.565  33.769  28.314  1.00  0.00     0.031 C 
ATOM     64  C   UNL A   1      42.497  34.849  29.442  1.00  0.00     0.031 A 
BRANCH  51  65
ATOM     65  C   UNL A   1      36.597  33.991  30.861  1.00  0.00    -0.014 A 
ATOM     66  C   UNL A   1      35.570  34.210  29.923  1.00  0.00     0.010 A 
ATOM     67  C   UNL A   1      36.310  34.323  32.199  1.00  0.00     0.010 A 
ATOM     68  C   UNL A   1      34.355  34.808  30.282  1.00  0.00     0.020 A 
ATOM     69  C   UNL A   1      35.113  34.959  32.567  1.00  0.00     0.020 A 
ATOM     70  C   UNL A   1      34.143  35.202  31.600  1.00  0.00     0.054 A 
BRANCH  70  71
ATOM     71  S   UNL A   1      32.582  36.015  32.028  1.00  0.00     0.124 S 
ATOM     72  O   UNL A   1      33.010  37.035  32.981  1.00  0.00    -0.237 OA
ATOM     73  O   UNL A   1      32.126  36.513  30.733  1.00  0.00    -0.237 OA
ATOM     74  O   UNL A   1      31.775  34.939  32.600  1.00  0.00    -0.744 OA
ENDBRANCH  70  71
ENDBRANCH  51  65
BRANCH  52  75
ATOM     75  C   UNL A   1      44.909  29.303  28.735  1.00  0.00    -0.014 A 
ATOM     76  C   UNL A   1      44.343  29.259  27.442  1.00  0.00     0.010 A 
ATOM     77  C   UNL A   1      46.142  28.666  28.952  1.00  0.00     0.010 A 
ATOM     78  C   UNL A   1      45.069  28.753  26.359  1.00  0.00     0.020 A 
ATOM     79  C   UNL A   1      46.869  28.150  27.868  1.00  0.00     0.020 A 
ATOM     80  C   UNL A   1      46.352  28.254  26.572  1.00  0.00     0.054 A 
BRANCH  80  81
ATOM     81  S   UNL A   1      47.403  27.941  25.118  1.00  0.00     0.124 S 
ATOM     82  O   UNL A   1      47.443  26.484  25.073  1.00  0.00    -0.237 OA
ATOM     83  O   UNL A   1      46.646  28.583  24.041  1.00  0.00    -0.237 OA
ATOM     84  O   UNL A   1      48.656  28.602  25.468  1.00  0.00    -0.744 OA
ENDBRANCH  80  81
ENDBRANCH  52  75
BRANCH  64  85
ATOM     85  C   UNL A   1      42.482  36.218  28.797  1.00  0.00    -0.014 A 
ATOM     86  C   UNL A   1      42.046  36.455  27.486  1.00  0.00     0.010 A 
ATOM     87  C   UNL A   1      43.040  37.324  29.488  1.00  0.00     0.010 A 
ATOM     88  C   UNL A   1      42.083  37.745  26.930  1.00  0.00     0.020 A 
ATOM     89  C   UNL A   1      43.099  38.607  28.942  1.00  0.00     0.020 A 
ATOM     90  C   UNL A   1      42.597  38.815  27.668  1.00  0.00     0.054 A 
BRANCH  90  91
ATOM     91  S   UNL A   1      42.643  40.468  26.935  1.00  0.00     0.124 S 
ATOM     92  O   UNL A   1      43.417  41.226  27.915  1.00  0.00    -0.237 OA
ATOM     93  O   UNL A   1      43.315  40.215  25.663  1.00  0.00    -0.237 OA
ATOM     94  O   UNL A   1      41.236  40.845  26.831  1.00  0.00    -0.744 OA
ENDBRANCH  90  91
ENDBRANCH  64  85
ENDBRANCH  38  39
ENDBRANCH  30  33
ENDBRANCH  28  29
ENDBRANCH  27  28
ENDBRANCH   1  27
TORSDOF 19
ENDMDL
MODEL 3
REMARK VINA RESULT:     -12.2      1.561      2.440
REMARK SMILES COc1cc(CC(=O)N[C@@H](CC(=O)NCCCNC(=O)c2ccc(-c3c4nc(c(-c5ccc(S(=O)(=O)[O-])cc5)c5ccc([nH]5)c(-c5ccc(S(=O)(=O)[O-])cc5)c5nc(c(-c6ccc(S(=O)(=O)[O-])cc6)c6ccc3[nH]6)C=C5)C=C4)cc2)c2cccs2)ccc1C
REMARK SMILES IDX 15 1 14 2 12 3 13 4 11 6 10 7 9 8 7 9 8 10 6 12 5 13 3 14
REMARK SMILES IDX 4 15 88 16 87 17 89 18 86 19 2 20 1 21 81 22 82 23 85 24
REMARK SMILES IDX 83 25 84 26 16 27 17 28 18 29 19 30 20 32 21 33 22 34 80 35
REMARK SMILES IDX 23 36 79 37 24 38 25 39 26 40 73 41 27 42 78 43 72 44 74 45
REMARK SMILES IDX 28 46 77 47 71 48 70 49 29 51 59 52 40 53 58 54 41 55 44 56
REMARK SMILES IDX 57 57 75 58 42 59 43 60 56 62 76 63 45 64 30 65 31 66 39 67
REMARK SMILES IDX 32 68 38 69 33 70 34 71 35 72 36 73 37 74 60 75 61 76 69 77
REMARK SMILES IDX 62 78 68 79 63 80 64 81 65 82 66 83 67 84 46 85 47 86 55 87
REMARK SMILES IDX 48 88 54 89 49 90 50 91 51 92 52 93 53 94
REMARK H PARENT 14 5 9 11 18 31 74 50 44 61
REMARK Flexibility Score: inf
ROOT
ATOM      1  C   UNL A   1      32.916  30.044  25.439  1.00  0.00     0.117 C 
ENDROOT
BRANCH   1   2
ATOM      2  N   UNL A   1      31.510  30.184  25.087  1.00  0.00    -0.356 N 
ATOM      3  C   UNL A   1      30.838  29.752  23.984  1.00  0.00     0.222 C 
ATOM      4  O   UNL A   1      29.632  29.997  23.900  1.00  0.00    -0.275 OA
ATOM      5  H   UNL A   1      30.961  30.665  25.747  1.00  0.00     0.163 HD
BRANCH   3   6
ATOM      6  C   UNL A   1      31.536  28.941  22.907  1.00  0.00     0.130 C 
BRANCH   6   7
ATOM      7  C   UNL A   1      32.019  27.536  23.300  1.00  0.00     0.131 C 
BRANCH   7   8
ATOM      8  N   UNL A   1      32.309  26.671  22.161  1.00  0.00    -0.348 N 
ATOM      9  C   UNL A   1      33.295  25.780  21.895  1.00  0.00     0.224 C 
ATOM     10  O   UNL A   1      33.264  25.230  20.791  1.00  0.00    -0.275 OA
ATOM     11  H   UNL A   1      31.650  26.751  21.435  1.00  0.00     0.164 HD
BRANCH   9  12
ATOM     12  C   UNL A   1      34.306  25.330  22.920  1.00  0.00     0.135 C 
BRANCH  12  13
ATOM     13  C   UNL A   1      34.185  23.932  23.460  1.00  0.00    -0.035 A 
ATOM     14  C   UNL A   1      32.763  22.190  24.414  1.00  0.00     0.122 A 
ATOM     15  C   UNL A   1      32.933  23.477  23.902  1.00  0.00     0.051 A 
ATOM     16  C   UNL A   1      33.870  21.330  24.484  1.00  0.00    -0.009 A 
ATOM     17  C   UNL A   1      35.117  21.770  24.003  1.00  0.00     0.007 A 
ATOM     18  C   UNL A   1      33.763  19.929  25.017  1.00  0.00     0.048 C 
ATOM     19  C   UNL A   1      35.275  23.060  23.493  1.00  0.00     0.005 A 
BRANCH  14  20
ATOM     20  O   UNL A   1      31.571  21.710  24.889  1.00  0.00    -0.496 OA
ATOM     21  C   UNL A   1      31.042  22.344  26.048  1.00  0.00     0.278 C 
ENDBRANCH  14  20
ENDBRANCH  12  13
ENDBRANCH   9  12
ENDBRANCH   7   8
BRANCH   7  22
ATOM     22  C   UNL A   1      31.070  26.806  24.231  1.00  0.00     0.027 A 
ATOM     23  C   UNL A   1      29.804  26.297  23.991  1.00  0.00     0.017 A 
ATOM     24  S   UNL A   1      31.545  26.519  25.861  1.00  0.00    -0.147 S 
ATOM     25  C   UNL A   1      29.240  25.659  25.133  1.00  0.00     0.012 A 
ATOM     26  C   UNL A   1      30.077  25.721  26.222  1.00  0.00     0.065 A 
ENDBRANCH   7  22
ENDBRANCH   6   7
ENDBRANCH   3   6
ENDBRANCH   1   2
BRANCH   1  27
ATOM     27  C   UNL A   1      33.154  30.391  26.899  1.00  0.00     0.042 C 
BRANCH  27  28
ATOM     28  C   UNL A   1      34.441  29.825  27.479  1.00  0.00     0.118 C 
BRANCH  28  29
ATOM     29  N   UNL A   1      35.331  30.919  27.863  1.00  0.00    -0.352 N 
ATOM     30  C   UNL A   1      36.601  30.897  28.422  1.00  0.00     0.251 C 
ATOM     31  H   UNL A   1      34.971  31.820  27.695  1.00  0.00     0.163 HD
ATOM     32  O   UNL A   1      37.143  31.833  28.932  1.00  0.00    -0.269 OA
BRANCH  30  33
ATOM     33  C   UNL A   1      37.320  29.623  28.232  1.00  0.00     0.039 A 
ATOM     34  C   UNL A   1      37.475  28.856  29.393  1.00  0.00     0.014 A 
ATOM     35  C   UNL A   1      38.170  29.514  27.137  1.00  0.00     0.014 A 
ATOM     36  C   UNL A   1      38.642  28.132  29.560  1.00  0.00     0.010 A 
ATOM     37  C   UNL A   1      39.365  28.861  27.342  1.00  0.00     0.010 A 
ATOM     38  C   UNL A   1      39.621  28.241  28.576  1.00  0.00    -0.014 A 
BRANCH  38  39
ATOM     39  C   UNL A   1      40.982  27.783  28.774  1.00  0.00     0.031 A 
ATOM     40  C   UNL A   1      41.288  26.387  28.401  1.00  0.00     0.074 A 
ATOM     41  C   UNL A   1      41.944  28.626  29.221  1.00  0.00     0.049 A 
ATOM     42  N   UNL A   1      42.275  25.715  28.882  1.00  0.00    -0.248 NA
ATOM     43  C   UNL A   1      40.460  25.607  27.479  1.00  0.00     0.031 C 
ATOM     44  C   UNL A   1      43.385  28.377  29.233  1.00  0.00     0.029 A 
ATOM     45  N   UNL A   1      41.849  29.857  29.872  1.00  0.00    -0.354 N 
ATOM     46  C   UNL A   1      42.403  24.582  28.116  1.00  0.00     0.074 A 
ATOM     47  C   UNL A   1      41.199  24.507  27.326  1.00  0.00     0.031 C 
ATOM     48  C   UNL A   1      43.960  29.218  30.110  1.00  0.00     0.029 A 
ATOM     49  C   UNL A   1      42.887  29.898  30.814  1.00  0.00     0.049 A 
ATOM     50  H   UNL A   1      41.181  30.560  29.704  1.00  0.00     0.167 HD
ATOM     51  C   UNL A   1      43.589  23.915  28.122  1.00  0.00     0.031 A 
ATOM     52  C   UNL A   1      42.698  29.845  32.170  1.00  0.00     0.031 A 
ATOM     53  C   UNL A   1      44.533  24.508  29.066  1.00  0.00     0.049 A 
ATOM     54  C   UNL A   1      43.320  28.608  32.829  1.00  0.00     0.074 A 
ATOM     55  C   UNL A   1      45.632  25.343  28.946  1.00  0.00     0.029 A 
ATOM     56  N   UNL A   1      44.180  24.542  30.405  1.00  0.00    -0.354 N 
ATOM     57  N   UNL A   1      43.936  27.658  32.177  1.00  0.00    -0.248 NA
ATOM     58  C   UNL A   1      43.221  28.298  34.258  1.00  0.00     0.031 C 
ATOM     59  C   UNL A   1      45.931  25.875  30.236  1.00  0.00     0.029 A 
ATOM     60  C   UNL A   1      45.030  25.343  31.140  1.00  0.00     0.049 A 
ATOM     61  H   UNL A   1      43.414  24.054  30.786  1.00  0.00     0.167 HD
ATOM     62  C   UNL A   1      44.246  26.621  33.019  1.00  0.00     0.074 A 
ATOM     63  C   UNL A   1      43.787  27.078  34.319  1.00  0.00     0.031 C 
ATOM     64  C   UNL A   1      44.806  25.454  32.576  1.00  0.00     0.031 A 
BRANCH  51  65
ATOM     65  C   UNL A   1      43.953  22.901  27.071  1.00  0.00    -0.014 A 
ATOM     66  C   UNL A   1      43.013  21.914  26.717  1.00  0.00     0.010 A 
ATOM     67  C   UNL A   1      45.205  22.837  26.429  1.00  0.00     0.010 A 
ATOM     68  C   UNL A   1      43.331  20.870  25.838  1.00  0.00     0.020 A 
ATOM     69  C   UNL A   1      45.551  21.776  25.577  1.00  0.00     0.020 A 
ATOM     70  C   UNL A   1      44.609  20.793  25.291  1.00  0.00     0.054 A 
BRANCH  70  71
ATOM     71  S   UNL A   1      45.007  19.409  24.194  1.00  0.00     0.124 S 
ATOM     72  O   UNL A   1      44.289  18.299  24.816  1.00  0.00    -0.237 OA
ATOM     73  O   UNL A   1      44.477  19.864  22.913  1.00  0.00    -0.237 OA
ATOM     74  O   UNL A   1      46.464  19.316  24.268  1.00  0.00    -0.744 OA
ENDBRANCH  70  71
ENDBRANCH  51  65
BRANCH  52  75
ATOM     75  C   UNL A   1      41.465  30.544  32.636  1.00  0.00    -0.014 A 
ATOM     76  C   UNL A   1      41.613  31.848  33.159  1.00  0.00     0.010 A 
ATOM     77  C   UNL A   1      40.195  30.134  32.197  1.00  0.00     0.010 A 
ATOM     78  C   UNL A   1      40.568  32.774  33.078  1.00  0.00     0.020 A 
ATOM     79  C   UNL A   1      39.143  31.060  32.123  1.00  0.00     0.020 A 
ATOM     80  C   UNL A   1      39.357  32.389  32.508  1.00  0.00     0.054 A 
BRANCH  80  81
ATOM     81  S   UNL A   1      38.155  33.689  32.088  1.00  0.00     0.124 S 
ATOM     82  O   UNL A   1      36.906  32.940  32.004  1.00  0.00    -0.237 OA
ATOM     83  O   UNL A   1      38.265  34.599  33.230  1.00  0.00    -0.237 OA
ATOM     84  O   UNL A   1      38.665  34.218  30.828  1.00  0.00    -0.744 OA
ENDBRANCH  80  81
ENDBRANCH  52  75
BRANCH  64  85
ATOM     85  C   UNL A   1      45.149  24.260  33.441  1.00  0.00    -0.014 A 
ATOM     86  C   UNL A   1      44.196  23.361  33.938  1.00  0.00     0.010 A 
ATOM     87  C   UNL A   1      46.484  24.076  33.884  1.00  0.00     0.010 A 
ATOM     88  C   UNL A   1      44.571  22.286  34.762  1.00  0.00     0.020 A 
ATOM     89  C   UNL A   1      46.868  23.024  34.715  1.00  0.00     0.020 A 
ATOM     90  C   UNL A   1      45.908  22.118  35.133  1.00  0.00     0.054 A 
BRANCH  90  91
ATOM     91  S   UNL A   1      46.373  20.732  36.199  1.00  0.00     0.124 S 
ATOM     92  O   UNL A   1      47.801  20.959  36.408  1.00  0.00    -0.237 OA
ATOM     93  O   UNL A   1      45.524  20.952  37.366  1.00  0.00    -0.237 OA
ATOM     94  O   UNL A   1      46.044  19.552  35.404  1.00  0.00    -0.744 OA
ENDBRANCH  90  91
ENDBRANCH  64  85
ENDBRANCH  38  39
ENDBRANCH  30  33
ENDBRANCH  28  29
ENDBRANCH  27  28
ENDBRANCH   1  27
TORSDOF 19
ENDMDL
