MODEL 1
REMARK VINA RESULT:     -11.5      0.000      0.000
REMARK SMILES COc1ccc(C(=O)N[C@H](C(=O)NCCCNC(=O)c2ccc(-c3c4nc(c(-c5ccc(S(=O)(=O)[O-])cc5)c5ccc([nH]5)c(-c5ccc(S(=O)(=O)[O-])cc5)c5nc(c(-c6ccc(S(=O)(=O)[O-])cc6)c6ccc3[nH]6)C=C5)C=C4)cc2)C2=C(C)N=N[C@H]2C)c(F)c1F
REMARK SMILES IDX 15 1 14 2 13 3 11 4 12 5 10 7 9 8 7 9 8 10 6 12 3 13 4 14
REMARK SMILES IDX 89 15 5 16 87 17 90 18 88 19 2 20 1 21 80 22 81 23 85 24
REMARK SMILES IDX 82 25 83 26 84 27 86 28 16 29 17 30 18 31 19 33 20 34 21 35
REMARK SMILES IDX 79 36 22 37 78 38 23 39 24 40 25 41 72 42 26 43 77 44 71 45
REMARK SMILES IDX 73 46 27 47 76 48 70 49 69 50 28 52 58 53 39 54 57 55 40 56
REMARK SMILES IDX 43 57 56 58 74 59 41 60 42 61 55 63 75 64 44 65 29 66 30 67
REMARK SMILES IDX 38 68 31 69 37 70 32 71 33 72 34 73 35 74 36 75 59 76 60 77
REMARK SMILES IDX 68 78 61 79 67 80 62 81 63 82 64 83 65 84 66 85 45 86 46 87
REMARK SMILES IDX 54 88 47 89 53 90 48 91 49 92 50 93 51 94 52 95
REMARK H PARENT 13 6 9 11 17 32 73 51 43 62
REMARK Flexibility Score: inf
ROOT
ATOM      1  C   UNL A   1      32.140  27.625  27.275  1.00  0.00     0.042 C 
ENDROOT
BRANCH   1   2
ATOM      2  C   UNL A   1      32.088  26.371  26.408  1.00  0.00     0.117 C 
BRANCH   2   3
ATOM      3  N   UNL A   1      33.429  25.869  26.161  1.00  0.00    -0.354 N 
ATOM      4  C   UNL A   1      33.817  24.793  25.416  1.00  0.00     0.247 C 
ATOM      5  O   UNL A   1      34.907  24.291  25.689  1.00  0.00    -0.272 OA
ATOM      6  H   UNL A   1      34.156  26.374  26.591  1.00  0.00     0.163 HD
BRANCH   4   7
ATOM      7  C   UNL A   1      32.844  24.196  24.363  1.00  0.00     0.202 C 
BRANCH   7   8
ATOM      8  N   UNL A   1      33.055  24.558  22.959  1.00  0.00    -0.336 N 
ATOM      9  C   UNL A   1      32.937  25.711  22.228  1.00  0.00     0.255 C 
ATOM     10  O   UNL A   1      33.377  25.701  21.077  1.00  0.00    -0.269 OA
ATOM     11  H   UNL A   1      33.353  23.795  22.413  1.00  0.00     0.165 HD
BRANCH   9  12
ATOM     12  C   UNL A   1      32.181  26.905  22.658  1.00  0.00     0.078 A 
ATOM     13  C   UNL A   1      30.563  29.072  23.452  1.00  0.00     0.157 A 
ATOM     14  C   UNL A   1      30.025  28.054  22.664  1.00  0.00     0.050 A 
ATOM     15  C   UNL A   1      31.921  29.031  23.771  1.00  0.00     0.201 A 
ATOM     16  C   UNL A   1      30.830  26.976  22.272  1.00  0.00     0.021 A 
ATOM     17  C   UNL A   1      32.723  27.969  23.360  1.00  0.00     0.175 A 
ATOM     18  F   UNL A   1      32.469  30.019  24.495  1.00  0.00    -0.200 F 
ATOM     19  F   UNL A   1      34.026  28.006  23.652  1.00  0.00    -0.203 F 
BRANCH  13  20
ATOM     20  O   UNL A   1      29.864  30.154  23.912  1.00  0.00    -0.494 OA
ATOM     21  C   UNL A   1      29.120  30.878  22.937  1.00  0.00     0.278 C 
ENDBRANCH  13  20
ENDBRANCH   9  12
ENDBRANCH   7   8
BRANCH   7  22
ATOM     22  C   UNL A   1      32.533  22.744  24.536  1.00  0.00     0.011 C 
ATOM     23  C   UNL A   1      31.909  22.172  25.578  1.00  0.00     0.064 C 
ATOM     24  C   UNL A   1      32.899  21.601  23.646  1.00  0.00     0.156 C 
ATOM     25  C   UNL A   1      31.375  22.807  26.818  1.00  0.00     0.069 C 
ATOM     26  N   UNL A   1      31.810  20.810  25.458  1.00  0.00    -0.160 NA
ATOM     27  N   UNL A   1      32.354  20.427  24.390  1.00  0.00    -0.181 NA
ATOM     28  C   UNL A   1      32.269  21.585  22.260  1.00  0.00     0.040 C 
ENDBRANCH   7  22
ENDBRANCH   4   7
ENDBRANCH   2   3
ENDBRANCH   1   2
BRANCH   1  29
ATOM     29  C   UNL A   1      33.478  28.353  27.217  1.00  0.00     0.118 C 
BRANCH  29  30
ATOM     30  N   UNL A   1      33.351  29.784  27.443  1.00  0.00    -0.352 N 
ATOM     31  C   UNL A   1      34.283  30.645  27.977  1.00  0.00     0.251 C 
ATOM     32  H   UNL A   1      32.491  30.187  27.182  1.00  0.00     0.163 HD
ATOM     33  O   UNL A   1      33.982  31.798  28.236  1.00  0.00    -0.269 OA
BRANCH  31  34
ATOM     34  C   UNL A   1      35.645  30.135  28.256  1.00  0.00     0.039 A 
ATOM     35  C   UNL A   1      36.602  30.172  27.240  1.00  0.00     0.014 A 
ATOM     36  C   UNL A   1      35.978  29.665  29.529  1.00  0.00     0.014 A 
ATOM     37  C   UNL A   1      37.914  29.783  27.518  1.00  0.00     0.010 A 
ATOM     38  C   UNL A   1      37.300  29.344  29.821  1.00  0.00     0.010 A 
ATOM     39  C   UNL A   1      38.280  29.391  28.817  1.00  0.00    -0.014 A 
BRANCH  39  40
ATOM     40  C   UNL A   1      39.675  29.004  29.143  1.00  0.00     0.031 A 
ATOM     41  C   UNL A   1      40.594  29.998  29.802  1.00  0.00     0.074 A 
ATOM     42  C   UNL A   1      40.135  27.785  28.796  1.00  0.00     0.049 A 
ATOM     43  N   UNL A   1      41.859  29.876  30.109  1.00  0.00    -0.248 NA
ATOM     44  C   UNL A   1      40.019  31.313  30.133  1.00  0.00     0.031 C 
ATOM     45  C   UNL A   1      39.358  26.745  28.120  1.00  0.00     0.029 A 
ATOM     46  N   UNL A   1      41.374  27.217  28.962  1.00  0.00    -0.354 N 
ATOM     47  C   UNL A   1      42.236  31.100  30.650  1.00  0.00     0.074 A 
ATOM     48  C   UNL A   1      41.080  31.967  30.580  1.00  0.00     0.031 C 
ATOM     49  C   UNL A   1      40.129  25.657  27.953  1.00  0.00     0.029 A 
ATOM     50  C   UNL A   1      41.463  25.934  28.476  1.00  0.00     0.049 A 
ATOM     51  H   UNL A   1      42.128  27.685  29.389  1.00  0.00     0.167 HD
ATOM     52  C   UNL A   1      43.429  31.465  31.177  1.00  0.00     0.031 A 
ATOM     53  C   UNL A   1      42.503  25.077  28.453  1.00  0.00     0.031 A 
ATOM     54  C   UNL A   1      44.572  30.597  31.259  1.00  0.00     0.049 A 
ATOM     55  C   UNL A   1      43.818  25.502  29.048  1.00  0.00     0.074 A 
ATOM     56  C   UNL A   1      45.811  30.855  31.817  1.00  0.00     0.029 A 
ATOM     57  N   UNL A   1      44.613  29.298  30.774  1.00  0.00    -0.354 N 
ATOM     58  N   UNL A   1      44.139  26.647  29.603  1.00  0.00    -0.248 NA
ATOM     59  C   UNL A   1      44.905  24.514  29.029  1.00  0.00     0.031 C 
ATOM     60  C   UNL A   1      46.617  29.725  31.635  1.00  0.00     0.029 A 
ATOM     61  C   UNL A   1      45.861  28.745  31.010  1.00  0.00     0.049 A 
ATOM     62  H   UNL A   1      43.867  28.837  30.329  1.00  0.00     0.167 HD
ATOM     63  C   UNL A   1      45.456  26.505  30.027  1.00  0.00     0.074 A 
ATOM     64  C   UNL A   1      45.866  25.161  29.673  1.00  0.00     0.031 C 
ATOM     65  C   UNL A   1      46.251  27.404  30.658  1.00  0.00     0.031 A 
BRANCH  52  66
ATOM     66  C   UNL A   1      43.551  32.871  31.703  1.00  0.00    -0.014 A 
ATOM     67  C   UNL A   1      43.253  33.170  33.045  1.00  0.00     0.010 A 
ATOM     68  C   UNL A   1      43.985  33.903  30.852  1.00  0.00     0.010 A 
ATOM     69  C   UNL A   1      43.337  34.483  33.514  1.00  0.00     0.020 A 
ATOM     70  C   UNL A   1      44.099  35.214  31.325  1.00  0.00     0.020 A 
ATOM     71  C   UNL A   1      43.754  35.498  32.648  1.00  0.00     0.054 A 
BRANCH  71  72
ATOM     72  S   UNL A   1      43.860  37.194  33.284  1.00  0.00     0.124 S 
ATOM     73  O   UNL A   1      43.807  37.979  32.053  1.00  0.00    -0.237 OA
ATOM     74  O   UNL A   1      42.680  37.290  34.139  1.00  0.00    -0.237 OA
ATOM     75  O   UNL A   1      45.140  37.220  33.987  1.00  0.00    -0.744 OA
ENDBRANCH  71  72
ENDBRANCH  52  66
BRANCH  53  76
ATOM     76  C   UNL A   1      42.333  23.717  27.872  1.00  0.00    -0.014 A 
ATOM     77  C   UNL A   1      42.635  23.481  26.519  1.00  0.00     0.010 A 
ATOM     78  C   UNL A   1      41.883  22.650  28.670  1.00  0.00     0.010 A 
ATOM     79  C   UNL A   1      42.474  22.205  25.970  1.00  0.00     0.020 A 
ATOM     80  C   UNL A   1      41.746  21.368  28.131  1.00  0.00     0.020 A 
ATOM     81  C   UNL A   1      42.032  21.156  26.780  1.00  0.00     0.054 A 
BRANCH  81  82
ATOM     82  S   UNL A   1      41.886  19.496  26.061  1.00  0.00     0.124 S 
ATOM     83  O   UNL A   1      42.344  18.649  27.158  1.00  0.00    -0.237 OA
ATOM     84  O   UNL A   1      40.461  19.412  25.748  1.00  0.00    -0.237 OA
ATOM     85  O   UNL A   1      42.769  19.550  24.898  1.00  0.00    -0.744 OA
ENDBRANCH  81  82
ENDBRANCH  53  76
BRANCH  65  86
ATOM     86  C   UNL A   1      47.632  26.952  31.050  1.00  0.00    -0.014 A 
ATOM     87  C   UNL A   1      48.731  27.131  30.192  1.00  0.00     0.010 A 
ATOM     88  C   UNL A   1      47.836  26.390  32.324  1.00  0.00     0.010 A 
ATOM     89  C   UNL A   1      50.007  26.724  30.590  1.00  0.00     0.020 A 
ATOM     90  C   UNL A   1      49.116  26.008  32.735  1.00  0.00     0.020 A 
ATOM     91  C   UNL A   1      50.191  26.164  31.859  1.00  0.00     0.054 A 
BRANCH  91  92
ATOM     92  S   UNL A   1      51.865  25.686  32.370  1.00  0.00     0.124 S 
ATOM     93  O   UNL A   1      51.869  26.063  33.781  1.00  0.00    -0.237 OA
ATOM     94  O   UNL A   1      51.885  24.250  32.104  1.00  0.00    -0.237 OA
ATOM     95  O   UNL A   1      52.731  26.485  31.508  1.00  0.00    -0.744 OA
ENDBRANCH  91  92
ENDBRANCH  65  86
ENDBRANCH  39  40
ENDBRANCH  31  34
ENDBRANCH  29  30
ENDBRANCH   1  29
TORSDOF 17
ENDMDL
MODEL 2
REMARK VINA RESULT:     -11.3      2.838      9.210
REMARK SMILES COc1ccc(C(=O)N[C@H](C(=O)NCCCNC(=O)c2ccc(-c3c4nc(c(-c5ccc(S(=O)(=O)[O-])cc5)c5ccc([nH]5)c(-c5ccc(S(=O)(=O)[O-])cc5)c5nc(c(-c6ccc(S(=O)(=O)[O-])cc6)c6ccc3[nH]6)C=C5)C=C4)cc2)C2=C(C)N=N[C@H]2C)c(F)c1F
REMARK SMILES IDX 15 1 14 2 13 3 11 4 12 5 10 7 9 8 7 9 8 10 6 12 3 13 4 14
REMARK SMILES IDX 89 15 5 16 87 17 90 18 88 19 2 20 1 21 80 22 81 23 85 24
REMARK SMILES IDX 82 25 83 26 84 27 86 28 16 29 17 30 18 31 19 33 20 34 21 35
REMARK SMILES IDX 79 36 22 37 78 38 23 39 24 40 25 41 72 42 26 43 77 44 71 45
REMARK SMILES IDX 73 46 27 47 76 48 70 49 69 50 28 52 58 53 39 54 57 55 40 56
REMARK SMILES IDX 43 57 56 58 74 59 41 60 42 61 55 63 75 64 44 65 29 66 30 67
REMARK SMILES IDX 38 68 31 69 37 70 32 71 33 72 34 73 35 74 36 75 59 76 60 77
REMARK SMILES IDX 68 78 61 79 67 80 62 81 63 82 64 83 65 84 66 85 45 86 46 87
REMARK SMILES IDX 54 88 47 89 53 90 48 91 49 92 50 93 51 94 52 95
REMARK H PARENT 13 6 9 11 17 32 73 51 43 62
REMARK Flexibility Score: inf
ROOT
ATOM      1  C   UNL A   1      36.188  23.589  23.787  1.00  0.00     0.042 C 
ENDROOT
BRANCH   1   2
ATOM      2  C   UNL A   1      34.766  24.140  23.772  1.00  0.00     0.117 C 
BRANCH   2   3
ATOM      3  N   UNL A   1      34.636  25.234  24.719  1.00  0.00    -0.354 N 
ATOM      4  C   UNL A   1      33.539  25.997  25.001  1.00  0.00     0.247 C 
ATOM      5  O   UNL A   1      33.746  27.112  25.479  1.00  0.00    -0.272 OA
ATOM      6  H   UNL A   1      35.450  25.455  25.226  1.00  0.00     0.163 HD
BRANCH   4   7
ATOM      7  C   UNL A   1      32.125  25.485  24.610  1.00  0.00     0.202 C 
BRANCH   7   8
ATOM      8  N   UNL A   1      31.319  24.850  25.655  1.00  0.00    -0.336 N 
ATOM      9  C   UNL A   1      31.405  23.683  26.369  1.00  0.00     0.255 C 
ATOM     10  O   UNL A   1      30.634  23.543  27.321  1.00  0.00    -0.269 OA
ATOM     11  H   UNL A   1      30.532  25.387  25.904  1.00  0.00     0.165 HD
BRANCH   9  12
ATOM     12  C   UNL A   1      32.234  22.523  25.987  1.00  0.00     0.078 A 
ATOM     13  C   UNL A   1      33.693  20.284  25.090  1.00  0.00     0.157 A 
ATOM     14  C   UNL A   1      32.370  20.460  24.684  1.00  0.00     0.050 A 
ATOM     15  C   UNL A   1      34.245  21.188  25.999  1.00  0.00     0.201 A 
ATOM     16  C   UNL A   1      31.647  21.576  25.128  1.00  0.00     0.021 A 
ATOM     17  C   UNL A   1      33.516  22.283  26.456  1.00  0.00     0.175 A 
ATOM     18  F   UNL A   1      35.503  21.016  26.433  1.00  0.00    -0.200 F 
ATOM     19  F   UNL A   1      34.078  23.089  27.360  1.00  0.00    -0.203 F 
BRANCH  13  20
ATOM     20  O   UNL A   1      34.497  19.250  24.698  1.00  0.00    -0.494 OA
ATOM     21  C   UNL A   1      33.871  17.974  24.597  1.00  0.00     0.278 C 
ENDBRANCH  13  20
ENDBRANCH   9  12
ENDBRANCH   7   8
BRANCH   7  22
ATOM     22  C   UNL A   1      31.324  26.419  23.761  1.00  0.00     0.011 C 
ATOM     23  C   UNL A   1      31.629  26.847  22.526  1.00  0.00     0.064 C 
ATOM     24  C   UNL A   1      30.061  27.139  24.106  1.00  0.00     0.156 C 
ATOM     25  C   UNL A   1      32.818  26.525  21.685  1.00  0.00     0.069 C 
ATOM     26  N   UNL A   1      30.708  27.733  22.027  1.00  0.00    -0.160 NA
ATOM     27  N   UNL A   1      29.801  27.941  22.874  1.00  0.00    -0.181 NA
ATOM     28  C   UNL A   1      28.828  26.278  24.349  1.00  0.00     0.040 C 
ENDBRANCH   7  22
ENDBRANCH   4   7
ENDBRANCH   2   3
ENDBRANCH   1   2
BRANCH   1  29
ATOM     29  C   UNL A   1      36.915  23.811  25.109  1.00  0.00     0.118 C 
BRANCH  29  30
ATOM     30  N   UNL A   1      37.893  22.772  25.394  1.00  0.00    -0.352 N 
ATOM     31  C   UNL A   1      39.076  22.889  26.090  1.00  0.00     0.251 C 
ATOM     32  H   UNL A   1      37.683  21.875  25.047  1.00  0.00     0.163 HD
ATOM     33  O   UNL A   1      39.863  21.958  26.128  1.00  0.00    -0.269 OA
BRANCH  31  34
ATOM     34  C   UNL A   1      39.383  24.171  26.762  1.00  0.00     0.039 A 
ATOM     35  C   UNL A   1      38.950  24.367  28.075  1.00  0.00     0.014 A 
ATOM     36  C   UNL A   1      40.131  25.153  26.107  1.00  0.00     0.014 A 
ATOM     37  C   UNL A   1      39.314  25.534  28.751  1.00  0.00     0.010 A 
ATOM     38  C   UNL A   1      40.551  26.280  26.805  1.00  0.00     0.010 A 
ATOM     39  C   UNL A   1      40.140  26.487  28.131  1.00  0.00    -0.014 A 
BRANCH  39  40
ATOM     40  C   UNL A   1      40.566  27.719  28.842  1.00  0.00     0.031 A 
ATOM     41  C   UNL A   1      41.930  27.782  29.476  1.00  0.00     0.074 A 
ATOM     42  C   UNL A   1      39.712  28.753  28.969  1.00  0.00     0.049 A 
ATOM     43  N   UNL A   1      42.464  28.738  30.192  1.00  0.00    -0.248 NA
ATOM     44  C   UNL A   1      42.796  26.604  29.306  1.00  0.00     0.031 C 
ATOM     45  C   UNL A   1      38.350  28.801  28.433  1.00  0.00     0.029 A 
ATOM     46  N   UNL A   1      39.863  29.966  29.596  1.00  0.00    -0.354 N 
ATOM     47  C   UNL A   1      43.716  28.270  30.572  1.00  0.00     0.074 A 
ATOM     48  C   UNL A   1      43.841  26.926  30.054  1.00  0.00     0.031 C 
ATOM     49  C   UNL A   1      37.801  29.992  28.730  1.00  0.00     0.029 A 
ATOM     50  C   UNL A   1      38.756  30.776  29.507  1.00  0.00     0.049 A 
ATOM     51  H   UNL A   1      40.689  30.230  30.064  1.00  0.00     0.167 HD
ATOM     52  C   UNL A   1      44.684  28.908  31.272  1.00  0.00     0.031 A 
ATOM     53  C   UNL A   1      38.534  32.011  29.998  1.00  0.00     0.031 A 
ATOM     54  C   UNL A   1      44.564  30.250  31.775  1.00  0.00     0.049 A 
ATOM     55  C   UNL A   1      39.626  32.702  30.769  1.00  0.00     0.074 A 
ATOM     56  C   UNL A   1      45.505  31.002  32.454  1.00  0.00     0.029 A 
ATOM     57  N   UNL A   1      43.434  31.043  31.645  1.00  0.00    -0.354 N 
ATOM     58  N   UNL A   1      40.824  32.262  31.074  1.00  0.00    -0.248 NA
ATOM     59  C   UNL A   1      39.342  34.061  31.247  1.00  0.00     0.031 C 
ATOM     60  C   UNL A   1      44.930  32.238  32.772  1.00  0.00     0.029 A 
ATOM     61  C   UNL A   1      43.649  32.273  32.243  1.00  0.00     0.049 A 
ATOM     62  H   UNL A   1      42.602  30.772  31.195  1.00  0.00     0.167 HD
ATOM     63  C   UNL A   1      41.447  33.304  31.752  1.00  0.00     0.074 A 
ATOM     64  C   UNL A   1      40.497  34.396  31.804  1.00  0.00     0.031 C 
ATOM     65  C   UNL A   1      42.695  33.352  32.279  1.00  0.00     0.031 A 
BRANCH  52  66
ATOM     66  C   UNL A   1      45.959  28.150  31.535  1.00  0.00    -0.014 A 
ATOM     67  C   UNL A   1      46.083  27.310  32.658  1.00  0.00     0.010 A 
ATOM     68  C   UNL A   1      47.040  28.264  30.643  1.00  0.00     0.010 A 
ATOM     69  C   UNL A   1      47.282  26.639  32.911  1.00  0.00     0.020 A 
ATOM     70  C   UNL A   1      48.231  27.570  30.876  1.00  0.00     0.020 A 
ATOM     71  C   UNL A   1      48.351  26.778  32.021  1.00  0.00     0.054 A 
BRANCH  71  72
ATOM     72  S   UNL A   1      49.894  25.890  32.370  1.00  0.00     0.124 S 
ATOM     73  O   UNL A   1      50.885  26.958  32.260  1.00  0.00    -0.237 OA
ATOM     74  O   UNL A   1      49.671  25.378  33.719  1.00  0.00    -0.237 OA
ATOM     75  O   UNL A   1      49.953  24.874  31.322  1.00  0.00    -0.744 OA
ENDBRANCH  71  72
ENDBRANCH  52  66
BRANCH  53  76
ATOM     76  C   UNL A   1      37.232  32.687  29.747  1.00  0.00    -0.014 A 
ATOM     77  C   UNL A   1      37.072  33.526  28.630  1.00  0.00     0.010 A 
ATOM     78  C   UNL A   1      36.143  32.484  30.613  1.00  0.00     0.010 A 
ATOM     79  C   UNL A   1      35.850  34.164  28.394  1.00  0.00     0.020 A 
ATOM     80  C   UNL A   1      34.913  33.099  30.365  1.00  0.00     0.020 A 
ATOM     81  C   UNL A   1      34.777  33.945  29.262  1.00  0.00     0.054 A 
BRANCH  81  82
ATOM     82  S   UNL A   1      33.184  34.738  28.904  1.00  0.00     0.124 S 
ATOM     83  O   UNL A   1      32.607  33.826  27.921  1.00  0.00    -0.237 OA
ATOM     84  O   UNL A   1      32.536  34.750  30.213  1.00  0.00    -0.237 OA
ATOM     85  O   UNL A   1      33.565  36.052  28.394  1.00  0.00    -0.744 OA
ENDBRANCH  81  82
ENDBRANCH  53  76
BRANCH  65  86
ATOM     86  C   UNL A   1      43.127  34.644  32.919  1.00  0.00    -0.014 A 
ATOM     87  C   UNL A   1      42.869  34.912  34.274  1.00  0.00     0.010 A 
ATOM     88  C   UNL A   1      43.853  35.580  32.159  1.00  0.00     0.010 A 
ATOM     89  C   UNL A   1      43.302  36.109  34.850  1.00  0.00     0.020 A 
ATOM     90  C   UNL A   1      44.311  36.766  32.739  1.00  0.00     0.020 A 
ATOM     91  C   UNL A   1      44.019  37.029  34.078  1.00  0.00     0.054 A 
BRANCH  91  92
ATOM     92  S   UNL A   1      44.609  38.556  34.860  1.00  0.00     0.124 S 
ATOM     93  O   UNL A   1      46.012  38.582  34.452  1.00  0.00    -0.237 OA
ATOM     94  O   UNL A   1      43.760  39.578  34.254  1.00  0.00    -0.237 OA
ATOM     95  O   UNL A   1      44.378  38.326  36.284  1.00  0.00    -0.744 OA
ENDBRANCH  91  92
ENDBRANCH  65  86
ENDBRANCH  39  40
ENDBRANCH  31  34
ENDBRANCH  29  30
ENDBRANCH   1  29
TORSDOF 17
ENDMDL
MODEL 3
REMARK VINA RESULT:     -11.2      3.276      4.833
REMARK SMILES COc1ccc(C(=O)N[C@H](C(=O)NCCCNC(=O)c2ccc(-c3c4nc(c(-c5ccc(S(=O)(=O)[O-])cc5)c5ccc([nH]5)c(-c5ccc(S(=O)(=O)[O-])cc5)c5nc(c(-c6ccc(S(=O)(=O)[O-])cc6)c6ccc3[nH]6)C=C5)C=C4)cc2)C2=C(C)N=N[C@H]2C)c(F)c1F
REMARK SMILES IDX 15 1 14 2 13 3 11 4 12 5 10 7 9 8 7 9 8 10 6 12 3 13 4 14
REMARK SMILES IDX 89 15 5 16 87 17 90 18 88 19 2 20 1 21 80 22 81 23 85 24
REMARK SMILES IDX 82 25 83 26 84 27 86 28 16 29 17 30 18 31 19 33 20 34 21 35
REMARK SMILES IDX 79 36 22 37 78 38 23 39 24 40 25 41 72 42 26 43 77 44 71 45
REMARK SMILES IDX 73 46 27 47 76 48 70 49 69 50 28 52 58 53 39 54 57 55 40 56
REMARK SMILES IDX 43 57 56 58 74 59 41 60 42 61 55 63 75 64 44 65 29 66 30 67
REMARK SMILES IDX 38 68 31 69 37 70 32 71 33 72 34 73 35 74 36 75 59 76 60 77
REMARK SMILES IDX 68 78 61 79 67 80 62 81 63 82 64 83 65 84 66 85 45 86 46 87
REMARK SMILES IDX 54 88 47 89 53 90 48 91 49 92 50 93 51 94 52 95
REMARK H PARENT 13 6 9 11 17 32 73 51 43 62
REMARK Flexibility Score: inf
ROOT
ATOM      1  C   UNL A   1      33.933  29.170  26.846  1.00  0.00     0.042 C 
ENDROOT
BRANCH   1   2
ATOM      2  C   UNL A   1      33.644  27.839  26.160  1.00  0.00     0.117 C 
BRANCH   2   3
ATOM      3  N   UNL A   1      32.523  27.172  26.798  1.00  0.00    -0.354 N 
ATOM      4  C   UNL A   1      31.519  26.445  26.226  1.00  0.00     0.247 C 
ATOM      5  O   UNL A   1      30.468  26.351  26.861  1.00  0.00    -0.272 OA
ATOM      6  H   UNL A   1      32.481  27.257  27.778  1.00  0.00     0.163 HD
BRANCH   4   7
ATOM      7  C   UNL A   1      31.700  25.882  24.790  1.00  0.00     0.202 C 
BRANCH   7   8
ATOM      8  N   UNL A   1      31.450  24.453  24.583  1.00  0.00    -0.336 N 
ATOM      9  C   UNL A   1      32.189  23.309  24.740  1.00  0.00     0.255 C 
ATOM     10  O   UNL A   1      31.596  22.233  24.641  1.00  0.00    -0.269 OA
ATOM     11  H   UNL A   1      30.540  24.272  24.257  1.00  0.00     0.165 HD
BRANCH   9  12
ATOM     12  C   UNL A   1      33.661  23.268  24.855  1.00  0.00     0.078 A 
ATOM     13  C   UNL A   1      36.445  23.141  25.275  1.00  0.00     0.157 A 
ATOM     14  C   UNL A   1      35.589  23.372  26.352  1.00  0.00     0.050 A 
ATOM     15  C   UNL A   1      35.904  23.050  23.991  1.00  0.00     0.201 A 
ATOM     16  C   UNL A   1      34.205  23.432  26.142  1.00  0.00     0.021 A 
ATOM     17  C   UNL A   1      34.530  23.134  23.783  1.00  0.00     0.175 A 
ATOM     18  F   UNL A   1      36.712  22.867  22.936  1.00  0.00    -0.200 F 
ATOM     19  F   UNL A   1      34.072  23.088  22.530  1.00  0.00    -0.203 F 
BRANCH  13  20
ATOM     20  O   UNL A   1      37.805  23.037  25.369  1.00  0.00    -0.494 OA
ATOM     21  C   UNL A   1      38.443  23.960  26.247  1.00  0.00     0.278 C 
ENDBRANCH  13  20
ENDBRANCH   9  12
ENDBRANCH   7   8
BRANCH   7  22
ATOM     22  C   UNL A   1      31.121  26.725  23.699  1.00  0.00     0.011 C 
ATOM     23  C   UNL A   1      31.678  26.996  22.508  1.00  0.00     0.064 C 
ATOM     24  C   UNL A   1      29.849  27.507  23.704  1.00  0.00     0.156 C 
ATOM     25  C   UNL A   1      32.993  26.549  21.962  1.00  0.00     0.069 C 
ATOM     26  N   UNL A   1      30.913  27.835  21.740  1.00  0.00    -0.160 NA
ATOM     27  N   UNL A   1      29.869  28.162  22.362  1.00  0.00    -0.181 NA
ATOM     28  C   UNL A   1      28.555  26.708  23.793  1.00  0.00     0.040 C 
ENDBRANCH   7  22
ENDBRANCH   4   7
ENDBRANCH   2   3
ENDBRANCH   1   2
BRANCH   1  29
ATOM     29  C   UNL A   1      35.297  29.224  27.525  1.00  0.00     0.118 C 
BRANCH  29  30
ATOM     30  N   UNL A   1      35.291  30.026  28.738  1.00  0.00    -0.352 N 
ATOM     31  C   UNL A   1      36.331  30.249  29.613  1.00  0.00     0.251 C 
ATOM     32  H   UNL A   1      34.438  30.464  28.961  1.00  0.00     0.163 HD
ATOM     33  O   UNL A   1      36.137  30.833  30.666  1.00  0.00    -0.269 OA
BRANCH  31  34
ATOM     34  C   UNL A   1      37.677  29.743  29.262  1.00  0.00     0.039 A 
ATOM     35  C   UNL A   1      38.099  29.806  27.933  1.00  0.00     0.014 A 
ATOM     36  C   UNL A   1      38.528  29.248  30.255  1.00  0.00     0.014 A 
ATOM     37  C   UNL A   1      39.401  29.419  27.607  1.00  0.00     0.010 A 
ATOM     38  C   UNL A   1      39.844  28.930  29.938  1.00  0.00     0.010 A 
ATOM     39  C   UNL A   1      40.292  29.003  28.610  1.00  0.00    -0.014 A 
BRANCH  39  40
ATOM     40  C   UNL A   1      41.690  28.618  28.291  1.00  0.00     0.031 A 
ATOM     41  C   UNL A   1      42.770  29.667  28.274  1.00  0.00     0.074 A 
ATOM     42  C   UNL A   1      41.979  27.344  27.960  1.00  0.00     0.049 A 
ATOM     43  N   UNL A   1      44.033  29.546  27.959  1.00  0.00    -0.248 NA
ATOM     44  C   UNL A   1      42.368  31.037  28.631  1.00  0.00     0.031 C 
ATOM     45  C   UNL A   1      41.016  26.242  27.902  1.00  0.00     0.029 A 
ATOM     46  N   UNL A   1      43.170  26.761  27.604  1.00  0.00    -0.354 N 
ATOM     47  C   UNL A   1      44.572  30.823  28.061  1.00  0.00     0.074 A 
ATOM     48  C   UNL A   1      43.488  31.712  28.415  1.00  0.00     0.031 C 
ATOM     49  C   UNL A   1      41.659  25.113  27.560  1.00  0.00     0.029 A 
ATOM     50  C   UNL A   1      43.069  25.416  27.338  1.00  0.00     0.049 A 
ATOM     51  H   UNL A   1      44.016  27.261  27.545  1.00  0.00     0.167 HD
ATOM     52  C   UNL A   1      45.856  31.219  27.896  1.00  0.00     0.031 A 
ATOM     53  C   UNL A   1      44.008  24.527  26.957  1.00  0.00     0.031 A 
ATOM     54  C   UNL A   1      46.936  30.331  27.560  1.00  0.00     0.049 A 
ATOM     55  C   UNL A   1      45.429  24.988  26.784  1.00  0.00     0.074 A 
ATOM     56  C   UNL A   1      48.280  30.625  27.416  1.00  0.00     0.029 A 
ATOM     57  N   UNL A   1      46.795  28.972  27.319  1.00  0.00    -0.354 N 
ATOM     58  N   UNL A   1      45.929  26.192  26.936  1.00  0.00    -0.248 NA
ATOM     59  C   UNL A   1      46.416  23.968  26.405  1.00  0.00     0.031 C 
ATOM     60  C   UNL A   1      48.948  29.451  27.050  1.00  0.00     0.029 A 
ATOM     61  C   UNL A   1      48.026  28.415  27.017  1.00  0.00     0.049 A 
ATOM     62  H   UNL A   1      45.946  28.476  27.358  1.00  0.00     0.167 HD
ATOM     63  C   UNL A   1      47.294  26.067  26.702  1.00  0.00     0.074 A 
ATOM     64  C   UNL A   1      47.541  24.670  26.408  1.00  0.00     0.031 C 
ATOM     65  C   UNL A   1      48.256  27.021  26.734  1.00  0.00     0.031 A 
BRANCH  52  66
ATOM     66  C   UNL A   1      46.157  32.683  28.078  1.00  0.00    -0.014 A 
ATOM     67  C   UNL A   1      46.508  33.199  29.339  1.00  0.00     0.010 A 
ATOM     68  C   UNL A   1      46.105  33.553  26.973  1.00  0.00     0.010 A 
ATOM     69  C   UNL A   1      46.751  34.565  29.503  1.00  0.00     0.020 A 
ATOM     70  C   UNL A   1      46.377  34.915  27.127  1.00  0.00     0.020 A 
ATOM     71  C   UNL A   1      46.678  35.416  28.397  1.00  0.00     0.054 A 
BRANCH  71  72
ATOM     72  S   UNL A   1      47.004  37.184  28.636  1.00  0.00     0.124 S 
ATOM     73  O   UNL A   1      48.450  37.251  28.437  1.00  0.00    -0.237 OA
ATOM     74  O   UNL A   1      46.198  37.804  27.587  1.00  0.00    -0.237 OA
ATOM     75  O   UNL A   1      46.550  37.438  30.000  1.00  0.00    -0.744 OA
ENDBRANCH  71  72
ENDBRANCH  52  66
BRANCH  53  76
ATOM     76  C   UNL A   1      43.637  23.101  26.743  1.00  0.00    -0.014 A 
ATOM     77  C   UNL A   1      43.919  22.471  25.518  1.00  0.00     0.010 A 
ATOM     78  C   UNL A   1      43.015  22.363  27.766  1.00  0.00     0.010 A 
ATOM     79  C   UNL A   1      43.570  21.132  25.314  1.00  0.00     0.020 A 
ATOM     80  C   UNL A   1      42.689  21.018  27.575  1.00  0.00     0.020 A 
ATOM     81  C   UNL A   1      42.958  20.414  26.344  1.00  0.00     0.054 A 
BRANCH  81  82
ATOM     82  S   UNL A   1      42.567  18.662  26.078  1.00  0.00     0.124 S 
ATOM     83  O   UNL A   1      42.850  18.085  27.388  1.00  0.00    -0.237 OA
ATOM     84  O   UNL A   1      41.157  18.708  25.697  1.00  0.00    -0.237 OA
ATOM     85  O   UNL A   1      43.480  18.268  25.008  1.00  0.00    -0.744 OA
ENDBRANCH  81  82
ENDBRANCH  53  76
BRANCH  65  86
ATOM     86  C   UNL A   1      49.675  26.584  26.488  1.00  0.00    -0.014 A 
ATOM     87  C   UNL A   1      50.508  26.178  27.545  1.00  0.00     0.010 A 
ATOM     88  C   UNL A   1      50.159  26.527  25.168  1.00  0.00     0.010 A 
ATOM     89  C   UNL A   1      51.814  25.754  27.288  1.00  0.00     0.020 A 
ATOM     90  C   UNL A   1      51.455  26.077  24.906  1.00  0.00     0.020 A 
ATOM     91  C   UNL A   1      52.280  25.707  25.969  1.00  0.00     0.054 A 
BRANCH  91  92
ATOM     92  S   UNL A   1      53.964  25.110  25.657  1.00  0.00     0.124 S 
ATOM     93  O   UNL A   1      54.481  24.938  27.012  1.00  0.00    -0.237 OA
ATOM     94  O   UNL A   1      53.735  23.875  24.911  1.00  0.00    -0.237 OA
ATOM     95  O   UNL A   1      54.577  26.190  24.888  1.00  0.00    -0.744 OA
ENDBRANCH  91  92
ENDBRANCH  65  86
ENDBRANCH  39  40
ENDBRANCH  31  34
ENDBRANCH  29  30
ENDBRANCH   1  29
TORSDOF 17
ENDMDL
