MODEL 1
REMARK VINA RESULT:     -10.7      0.000      0.000
REMARK SMILES CC(C)C[C@H](NC(=O)[C@H](Cc1ccccc1)NC(=O)CNC(=O)C[NH3+])C(=O)NCCCNC(=O)c1ccc(-c2c3nc(c(-c4ccc(S(=O)(=O)[O-])cc4)c4ccc([nH]4)c(-c4ccc(S(=O)(=O)[O-])cc4)c4nc(c(-c5ccc(S(=O)(=O)[O-])cc5)c5ccc2[nH]5)C=C4)C=C3)cc1
REMARK SMILES IDX 26 1 27 2 28 3 5 5 4 6 2 7 1 8 3 9 6 10 7 11 8 13 9 14 17 15
REMARK SMILES IDX 18 16 19 18 20 19 21 20 22 21 23 23 24 24 25 25 10 29 11 30
REMARK SMILES IDX 12 31 16 32 13 33 15 34 14 35 29 36 30 37 31 38 32 39 33 40
REMARK SMILES IDX 34 42 35 43 36 44 94 45 37 46 93 47 38 48 39 49 40 50 87 51
REMARK SMILES IDX 41 52 92 53 86 54 88 55 42 56 91 57 85 58 84 59 43 61 73 62
REMARK SMILES IDX 54 63 72 64 55 65 58 66 71 67 89 68 56 69 57 70 70 72 90 73
REMARK SMILES IDX 59 74 44 75 45 76 53 77 46 78 52 79 47 80 48 81 49 82 50 83
REMARK SMILES IDX 51 84 74 85 75 86 83 87 76 88 82 89 77 90 78 91 79 92 80 93
REMARK SMILES IDX 81 94 60 95 61 96 69 97 62 98 68 99 63 100 64 101 65 102
REMARK SMILES IDX 66 103 67 104
REMARK H PARENT 28 4 6 12 17 17 21 22 25 26 25 27 25 28 32 41 88 60 58 71
REMARK Flexibility Score: inf
ROOT
ATOM      1  C   UNL A   1      33.083  22.562  23.277  1.00  0.00     0.242 C 
ATOM      2  O   UNL A   1      32.241  22.100  22.499  1.00  0.00    -0.273 OA
ATOM      3  N   UNL A   1      34.222  21.839  23.426  1.00  0.00    -0.354 N 
ATOM      4  H   UNL A   1      34.157  20.912  23.102  1.00  0.00     0.163 HD
ENDROOT
BRANCH   1   5
ATOM      5  C   UNL A   1      32.848  23.935  23.931  1.00  0.00     0.171 C 
BRANCH   5   6
ATOM      6  C   UNL A   1      33.926  25.008  23.655  1.00  0.00     0.038 C 
BRANCH   6   7
ATOM      7  C   UNL A   1      33.655  26.044  22.548  1.00  0.00    -0.015 C 
ATOM      8  C   UNL A   1      32.294  25.814  21.882  1.00  0.00     0.007 C 
ATOM      9  C   UNL A   1      33.677  27.467  23.120  1.00  0.00     0.007 C 
ENDBRANCH   6   7
ENDBRANCH   5   6
BRANCH   5  10
ATOM     10  N   UNL A   1      32.439  23.893  25.331  1.00  0.00    -0.343 N 
ATOM     11  C   UNL A   1      31.802  24.791  26.129  1.00  0.00     0.243 C 
ATOM     12  H   UNL A   1      32.669  23.050  25.787  1.00  0.00     0.164 HD
ATOM     13  O   UNL A   1      31.545  24.382  27.270  1.00  0.00    -0.273 OA
BRANCH  11  14
ATOM     14  C   UNL A   1      31.380  26.228  25.699  1.00  0.00     0.175 C 
BRANCH  14  15
ATOM     15  N   UNL A   1      30.079  26.135  24.998  1.00  0.00    -0.342 N 
ATOM     16  C   UNL A   1      29.436  26.991  24.163  1.00  0.00     0.240 C 
ATOM     17  H   UNL A   1      29.589  25.299  25.170  1.00  0.00     0.164 HD
ATOM     18  O   UNL A   1      28.283  26.705  23.824  1.00  0.00    -0.273 OA
BRANCH  16  19
ATOM     19  C   UNL A   1      30.158  28.168  23.505  1.00  0.00     0.216 C 
BRANCH  19  20
ATOM     20  N   UNL A   1      29.540  28.722  22.313  1.00  0.00    -0.342 N 
ATOM     21  C   UNL A   1      28.843  29.892  22.202  1.00  0.00     0.275 C 
ATOM     22  H   UNL A   1      29.634  28.191  21.489  1.00  0.00     0.164 HD
ATOM     23  O   UNL A   1      28.363  30.193  21.108  1.00  0.00    -0.268 OA
BRANCH  21  24
ATOM     24  C   UNL A   1      28.647  30.773  23.440  1.00  0.00     0.360 C 
BRANCH  24  25
ATOM     25  N   UNL A   1      27.648  31.815  23.165  1.00  0.00    -0.350 N 
ATOM     26  H   UNL A   1      26.752  31.377  22.948  1.00  0.00     0.344 HD
ATOM     27  H   UNL A   1      27.952  32.377  22.370  1.00  0.00     0.344 HD
ATOM     28  H   UNL A   1      27.545  32.413  23.985  1.00  0.00     0.344 HD
ENDBRANCH  24  25
ENDBRANCH  21  24
ENDBRANCH  19  20
ENDBRANCH  16  19
ENDBRANCH  14  15
BRANCH  14  29
ATOM     29  C   UNL A   1      31.229  27.317  26.778  1.00  0.00     0.070 C 
BRANCH  29  30
ATOM     30  C   UNL A   1      32.276  28.405  26.908  1.00  0.00    -0.045 A 
ATOM     31  C   UNL A   1      31.992  29.764  27.100  1.00  0.00     0.004 A 
ATOM     32  C   UNL A   1      33.625  28.020  26.821  1.00  0.00     0.004 A 
ATOM     33  C   UNL A   1      33.019  30.698  27.252  1.00  0.00     0.000 A 
ATOM     34  C   UNL A   1      34.652  28.957  26.951  1.00  0.00     0.000 A 
ATOM     35  C   UNL A   1      34.347  30.296  27.177  1.00  0.00     0.000 A 
ENDBRANCH  29  30
ENDBRANCH  14  29
ENDBRANCH  11  14
ENDBRANCH   5  10
ENDBRANCH   1   5
BRANCH   3  36
ATOM     36  C   UNL A   1      35.517  22.189  23.977  1.00  0.00     0.117 C 
BRANCH  36  37
ATOM     37  C   UNL A   1      35.581  22.069  25.488  1.00  0.00     0.042 C 
BRANCH  37  38
ATOM     38  C   UNL A   1      36.677  22.912  26.126  1.00  0.00     0.118 C 
BRANCH  38  39
ATOM     39  N   UNL A   1      37.986  22.264  26.134  1.00  0.00    -0.352 N 
ATOM     40  C   UNL A   1      39.235  22.770  26.420  1.00  0.00     0.251 C 
ATOM     41  H   UNL A   1      37.974  21.309  25.897  1.00  0.00     0.163 HD
ATOM     42  O   UNL A   1      40.234  22.087  26.212  1.00  0.00    -0.269 OA
BRANCH  40  43
ATOM     43  C   UNL A   1      39.369  24.150  26.929  1.00  0.00     0.039 A 
ATOM     44  C   UNL A   1      38.926  24.456  28.218  1.00  0.00     0.014 A 
ATOM     45  C   UNL A   1      39.985  25.129  26.152  1.00  0.00     0.014 A 
ATOM     46  C   UNL A   1      39.223  25.705  28.768  1.00  0.00     0.010 A 
ATOM     47  C   UNL A   1      40.393  26.314  26.743  1.00  0.00     0.010 A 
ATOM     48  C   UNL A   1      40.024  26.617  28.062  1.00  0.00    -0.014 A 
BRANCH  48  49
ATOM     49  C   UNL A   1      40.513  27.883  28.668  1.00  0.00     0.031 A 
ATOM     50  C   UNL A   1      41.909  27.953  29.234  1.00  0.00     0.074 A 
ATOM     51  C   UNL A   1      39.669  28.924  28.822  1.00  0.00     0.049 A 
ATOM     52  N   UNL A   1      42.461  28.896  29.952  1.00  0.00    -0.248 NA
ATOM     53  C   UNL A   1      42.779  26.787  29.004  1.00  0.00     0.031 C 
ATOM     54  C   UNL A   1      38.272  28.963  28.376  1.00  0.00     0.029 A 
ATOM     55  N   UNL A   1      39.857  30.149  29.412  1.00  0.00    -0.354 N 
ATOM     56  C   UNL A   1      43.722  28.419  30.294  1.00  0.00     0.074 A 
ATOM     57  C   UNL A   1      43.829  27.082  29.753  1.00  0.00     0.031 C 
ATOM     58  C   UNL A   1      37.745  30.160  28.677  1.00  0.00     0.029 A 
ATOM     59  C   UNL A   1      38.743  30.957  29.381  1.00  0.00     0.049 A 
ATOM     60  H   UNL A   1      40.710  30.424  29.820  1.00  0.00     0.167 HD
ATOM     61  C   UNL A   1      44.710  29.043  30.978  1.00  0.00     0.031 A 
ATOM     62  C   UNL A   1      38.543  32.194  29.873  1.00  0.00     0.031 A 
ATOM     63  C   UNL A   1      44.617  30.390  31.470  1.00  0.00     0.049 A 
ATOM     64  C   UNL A   1      39.668  32.882  30.595  1.00  0.00     0.074 A 
ATOM     65  C   UNL A   1      45.589  31.145  32.101  1.00  0.00     0.029 A 
ATOM     66  N   UNL A   1      43.486  31.186  31.376  1.00  0.00    -0.354 N 
ATOM     67  N   UNL A   1      40.873  32.435  30.857  1.00  0.00    -0.248 NA
ATOM     68  C   UNL A   1      39.407  34.244  31.083  1.00  0.00     0.031 C 
ATOM     69  C   UNL A   1      45.034  32.387  32.422  1.00  0.00     0.029 A 
ATOM     70  C   UNL A   1      43.731  32.421  31.950  1.00  0.00     0.049 A 
ATOM     71  H   UNL A   1      42.636  30.915  30.962  1.00  0.00     0.167 HD
ATOM     72  C   UNL A   1      41.521  33.467  31.525  1.00  0.00     0.074 A 
ATOM     73  C   UNL A   1      40.581  34.567  31.610  1.00  0.00     0.031 C 
ATOM     74  C   UNL A   1      42.780  33.501  32.024  1.00  0.00     0.031 A 
BRANCH  61  75
ATOM     75  C   UNL A   1      45.980  28.271  31.218  1.00  0.00    -0.014 A 
ATOM     76  C   UNL A   1      47.034  28.300  30.287  1.00  0.00     0.010 A 
ATOM     77  C   UNL A   1      46.131  27.519  32.398  1.00  0.00     0.010 A 
ATOM     78  C   UNL A   1      48.193  27.550  30.504  1.00  0.00     0.020 A 
ATOM     79  C   UNL A   1      47.301  26.791  32.633  1.00  0.00     0.020 A 
ATOM     80  C   UNL A   1      48.315  26.795  31.674  1.00  0.00     0.054 A 
BRANCH  80  81
ATOM     81  S   UNL A   1      49.835  25.839  31.936  1.00  0.00     0.124 S 
ATOM     82  O   UNL A   1      50.137  25.380  30.582  1.00  0.00    -0.237 OA
ATOM     83  O   UNL A   1      50.753  26.836  32.480  1.00  0.00    -0.237 OA
ATOM     84  O   UNL A   1      49.429  24.793  32.872  1.00  0.00    -0.744 OA
ENDBRANCH  80  81
ENDBRANCH  61  75
BRANCH  62  85
ATOM     85  C   UNL A   1      37.231  32.871  29.678  1.00  0.00    -0.014 A 
ATOM     86  C   UNL A   1      36.449  33.228  30.791  1.00  0.00     0.010 A 
ATOM     87  C   UNL A   1      36.764  33.178  28.387  1.00  0.00     0.010 A 
ATOM     88  C   UNL A   1      35.217  33.864  30.616  1.00  0.00     0.020 A 
ATOM     89  C   UNL A   1      35.544  33.836  28.209  1.00  0.00     0.020 A 
ATOM     90  C   UNL A   1      34.772  34.166  29.325  1.00  0.00     0.054 A 
BRANCH  90  91
ATOM     91  S   UNL A   1      33.195  35.042  29.126  1.00  0.00     0.124 S 
ATOM     92  O   UNL A   1      32.536  34.247  28.096  1.00  0.00    -0.237 OA
ATOM     93  O   UNL A   1      32.613  34.953  30.463  1.00  0.00    -0.237 OA
ATOM     94  O   UNL A   1      33.602  36.385  28.721  1.00  0.00    -0.744 OA
ENDBRANCH  90  91
ENDBRANCH  62  85
BRANCH  74  95
ATOM     95  C   UNL A   1      43.224  34.775  32.688  1.00  0.00    -0.014 A 
ATOM     96  C   UNL A   1      43.737  35.843  31.933  1.00  0.00     0.010 A 
ATOM     97  C   UNL A   1      43.065  34.926  34.078  1.00  0.00     0.010 A 
ATOM     98  C   UNL A   1      44.108  37.035  32.561  1.00  0.00     0.020 A 
ATOM     99  C   UNL A   1      43.411  36.124  34.705  1.00  0.00     0.020 A 
ATOM    100  C   UNL A   1      43.941  37.168  33.944  1.00  0.00     0.054 A 
BRANCH 100 101
ATOM    101  S   UNL A   1      44.379  38.743  34.728  1.00  0.00     0.124 S 
ATOM    102  O   UNL A   1      43.696  39.709  33.871  1.00  0.00    -0.237 OA
ATOM    103  O   UNL A   1      43.829  38.597  36.073  1.00  0.00    -0.237 OA
ATOM    104  O   UNL A   1      45.838  38.770  34.658  1.00  0.00    -0.744 OA
ENDBRANCH 100 101
ENDBRANCH  74  95
ENDBRANCH  48  49
ENDBRANCH  40  43
ENDBRANCH  38  39
ENDBRANCH  37  38
ENDBRANCH  36  37
ENDBRANCH   3  36
TORSDOF 24
ENDMDL
MODEL 2
REMARK VINA RESULT:     -10.4      1.567      3.130
REMARK SMILES CC(C)C[C@H](NC(=O)[C@H](Cc1ccccc1)NC(=O)CNC(=O)C[NH3+])C(=O)NCCCNC(=O)c1ccc(-c2c3nc(c(-c4ccc(S(=O)(=O)[O-])cc4)c4ccc([nH]4)c(-c4ccc(S(=O)(=O)[O-])cc4)c4nc(c(-c5ccc(S(=O)(=O)[O-])cc5)c5ccc2[nH]5)C=C4)C=C3)cc1
REMARK SMILES IDX 26 1 27 2 28 3 5 5 4 6 2 7 1 8 3 9 6 10 7 11 8 13 9 14 17 15
REMARK SMILES IDX 18 16 19 18 20 19 21 20 22 21 23 23 24 24 25 25 10 29 11 30
REMARK SMILES IDX 12 31 16 32 13 33 15 34 14 35 29 36 30 37 31 38 32 39 33 40
REMARK SMILES IDX 34 42 35 43 36 44 94 45 37 46 93 47 38 48 39 49 40 50 87 51
REMARK SMILES IDX 41 52 92 53 86 54 88 55 42 56 91 57 85 58 84 59 43 61 73 62
REMARK SMILES IDX 54 63 72 64 55 65 58 66 71 67 89 68 56 69 57 70 70 72 90 73
REMARK SMILES IDX 59 74 44 75 45 76 53 77 46 78 52 79 47 80 48 81 49 82 50 83
REMARK SMILES IDX 51 84 74 85 75 86 83 87 76 88 82 89 77 90 78 91 79 92 80 93
REMARK SMILES IDX 81 94 60 95 61 96 69 97 62 98 68 99 63 100 64 101 65 102
REMARK SMILES IDX 66 103 67 104
REMARK H PARENT 28 4 6 12 17 17 21 22 25 26 25 27 25 28 32 41 88 60 58 71
REMARK Flexibility Score: inf
ROOT
ATOM      1  C   UNL A   1      32.954  22.643  23.068  1.00  0.00     0.242 C 
ATOM      2  O   UNL A   1      32.420  21.647  22.567  1.00  0.00    -0.273 OA
ATOM      3  N   UNL A   1      34.283  22.543  23.324  1.00  0.00    -0.354 N 
ATOM      4  H   UNL A   1      34.628  21.621  23.320  1.00  0.00     0.163 HD
ENDROOT
BRANCH   1   5
ATOM      5  C   UNL A   1      32.137  23.931  23.268  1.00  0.00     0.171 C 
BRANCH   5   6
ATOM      6  C   UNL A   1      30.950  23.830  24.252  1.00  0.00     0.038 C 
BRANCH   6   7
ATOM      7  C   UNL A   1      31.255  23.822  25.762  1.00  0.00    -0.015 C 
ATOM      8  C   UNL A   1      31.999  25.091  26.193  1.00  0.00     0.007 C 
ATOM      9  C   UNL A   1      29.958  23.725  26.577  1.00  0.00     0.007 C 
ENDBRANCH   6   7
ENDBRANCH   5   6
BRANCH   5  10
ATOM     10  N   UNL A   1      31.795  24.644  22.041  1.00  0.00    -0.343 N 
ATOM     11  C   UNL A   1      31.649  25.966  21.758  1.00  0.00     0.243 C 
ATOM     12  H   UNL A   1      31.639  24.053  21.269  1.00  0.00     0.164 HD
ATOM     13  O   UNL A   1      31.423  26.220  20.567  1.00  0.00    -0.273 OA
BRANCH  11  14
ATOM     14  C   UNL A   1      31.770  27.121  22.796  1.00  0.00     0.175 C 
BRANCH  14  15
ATOM     15  N   UNL A   1      33.112  27.729  22.656  1.00  0.00    -0.342 N 
ATOM     16  C   UNL A   1      33.920  28.360  23.547  1.00  0.00     0.240 C 
ATOM     17  H   UNL A   1      33.490  27.664  21.749  1.00  0.00     0.164 HD
ATOM     18  O   UNL A   1      34.948  28.891  23.114  1.00  0.00    -0.273 OA
BRANCH  16  19
ATOM     19  C   UNL A   1      33.683  28.266  25.055  1.00  0.00     0.216 C 
BRANCH  19  20
ATOM     20  N   UNL A   1      34.278  29.312  25.869  1.00  0.00    -0.342 N 
ATOM     21  C   UNL A   1      33.634  30.207  26.676  1.00  0.00     0.275 C 
ATOM     22  H   UNL A   1      35.259  29.384  25.836  1.00  0.00     0.164 HD
ATOM     23  O   UNL A   1      34.303  31.048  27.278  1.00  0.00    -0.268 OA
BRANCH  21  24
ATOM     24  C   UNL A   1      32.106  30.166  26.779  1.00  0.00     0.360 C 
BRANCH  24  25
ATOM     25  N   UNL A   1      31.548  31.507  26.555  1.00  0.00    -0.350 N 
ATOM     26  H   UNL A   1      30.586  31.424  26.225  1.00  0.00     0.344 HD
ATOM     27  H   UNL A   1      32.106  31.995  25.854  1.00  0.00     0.344 HD
ATOM     28  H   UNL A   1      31.565  32.033  27.429  1.00  0.00     0.344 HD
ENDBRANCH  24  25
ENDBRANCH  21  24
ENDBRANCH  19  20
ENDBRANCH  16  19
ENDBRANCH  14  15
BRANCH  14  29
ATOM     29  C   UNL A   1      30.751  28.276  22.752  1.00  0.00     0.070 C 
BRANCH  29  30
ATOM     30  C   UNL A   1      29.304  28.025  23.129  1.00  0.00    -0.045 A 
ATOM     31  C   UNL A   1      28.826  26.840  23.704  1.00  0.00     0.004 A 
ATOM     32  C   UNL A   1      28.381  29.053  22.874  1.00  0.00     0.004 A 
ATOM     33  C   UNL A   1      27.482  26.705  24.059  1.00  0.00     0.000 A 
ATOM     34  C   UNL A   1      27.033  28.911  23.209  1.00  0.00     0.000 A 
ATOM     35  C   UNL A   1      26.586  27.739  23.812  1.00  0.00     0.000 A 
ENDBRANCH  29  30
ENDBRANCH  14  29
ENDBRANCH  11  14
ENDBRANCH   5  10
ENDBRANCH   1   5
BRANCH   3  36
ATOM     36  C   UNL A   1      35.287  23.554  23.601  1.00  0.00     0.117 C 
BRANCH  36  37
ATOM     37  C   UNL A   1      36.668  22.978  23.854  1.00  0.00     0.042 C 
BRANCH  37  38
ATOM     38  C   UNL A   1      37.176  23.204  25.272  1.00  0.00     0.118 C 
BRANCH  38  39
ATOM     39  N   UNL A   1      38.392  22.457  25.585  1.00  0.00    -0.352 N 
ATOM     40  C   UNL A   1      39.554  22.856  26.207  1.00  0.00     0.251 C 
ATOM     41  H   UNL A   1      38.378  21.513  25.307  1.00  0.00     0.163 HD
ATOM     42  O   UNL A   1      40.525  22.105  26.230  1.00  0.00    -0.269 OA
BRANCH  40  43
ATOM     43  C   UNL A   1      39.643  24.206  26.800  1.00  0.00     0.039 A 
ATOM     44  C   UNL A   1      39.150  24.428  28.088  1.00  0.00     0.014 A 
ATOM     45  C   UNL A   1      40.266  25.239  26.104  1.00  0.00     0.014 A 
ATOM     46  C   UNL A   1      39.402  25.647  28.720  1.00  0.00     0.010 A 
ATOM     47  C   UNL A   1      40.629  26.395  26.777  1.00  0.00     0.010 A 
ATOM     48  C   UNL A   1      40.209  26.613  28.097  1.00  0.00    -0.014 A 
BRANCH  48  49
ATOM     49  C   UNL A   1      40.651  27.850  28.793  1.00  0.00     0.031 A 
ATOM     50  C   UNL A   1      42.009  27.898  29.446  1.00  0.00     0.074 A 
ATOM     51  C   UNL A   1      39.792  28.879  28.944  1.00  0.00     0.049 A 
ATOM     52  N   UNL A   1      42.510  28.807  30.242  1.00  0.00    -0.248 NA
ATOM     53  C   UNL A   1      42.899  26.748  29.214  1.00  0.00     0.031 C 
ATOM     54  C   UNL A   1      38.425  28.934  28.415  1.00  0.00     0.029 A 
ATOM     55  N   UNL A   1      39.935  30.075  29.604  1.00  0.00    -0.354 N 
ATOM     56  C   UNL A   1      43.750  28.318  30.637  1.00  0.00     0.074 A 
ATOM     57  C   UNL A   1      43.900  27.010  30.039  1.00  0.00     0.031 C 
ATOM     58  C   UNL A   1      37.873  30.114  28.741  1.00  0.00     0.029 A 
ATOM     59  C   UNL A   1      38.820  30.879  29.543  1.00  0.00     0.049 A 
ATOM     60  H   UNL A   1      40.760  30.333  30.076  1.00  0.00     0.167 HD
ATOM     61  C   UNL A   1      44.691  28.912  31.410  1.00  0.00     0.031 A 
ATOM     62  C   UNL A   1      38.582  32.090  30.081  1.00  0.00     0.031 A 
ATOM     63  C   UNL A   1      44.558  30.233  31.960  1.00  0.00     0.049 A 
ATOM     64  C   UNL A   1      39.656  32.746  30.904  1.00  0.00     0.074 A 
ATOM     65  C   UNL A   1      45.485  30.960  32.686  1.00  0.00     0.029 A 
ATOM     66  N   UNL A   1      43.430  31.029  31.836  1.00  0.00    -0.354 N 
ATOM     67  N   UNL A   1      40.845  32.291  31.217  1.00  0.00    -0.248 NA
ATOM     68  C   UNL A   1      39.356  34.081  31.440  1.00  0.00     0.031 C 
ATOM     69  C   UNL A   1      44.903  32.183  33.032  1.00  0.00     0.029 A 
ATOM     70  C   UNL A   1      43.631  32.235  32.483  1.00  0.00     0.049 A 
ATOM     71  H   UNL A   1      42.609  30.774  31.357  1.00  0.00     0.167 HD
ATOM     72  C   UNL A   1      41.444  33.292  31.973  1.00  0.00     0.074 A 
ATOM     73  C   UNL A   1      40.494  34.383  32.053  1.00  0.00     0.031 C 
ATOM     74  C   UNL A   1      42.670  33.307  32.550  1.00  0.00     0.031 A 
BRANCH  61  75
ATOM     75  C   UNL A   1      45.949  28.134  31.690  1.00  0.00    -0.014 A 
ATOM     76  C   UNL A   1      46.057  27.314  32.828  1.00  0.00     0.010 A 
ATOM     77  C   UNL A   1      47.033  28.210  30.796  1.00  0.00     0.010 A 
ATOM     78  C   UNL A   1      47.244  26.627  33.096  1.00  0.00     0.020 A 
ATOM     79  C   UNL A   1      48.211  27.499  31.045  1.00  0.00     0.020 A 
ATOM     80  C   UNL A   1      48.315  26.729  32.205  1.00  0.00     0.054 A 
BRANCH  80  81
ATOM     81  S   UNL A   1      49.841  25.817  32.572  1.00  0.00     0.124 S 
ATOM     82  O   UNL A   1      50.245  25.364  31.243  1.00  0.00    -0.237 OA
ATOM     83  O   UNL A   1      50.691  26.842  33.171  1.00  0.00    -0.237 OA
ATOM     84  O   UNL A   1      49.403  24.763  33.484  1.00  0.00    -0.744 OA
ENDBRANCH  80  81
ENDBRANCH  61  75
BRANCH  62  85
ATOM     85  C   UNL A   1      37.280  32.770  29.839  1.00  0.00    -0.014 A 
ATOM     86  C   UNL A   1      37.146  33.681  28.776  1.00  0.00     0.010 A 
ATOM     87  C   UNL A   1      36.165  32.501  30.652  1.00  0.00     0.010 A 
ATOM     88  C   UNL A   1      35.927  34.323  28.541  1.00  0.00     0.020 A 
ATOM     89  C   UNL A   1      34.937  33.122  30.406  1.00  0.00     0.020 A 
ATOM     90  C   UNL A   1      34.828  34.038  29.358  1.00  0.00     0.054 A 
BRANCH  90  91
ATOM     91  S   UNL A   1      33.241  34.841  28.999  1.00  0.00     0.124 S 
ATOM     92  O   UNL A   1      32.649  33.922  28.032  1.00  0.00    -0.237 OA
ATOM     93  O   UNL A   1      32.600  34.876  30.312  1.00  0.00    -0.237 OA
ATOM     94  O   UNL A   1      33.631  36.145  28.471  1.00  0.00    -0.744 OA
ENDBRANCH  90  91
ENDBRANCH  62  85
BRANCH  74  95
ATOM     95  C   UNL A   1      43.063  34.549  33.301  1.00  0.00    -0.014 A 
ATOM     96  C   UNL A   1      42.738  34.706  34.659  1.00  0.00     0.010 A 
ATOM     97  C   UNL A   1      43.822  35.541  32.653  1.00  0.00     0.010 A 
ATOM     98  C   UNL A   1      43.146  35.848  35.352  1.00  0.00     0.020 A 
ATOM     99  C   UNL A   1      44.252  36.672  33.349  1.00  0.00     0.020 A 
ATOM    100  C   UNL A   1      43.901  36.824  34.693  1.00  0.00     0.054 A 
BRANCH 100 101
ATOM    101  S   UNL A   1      44.464  38.272  35.628  1.00  0.00     0.124 S 
ATOM    102  O   UNL A   1      45.910  38.220  35.426  1.00  0.00    -0.237 OA
ATOM    103  O   UNL A   1      43.776  39.374  34.961  1.00  0.00    -0.237 OA
ATOM    104  O   UNL A   1      44.015  37.998  36.991  1.00  0.00    -0.744 OA
ENDBRANCH 100 101
ENDBRANCH  74  95
ENDBRANCH  48  49
ENDBRANCH  40  43
ENDBRANCH  38  39
ENDBRANCH  37  38
ENDBRANCH  36  37
ENDBRANCH   3  36
TORSDOF 24
ENDMDL
MODEL 3
REMARK VINA RESULT:     -10.2      3.324      8.512
REMARK SMILES CC(C)C[C@H](NC(=O)[C@H](Cc1ccccc1)NC(=O)CNC(=O)C[NH3+])C(=O)NCCCNC(=O)c1ccc(-c2c3nc(c(-c4ccc(S(=O)(=O)[O-])cc4)c4ccc([nH]4)c(-c4ccc(S(=O)(=O)[O-])cc4)c4nc(c(-c5ccc(S(=O)(=O)[O-])cc5)c5ccc2[nH]5)C=C4)C=C3)cc1
REMARK SMILES IDX 26 1 27 2 28 3 5 5 4 6 2 7 1 8 3 9 6 10 7 11 8 13 9 14 17 15
REMARK SMILES IDX 18 16 19 18 20 19 21 20 22 21 23 23 24 24 25 25 10 29 11 30
REMARK SMILES IDX 12 31 16 32 13 33 15 34 14 35 29 36 30 37 31 38 32 39 33 40
REMARK SMILES IDX 34 42 35 43 36 44 94 45 37 46 93 47 38 48 39 49 40 50 87 51
REMARK SMILES IDX 41 52 92 53 86 54 88 55 42 56 91 57 85 58 84 59 43 61 73 62
REMARK SMILES IDX 54 63 72 64 55 65 58 66 71 67 89 68 56 69 57 70 70 72 90 73
REMARK SMILES IDX 59 74 44 75 45 76 53 77 46 78 52 79 47 80 48 81 49 82 50 83
REMARK SMILES IDX 51 84 74 85 75 86 83 87 76 88 82 89 77 90 78 91 79 92 80 93
REMARK SMILES IDX 81 94 60 95 61 96 69 97 62 98 68 99 63 100 64 101 65 102
REMARK SMILES IDX 66 103 67 104
REMARK H PARENT 28 4 6 12 17 17 21 22 25 26 25 27 25 28 32 41 88 60 58 71
REMARK Flexibility Score: inf
ROOT
ATOM      1  C   UNL A   1      34.768  23.366  23.887  1.00  0.00     0.242 C 
ATOM      2  O   UNL A   1      34.842  23.008  22.706  1.00  0.00    -0.273 OA
ATOM      3  N   UNL A   1      35.667  22.811  24.737  1.00  0.00    -0.354 N 
ATOM      4  H   UNL A   1      36.113  22.007  24.386  1.00  0.00     0.163 HD
ENDROOT
BRANCH   1   5
ATOM      5  C   UNL A   1      33.765  24.461  24.293  1.00  0.00     0.171 C 
BRANCH   5   6
ATOM      6  C   UNL A   1      34.284  25.914  24.215  1.00  0.00     0.038 C 
BRANCH   6   7
ATOM      7  C   UNL A   1      33.894  26.762  22.989  1.00  0.00    -0.015 C 
ATOM      8  C   UNL A   1      32.660  26.192  22.281  1.00  0.00     0.007 C 
ATOM      9  C   UNL A   1      33.585  28.206  23.405  1.00  0.00     0.007 C 
ENDBRANCH   6   7
ENDBRANCH   5   6
BRANCH   5  10
ATOM     10  N   UNL A   1      33.019  24.193  25.518  1.00  0.00    -0.343 N 
ATOM     11  C   UNL A   1      32.037  24.877  26.163  1.00  0.00     0.243 C 
ATOM     12  H   UNL A   1      33.277  23.353  25.965  1.00  0.00     0.164 HD
ATOM     13  O   UNL A   1      31.572  24.304  27.158  1.00  0.00    -0.273 OA
BRANCH  11  14
ATOM     14  C   UNL A   1      31.477  26.264  25.726  1.00  0.00     0.175 C 
BRANCH  14  15
ATOM     15  N   UNL A   1      30.169  26.047  25.067  1.00  0.00    -0.342 N 
ATOM     16  C   UNL A   1      29.378  26.867  24.330  1.00  0.00     0.240 C 
ATOM     17  H   UNL A   1      29.806  25.140  25.186  1.00  0.00     0.164 HD
ATOM     18  O   UNL A   1      28.259  26.451  24.011  1.00  0.00    -0.273 OA
BRANCH  16  19
ATOM     19  C   UNL A   1      29.901  28.181  23.747  1.00  0.00     0.216 C 
BRANCH  19  20
ATOM     20  N   UNL A   1      29.319  28.606  22.486  1.00  0.00    -0.342 N 
ATOM     21  C   UNL A   1      28.613  29.750  22.238  1.00  0.00     0.275 C 
ATOM     22  H   UNL A   1      29.449  28.000  21.721  1.00  0.00     0.164 HD
ATOM     23  O   UNL A   1      28.169  29.935  21.104  1.00  0.00    -0.268 OA
BRANCH  21  24
ATOM     24  C   UNL A   1      28.363  30.743  23.377  1.00  0.00     0.360 C 
BRANCH  24  25
ATOM     25  N   UNL A   1      29.363  31.819  23.336  1.00  0.00    -0.350 N 
ATOM     26  H   UNL A   1      28.889  32.722  23.312  1.00  0.00     0.344 HD
ATOM     27  H   UNL A   1      29.940  31.716  22.501  1.00  0.00     0.344 HD
ATOM     28  H   UNL A   1      29.954  31.766  24.166  1.00  0.00     0.344 HD
ENDBRANCH  24  25
ENDBRANCH  21  24
ENDBRANCH  19  20
ENDBRANCH  16  19
ENDBRANCH  14  15
BRANCH  14  29
ATOM     29  C   UNL A   1      31.264  27.355  26.793  1.00  0.00     0.070 C 
BRANCH  29  30
ATOM     30  C   UNL A   1      32.294  28.453  26.970  1.00  0.00    -0.045 A 
ATOM     31  C   UNL A   1      33.662  28.234  27.175  1.00  0.00     0.004 A 
ATOM     32  C   UNL A   1      31.837  29.781  26.935  1.00  0.00     0.004 A 
ATOM     33  C   UNL A   1      34.552  29.305  27.289  1.00  0.00     0.000 A 
ATOM     34  C   UNL A   1      32.722  30.852  27.071  1.00  0.00     0.000 A 
ATOM     35  C   UNL A   1      34.083  30.612  27.237  1.00  0.00     0.000 A 
ENDBRANCH  29  30
ENDBRANCH  14  29
ENDBRANCH  11  14
ENDBRANCH   5  10
ENDBRANCH   1   5
BRANCH   3  36
ATOM     36  C   UNL A   1      36.089  23.192  26.073  1.00  0.00     0.117 C 
BRANCH  36  37
ATOM     37  C   UNL A   1      36.949  24.442  26.098  1.00  0.00     0.042 C 
BRANCH  37  38
ATOM     38  C   UNL A   1      38.311  24.237  26.749  1.00  0.00     0.118 C 
BRANCH  38  39
ATOM     39  N   UNL A   1      39.431  24.661  25.913  1.00  0.00    -0.352 N 
ATOM     40  C   UNL A   1      40.430  25.578  26.151  1.00  0.00     0.251 C 
ATOM     41  H   UNL A   1      39.480  24.218  25.035  1.00  0.00     0.163 HD
ATOM     42  O   UNL A   1      41.190  25.904  25.244  1.00  0.00    -0.269 OA
BRANCH  40  43
ATOM     43  C   UNL A   1      40.551  26.202  27.484  1.00  0.00     0.039 A 
ATOM     44  C   UNL A   1      41.569  27.128  27.724  1.00  0.00     0.014 A 
ATOM     45  C   UNL A   1      39.623  25.912  28.482  1.00  0.00     0.014 A 
ATOM     46  C   UNL A   1      41.570  27.856  28.916  1.00  0.00     0.010 A 
ATOM     47  C   UNL A   1      39.548  26.725  29.603  1.00  0.00     0.010 A 
ATOM     48  C   UNL A   1      40.515  27.713  29.832  1.00  0.00    -0.014 A 
BRANCH  48  49
ATOM     49  C   UNL A   1      40.376  28.585  31.028  1.00  0.00     0.031 A 
ATOM     50  C   UNL A   1      39.357  29.696  31.031  1.00  0.00     0.074 A 
ATOM     51  C   UNL A   1      41.242  28.460  32.055  1.00  0.00     0.049 A 
ATOM     52  N   UNL A   1      39.197  30.666  31.894  1.00  0.00    -0.248 NA
ATOM     53  C   UNL A   1      38.431  29.752  29.887  1.00  0.00     0.031 C 
ATOM     54  C   UNL A   1      42.317  27.466  32.149  1.00  0.00     0.029 A 
ATOM     55  N   UNL A   1      41.367  29.186  33.214  1.00  0.00    -0.354 N 
ATOM     56  C   UNL A   1      38.186  31.467  31.375  1.00  0.00     0.074 A 
ATOM     57  C   UNL A   1      37.810  30.901  30.098  1.00  0.00     0.031 C 
ATOM     58  C   UNL A   1      42.964  27.624  33.315  1.00  0.00     0.029 A 
ATOM     59  C   UNL A   1      42.389  28.757  34.029  1.00  0.00     0.049 A 
ATOM     60  H   UNL A   1      40.778  29.942  33.440  1.00  0.00     0.167 HD
ATOM     61  C   UNL A   1      37.604  32.562  31.920  1.00  0.00     0.031 A 
ATOM     62  C   UNL A   1      42.823  29.230  35.213  1.00  0.00     0.031 A 
ATOM     63  C   UNL A   1      37.947  33.091  33.212  1.00  0.00     0.049 A 
ATOM     64  C   UNL A   1      42.138  30.424  35.817  1.00  0.00     0.074 A 
ATOM     65  C   UNL A   1      37.363  34.144  33.893  1.00  0.00     0.029 A 
ATOM     66  N   UNL A   1      38.957  32.598  34.023  1.00  0.00    -0.354 N 
ATOM     67  N   UNL A   1      41.144  31.132  35.337  1.00  0.00    -0.248 NA
ATOM     68  C   UNL A   1      42.630  30.879  37.125  1.00  0.00     0.031 C 
ATOM     69  C   UNL A   1      38.045  34.311  35.101  1.00  0.00     0.029 A 
ATOM     70  C   UNL A   1      39.024  33.334  35.192  1.00  0.00     0.049 A 
ATOM     71  H   UNL A   1      39.540  31.837  33.800  1.00  0.00     0.167 HD
ATOM     72  C   UNL A   1      40.878  32.106  36.292  1.00  0.00     0.074 A 
ATOM     73  C   UNL A   1      41.804  31.884  37.385  1.00  0.00     0.031 C 
ATOM     74  C   UNL A   1      39.954  33.095  36.267  1.00  0.00     0.031 A 
BRANCH  61  75
ATOM     75  C   UNL A   1      36.531  33.248  31.118  1.00  0.00    -0.014 A 
ATOM     76  C   UNL A   1      35.218  33.362  31.611  1.00  0.00     0.010 A 
ATOM     77  C   UNL A   1      36.840  33.802  29.862  1.00  0.00     0.010 A 
ATOM     78  C   UNL A   1      34.223  33.969  30.841  1.00  0.00     0.020 A 
ATOM     79  C   UNL A   1      35.853  34.436  29.102  1.00  0.00     0.020 A 
ATOM     80  C   UNL A   1      34.546  34.497  29.588  1.00  0.00     0.054 A 
BRANCH  80  81
ATOM     81  S   UNL A   1      33.235  35.288  28.614  1.00  0.00     0.124 S 
ATOM     82  O   UNL A   1      34.003  36.180  27.749  1.00  0.00    -0.237 OA
ATOM     83  O   UNL A   1      32.604  34.154  27.944  1.00  0.00    -0.237 OA
ATOM     84  O   UNL A   1      32.410  35.953  29.620  1.00  0.00    -0.744 OA
ENDBRANCH  80  81
ENDBRANCH  61  75
BRANCH  62  85
ATOM     85  C   UNL A   1      43.951  28.558  35.916  1.00  0.00    -0.014 A 
ATOM     86  C   UNL A   1      43.698  27.495  36.801  1.00  0.00     0.010 A 
ATOM     87  C   UNL A   1      45.280  28.960  35.693  1.00  0.00     0.010 A 
ATOM     88  C   UNL A   1      44.751  26.858  37.463  1.00  0.00     0.020 A 
ATOM     89  C   UNL A   1      46.338  28.310  36.335  1.00  0.00     0.020 A 
ATOM     90  C   UNL A   1      46.066  27.269  37.224  1.00  0.00     0.054 A 
BRANCH  90  91
ATOM     91  S   UNL A   1      47.421  26.390  38.053  1.00  0.00     0.124 S 
ATOM     92  O   UNL A   1      46.739  25.792  39.196  1.00  0.00    -0.237 OA
ATOM     93  O   UNL A   1      47.869  25.456  37.023  1.00  0.00    -0.237 OA
ATOM     94  O   UNL A   1      48.371  27.453  38.373  1.00  0.00    -0.744 OA
ENDBRANCH  90  91
ENDBRANCH  62  85
BRANCH  74  95
ATOM     95  C   UNL A   1      39.880  34.001  37.465  1.00  0.00    -0.014 A 
ATOM     96  C   UNL A   1      40.606  35.203  37.508  1.00  0.00     0.010 A 
ATOM     97  C   UNL A   1      39.025  33.672  38.533  1.00  0.00     0.010 A 
ATOM     98  C   UNL A   1      40.496  36.052  38.612  1.00  0.00     0.020 A 
ATOM     99  C   UNL A   1      38.894  34.530  39.626  1.00  0.00     0.020 A 
ATOM    100  C   UNL A   1      39.639  35.710  39.664  1.00  0.00     0.054 A 
BRANCH 100 101
ATOM    101  S   UNL A   1      39.472  36.855  41.061  1.00  0.00     0.124 S 
ATOM    102  O   UNL A   1      38.750  37.969  40.455  1.00  0.00    -0.237 OA
ATOM    103  O   UNL A   1      38.715  36.069  42.032  1.00  0.00    -0.237 OA
ATOM    104  O   UNL A   1      40.854  37.140  41.440  1.00  0.00    -0.744 OA
ENDBRANCH 100 101
ENDBRANCH  74  95
ENDBRANCH  48  49
ENDBRANCH  40  43
ENDBRANCH  38  39
ENDBRANCH  37  38
ENDBRANCH  36  37
ENDBRANCH   3  36
TORSDOF 24
ENDMDL
