MODEL 1
REMARK VINA RESULT:     -11.5      0.000      0.000
REMARK SMILES O=C(NCCCNC(=O)c1cc(S(=O)(=O)Nc2cccc(Cl)c2)ccc1O)c1ccc(-c2c3nc(c(-c4ccc(S(=O)(=O)[O-])cc4)c4ccc([nH]4)c(-c4ccc(S(=O)(=O)[O-])cc4)c4nc(c(-c5ccc(S(=O)(=O)[O-])cc5)c5ccc2[nH]5)C=C4)C=C3)cc1
REMARK SMILES IDX 5 1 4 2 3 3 1 4 2 5 28 7 29 8 87 9 30 10 86 11 31 12 32 13
REMARK SMILES IDX 33 14 80 15 34 16 85 17 79 18 81 19 35 20 84 21 78 22 77 23
REMARK SMILES IDX 36 25 66 26 47 27 65 28 48 29 51 30 64 31 82 32 49 33 50 34
REMARK SMILES IDX 63 36 83 37 52 38 37 39 38 40 46 41 39 42 45 43 40 44 41 45
REMARK SMILES IDX 42 46 43 47 44 48 67 49 68 50 76 51 69 52 75 53 70 54 71 55
REMARK SMILES IDX 72 56 73 57 74 58 53 59 54 60 62 61 55 62 61 63 56 64 57 65
REMARK SMILES IDX 58 66 59 67 60 68 6 69 7 70 8 71 9 73 10 74 11 75 26 76
REMARK SMILES IDX 12 77 25 78 24 79 27 80 13 82 14 83 15 84 16 85 17 87 18 88
REMARK SMILES IDX 23 89 19 90 21 91 20 92 22 93
REMARK H PARENT 3 6 81 24 51 35 7 72 27 81 16 86
REMARK Flexibility Score: inf
ROOT
ATOM      1  C   UNL A   1      32.184  27.598  26.981  1.00  0.00     0.042 C 
ENDROOT
BRANCH   1   2
ATOM      2  C   UNL A   1      33.544  28.249  27.170  1.00  0.00     0.118 C 
BRANCH   2   3
ATOM      3  N   UNL A   1      33.453  29.686  27.384  1.00  0.00    -0.352 N 
ATOM      4  O   UNL A   1      33.956  31.712  28.199  1.00  0.00    -0.269 OA
ATOM      5  C   UNL A   1      34.342  30.577  27.933  1.00  0.00     0.251 C 
ATOM      6  H   UNL A   1      32.608  30.088  27.083  1.00  0.00     0.163 HD
BRANCH   5   7
ATOM      7  C   UNL A   1      35.740  30.188  28.229  1.00  0.00     0.039 A 
ATOM      8  C   UNL A   1      36.754  30.312  27.278  1.00  0.00     0.014 A 
ATOM      9  C   UNL A   1      36.056  29.747  29.520  1.00  0.00     0.014 A 
ATOM     10  C   UNL A   1      38.040  29.859  27.561  1.00  0.00     0.010 A 
ATOM     11  C   UNL A   1      37.367  29.377  29.832  1.00  0.00     0.010 A 
ATOM     12  C   UNL A   1      38.364  29.400  28.845  1.00  0.00    -0.014 A 
BRANCH  12  13
ATOM     13  C   UNL A   1      39.758  29.005  29.164  1.00  0.00     0.031 A 
ATOM     14  C   UNL A   1      40.703  29.974  29.818  1.00  0.00     0.074 A 
ATOM     15  C   UNL A   1      40.178  27.766  28.841  1.00  0.00     0.049 A 
ATOM     16  N   UNL A   1      41.968  29.816  30.110  1.00  0.00    -0.248 NA
ATOM     17  C   UNL A   1      40.158  31.290  30.183  1.00  0.00     0.031 C 
ATOM     18  C   UNL A   1      39.357  26.738  28.197  1.00  0.00     0.029 A 
ATOM     19  N   UNL A   1      41.399  27.163  29.006  1.00  0.00    -0.354 N 
ATOM     20  C   UNL A   1      42.383  31.024  30.660  1.00  0.00     0.074 A 
ATOM     21  C   UNL A   1      41.235  31.906  30.652  1.00  0.00     0.031 C 
ATOM     22  C   UNL A   1      40.090  25.627  28.038  1.00  0.00     0.029 A 
ATOM     23  C   UNL A   1      41.446  25.881  28.513  1.00  0.00     0.049 A 
ATOM     24  H   UNL A   1      42.166  27.606  29.435  1.00  0.00     0.167 HD
ATOM     25  C   UNL A   1      43.609  31.365  31.127  1.00  0.00     0.031 A 
ATOM     26  C   UNL A   1      42.470  25.011  28.422  1.00  0.00     0.031 A 
ATOM     27  C   UNL A   1      44.745  30.483  31.138  1.00  0.00     0.049 A 
ATOM     28  C   UNL A   1      43.820  25.411  28.936  1.00  0.00     0.074 A 
ATOM     29  C   UNL A   1      46.018  30.725  31.624  1.00  0.00     0.029 A 
ATOM     30  N   UNL A   1      44.748  29.190  30.634  1.00  0.00    -0.354 N 
ATOM     31  N   UNL A   1      44.184  26.546  29.481  1.00  0.00    -0.248 NA
ATOM     32  C   UNL A   1      44.895  24.418  28.822  1.00  0.00     0.031 C 
ATOM     33  C   UNL A   1      46.801  29.591  31.380  1.00  0.00     0.029 A 
ATOM     34  C   UNL A   1      46.004  28.629  30.778  1.00  0.00     0.049 A 
ATOM     35  H   UNL A   1      43.969  28.739  30.234  1.00  0.00     0.167 HD
ATOM     36  C   UNL A   1      45.531  26.403  29.788  1.00  0.00     0.074 A 
ATOM     37  C   UNL A   1      45.914  25.066  29.374  1.00  0.00     0.031 C 
ATOM     38  C   UNL A   1      46.371  27.299  30.361  1.00  0.00     0.031 A 
BRANCH  25  39
ATOM     39  C   UNL A   1      43.783  32.774  31.624  1.00  0.00    -0.014 A 
ATOM     40  C   UNL A   1      43.513  33.116  32.961  1.00  0.00     0.010 A 
ATOM     41  C   UNL A   1      44.221  33.773  30.735  1.00  0.00     0.010 A 
ATOM     42  C   UNL A   1      43.620  34.443  33.385  1.00  0.00     0.020 A 
ATOM     43  C   UNL A   1      44.348  35.099  31.161  1.00  0.00     0.020 A 
ATOM     44  C   UNL A   1      44.020  35.429  32.477  1.00  0.00     0.054 A 
BRANCH  44  45
ATOM     45  S   UNL A   1      44.118  37.151  33.038  1.00  0.00     0.124 S 
ATOM     46  O   UNL A   1      43.858  37.883  31.801  1.00  0.00    -0.237 OA
ATOM     47  O   UNL A   1      43.060  37.228  34.044  1.00  0.00    -0.237 OA
ATOM     48  O   UNL A   1      45.477  37.269  33.559  1.00  0.00    -0.744 OA
ENDBRANCH  44  45
ENDBRANCH  25  39
BRANCH  26  49
ATOM     49  C   UNL A   1      42.228  23.686  27.796  1.00  0.00    -0.014 A 
ATOM     50  C   UNL A   1      42.578  23.455  26.457  1.00  0.00     0.010 A 
ATOM     51  C   UNL A   1      41.747  22.618  28.577  1.00  0.00     0.010 A 
ATOM     52  C   UNL A   1      42.468  22.172  25.912  1.00  0.00     0.020 A 
ATOM     53  C   UNL A   1      41.656  21.331  28.042  1.00  0.00     0.020 A 
ATOM     54  C   UNL A   1      42.017  21.116  26.711  1.00  0.00     0.054 A 
BRANCH  54  55
ATOM     55  S   UNL A   1      42.000  19.437  26.023  1.00  0.00     0.124 S 
ATOM     56  O   UNL A   1      42.549  18.653  27.124  1.00  0.00    -0.237 OA
ATOM     57  O   UNL A   1      40.584  19.224  25.737  1.00  0.00    -0.237 OA
ATOM     58  O   UNL A   1      42.854  19.547  24.842  1.00  0.00    -0.744 OA
ENDBRANCH  54  55
ENDBRANCH  26  49
BRANCH  38  59
ATOM     59  C   UNL A   1      47.788  26.864  30.599  1.00  0.00    -0.014 A 
ATOM     60  C   UNL A   1      48.808  27.200  29.693  1.00  0.00     0.010 A 
ATOM     61  C   UNL A   1      48.116  26.187  31.788  1.00  0.00     0.010 A 
ATOM     62  C   UNL A   1      50.135  26.863  29.971  1.00  0.00     0.020 A 
ATOM     63  C   UNL A   1      49.443  25.863  32.077  1.00  0.00     0.020 A 
ATOM     64  C   UNL A   1      50.445  26.199  31.163  1.00  0.00     0.054 A 
BRANCH  64  65
ATOM     65  S   UNL A   1      52.183  25.844  31.543  1.00  0.00     0.124 S 
ATOM     66  O   UNL A   1      52.824  26.034  30.244  1.00  0.00    -0.237 OA
ATOM     67  O   UNL A   1      52.505  26.846  32.555  1.00  0.00    -0.237 OA
ATOM     68  O   UNL A   1      52.155  24.466  32.028  1.00  0.00    -0.744 OA
ENDBRANCH  64  65
ENDBRANCH  38  59
ENDBRANCH  12  13
ENDBRANCH   5   7
ENDBRANCH   2   3
ENDBRANCH   1   2
BRANCH   1  69
ATOM     69  C   UNL A   1      32.147  26.521  25.910  1.00  0.00     0.118 C 
BRANCH  69  70
ATOM     70  N   UNL A   1      31.617  26.974  24.629  1.00  0.00    -0.352 N 
ATOM     71  C   UNL A   1      31.539  26.293  23.435  1.00  0.00     0.255 C 
ATOM     72  H   UNL A   1      31.267  27.894  24.616  1.00  0.00     0.163 HD
ATOM     73  O   UNL A   1      31.058  26.834  22.443  1.00  0.00    -0.269 OA
BRANCH  71  74
ATOM     74  C   UNL A   1      32.139  24.947  23.316  1.00  0.00     0.082 A 
ATOM     75  C   UNL A   1      31.708  23.963  24.214  1.00  0.00     0.040 A 
ATOM     76  C   UNL A   1      33.072  24.620  22.327  1.00  0.00     0.128 A 
ATOM     77  C   UNL A   1      32.087  22.634  24.009  1.00  0.00     0.088 A 
ATOM     78  C   UNL A   1      33.353  23.287  22.055  1.00  0.00     0.048 A 
ATOM     79  C   UNL A   1      32.797  22.291  22.858  1.00  0.00     0.026 A 
BRANCH  76  80
ATOM     80  O   UNL A   1      33.688  25.599  21.600  1.00  0.00    -0.507 OA
ATOM     81  H   UNL A   1      34.447  26.030  21.942  1.00  0.00     0.293 HD
ENDBRANCH  76  80
BRANCH  77  82
ATOM     82  S   UNL A   1      31.772  21.480  25.332  1.00  0.00     0.261 S 
ATOM     83  O   UNL A   1      30.508  21.865  25.926  1.00  0.00    -0.201 OA
ATOM     84  O   UNL A   1      31.979  20.156  24.791  1.00  0.00    -0.201 OA
BRANCH  82  85
ATOM     85  N   UNL A   1      32.966  21.675  26.502  1.00  0.00    -0.280 N 
ATOM     86  H   UNL A   1      32.744  21.437  27.431  1.00  0.00     0.180 HD
BRANCH  85  87
ATOM     87  C   UNL A   1      34.276  22.164  26.236  1.00  0.00     0.050 A 
ATOM     88  C   UNL A   1      34.611  23.521  26.255  1.00  0.00     0.027 A 
ATOM     89  C   UNL A   1      35.226  21.224  25.823  1.00  0.00     0.047 A 
ATOM     90  C   UNL A   1      35.838  23.944  25.734  1.00  0.00     0.004 A 
ATOM     91  C   UNL A   1      36.449  21.651  25.313  1.00  0.00     0.043 A 
ATOM     92  C   UNL A   1      36.749  23.009  25.242  1.00  0.00     0.020 A 
ATOM     93  Cl  UNL A   1      37.567  20.495  24.703  1.00  0.00    -0.084 Cl
ENDBRANCH  85  87
ENDBRANCH  82  85
ENDBRANCH  77  82
ENDBRANCH  71  74
ENDBRANCH  69  70
ENDBRANCH   1  69
TORSDOF 17
ENDMDL
MODEL 2
REMARK VINA RESULT:     -11.4      2.831      9.231
REMARK SMILES O=C(NCCCNC(=O)c1cc(S(=O)(=O)Nc2cccc(Cl)c2)ccc1O)c1ccc(-c2c3nc(c(-c4ccc(S(=O)(=O)[O-])cc4)c4ccc([nH]4)c(-c4ccc(S(=O)(=O)[O-])cc4)c4nc(c(-c5ccc(S(=O)(=O)[O-])cc5)c5ccc2[nH]5)C=C4)C=C3)cc1
REMARK SMILES IDX 5 1 4 2 3 3 1 4 2 5 28 7 29 8 87 9 30 10 86 11 31 12 32 13
REMARK SMILES IDX 33 14 80 15 34 16 85 17 79 18 81 19 35 20 84 21 78 22 77 23
REMARK SMILES IDX 36 25 66 26 47 27 65 28 48 29 51 30 64 31 82 32 49 33 50 34
REMARK SMILES IDX 63 36 83 37 52 38 37 39 38 40 46 41 39 42 45 43 40 44 41 45
REMARK SMILES IDX 42 46 43 47 44 48 67 49 68 50 76 51 69 52 75 53 70 54 71 55
REMARK SMILES IDX 72 56 73 57 74 58 53 59 54 60 62 61 55 62 61 63 56 64 57 65
REMARK SMILES IDX 58 66 59 67 60 68 6 69 7 70 8 71 9 73 10 74 11 75 26 76
REMARK SMILES IDX 12 77 25 78 24 79 27 80 13 82 14 83 15 84 16 85 17 87 18 88
REMARK SMILES IDX 23 89 19 90 21 91 20 92 22 93
REMARK H PARENT 3 6 81 24 51 35 7 72 27 81 16 86
REMARK Flexibility Score: inf
ROOT
ATOM      1  C   UNL A   1      35.126  22.987  26.139  1.00  0.00     0.042 C 
ENDROOT
BRANCH   1   2
ATOM      2  C   UNL A   1      36.470  23.637  25.858  1.00  0.00     0.118 C 
BRANCH   2   3
ATOM      3  N   UNL A   1      37.580  22.701  25.963  1.00  0.00    -0.352 N 
ATOM      4  O   UNL A   1      39.695  21.977  26.126  1.00  0.00    -0.269 OA
ATOM      5  C   UNL A   1      38.894  22.890  26.312  1.00  0.00     0.251 C 
ATOM      6  H   UNL A   1      37.347  21.769  25.747  1.00  0.00     0.163 HD
BRANCH   5   7
ATOM      7  C   UNL A   1      39.363  24.174  26.881  1.00  0.00     0.039 A 
ATOM      8  C   UNL A   1      40.031  25.121  26.103  1.00  0.00     0.014 A 
ATOM      9  C   UNL A   1      39.067  24.465  28.218  1.00  0.00     0.014 A 
ATOM     10  C   UNL A   1      40.533  26.282  26.688  1.00  0.00     0.010 A 
ATOM     11  C   UNL A   1      39.492  25.670  28.783  1.00  0.00     0.010 A 
ATOM     12  C   UNL A   1      40.256  26.575  28.031  1.00  0.00    -0.014 A 
BRANCH  12  13
ATOM     13  C   UNL A   1      40.717  27.856  28.622  1.00  0.00     0.031 A 
ATOM     14  C   UNL A   1      42.125  28.010  29.124  1.00  0.00     0.074 A 
ATOM     15  C   UNL A   1      39.848  28.881  28.722  1.00  0.00     0.049 A 
ATOM     16  N   UNL A   1      42.675  29.034  29.723  1.00  0.00    -0.248 NA
ATOM     17  C   UNL A   1      43.027  26.863  28.938  1.00  0.00     0.031 C 
ATOM     18  C   UNL A   1      38.453  28.851  28.276  1.00  0.00     0.029 A 
ATOM     19  N   UNL A   1      40.009  30.143  29.233  1.00  0.00    -0.354 N 
ATOM     20  C   UNL A   1      43.977  28.646  30.018  1.00  0.00     0.074 A 
ATOM     21  C   UNL A   1      44.129  27.289  29.539  1.00  0.00     0.031 C 
ATOM     22  C   UNL A   1      37.891  30.045  28.516  1.00  0.00     0.029 A 
ATOM     23  C   UNL A   1      38.864  30.902  29.184  1.00  0.00     0.049 A 
ATOM     24  H   UNL A   1      40.860  30.474  29.600  1.00  0.00     0.167 HD
ATOM     25  C   UNL A   1      44.954  29.357  30.632  1.00  0.00     0.031 A 
ATOM     26  C   UNL A   1      38.608  32.139  29.650  1.00  0.00     0.031 A 
ATOM     27  C   UNL A   1      44.799  30.707  31.101  1.00  0.00     0.049 A 
ATOM     28  C   UNL A   1      39.699  32.905  30.336  1.00  0.00     0.074 A 
ATOM     29  C   UNL A   1      45.742  31.523  31.702  1.00  0.00     0.029 A 
ATOM     30  N   UNL A   1      43.624  31.441  31.026  1.00  0.00    -0.354 N 
ATOM     31  N   UNL A   1      40.932  32.532  30.576  1.00  0.00    -0.248 NA
ATOM     32  C   UNL A   1      39.367  34.254  30.812  1.00  0.00     0.031 C 
ATOM     33  C   UNL A   1      45.126  32.737  32.025  1.00  0.00     0.029 A 
ATOM     34  C   UNL A   1      43.811  32.692  31.589  1.00  0.00     0.049 A 
ATOM     35  H   UNL A   1      42.782  31.119  30.631  1.00  0.00     0.167 HD
ATOM     36  C   UNL A   1      41.531  33.605  31.224  1.00  0.00     0.074 A 
ATOM     37  C   UNL A   1      40.526  34.645  31.329  1.00  0.00     0.031 C 
ATOM     38  C   UNL A   1      42.800  33.715  31.688  1.00  0.00     0.031 A 
BRANCH  25  39
ATOM     39  C   UNL A   1      46.265  28.656  30.867  1.00  0.00    -0.014 A 
ATOM     40  C   UNL A   1      47.310  28.728  29.930  1.00  0.00     0.010 A 
ATOM     41  C   UNL A   1      46.450  27.909  32.045  1.00  0.00     0.010 A 
ATOM     42  C   UNL A   1      48.495  28.017  30.138  1.00  0.00     0.020 A 
ATOM     43  C   UNL A   1      47.641  27.212  32.266  1.00  0.00     0.020 A 
ATOM     44  C   UNL A   1      48.646  27.249  31.297  1.00  0.00     0.054 A 
BRANCH  44  45
ATOM     45  S   UNL A   1      50.176  26.304  31.531  1.00  0.00     0.124 S 
ATOM     46  O   UNL A   1      50.498  25.912  30.161  1.00  0.00    -0.237 OA
ATOM     47  O   UNL A   1      51.079  27.286  32.128  1.00  0.00    -0.237 OA
ATOM     48  O   UNL A   1      49.777  25.213  32.416  1.00  0.00    -0.744 OA
ENDBRANCH  44  45
ENDBRANCH  25  39
BRANCH  26  49
ATOM     49  C   UNL A   1      37.241  32.697  29.484  1.00  0.00    -0.014 A 
ATOM     50  C   UNL A   1      36.302  32.606  30.523  1.00  0.00     0.010 A 
ATOM     51  C   UNL A   1      36.916  33.421  28.321  1.00  0.00     0.010 A 
ATOM     52  C   UNL A   1      35.063  33.244  30.410  1.00  0.00     0.020 A 
ATOM     53  C   UNL A   1      35.688  34.078  28.214  1.00  0.00     0.020 A 
ATOM     54  C   UNL A   1      34.768  33.985  29.260  1.00  0.00     0.054 A 
BRANCH  54  55
ATOM     55  S   UNL A   1      33.207  34.909  29.186  1.00  0.00     0.124 S 
ATOM     56  O   UNL A   1      32.429  34.111  28.244  1.00  0.00    -0.237 OA
ATOM     57  O   UNL A   1      32.751  34.877  30.573  1.00  0.00    -0.237 OA
ATOM     58  O   UNL A   1      33.617  36.227  28.706  1.00  0.00    -0.744 OA
ENDBRANCH  54  55
ENDBRANCH  26  49
BRANCH  38  59
ATOM     59  C   UNL A   1      43.190  35.013  32.335  1.00  0.00    -0.014 A 
ATOM     60  C   UNL A   1      43.733  36.063  31.575  1.00  0.00     0.010 A 
ATOM     61  C   UNL A   1      42.928  35.213  33.702  1.00  0.00     0.010 A 
ATOM     62  C   UNL A   1      44.012  37.294  32.175  1.00  0.00     0.020 A 
ATOM     63  C   UNL A   1      43.190  36.447  34.301  1.00  0.00     0.020 A 
ATOM     64  C   UNL A   1      43.735  37.479  33.534  1.00  0.00     0.054 A 
BRANCH  64  65
ATOM     65  S   UNL A   1      44.027  39.110  34.275  1.00  0.00     0.124 S 
ATOM     66  O   UNL A   1      42.907  39.887  33.751  1.00  0.00    -0.237 OA
ATOM     67  O   UNL A   1      43.981  38.828  35.707  1.00  0.00    -0.237 OA
ATOM     68  O   UNL A   1      45.342  39.489  33.764  1.00  0.00    -0.744 OA
ENDBRANCH  64  65
ENDBRANCH  38  59
ENDBRANCH  12  13
ENDBRANCH   5   7
ENDBRANCH   2   3
ENDBRANCH   1   2
BRANCH   1  69
ATOM     69  C   UNL A   1      34.225  22.856  24.923  1.00  0.00     0.118 C 
BRANCH  69  70
ATOM     70  N   UNL A   1      33.082  21.973  25.122  1.00  0.00    -0.352 N 
ATOM     71  C   UNL A   1      31.741  22.287  25.160  1.00  0.00     0.255 C 
ATOM     72  H   UNL A   1      33.298  21.021  25.245  1.00  0.00     0.163 HD
ATOM     73  O   UNL A   1      30.904  21.408  25.340  1.00  0.00    -0.269 OA
BRANCH  71  74
ATOM     74  C   UNL A   1      31.316  23.701  25.098  1.00  0.00     0.082 A 
ATOM     75  C   UNL A   1      31.540  24.394  23.902  1.00  0.00     0.040 A 
ATOM     76  C   UNL A   1      30.672  24.344  26.159  1.00  0.00     0.128 A 
ATOM     77  C   UNL A   1      30.971  25.658  23.725  1.00  0.00     0.088 A 
ATOM     78  C   UNL A   1      30.010  25.546  25.941  1.00  0.00     0.048 A 
ATOM     79  C   UNL A   1      30.104  26.164  24.694  1.00  0.00     0.026 A 
BRANCH  76  80
ATOM     80  O   UNL A   1      30.656  23.785  27.405  1.00  0.00    -0.507 OA
ATOM     81  H   UNL A   1      29.894  23.865  27.945  1.00  0.00     0.293 HD
ENDBRANCH  76  80
BRANCH  77  82
ATOM     82  S   UNL A   1      31.529  26.619  22.329  1.00  0.00     0.261 S 
ATOM     83  O   UNL A   1      31.969  25.672  21.324  1.00  0.00    -0.201 OA
ATOM     84  O   UNL A   1      30.496  27.589  22.049  1.00  0.00    -0.201 OA
BRANCH  82  85
ATOM     85  N   UNL A   1      32.869  27.517  22.804  1.00  0.00    -0.280 N 
ATOM     86  H   UNL A   1      33.542  27.738  22.120  1.00  0.00     0.180 HD
BRANCH  85  87
ATOM     87  C   UNL A   1      33.094  27.980  24.132  1.00  0.00     0.050 A 
ATOM     88  C   UNL A   1      33.759  27.230  25.106  1.00  0.00     0.027 A 
ATOM     89  C   UNL A   1      32.505  29.199  24.481  1.00  0.00     0.047 A 
ATOM     90  C   UNL A   1      33.714  27.631  26.445  1.00  0.00     0.004 A 
ATOM     91  C   UNL A   1      32.471  29.597  25.815  1.00  0.00     0.043 A 
ATOM     92  C   UNL A   1      33.051  28.805  26.802  1.00  0.00     0.020 A 
ATOM     93  Cl  UNL A   1      31.646  31.042  26.251  1.00  0.00    -0.084 Cl
ENDBRANCH  85  87
ENDBRANCH  82  85
ENDBRANCH  77  82
ENDBRANCH  71  74
ENDBRANCH  69  70
ENDBRANCH   1  69
TORSDOF 17
ENDMDL
MODEL 3
REMARK VINA RESULT:     -11.2      3.875      6.752
REMARK SMILES O=C(NCCCNC(=O)c1cc(S(=O)(=O)Nc2cccc(Cl)c2)ccc1O)c1ccc(-c2c3nc(c(-c4ccc(S(=O)(=O)[O-])cc4)c4ccc([nH]4)c(-c4ccc(S(=O)(=O)[O-])cc4)c4nc(c(-c5ccc(S(=O)(=O)[O-])cc5)c5ccc2[nH]5)C=C4)C=C3)cc1
REMARK SMILES IDX 5 1 4 2 3 3 1 4 2 5 28 7 29 8 87 9 30 10 86 11 31 12 32 13
REMARK SMILES IDX 33 14 80 15 34 16 85 17 79 18 81 19 35 20 84 21 78 22 77 23
REMARK SMILES IDX 36 25 66 26 47 27 65 28 48 29 51 30 64 31 82 32 49 33 50 34
REMARK SMILES IDX 63 36 83 37 52 38 37 39 38 40 46 41 39 42 45 43 40 44 41 45
REMARK SMILES IDX 42 46 43 47 44 48 67 49 68 50 76 51 69 52 75 53 70 54 71 55
REMARK SMILES IDX 72 56 73 57 74 58 53 59 54 60 62 61 55 62 61 63 56 64 57 65
REMARK SMILES IDX 58 66 59 67 60 68 6 69 7 70 8 71 9 73 10 74 11 75 26 76
REMARK SMILES IDX 12 77 25 78 24 79 27 80 13 82 14 83 15 84 16 85 17 87 18 88
REMARK SMILES IDX 23 89 19 90 21 91 20 92 22 93
REMARK H PARENT 3 6 81 24 51 35 7 72 27 81 16 86
REMARK Flexibility Score: inf
ROOT
ATOM      1  C   UNL A   1      33.681  34.011  28.019  1.00  0.00     0.042 C 
ENDROOT
BRANCH   1   2
ATOM      2  C   UNL A   1      34.601  32.802  28.015  1.00  0.00     0.118 C 
BRANCH   2   3
ATOM      3  N   UNL A   1      33.947  31.600  27.520  1.00  0.00    -0.352 N 
ATOM      4  O   UNL A   1      33.732  29.537  26.670  1.00  0.00    -0.269 OA
ATOM      5  C   UNL A   1      34.430  30.335  27.291  1.00  0.00     0.251 C 
ATOM      6  H   UNL A   1      32.992  31.714  27.313  1.00  0.00     0.163 HD
BRANCH   5   7
ATOM      7  C   UNL A   1      35.776  29.928  27.755  1.00  0.00     0.039 A 
ATOM      8  C   UNL A   1      35.978  29.370  29.019  1.00  0.00     0.014 A 
ATOM      9  C   UNL A   1      36.856  30.049  26.874  1.00  0.00     0.014 A 
ATOM     10  C   UNL A   1      37.268  29.076  29.457  1.00  0.00     0.010 A 
ATOM     11  C   UNL A   1      38.138  29.670  27.281  1.00  0.00     0.010 A 
ATOM     12  C   UNL A   1      38.359  29.209  28.588  1.00  0.00    -0.014 A 
BRANCH  12  13
ATOM     13  C   UNL A   1      39.717  28.808  29.033  1.00  0.00     0.031 A 
ATOM     14  C   UNL A   1      40.593  29.764  29.792  1.00  0.00     0.074 A 
ATOM     15  C   UNL A   1      40.167  27.574  28.731  1.00  0.00     0.049 A 
ATOM     16  N   UNL A   1      41.824  29.601  30.202  1.00  0.00    -0.248 NA
ATOM     17  C   UNL A   1      40.014  31.075  30.124  1.00  0.00     0.031 C 
ATOM     18  C   UNL A   1      39.412  26.558  27.993  1.00  0.00     0.029 A 
ATOM     19  N   UNL A   1      41.366  26.967  29.003  1.00  0.00    -0.354 N 
ATOM     20  C   UNL A   1      42.183  30.798  30.809  1.00  0.00     0.074 A 
ATOM     21  C   UNL A   1      41.041  31.681  30.706  1.00  0.00     0.031 C 
ATOM     22  C   UNL A   1      40.159  25.449  27.887  1.00  0.00     0.029 A 
ATOM     23  C   UNL A   1      41.461  25.694  28.495  1.00  0.00     0.049 A 
ATOM     24  H   UNL A   1      42.089  27.402  29.511  1.00  0.00     0.167 HD
ATOM     25  C   UNL A   1      43.357  31.130  31.399  1.00  0.00     0.031 A 
ATOM     26  C   UNL A   1      42.490  24.825  28.488  1.00  0.00     0.031 A 
ATOM     27  C   UNL A   1      44.488  30.247  31.505  1.00  0.00     0.049 A 
ATOM     28  C   UNL A   1      43.784  25.214  29.137  1.00  0.00     0.074 A 
ATOM     29  C   UNL A   1      45.708  30.479  32.116  1.00  0.00     0.029 A 
ATOM     30  N   UNL A   1      44.540  28.963  30.982  1.00  0.00    -0.354 N 
ATOM     31  N   UNL A   1      44.093  26.339  29.734  1.00  0.00    -0.248 NA
ATOM     32  C   UNL A   1      44.866  24.222  29.111  1.00  0.00     0.031 C 
ATOM     33  C   UNL A   1      46.511  29.349  31.929  1.00  0.00     0.029 A 
ATOM     34  C   UNL A   1      45.778  28.398  31.237  1.00  0.00     0.049 A 
ATOM     35  H   UNL A   1      43.805  28.519  30.500  1.00  0.00     0.167 HD
ATOM     36  C   UNL A   1      45.404  26.189  30.167  1.00  0.00     0.074 A 
ATOM     37  C   UNL A   1      45.826  24.860  29.770  1.00  0.00     0.031 C 
ATOM     38  C   UNL A   1      46.184  27.075  30.834  1.00  0.00     0.031 A 
BRANCH  25  39
ATOM     39  C   UNL A   1      43.482  32.530  31.934  1.00  0.00    -0.014 A 
ATOM     40  C   UNL A   1      43.151  32.835  33.267  1.00  0.00     0.010 A 
ATOM     41  C   UNL A   1      43.935  33.559  31.087  1.00  0.00     0.010 A 
ATOM     42  C   UNL A   1      43.212  34.154  33.725  1.00  0.00     0.020 A 
ATOM     43  C   UNL A   1      44.016  34.876  31.548  1.00  0.00     0.020 A 
ATOM     44  C   UNL A   1      43.628  35.169  32.857  1.00  0.00     0.054 A 
BRANCH  44  45
ATOM     45  S   UNL A   1      43.667  36.879  33.460  1.00  0.00     0.124 S 
ATOM     46  O   UNL A   1      42.420  36.957  34.217  1.00  0.00    -0.237 OA
ATOM     47  O   UNL A   1      44.888  36.916  34.261  1.00  0.00    -0.237 OA
ATOM     48  O   UNL A   1      43.705  37.677  32.237  1.00  0.00    -0.744 OA
ENDBRANCH  44  45
ENDBRANCH  25  39
BRANCH  26  49
ATOM     49  C   UNL A   1      42.311  23.510  27.819  1.00  0.00    -0.014 A 
ATOM     50  C   UNL A   1      42.740  23.318  26.497  1.00  0.00     0.010 A 
ATOM     51  C   UNL A   1      41.809  22.415  28.547  1.00  0.00     0.010 A 
ATOM     52  C   UNL A   1      42.687  22.047  25.917  1.00  0.00     0.020 A 
ATOM     53  C   UNL A   1      41.775  21.140  27.979  1.00  0.00     0.020 A 
ATOM     54  C   UNL A   1      42.214  20.964  26.666  1.00  0.00     0.054 A 
BRANCH  54  55
ATOM     55  S   UNL A   1      42.270  19.302  25.939  1.00  0.00     0.124 S 
ATOM     56  O   UNL A   1      40.876  19.088  25.565  1.00  0.00    -0.237 OA
ATOM     57  O   UNL A   1      43.205  19.469  24.830  1.00  0.00    -0.237 OA
ATOM     58  O   UNL A   1      42.761  18.469  27.035  1.00  0.00    -0.744 OA
ENDBRANCH  54  55
ENDBRANCH  26  49
BRANCH  38  59
ATOM     59  C   UNL A   1      47.572  26.635  31.201  1.00  0.00    -0.014 A 
ATOM     60  C   UNL A   1      47.825  25.990  32.424  1.00  0.00     0.010 A 
ATOM     61  C   UNL A   1      48.618  26.791  30.273  1.00  0.00     0.010 A 
ATOM     62  C   UNL A   1      49.104  25.510  32.715  1.00  0.00     0.020 A 
ATOM     63  C   UNL A   1      49.894  26.298  30.554  1.00  0.00     0.020 A 
ATOM     64  C   UNL A   1      50.130  25.665  31.776  1.00  0.00     0.054 A 
BRANCH  64  65
ATOM     65  S   UNL A   1      51.764  24.963  32.139  1.00  0.00     0.124 S 
ATOM     66  O   UNL A   1      51.514  23.529  32.010  1.00  0.00    -0.237 OA
ATOM     67  O   UNL A   1      52.607  25.550  31.099  1.00  0.00    -0.237 OA
ATOM     68  O   UNL A   1      52.045  25.427  33.495  1.00  0.00    -0.744 OA
ENDBRANCH  64  65
ENDBRANCH  38  59
ENDBRANCH  12  13
ENDBRANCH   5   7
ENDBRANCH   2   3
ENDBRANCH   1   2
BRANCH   1  69
ATOM     69  C   UNL A   1      34.124  35.134  28.941  1.00  0.00     0.118 C 
BRANCH  69  70
ATOM     70  N   UNL A   1      33.023  35.871  29.551  1.00  0.00    -0.352 N 
ATOM     71  C   UNL A   1      32.785  36.127  30.883  1.00  0.00     0.255 C 
ATOM     72  H   UNL A   1      32.359  36.238  28.924  1.00  0.00     0.163 HD
ATOM     73  O   UNL A   1      31.798  36.771  31.224  1.00  0.00    -0.269 OA
BRANCH  71  74
ATOM     74  C   UNL A   1      33.659  35.526  31.914  1.00  0.00     0.082 A 
ATOM     75  C   UNL A   1      34.459  34.441  31.533  1.00  0.00     0.040 A 
ATOM     76  C   UNL A   1      33.743  36.023  33.218  1.00  0.00     0.128 A 
ATOM     77  C   UNL A   1      35.447  33.979  32.407  1.00  0.00     0.088 A 
ATOM     78  C   UNL A   1      34.797  35.642  34.037  1.00  0.00     0.048 A 
ATOM     79  C   UNL A   1      35.692  34.668  33.595  1.00  0.00     0.026 A 
BRANCH  76  80
ATOM     80  O   UNL A   1      32.814  36.909  33.685  1.00  0.00    -0.507 OA
ATOM     81  H   UNL A   1      32.666  37.716  33.231  1.00  0.00     0.293 HD
ENDBRANCH  76  80
BRANCH  77  82
ATOM     82  S   UNL A   1      36.224  32.422  32.011  1.00  0.00     0.261 S 
ATOM     83  O   UNL A   1      35.204  31.592  31.405  1.00  0.00    -0.201 OA
ATOM     84  O   UNL A   1      37.453  32.733  31.318  1.00  0.00    -0.201 OA
BRANCH  82  85
ATOM     85  N   UNL A   1      36.695  31.684  33.447  1.00  0.00    -0.280 N 
ATOM     86  H   UNL A   1      36.172  31.878  34.259  1.00  0.00     0.180 HD
BRANCH  85  87
ATOM     87  C   UNL A   1      37.802  30.796  33.567  1.00  0.00     0.050 A 
ATOM     88  C   UNL A   1      39.022  31.159  34.145  1.00  0.00     0.027 A 
ATOM     89  C   UNL A   1      37.670  29.542  32.960  1.00  0.00     0.047 A 
ATOM     90  C   UNL A   1      40.138  30.330  33.994  1.00  0.00     0.004 A 
ATOM     91  C   UNL A   1      38.784  28.718  32.821  1.00  0.00     0.043 A 
ATOM     92  C   UNL A   1      40.023  29.118  33.312  1.00  0.00     0.020 A 
ATOM     93  Cl  UNL A   1      38.639  27.228  31.974  1.00  0.00    -0.084 Cl
ENDBRANCH  85  87
ENDBRANCH  82  85
ENDBRANCH  77  82
ENDBRANCH  71  74
ENDBRANCH  69  70
ENDBRANCH   1  69
TORSDOF 17
ENDMDL
