MODEL 1
REMARK VINA RESULT:     -11.4      0.000      0.000
REMARK SMILES C[C@]1(C(=O)NCCCNC(=O)c2ccc(-c3c4nc(c(-c5ccc(S(=O)(=O)[O-])cc5)c5ccc([nH]5)c(-c5ccc(S(=O)(=O)[O-])cc5)c5nc(c(-c6ccc(S(=O)(=O)[O-])cc6)c6ccc3[nH]6)C=C5)C=C4)cc2)COC[C@H]1Nc1ccc2nnnn2n1
REMARK SMILES IDX 7 1 6 2 5 3 3 4 4 5 2 7 1 8 72 9 75 10 73 11 74 12 76 13
REMARK SMILES IDX 77 15 78 16 85 17 79 18 84 19 80 20 83 21 81 22 82 23 8 24
REMARK SMILES IDX 9 25 10 26 11 28 12 29 13 30 71 31 14 32 70 33 15 34 16 35
REMARK SMILES IDX 17 36 64 37 18 38 69 39 63 40 65 41 19 42 68 43 62 44 61 45
REMARK SMILES IDX 20 47 50 48 31 49 49 50 32 51 35 52 48 53 66 54 33 55 34 56
REMARK SMILES IDX 47 58 67 59 36 60 21 61 22 62 30 63 23 64 29 65 24 66 25 67
REMARK SMILES IDX 26 68 27 69 28 70 51 71 52 72 60 73 53 74 59 75 54 76 55 77
REMARK SMILES IDX 56 78 57 79 58 80 37 81 38 82 46 83 39 84 45 85 40 86 41 87
REMARK SMILES IDX 42 88 43 89 44 90
REMARK H PARENT 5 6 76 14 9 27 65 46 35 57
REMARK Flexibility Score: inf
ROOT
ATOM      1  C   UNL A   1      34.107  27.915  25.898  1.00  0.00     0.042 C 
ENDROOT
BRANCH   1   2
ATOM      2  C   UNL A   1      33.705  28.909  24.807  1.00  0.00     0.117 C 
BRANCH   2   3
ATOM      3  N   UNL A   1      33.893  28.323  23.503  1.00  0.00    -0.355 N 
ATOM      4  C   UNL A   1      33.185  27.404  22.813  1.00  0.00     0.230 C 
ATOM      5  O   UNL A   1      33.731  27.066  21.750  1.00  0.00    -0.274 OA
ATOM      6  H   UNL A   1      34.688  28.656  23.026  1.00  0.00     0.163 HD
BRANCH   4   7
ATOM      7  C   UNL A   1      31.745  26.930  23.115  1.00  0.00     0.092 C 
ATOM      8  C   UNL A   1      31.129  26.553  21.747  1.00  0.00     0.026 C 
ATOM      9  C   UNL A   1      31.939  25.623  23.951  1.00  0.00     0.179 C 
ATOM     10  C   UNL A   1      30.657  27.634  23.949  1.00  0.00     0.124 C 
ATOM     11  O   UNL A   1      30.857  25.518  24.887  1.00  0.00    -0.378 OA
ATOM     12  C   UNL A   1      30.570  26.859  25.258  1.00  0.00     0.186 C 
BRANCH  10  13
ATOM     13  N   UNL A   1      30.679  29.070  24.199  1.00  0.00    -0.362 N 
ATOM     14  H   UNL A   1      31.355  29.476  24.788  1.00  0.00     0.162 HD
BRANCH  13  15
ATOM     15  C   UNL A   1      29.714  29.840  23.578  1.00  0.00     0.149 A 
ATOM     16  C   UNL A   1      28.741  29.131  22.641  1.00  0.00     0.053 A 
ATOM     17  N   UNL A   1      29.719  31.131  23.763  1.00  0.00    -0.129 NA
ATOM     18  C   UNL A   1      28.421  29.898  21.579  1.00  0.00     0.057 A 
ATOM     19  N   UNL A   1      28.880  31.789  22.936  1.00  0.00    -0.108 N 
ATOM     20  C   UNL A   1      28.270  31.287  21.808  1.00  0.00     0.200 A 
ATOM     21  N   UNL A   1      28.694  33.113  22.985  1.00  0.00    -0.022 NA
ATOM     22  N   UNL A   1      27.748  32.286  21.134  1.00  0.00    -0.107 NA
ATOM     23  N   UNL A   1      27.993  33.409  21.896  1.00  0.00    -0.022 NA
ENDBRANCH  13  15
ENDBRANCH  10  13
ENDBRANCH   4   7
ENDBRANCH   2   3
ENDBRANCH   1   2
BRANCH   1  24
ATOM     24  C   UNL A   1      33.506  28.234  27.257  1.00  0.00     0.118 C 
BRANCH  24  25
ATOM     25  N   UNL A   1      33.386  29.669  27.457  1.00  0.00    -0.352 N 
ATOM     26  C   UNL A   1      34.277  30.562  27.999  1.00  0.00     0.251 C 
ATOM     27  H   UNL A   1      32.534  30.062  27.158  1.00  0.00     0.163 HD
ATOM     28  O   UNL A   1      33.893  31.705  28.249  1.00  0.00    -0.269 OA
BRANCH  26  29
ATOM     29  C   UNL A   1      35.670  30.167  28.313  1.00  0.00     0.039 A 
ATOM     30  C   UNL A   1      36.631  30.253  27.299  1.00  0.00     0.014 A 
ATOM     31  C   UNL A   1      36.039  29.678  29.570  1.00  0.00     0.014 A 
ATOM     32  C   UNL A   1      37.955  29.888  27.555  1.00  0.00     0.010 A 
ATOM     33  C   UNL A   1      37.374  29.399  29.850  1.00  0.00     0.010 A 
ATOM     34  C   UNL A   1      38.344  29.480  28.840  1.00  0.00    -0.014 A 
BRANCH  34  35
ATOM     35  C   UNL A   1      39.751  29.106  29.134  1.00  0.00     0.031 A 
ATOM     36  C   UNL A   1      40.679  30.104  29.776  1.00  0.00     0.074 A 
ATOM     37  C   UNL A   1      40.205  27.887  28.783  1.00  0.00     0.049 A 
ATOM     38  N   UNL A   1      41.946  29.975  30.081  1.00  0.00    -0.248 NA
ATOM     39  C   UNL A   1      40.120  31.429  30.093  1.00  0.00     0.031 C 
ATOM     40  C   UNL A   1      39.416  26.849  28.114  1.00  0.00     0.029 A 
ATOM     41  N   UNL A   1      41.440  27.311  28.941  1.00  0.00    -0.354 N 
ATOM     42  C   UNL A   1      42.336  31.202  30.605  1.00  0.00     0.074 A 
ATOM     43  C   UNL A   1      41.190  32.080  30.525  1.00  0.00     0.031 C 
ATOM     44  C   UNL A   1      40.176  25.754  27.951  1.00  0.00     0.029 A 
ATOM     45  C   UNL A   1      41.514  26.022  28.467  1.00  0.00     0.049 A 
ATOM     46  H   UNL A   1      42.202  27.777  29.355  1.00  0.00     0.167 HD
ATOM     47  C   UNL A   1      43.533  31.562  31.126  1.00  0.00     0.031 A 
ATOM     48  C   UNL A   1      42.543  25.153  28.452  1.00  0.00     0.031 A 
ATOM     49  C   UNL A   1      44.664  30.678  31.223  1.00  0.00     0.049 A 
ATOM     50  C   UNL A   1      43.859  25.570  29.046  1.00  0.00     0.074 A 
ATOM     51  C   UNL A   1      45.903  30.923  31.790  1.00  0.00     0.029 A 
ATOM     52  N   UNL A   1      44.693  29.376  30.745  1.00  0.00    -0.354 N 
ATOM     53  N   UNL A   1      44.189  26.715  29.595  1.00  0.00    -0.248 NA
ATOM     54  C   UNL A   1      44.938  24.573  29.032  1.00  0.00     0.031 C 
ATOM     55  C   UNL A   1      46.698  29.786  31.608  1.00  0.00     0.029 A 
ATOM     56  C   UNL A   1      45.935  28.813  30.981  1.00  0.00     0.049 A 
ATOM     57  H   UNL A   1      43.941  28.920  30.301  1.00  0.00     0.167 HD
ATOM     58  C   UNL A   1      45.507  26.568  30.014  1.00  0.00     0.074 A 
ATOM     59  C   UNL A   1      45.905  25.217  29.670  1.00  0.00     0.031 C 
ATOM     60  C   UNL A   1      46.315  27.469  30.626  1.00  0.00     0.031 A 
BRANCH  47  61
ATOM     61  C   UNL A   1      43.679  32.974  31.631  1.00  0.00    -0.014 A 
ATOM     62  C   UNL A   1      44.121  34.008  30.785  1.00  0.00     0.010 A 
ATOM     63  C   UNL A   1      43.340  33.280  32.962  1.00  0.00     0.010 A 
ATOM     64  C   UNL A   1      44.266  35.310  31.272  1.00  0.00     0.020 A 
ATOM     65  C   UNL A   1      43.455  34.587  33.445  1.00  0.00     0.020 A 
ATOM     66  C   UNL A   1      43.935  35.591  32.601  1.00  0.00     0.054 A 
BRANCH  66  67
ATOM     67  S   UNL A   1      44.116  37.292  33.201  1.00  0.00     0.124 S 
ATOM     68  O   UNL A   1      42.986  37.408  34.121  1.00  0.00    -0.237 OA
ATOM     69  O   UNL A   1      45.435  37.274  33.827  1.00  0.00    -0.237 OA
ATOM     70  O   UNL A   1      44.015  38.100  31.988  1.00  0.00    -0.744 OA
ENDBRANCH  66  67
ENDBRANCH  47  61
BRANCH  48  71
ATOM     71  C   UNL A   1      42.358  23.795  27.871  1.00  0.00    -0.014 A 
ATOM     72  C   UNL A   1      42.439  23.594  26.482  1.00  0.00     0.010 A 
ATOM     73  C   UNL A   1      42.122  22.689  28.709  1.00  0.00     0.010 A 
ATOM     74  C   UNL A   1      42.270  22.316  25.939  1.00  0.00     0.020 A 
ATOM     75  C   UNL A   1      41.978  21.407  28.171  1.00  0.00     0.020 A 
ATOM     76  C   UNL A   1      42.043  21.230  26.789  1.00  0.00     0.054 A 
BRANCH  76  77
ATOM     77  S   UNL A   1      41.883  19.573  26.068  1.00  0.00     0.124 S 
ATOM     78  O   UNL A   1      42.323  18.720  27.167  1.00  0.00    -0.237 OA
ATOM     79  O   UNL A   1      40.461  19.504  25.742  1.00  0.00    -0.237 OA
ATOM     80  O   UNL A   1      42.776  19.617  24.912  1.00  0.00    -0.744 OA
ENDBRANCH  76  77
ENDBRANCH  48  71
BRANCH  60  81
ATOM     81  C   UNL A   1      47.703  27.014  30.987  1.00  0.00    -0.014 A 
ATOM     82  C   UNL A   1      47.983  26.459  32.248  1.00  0.00     0.010 A 
ATOM     83  C   UNL A   1      48.732  27.103  30.031  1.00  0.00     0.010 A 
ATOM     84  C   UNL A   1      49.276  26.033  32.561  1.00  0.00     0.020 A 
ATOM     85  C   UNL A   1      50.021  26.651  30.331  1.00  0.00     0.020 A 
ATOM     86  C   UNL A   1      50.287  26.135  31.600  1.00  0.00     0.054 A 
BRANCH  86  87
ATOM     87  S   UNL A   1      51.950  25.543  32.018  1.00  0.00     0.124 S 
ATOM     88  O   UNL A   1      52.204  26.225  33.284  1.00  0.00    -0.237 OA
ATOM     89  O   UNL A   1      51.764  24.097  32.108  1.00  0.00    -0.237 OA
ATOM     90  O   UNL A   1      52.769  25.992  30.894  1.00  0.00    -0.744 OA
ENDBRANCH  86  87
ENDBRANCH  60  81
ENDBRANCH  34  35
ENDBRANCH  26  29
ENDBRANCH  24  25
ENDBRANCH   1  24
TORSDOF 15
ENDMDL
MODEL 2
REMARK VINA RESULT:     -11.4      3.302      6.930
REMARK SMILES C[C@]1(C(=O)NCCCNC(=O)c2ccc(-c3c4nc(c(-c5ccc(S(=O)(=O)[O-])cc5)c5ccc([nH]5)c(-c5ccc(S(=O)(=O)[O-])cc5)c5nc(c(-c6ccc(S(=O)(=O)[O-])cc6)c6ccc3[nH]6)C=C5)C=C4)cc2)COC[C@H]1Nc1ccc2nnnn2n1
REMARK SMILES IDX 7 1 6 2 5 3 3 4 4 5 2 7 1 8 72 9 75 10 73 11 74 12 76 13
REMARK SMILES IDX 77 15 78 16 85 17 79 18 84 19 80 20 83 21 81 22 82 23 8 24
REMARK SMILES IDX 9 25 10 26 11 28 12 29 13 30 71 31 14 32 70 33 15 34 16 35
REMARK SMILES IDX 17 36 64 37 18 38 69 39 63 40 65 41 19 42 68 43 62 44 61 45
REMARK SMILES IDX 20 47 50 48 31 49 49 50 32 51 35 52 48 53 66 54 33 55 34 56
REMARK SMILES IDX 47 58 67 59 36 60 21 61 22 62 30 63 23 64 29 65 24 66 25 67
REMARK SMILES IDX 26 68 27 69 28 70 51 71 52 72 60 73 53 74 59 75 54 76 55 77
REMARK SMILES IDX 56 78 57 79 58 80 37 81 38 82 46 83 39 84 45 85 40 86 41 87
REMARK SMILES IDX 42 88 43 89 44 90
REMARK H PARENT 5 6 76 14 9 27 65 46 35 57
REMARK Flexibility Score: inf
ROOT
ATOM      1  C   UNL A   1      34.532  32.834  29.601  1.00  0.00     0.042 C 
ENDROOT
BRANCH   1   2
ATOM      2  C   UNL A   1      34.989  34.208  30.095  1.00  0.00     0.117 C 
BRANCH   2   3
ATOM      3  N   UNL A   1      36.424  34.236  30.235  1.00  0.00    -0.355 N 
ATOM      4  C   UNL A   1      37.225  34.366  31.314  1.00  0.00     0.230 C 
ATOM      5  O   UNL A   1      38.428  34.457  31.019  1.00  0.00    -0.274 OA
ATOM      6  H   UNL A   1      36.911  34.143  29.385  1.00  0.00     0.163 HD
BRANCH   4   7
ATOM      7  C   UNL A   1      36.813  34.207  32.795  1.00  0.00     0.092 C 
ATOM      8  C   UNL A   1      38.046  34.638  33.624  1.00  0.00     0.026 C 
ATOM      9  C   UNL A   1      35.682  35.267  32.995  1.00  0.00     0.179 C 
ATOM     10  C   UNL A   1      36.177  32.987  33.490  1.00  0.00     0.124 C 
ATOM     11  O   UNL A   1      34.748  34.758  33.957  1.00  0.00    -0.378 OA
ATOM     12  C   UNL A   1      34.717  33.357  33.723  1.00  0.00     0.186 C 
BRANCH  10  13
ATOM     13  N   UNL A   1      36.287  31.639  32.945  1.00  0.00    -0.362 N 
ATOM     14  H   UNL A   1      35.664  31.312  32.258  1.00  0.00     0.162 HD
BRANCH  13  15
ATOM     15  C   UNL A   1      37.302  30.837  33.433  1.00  0.00     0.149 A 
ATOM     16  C   UNL A   1      38.129  31.374  34.596  1.00  0.00     0.053 A 
ATOM     17  N   UNL A   1      37.549  29.701  32.841  1.00  0.00    -0.129 NA
ATOM     18  C   UNL A   1      39.423  31.008  34.499  1.00  0.00     0.057 A 
ATOM     19  N   UNL A   1      38.692  29.121  33.263  1.00  0.00    -0.108 N 
ATOM     20  C   UNL A   1      39.693  29.710  34.003  1.00  0.00     0.200 A 
ATOM     21  N   UNL A   1      39.114  27.930  32.822  1.00  0.00    -0.022 NA
ATOM     22  N   UNL A   1      40.743  28.922  33.990  1.00  0.00    -0.107 NA
ATOM     23  N   UNL A   1      40.355  27.806  33.279  1.00  0.00    -0.022 NA
ENDBRANCH  13  15
ENDBRANCH  10  13
ENDBRANCH   4   7
ENDBRANCH   2   3
ENDBRANCH   1   2
BRANCH   1  24
ATOM     24  C   UNL A   1      34.408  32.747  28.088  1.00  0.00     0.118 C 
BRANCH  24  25
ATOM     25  N   UNL A   1      33.740  31.519  27.684  1.00  0.00    -0.352 N 
ATOM     26  C   UNL A   1      34.243  30.253  27.521  1.00  0.00     0.251 C 
ATOM     27  H   UNL A   1      32.777  31.611  27.500  1.00  0.00     0.163 HD
ATOM     28  O   UNL A   1      33.537  29.399  26.984  1.00  0.00    -0.269 OA
BRANCH  26  29
ATOM     29  C   UNL A   1      35.621  29.909  27.946  1.00  0.00     0.039 A 
ATOM     30  C   UNL A   1      35.809  29.387  29.231  1.00  0.00     0.014 A 
ATOM     31  C   UNL A   1      36.729  30.129  27.124  1.00  0.00     0.014 A 
ATOM     32  C   UNL A   1      37.092  29.053  29.670  1.00  0.00     0.010 A 
ATOM     33  C   UNL A   1      37.996  29.713  27.528  1.00  0.00     0.010 A 
ATOM     34  C   UNL A   1      38.195  29.190  28.813  1.00  0.00    -0.014 A 
BRANCH  34  35
ATOM     35  C   UNL A   1      39.563  28.821  29.259  1.00  0.00     0.031 A 
ATOM     36  C   UNL A   1      40.382  29.792  30.069  1.00  0.00     0.074 A 
ATOM     37  C   UNL A   1      40.084  27.632  28.899  1.00  0.00     0.049 A 
ATOM     38  N   UNL A   1      41.603  29.664  30.523  1.00  0.00    -0.248 NA
ATOM     39  C   UNL A   1      39.758  31.088  30.389  1.00  0.00     0.031 C 
ATOM     40  C   UNL A   1      39.408  26.624  28.077  1.00  0.00     0.029 A 
ATOM     41  N   UNL A   1      41.302  27.066  29.177  1.00  0.00    -0.354 N 
ATOM     42  C   UNL A   1      41.898  30.864  31.161  1.00  0.00     0.074 A 
ATOM     43  C   UNL A   1      40.751  31.728  30.988  1.00  0.00     0.031 C 
ATOM     44  C   UNL A   1      40.207  25.552  27.948  1.00  0.00     0.029 A 
ATOM     45  C   UNL A   1      41.463  25.809  28.643  1.00  0.00     0.049 A 
ATOM     46  H   UNL A   1      41.997  27.518  29.710  1.00  0.00     0.167 HD
ATOM     47  C   UNL A   1      43.013  31.210  31.847  1.00  0.00     0.031 A 
ATOM     48  C   UNL A   1      42.506  24.958  28.707  1.00  0.00     0.031 A 
ATOM     49  C   UNL A   1      44.142  30.338  32.035  1.00  0.00     0.049 A 
ATOM     50  C   UNL A   1      43.728  25.358  29.484  1.00  0.00     0.074 A 
ATOM     51  C   UNL A   1      45.295  30.568  32.765  1.00  0.00     0.029 A 
ATOM     52  N   UNL A   1      44.259  29.068  31.490  1.00  0.00    -0.354 N 
ATOM     53  N   UNL A   1      43.961  26.473  30.135  1.00  0.00    -0.248 NA
ATOM     54  C   UNL A   1      44.823  24.380  29.549  1.00  0.00     0.031 C 
ATOM     55  C   UNL A   1      46.131  29.456  32.620  1.00  0.00     0.029 A 
ATOM     56  C   UNL A   1      45.474  28.511  31.848  1.00  0.00     0.049 A 
ATOM     57  H   UNL A   1      43.579  28.628  30.929  1.00  0.00     0.167 HD
ATOM     58  C   UNL A   1      45.220  26.321  30.707  1.00  0.00     0.074 A 
ATOM     59  C   UNL A   1      45.688  25.000  30.339  1.00  0.00     0.031 C 
ATOM     60  C   UNL A   1      45.925  27.196  31.466  1.00  0.00     0.031 A 
BRANCH  47  61
ATOM     61  C   UNL A   1      43.062  32.591  32.447  1.00  0.00    -0.014 A 
ATOM     62  C   UNL A   1      42.651  32.826  33.772  1.00  0.00     0.010 A 
ATOM     63  C   UNL A   1      43.556  33.666  31.686  1.00  0.00     0.010 A 
ATOM     64  C   UNL A   1      42.688  34.115  34.309  1.00  0.00     0.020 A 
ATOM     65  C   UNL A   1      43.624  34.953  32.230  1.00  0.00     0.020 A 
ATOM     66  C   UNL A   1      43.171  35.173  33.533  1.00  0.00     0.054 A 
BRANCH  66  67
ATOM     67  S   UNL A   1      43.225  36.832  34.261  1.00  0.00     0.124 S 
ATOM     68  O   UNL A   1      43.472  37.668  33.088  1.00  0.00    -0.237 OA
ATOM     69  O   UNL A   1      41.899  36.965  34.857  1.00  0.00    -0.237 OA
ATOM     70  O   UNL A   1      44.330  36.757  35.214  1.00  0.00    -0.744 OA
ENDBRANCH  66  67
ENDBRANCH  47  61
BRANCH  48  71
ATOM     71  C   UNL A   1      42.425  23.634  28.030  1.00  0.00    -0.014 A 
ATOM     72  C   UNL A   1      43.193  23.370  26.883  1.00  0.00     0.010 A 
ATOM     73  C   UNL A   1      41.595  22.622  28.545  1.00  0.00     0.010 A 
ATOM     74  C   UNL A   1      43.118  22.124  26.251  1.00  0.00     0.020 A 
ATOM     75  C   UNL A   1      41.538  21.367  27.932  1.00  0.00     0.020 A 
ATOM     76  C   UNL A   1      42.292  21.129  26.783  1.00  0.00     0.054 A 
BRANCH  76  77
ATOM     77  S   UNL A   1      42.255  19.502  25.982  1.00  0.00     0.124 S 
ATOM     78  O   UNL A   1      43.127  19.710  24.830  1.00  0.00    -0.237 OA
ATOM     79  O   UNL A   1      42.779  18.623  27.025  1.00  0.00    -0.237 OA
ATOM     80  O   UNL A   1      40.840  19.308  25.671  1.00  0.00    -0.744 OA
ENDBRANCH  76  77
ENDBRANCH  48  71
BRANCH  60  81
ATOM     81  C   UNL A   1      47.268  26.741  31.972  1.00  0.00    -0.014 A 
ATOM     82  C   UNL A   1      47.396  26.084  33.207  1.00  0.00     0.010 A 
ATOM     83  C   UNL A   1      48.411  26.937  31.175  1.00  0.00     0.010 A 
ATOM     84  C   UNL A   1      48.650  25.660  33.655  1.00  0.00     0.020 A 
ATOM     85  C   UNL A   1      49.663  26.489  31.607  1.00  0.00     0.020 A 
ATOM     86  C   UNL A   1      49.775  25.868  32.852  1.00  0.00     0.054 A 
BRANCH  86  87
ATOM     87  S   UNL A   1      51.387  25.278  33.439  1.00  0.00     0.124 S 
ATOM     88  O   UNL A   1      51.627  24.133  32.565  1.00  0.00    -0.237 OA
ATOM     89  O   UNL A   1      52.253  26.433  33.214  1.00  0.00    -0.237 OA
ATOM     90  O   UNL A   1      51.146  24.951  34.842  1.00  0.00    -0.744 OA
ENDBRANCH  86  87
ENDBRANCH  60  81
ENDBRANCH  34  35
ENDBRANCH  26  29
ENDBRANCH  24  25
ENDBRANCH   1  24
TORSDOF 15
ENDMDL
MODEL 3
REMARK VINA RESULT:     -11.1      4.896     10.427
REMARK SMILES C[C@]1(C(=O)NCCCNC(=O)c2ccc(-c3c4nc(c(-c5ccc(S(=O)(=O)[O-])cc5)c5ccc([nH]5)c(-c5ccc(S(=O)(=O)[O-])cc5)c5nc(c(-c6ccc(S(=O)(=O)[O-])cc6)c6ccc3[nH]6)C=C5)C=C4)cc2)COC[C@H]1Nc1ccc2nnnn2n1
REMARK SMILES IDX 7 1 6 2 5 3 3 4 4 5 2 7 1 8 72 9 75 10 73 11 74 12 76 13
REMARK SMILES IDX 77 15 78 16 85 17 79 18 84 19 80 20 83 21 81 22 82 23 8 24
REMARK SMILES IDX 9 25 10 26 11 28 12 29 13 30 71 31 14 32 70 33 15 34 16 35
REMARK SMILES IDX 17 36 64 37 18 38 69 39 63 40 65 41 19 42 68 43 62 44 61 45
REMARK SMILES IDX 20 47 50 48 31 49 49 50 32 51 35 52 48 53 66 54 33 55 34 56
REMARK SMILES IDX 47 58 67 59 36 60 21 61 22 62 30 63 23 64 29 65 24 66 25 67
REMARK SMILES IDX 26 68 27 69 28 70 51 71 52 72 60 73 53 74 59 75 54 76 55 77
REMARK SMILES IDX 56 78 57 79 58 80 37 81 38 82 46 83 39 84 45 85 40 86 41 87
REMARK SMILES IDX 42 88 43 89 44 90
REMARK H PARENT 5 6 76 14 9 27 65 46 35 57
REMARK Flexibility Score: inf
ROOT
ATOM      1  C   UNL A   1      37.902  23.738  25.768  1.00  0.00     0.042 C 
ENDROOT
BRANCH   1   2
ATOM      2  C   UNL A   1      37.180  22.404  25.574  1.00  0.00     0.117 C 
BRANCH   2   3
ATOM      3  N   UNL A   1      36.097  22.280  26.519  1.00  0.00    -0.355 N 
ATOM      4  C   UNL A   1      34.784  22.011  26.360  1.00  0.00     0.230 C 
ATOM      5  O   UNL A   1      34.138  22.099  27.416  1.00  0.00    -0.274 OA
ATOM      6  H   UNL A   1      36.367  22.416  27.455  1.00  0.00     0.163 HD
BRANCH   4   7
ATOM      7  C   UNL A   1      34.105  21.436  25.096  1.00  0.00     0.092 C 
ATOM      8  C   UNL A   1      34.569  22.332  23.923  1.00  0.00     0.026 C 
ATOM      9  C   UNL A   1      34.746  20.021  24.925  1.00  0.00     0.179 C 
ATOM     10  C   UNL A   1      32.618  21.097  24.874  1.00  0.00     0.124 C 
ATOM     11  O   UNL A   1      33.765  19.144  24.356  1.00  0.00    -0.378 OA
ATOM     12  C   UNL A   1      32.530  19.576  24.911  1.00  0.00     0.186 C 
BRANCH  10  13
ATOM     13  N   UNL A   1      31.558  21.694  25.676  1.00  0.00    -0.362 N 
ATOM     14  H   UNL A   1      31.087  21.178  26.369  1.00  0.00     0.162 HD
BRANCH  13  15
ATOM     15  C   UNL A   1      31.238  23.015  25.425  1.00  0.00     0.149 A 
ATOM     16  C   UNL A   1      30.999  23.420  23.974  1.00  0.00     0.053 A 
ATOM     17  N   UNL A   1      31.221  23.861  26.418  1.00  0.00    -0.129 NA
ATOM     18  C   UNL A   1      31.457  24.663  23.722  1.00  0.00     0.057 A 
ATOM     19  N   UNL A   1      31.118  25.146  26.018  1.00  0.00    -0.108 N 
ATOM     20  C   UNL A   1      31.297  25.631  24.742  1.00  0.00     0.200 A 
ATOM     21  N   UNL A   1      31.036  26.173  26.873  1.00  0.00    -0.022 NA
ATOM     22  N   UNL A   1      31.373  26.940  24.798  1.00  0.00    -0.107 NA
ATOM     23  N   UNL A   1      31.178  27.262  26.125  1.00  0.00    -0.022 NA
ENDBRANCH  13  15
ENDBRANCH  10  13
ENDBRANCH   4   7
ENDBRANCH   2   3
ENDBRANCH   1   2
BRANCH   1  24
ATOM     24  C   UNL A   1      39.048  23.665  26.764  1.00  0.00     0.118 C 
BRANCH  24  25
ATOM     25  N   UNL A   1      40.323  23.947  26.123  1.00  0.00    -0.352 N 
ATOM     26  C   UNL A   1      41.208  24.975  26.334  1.00  0.00     0.251 C 
ATOM     27  H   UNL A   1      40.594  23.301  25.432  1.00  0.00     0.163 HD
ATOM     28  O   UNL A   1      42.139  25.127  25.543  1.00  0.00    -0.269 OA
BRANCH  26  29
ATOM     29  C   UNL A   1      41.045  25.914  27.469  1.00  0.00     0.039 A 
ATOM     30  C   UNL A   1      41.950  26.974  27.590  1.00  0.00     0.014 A 
ATOM     31  C   UNL A   1      40.047  25.748  28.433  1.00  0.00     0.014 A 
ATOM     32  C   UNL A   1      41.831  27.879  28.648  1.00  0.00     0.010 A 
ATOM     33  C   UNL A   1      39.874  26.700  29.435  1.00  0.00     0.010 A 
ATOM     34  C   UNL A   1      40.777  27.765  29.567  1.00  0.00    -0.014 A 
BRANCH  34  35
ATOM     35  C   UNL A   1      40.625  28.730  30.685  1.00  0.00     0.031 A 
ATOM     36  C   UNL A   1      41.499  28.615  31.907  1.00  0.00     0.074 A 
ATOM     37  C   UNL A   1      39.674  29.683  30.620  1.00  0.00     0.049 A 
ATOM     38  N   UNL A   1      41.495  29.342  32.995  1.00  0.00    -0.248 NA
ATOM     39  C   UNL A   1      42.488  27.523  31.921  1.00  0.00     0.031 C 
ATOM     40  C   UNL A   1      38.735  29.869  29.511  1.00  0.00     0.029 A 
ATOM     41  N   UNL A   1      39.339  30.675  31.505  1.00  0.00    -0.354 N 
ATOM     42  C   UNL A   1      42.462  28.786  33.826  1.00  0.00     0.074 A 
ATOM     43  C   UNL A   1      42.993  27.628  33.141  1.00  0.00     0.031 C 
ATOM     44  C   UNL A   1      37.955  30.931  29.766  1.00  0.00     0.029 A 
ATOM     45  C   UNL A   1      38.310  31.479  31.071  1.00  0.00     0.049 A 
ATOM     46  H   UNL A   1      39.792  30.801  32.370  1.00  0.00     0.167 HD
ATOM     47  C   UNL A   1      42.887  29.211  35.039  1.00  0.00     0.031 A 
ATOM     48  C   UNL A   1      37.720  32.538  31.658  1.00  0.00     0.031 A 
ATOM     49  C   UNL A   1      42.371  30.376  35.707  1.00  0.00     0.049 A 
ATOM     50  C   UNL A   1      38.215  33.000  33.000  1.00  0.00     0.074 A 
ATOM     51  C   UNL A   1      42.774  30.929  36.910  1.00  0.00     0.029 A 
ATOM     52  N   UNL A   1      41.340  31.170  35.227  1.00  0.00    -0.354 N 
ATOM     53  N   UNL A   1      39.176  32.497  33.740  1.00  0.00    -0.248 NA
ATOM     54  C   UNL A   1      37.558  34.179  33.580  1.00  0.00     0.031 C 
ATOM     55  C   UNL A   1      41.952  32.028  37.181  1.00  0.00     0.029 A 
ATOM     56  C   UNL A   1      41.077  32.194  36.120  1.00  0.00     0.049 A 
ATOM     57  H   UNL A   1      40.863  31.026  34.377  1.00  0.00     0.167 HD
ATOM     58  C   UNL A   1      39.254  33.314  34.863  1.00  0.00     0.074 A 
ATOM     59  C   UNL A   1      38.256  34.352  34.693  1.00  0.00     0.031 C 
ATOM     60  C   UNL A   1      40.075  33.214  35.937  1.00  0.00     0.031 A 
BRANCH  47  61
ATOM     61  C   UNL A   1      43.964  28.409  35.722  1.00  0.00    -0.014 A 
ATOM     62  C   UNL A   1      43.645  27.409  36.660  1.00  0.00     0.010 A 
ATOM     63  C   UNL A   1      45.315  28.634  35.400  1.00  0.00     0.010 A 
ATOM     64  C   UNL A   1      44.655  26.684  37.296  1.00  0.00     0.020 A 
ATOM     65  C   UNL A   1      46.328  27.889  36.012  1.00  0.00     0.020 A 
ATOM     66  C   UNL A   1      45.992  26.932  36.971  1.00  0.00     0.054 A 
BRANCH  66  67
ATOM     67  S   UNL A   1      47.282  25.964  37.800  1.00  0.00     0.124 S 
ATOM     68  O   UNL A   1      48.449  26.241  36.965  1.00  0.00    -0.237 OA
ATOM     69  O   UNL A   1      47.315  26.549  39.137  1.00  0.00    -0.237 OA
ATOM     70  O   UNL A   1      46.783  24.592  37.734  1.00  0.00    -0.744 OA
ENDBRANCH  66  67
ENDBRANCH  47  61
BRANCH  48  71
ATOM     71  C   UNL A   1      36.608  33.246  30.965  1.00  0.00    -0.014 A 
ATOM     72  C   UNL A   1      36.830  33.897  29.739  1.00  0.00     0.010 A 
ATOM     73  C   UNL A   1      35.315  33.253  31.520  1.00  0.00     0.010 A 
ATOM     74  C   UNL A   1      35.782  34.558  29.089  1.00  0.00     0.020 A 
ATOM     75  C   UNL A   1      34.261  33.890  30.859  1.00  0.00     0.020 A 
ATOM     76  C   UNL A   1      34.503  34.548  29.653  1.00  0.00     0.054 A 
BRANCH  76  77
ATOM     77  S   UNL A   1      33.147  35.362  28.763  1.00  0.00     0.124 S 
ATOM     78  O   UNL A   1      32.364  35.929  29.856  1.00  0.00    -0.237 OA
ATOM     79  O   UNL A   1      33.853  36.325  27.922  1.00  0.00    -0.237 OA
ATOM     80  O   UNL A   1      32.510  34.265  28.037  1.00  0.00    -0.744 OA
ENDBRANCH  76  77
ENDBRANCH  48  71
BRANCH  60  81
ATOM     81  C   UNL A   1      39.948  34.270  37.002  1.00  0.00    -0.014 A 
ATOM     82  C   UNL A   1      40.608  35.506  36.885  1.00  0.00     0.010 A 
ATOM     83  C   UNL A   1      39.117  34.037  38.113  1.00  0.00     0.010 A 
ATOM     84  C   UNL A   1      40.469  36.477  37.879  1.00  0.00     0.020 A 
ATOM     85  C   UNL A   1      38.952  35.018  39.095  1.00  0.00     0.020 A 
ATOM     86  C   UNL A   1      39.643  36.225  38.979  1.00  0.00     0.054 A 
BRANCH  86  87
ATOM     87  S   UNL A   1      39.451  37.515  40.240  1.00  0.00     0.124 S 
ATOM     88  O   UNL A   1      40.818  38.008  40.379  1.00  0.00    -0.237 OA
ATOM     89  O   UNL A   1      38.511  38.440  39.612  1.00  0.00    -0.237 OA
ATOM     90  O   UNL A   1      38.928  36.793  41.397  1.00  0.00    -0.744 OA
ENDBRANCH  86  87
ENDBRANCH  60  81
ENDBRANCH  34  35
ENDBRANCH  26  29
ENDBRANCH  24  25
ENDBRANCH   1  24
TORSDOF 15
ENDMDL
