MODEL 1
REMARK VINA RESULT:     -11.4      0.000      0.000
REMARK SMILES COc1cccc(NC(=O)[C@@H]2[C@@H](C(=O)NCCCNC(=O)c3ccc(-c4c5nc(c(-c6ccc(S(=O)(=O)[O-])cc6)c6ccc([nH]6)c(-c6ccc(S(=O)(=O)[O-])cc6)c6nc(c(-c7ccc(S(=O)(=O)[O-])cc7)c7ccc4[nH]7)C=C6)C=C5)cc3)[C@H]3C=C[C@@H]2C3)c1
REMARK SMILES IDX 17 1 16 2 15 3 13 4 14 5 12 7 11 8 85 9 82 10 84 11 86 12
REMARK SMILES IDX 83 13 9 14 8 15 10 17 7 18 3 19 4 20 87 21 5 22 6 23 2 24
REMARK SMILES IDX 1 25 18 26 19 27 20 28 21 30 22 31 23 32 81 33 24 34 80 35
REMARK SMILES IDX 25 36 26 37 27 38 74 39 28 40 79 41 73 42 75 43 29 44 78 45
REMARK SMILES IDX 72 46 71 47 30 49 60 50 41 51 59 52 42 53 45 54 58 55 76 56
REMARK SMILES IDX 43 57 44 58 57 60 77 61 46 62 31 63 32 64 40 65 33 66 39 67
REMARK SMILES IDX 34 68 35 69 36 70 37 71 38 72 61 73 62 74 70 75 63 76 69 77
REMARK SMILES IDX 64 78 65 79 66 80 67 81 68 82 47 83 48 84 56 85 49 86 55 87
REMARK SMILES IDX 50 88 51 89 52 90 53 91 54 92
REMARK H PARENT 15 6 8 16 19 29 75 48 45 59
REMARK Flexibility Score: inf
ROOT
ATOM      1  C   UNL A   1      32.254  28.202  27.022  1.00  0.00     0.042 C 
ENDROOT
BRANCH   1   2
ATOM      2  C   UNL A   1      31.376  29.169  26.247  1.00  0.00     0.117 C 
BRANCH   2   3
ATOM      3  N   UNL A   1      31.592  29.096  24.817  1.00  0.00    -0.356 N 
ATOM      4  C   UNL A   1      30.805  29.373  23.758  1.00  0.00     0.224 C 
ATOM      5  O   UNL A   1      31.301  29.100  22.658  1.00  0.00    -0.275 OA
ATOM      6  H   UNL A   1      32.491  28.780  24.570  1.00  0.00     0.163 HD
BRANCH   4   7
ATOM      7  C   UNL A   1      29.394  29.936  23.799  1.00  0.00     0.098 C 
ATOM      8  C   UNL A   1      28.452  29.229  22.756  1.00  0.00     0.099 C 
ATOM      9  C   UNL A   1      27.554  30.413  22.284  1.00  0.00     0.025 C 
ATOM     10  C   UNL A   1      29.069  31.431  23.576  1.00  0.00     0.025 C 
ATOM     11  C   UNL A   1      28.408  31.256  21.368  1.00  0.00    -0.027 C 
ATOM     12  C   UNL A   1      27.542  31.354  23.497  1.00  0.00     0.017 C 
ATOM     13  C   UNL A   1      29.317  31.864  22.141  1.00  0.00    -0.027 C 
BRANCH   8  14
ATOM     14  C   UNL A   1      27.598  28.145  23.381  1.00  0.00     0.228 C 
ATOM     15  N   UNL A   1      28.071  26.956  23.839  1.00  0.00    -0.326 N 
ATOM     16  H   UNL A   1      27.342  26.388  24.178  1.00  0.00     0.169 HD
ATOM     17  O   UNL A   1      26.375  28.308  23.489  1.00  0.00    -0.274 OA
BRANCH  15  18
ATOM     18  C   UNL A   1      29.318  26.310  23.963  1.00  0.00     0.044 A 
ATOM     19  C   UNL A   1      30.904  25.302  25.534  1.00  0.00     0.120 A 
ATOM     20  C   UNL A   1      31.816  25.116  24.502  1.00  0.00     0.046 A 
ATOM     21  C   UNL A   1      29.668  25.903  25.266  1.00  0.00     0.072 A 
ATOM     22  C   UNL A   1      31.478  25.488  23.207  1.00  0.00     0.006 A 
ATOM     23  C   UNL A   1      30.234  26.072  22.942  1.00  0.00     0.026 A 
BRANCH  19  24
ATOM     24  O   UNL A   1      31.343  24.928  26.775  1.00  0.00    -0.497 OA
ATOM     25  C   UNL A   1      32.108  23.730  26.813  1.00  0.00     0.278 C 
ENDBRANCH  19  24
ENDBRANCH  15  18
ENDBRANCH   8  14
ENDBRANCH   4   7
ENDBRANCH   2   3
ENDBRANCH   1   2
BRANCH   1  26
ATOM     26  C   UNL A   1      33.680  28.691  27.218  1.00  0.00     0.118 C 
BRANCH  26  27
ATOM     27  N   UNL A   1      33.750  30.091  27.617  1.00  0.00    -0.352 N 
ATOM     28  C   UNL A   1      34.725  30.797  28.285  1.00  0.00     0.251 C 
ATOM     29  H   UNL A   1      32.961  30.626  27.366  1.00  0.00     0.163 HD
ATOM     30  O   UNL A   1      34.474  31.923  28.699  1.00  0.00    -0.269 OA
BRANCH  28  31
ATOM     31  C   UNL A   1      36.054  30.195  28.534  1.00  0.00     0.039 A 
ATOM     32  C   UNL A   1      37.015  30.212  27.519  1.00  0.00     0.014 A 
ATOM     33  C   UNL A   1      36.361  29.609  29.762  1.00  0.00     0.014 A 
ATOM     34  C   UNL A   1      38.305  29.738  27.775  1.00  0.00     0.010 A 
ATOM     35  C   UNL A   1      37.673  29.254  30.054  1.00  0.00     0.010 A 
ATOM     36  C   UNL A   1      38.662  29.312  29.064  1.00  0.00    -0.014 A 
BRANCH  36  37
ATOM     37  C   UNL A   1      40.058  28.936  29.410  1.00  0.00     0.031 A 
ATOM     38  C   UNL A   1      40.964  29.929  30.093  1.00  0.00     0.074 A 
ATOM     39  C   UNL A   1      40.537  27.733  29.030  1.00  0.00     0.049 A 
ATOM     40  N   UNL A   1      42.234  29.820  30.384  1.00  0.00    -0.248 NA
ATOM     41  C   UNL A   1      40.375  31.226  30.465  1.00  0.00     0.031 C 
ATOM     42  C   UNL A   1      39.777  26.703  28.315  1.00  0.00     0.029 A 
ATOM     43  N   UNL A   1      41.782  27.175  29.180  1.00  0.00    -0.354 N 
ATOM     44  C   UNL A   1      42.599  31.037  30.951  1.00  0.00     0.074 A 
ATOM     45  C   UNL A   1      41.432  31.889  30.909  1.00  0.00     0.031 C 
ATOM     46  C   UNL A   1      40.560  25.630  28.121  1.00  0.00     0.029 A 
ATOM     47  C   UNL A   1      41.891  25.912  28.646  1.00  0.00     0.049 A 
ATOM     48  H   UNL A   1      42.528  27.636  29.629  1.00  0.00     0.167 HD
ATOM     49  C   UNL A   1      43.791  31.405  31.478  1.00  0.00     0.031 A 
ATOM     50  C   UNL A   1      42.946  25.077  28.574  1.00  0.00     0.031 A 
ATOM     51  C   UNL A   1      44.943  30.545  31.532  1.00  0.00     0.049 A 
ATOM     52  C   UNL A   1      44.261  25.512  29.158  1.00  0.00     0.074 A 
ATOM     53  C   UNL A   1      46.176  30.799  32.106  1.00  0.00     0.029 A 
ATOM     54  N   UNL A   1      45.007  29.269  30.995  1.00  0.00    -0.354 N 
ATOM     55  N   UNL A   1      44.563  26.640  29.757  1.00  0.00    -0.248 NA
ATOM     56  C   UNL A   1      45.376  24.561  29.065  1.00  0.00     0.031 C 
ATOM     57  C   UNL A   1      47.006  29.701  31.860  1.00  0.00     0.029 A 
ATOM     58  C   UNL A   1      46.267  28.734  31.194  1.00  0.00     0.049 A 
ATOM     59  H   UNL A   1      44.264  28.811  30.538  1.00  0.00     0.167 HD
ATOM     60  C   UNL A   1      45.896  26.523  30.134  1.00  0.00     0.074 A 
ATOM     61  C   UNL A   1      46.334  25.206  29.717  1.00  0.00     0.031 C 
ATOM     62  C   UNL A   1      46.688  27.423  30.768  1.00  0.00     0.031 A 
BRANCH  49  63
ATOM     63  C   UNL A   1      43.910  32.798  32.039  1.00  0.00    -0.014 A 
ATOM     64  C   UNL A   1      43.594  33.072  33.383  1.00  0.00     0.010 A 
ATOM     65  C   UNL A   1      44.395  33.840  31.227  1.00  0.00     0.010 A 
ATOM     66  C   UNL A   1      43.728  34.365  33.894  1.00  0.00     0.020 A 
ATOM     67  C   UNL A   1      44.561  35.129  31.743  1.00  0.00     0.020 A 
ATOM     68  C   UNL A   1      44.212  35.386  33.070  1.00  0.00     0.054 A 
BRANCH  68  69
ATOM     69  S   UNL A   1      44.411  37.046  33.773  1.00  0.00     0.124 S 
ATOM     70  O   UNL A   1      45.600  37.528  33.075  1.00  0.00    -0.237 OA
ATOM     71  O   UNL A   1      43.157  37.700  33.404  1.00  0.00    -0.237 OA
ATOM     72  O   UNL A   1      44.585  36.800  35.202  1.00  0.00    -0.744 OA
ENDBRANCH  68  69
ENDBRANCH  49  63
BRANCH  50  73
ATOM     73  C   UNL A   1      42.802  23.743  27.925  1.00  0.00    -0.014 A 
ATOM     74  C   UNL A   1      43.065  23.583  26.552  1.00  0.00     0.010 A 
ATOM     75  C   UNL A   1      42.401  22.623  28.677  1.00  0.00     0.010 A 
ATOM     76  C   UNL A   1      42.908  22.335  25.940  1.00  0.00     0.020 A 
ATOM     77  C   UNL A   1      42.274  21.367  28.075  1.00  0.00     0.020 A 
ATOM     78  C   UNL A   1      42.515  21.235  26.707  1.00  0.00     0.054 A 
BRANCH  78  79
ATOM     79  S   UNL A   1      42.357  19.618  25.899  1.00  0.00     0.124 S 
ATOM     80  O   UNL A   1      43.364  19.704  24.847  1.00  0.00    -0.237 OA
ATOM     81  O   UNL A   1      42.656  18.691  26.989  1.00  0.00    -0.237 OA
ATOM     82  O   UNL A   1      40.969  19.600  25.441  1.00  0.00    -0.744 OA
ENDBRANCH  78  79
ENDBRANCH  50  73
BRANCH  62  83
ATOM     83  C   UNL A   1      48.102  27.007  31.075  1.00  0.00    -0.014 A 
ATOM     84  C   UNL A   1      48.420  26.336  32.269  1.00  0.00     0.010 A 
ATOM     85  C   UNL A   1      49.116  27.244  30.131  1.00  0.00     0.010 A 
ATOM     86  C   UNL A   1      49.735  25.940  32.527  1.00  0.00     0.020 A 
ATOM     87  C   UNL A   1      50.425  26.821  30.370  1.00  0.00     0.020 A 
ATOM     88  C   UNL A   1      50.729  26.185  31.574  1.00  0.00     0.054 A 
BRANCH  88  89
ATOM     89  S   UNL A   1      52.419  25.622  31.915  1.00  0.00     0.124 S 
ATOM     90  O   UNL A   1      52.781  26.431  33.076  1.00  0.00    -0.237 OA
ATOM     91  O   UNL A   1      52.235  24.196  32.176  1.00  0.00    -0.237 OA
ATOM     92  O   UNL A   1      53.144  25.936  30.686  1.00  0.00    -0.744 OA
ENDBRANCH  88  89
ENDBRANCH  62  83
ENDBRANCH  36  37
ENDBRANCH  28  31
ENDBRANCH  26  27
ENDBRANCH   1  26
TORSDOF 16
ENDMDL
MODEL 2
REMARK VINA RESULT:     -11.3      4.645     10.607
REMARK SMILES COc1cccc(NC(=O)[C@@H]2[C@@H](C(=O)NCCCNC(=O)c3ccc(-c4c5nc(c(-c6ccc(S(=O)(=O)[O-])cc6)c6ccc([nH]6)c(-c6ccc(S(=O)(=O)[O-])cc6)c6nc(c(-c7ccc(S(=O)(=O)[O-])cc7)c7ccc4[nH]7)C=C6)C=C5)cc3)[C@H]3C=C[C@@H]2C3)c1
REMARK SMILES IDX 17 1 16 2 15 3 13 4 14 5 12 7 11 8 85 9 82 10 84 11 86 12
REMARK SMILES IDX 83 13 9 14 8 15 10 17 7 18 3 19 4 20 87 21 5 22 6 23 2 24
REMARK SMILES IDX 1 25 18 26 19 27 20 28 21 30 22 31 23 32 81 33 24 34 80 35
REMARK SMILES IDX 25 36 26 37 27 38 74 39 28 40 79 41 73 42 75 43 29 44 78 45
REMARK SMILES IDX 72 46 71 47 30 49 60 50 41 51 59 52 42 53 45 54 58 55 76 56
REMARK SMILES IDX 43 57 44 58 57 60 77 61 46 62 31 63 32 64 40 65 33 66 39 67
REMARK SMILES IDX 34 68 35 69 36 70 37 71 38 72 61 73 62 74 70 75 63 76 69 77
REMARK SMILES IDX 64 78 65 79 66 80 67 81 68 82 47 83 48 84 56 85 49 86 55 87
REMARK SMILES IDX 50 88 51 89 52 90 53 91 54 92
REMARK H PARENT 15 6 8 16 19 29 75 48 45 59
REMARK Flexibility Score: inf
ROOT
ATOM      1  C   UNL A   1      37.660  23.703  25.407  1.00  0.00     0.042 C 
ENDROOT
BRANCH   1   2
ATOM      2  C   UNL A   1      37.178  22.281  25.177  1.00  0.00     0.117 C 
BRANCH   2   3
ATOM      3  N   UNL A   1      36.154  21.880  26.120  1.00  0.00    -0.356 N 
ATOM      4  C   UNL A   1      34.811  21.803  26.033  1.00  0.00     0.224 C 
ATOM      5  O   UNL A   1      34.241  21.499  27.089  1.00  0.00    -0.275 OA
ATOM      6  H   UNL A   1      36.510  21.612  26.997  1.00  0.00     0.163 HD
BRANCH   4   7
ATOM      7  C   UNL A   1      33.964  22.083  24.803  1.00  0.00     0.098 C 
ATOM      8  C   UNL A   1      33.381  23.544  24.817  1.00  0.00     0.099 C 
ATOM      9  C   UNL A   1      31.972  23.330  24.180  1.00  0.00     0.025 C 
ATOM     10  C   UNL A   1      32.730  21.239  24.411  1.00  0.00     0.025 C 
ATOM     11  C   UNL A   1      31.122  22.675  25.242  1.00  0.00    -0.027 C 
ATOM     12  C   UNL A   1      32.174  22.106  23.278  1.00  0.00     0.017 C 
ATOM     13  C   UNL A   1      31.576  21.424  25.382  1.00  0.00    -0.027 C 
BRANCH   8  14
ATOM     14  C   UNL A   1      34.192  24.505  23.973  1.00  0.00     0.228 C 
ATOM     15  N   UNL A   1      34.109  25.860  24.047  1.00  0.00    -0.326 N 
ATOM     16  H   UNL A   1      34.701  26.291  23.389  1.00  0.00     0.169 HD
ATOM     17  O   UNL A   1      34.991  24.067  23.133  1.00  0.00    -0.274 OA
BRANCH  15  18
ATOM     18  C   UNL A   1      33.407  26.818  24.806  1.00  0.00     0.044 A 
ATOM     19  C   UNL A   1      31.637  28.511  24.751  1.00  0.00     0.120 A 
ATOM     20  C   UNL A   1      31.938  28.875  26.058  1.00  0.00     0.046 A 
ATOM     21  C   UNL A   1      32.373  27.495  24.129  1.00  0.00     0.072 A 
ATOM     22  C   UNL A   1      32.936  28.201  26.750  1.00  0.00     0.006 A 
ATOM     23  C   UNL A   1      33.656  27.175  26.128  1.00  0.00     0.026 A 
BRANCH  19  24
ATOM     24  O   UNL A   1      30.657  29.253  24.149  1.00  0.00    -0.497 OA
ATOM     25  C   UNL A   1      30.213  28.766  22.889  1.00  0.00     0.278 C 
ENDBRANCH  19  24
ENDBRANCH  15  18
ENDBRANCH   8  14
ENDBRANCH   4   7
ENDBRANCH   2   3
ENDBRANCH   1   2
BRANCH   1  26
ATOM     26  C   UNL A   1      38.631  23.842  26.568  1.00  0.00     0.118 C 
BRANCH  26  27
ATOM     27  N   UNL A   1      40.019  23.955  26.136  1.00  0.00    -0.352 N 
ATOM     28  C   UNL A   1      40.965  24.927  26.369  1.00  0.00     0.251 C 
ATOM     29  H   UNL A   1      40.334  23.205  25.581  1.00  0.00     0.163 HD
ATOM     30  O   UNL A   1      42.009  24.914  25.727  1.00  0.00    -0.269 OA
BRANCH  28  31
ATOM     31  C   UNL A   1      40.717  26.000  27.358  1.00  0.00     0.039 A 
ATOM     32  C   UNL A   1      39.762  25.800  28.359  1.00  0.00     0.014 A 
ATOM     33  C   UNL A   1      41.416  27.205  27.305  1.00  0.00     0.014 A 
ATOM     34  C   UNL A   1      39.590  26.763  29.358  1.00  0.00     0.010 A 
ATOM     35  C   UNL A   1      41.335  28.103  28.363  1.00  0.00     0.010 A 
ATOM     36  C   UNL A   1      40.419  27.895  29.402  1.00  0.00    -0.014 A 
BRANCH  36  37
ATOM     37  C   UNL A   1      40.364  28.868  30.525  1.00  0.00     0.031 A 
ATOM     38  C   UNL A   1      41.260  28.694  31.725  1.00  0.00     0.074 A 
ATOM     39  C   UNL A   1      39.445  29.855  30.505  1.00  0.00     0.049 A 
ATOM     40  N   UNL A   1      41.287  29.378  32.839  1.00  0.00    -0.248 NA
ATOM     41  C   UNL A   1      42.229  27.585  31.681  1.00  0.00     0.031 C 
ATOM     42  C   UNL A   1      38.483  30.099  29.426  1.00  0.00     0.029 A 
ATOM     43  N   UNL A   1      39.160  30.834  31.424  1.00  0.00    -0.354 N 
ATOM     44  C   UNL A   1      42.254  28.771  33.634  1.00  0.00     0.074 A 
ATOM     45  C   UNL A   1      42.750  27.630  32.898  1.00  0.00     0.031 C 
ATOM     46  C   UNL A   1      37.740  31.175  29.730  1.00  0.00     0.029 A 
ATOM     47  C   UNL A   1      38.131  31.667  31.046  1.00  0.00     0.049 A 
ATOM     48  H   UNL A   1      39.645  30.931  32.276  1.00  0.00     0.167 HD
ATOM     49  C   UNL A   1      42.705  29.142  34.855  1.00  0.00     0.031 A 
ATOM     50  C   UNL A   1      37.558  32.703  31.689  1.00  0.00     0.031 A 
ATOM     51  C   UNL A   1      42.220  30.291  35.574  1.00  0.00     0.049 A 
ATOM     52  C   UNL A   1      38.071  33.090  33.048  1.00  0.00     0.074 A 
ATOM     53  C   UNL A   1      42.658  30.791  36.787  1.00  0.00     0.029 A 
ATOM     54  N   UNL A   1      41.190  31.116  35.149  1.00  0.00    -0.354 N 
ATOM     55  N   UNL A   1      39.039  32.547  33.750  1.00  0.00    -0.248 NA
ATOM     56  C   UNL A   1      37.421  34.234  33.702  1.00  0.00     0.031 C 
ATOM     57  C   UNL A   1      41.851  31.882  37.126  1.00  0.00     0.029 A 
ATOM     58  C   UNL A   1      40.957  32.103  36.090  1.00  0.00     0.049 A 
ATOM     59  H   UNL A   1      40.698  31.013  34.302  1.00  0.00     0.167 HD
ATOM     60  C   UNL A   1      39.129  33.299  34.915  1.00  0.00     0.074 A 
ATOM     61  C   UNL A   1      38.134  34.348  34.813  1.00  0.00     0.031 C 
ATOM     62  C   UNL A   1      39.959  33.137  35.975  1.00  0.00     0.031 A 
BRANCH  49  63
ATOM     63  C   UNL A   1      43.778  28.299  35.494  1.00  0.00    -0.014 A 
ATOM     64  C   UNL A   1      45.136  28.661  35.411  1.00  0.00     0.010 A 
ATOM     65  C   UNL A   1      43.421  27.156  36.233  1.00  0.00     0.010 A 
ATOM     66  C   UNL A   1      46.118  27.880  36.025  1.00  0.00     0.020 A 
ATOM     67  C   UNL A   1      44.398  26.388  36.875  1.00  0.00     0.020 A 
ATOM     68  C   UNL A   1      45.742  26.747  36.754  1.00  0.00     0.054 A 
BRANCH  68  69
ATOM     69  S   UNL A   1      47.036  25.775  37.571  1.00  0.00     0.124 S 
ATOM     70  O   UNL A   1      46.346  25.300  38.768  1.00  0.00    -0.237 OA
ATOM     71  O   UNL A   1      47.342  24.751  36.574  1.00  0.00    -0.237 OA
ATOM     72  O   UNL A   1      48.102  26.744  37.811  1.00  0.00    -0.744 OA
ENDBRANCH  68  69
ENDBRANCH  49  63
BRANCH  50  73
ATOM     73  C   UNL A   1      36.436  33.449  31.054  1.00  0.00    -0.014 A 
ATOM     74  C   UNL A   1      36.514  33.851  29.708  1.00  0.00     0.010 A 
ATOM     75  C   UNL A   1      35.277  33.759  31.791  1.00  0.00     0.010 A 
ATOM     76  C   UNL A   1      35.468  34.570  29.120  1.00  0.00     0.020 A 
ATOM     77  C   UNL A   1      34.216  34.450  31.197  1.00  0.00     0.020 A 
ATOM     78  C   UNL A   1      34.325  34.863  29.869  1.00  0.00     0.054 A 
BRANCH  78  79
ATOM     79  S   UNL A   1      32.965  35.761  29.073  1.00  0.00     0.124 S 
ATOM     80  O   UNL A   1      33.674  36.821  28.364  1.00  0.00    -0.237 OA
ATOM     81  O   UNL A   1      32.358  34.732  28.231  1.00  0.00    -0.237 OA
ATOM     82  O   UNL A   1      32.141  36.200  30.197  1.00  0.00    -0.744 OA
ENDBRANCH  78  79
ENDBRANCH  50  73
BRANCH  62  83
ATOM     83  C   UNL A   1      39.849  34.132  37.099  1.00  0.00    -0.014 A 
ATOM     84  C   UNL A   1      40.525  35.364  37.051  1.00  0.00     0.010 A 
ATOM     85  C   UNL A   1      39.014  33.850  38.196  1.00  0.00     0.010 A 
ATOM     86  C   UNL A   1      40.394  36.282  38.095  1.00  0.00     0.020 A 
ATOM     87  C   UNL A   1      38.855  34.779  39.226  1.00  0.00     0.020 A 
ATOM     88  C   UNL A   1      39.559  35.984  39.177  1.00  0.00     0.054 A 
BRANCH  88  89
ATOM     89  S   UNL A   1      39.373  37.212  40.498  1.00  0.00     0.124 S 
ATOM     90  O   UNL A   1      38.579  36.481  41.483  1.00  0.00    -0.237 OA
ATOM     91  O   UNL A   1      40.756  37.482  40.881  1.00  0.00    -0.237 OA
ATOM     92  O   UNL A   1      38.684  38.323  39.845  1.00  0.00    -0.744 OA
ENDBRANCH  88  89
ENDBRANCH  62  83
ENDBRANCH  36  37
ENDBRANCH  28  31
ENDBRANCH  26  27
ENDBRANCH   1  26
TORSDOF 16
ENDMDL
MODEL 3
REMARK VINA RESULT:     -11.2      1.436      8.962
REMARK SMILES COc1cccc(NC(=O)[C@@H]2[C@@H](C(=O)NCCCNC(=O)c3ccc(-c4c5nc(c(-c6ccc(S(=O)(=O)[O-])cc6)c6ccc([nH]6)c(-c6ccc(S(=O)(=O)[O-])cc6)c6nc(c(-c7ccc(S(=O)(=O)[O-])cc7)c7ccc4[nH]7)C=C6)C=C5)cc3)[C@H]3C=C[C@@H]2C3)c1
REMARK SMILES IDX 17 1 16 2 15 3 13 4 14 5 12 7 11 8 85 9 82 10 84 11 86 12
REMARK SMILES IDX 83 13 9 14 8 15 10 17 7 18 3 19 4 20 87 21 5 22 6 23 2 24
REMARK SMILES IDX 1 25 18 26 19 27 20 28 21 30 22 31 23 32 81 33 24 34 80 35
REMARK SMILES IDX 25 36 26 37 27 38 74 39 28 40 79 41 73 42 75 43 29 44 78 45
REMARK SMILES IDX 72 46 71 47 30 49 60 50 41 51 59 52 42 53 45 54 58 55 76 56
REMARK SMILES IDX 43 57 44 58 57 60 77 61 46 62 31 63 32 64 40 65 33 66 39 67
REMARK SMILES IDX 34 68 35 69 36 70 37 71 38 72 61 73 62 74 70 75 63 76 69 77
REMARK SMILES IDX 64 78 65 79 66 80 67 81 68 82 47 83 48 84 56 85 49 86 55 87
REMARK SMILES IDX 50 88 51 89 52 90 53 91 54 92
REMARK H PARENT 15 6 8 16 19 29 75 48 45 59
REMARK Flexibility Score: inf
ROOT
ATOM      1  C   UNL A   1      34.240  28.435  25.833  1.00  0.00     0.042 C 
ENDROOT
BRANCH   1   2
ATOM      2  C   UNL A   1      33.555  27.363  25.003  1.00  0.00     0.117 C 
BRANCH   2   3
ATOM      3  N   UNL A   1      32.814  26.419  25.813  1.00  0.00    -0.356 N 
ATOM      4  C   UNL A   1      32.875  25.078  25.940  1.00  0.00     0.224 C 
ATOM      5  O   UNL A   1      32.009  24.587  26.675  1.00  0.00    -0.275 OA
ATOM      6  H   UNL A   1      32.131  26.839  26.383  1.00  0.00     0.163 HD
BRANCH   4   7
ATOM      7  C   UNL A   1      33.859  24.145  25.253  1.00  0.00     0.098 C 
ATOM      8  C   UNL A   1      33.136  23.165  24.257  1.00  0.00     0.099 C 
ATOM      9  C   UNL A   1      33.970  21.859  24.436  1.00  0.00     0.025 C 
ATOM     10  C   UNL A   1      34.807  23.196  26.020  1.00  0.00     0.025 C 
ATOM     11  C   UNL A   1      33.557  21.269  25.763  1.00  0.00    -0.027 C 
ATOM     12  C   UNL A   1      35.354  22.376  24.848  1.00  0.00     0.017 C 
ATOM     13  C   UNL A   1      34.057  22.071  26.712  1.00  0.00    -0.027 C 
BRANCH   8  14
ATOM     14  C   UNL A   1      33.207  23.635  22.819  1.00  0.00     0.228 C 
ATOM     15  N   UNL A   1      32.388  24.571  22.270  1.00  0.00    -0.326 N 
ATOM     16  H   UNL A   1      32.587  24.704  21.315  1.00  0.00     0.169 HD
ATOM     17  O   UNL A   1      34.048  23.148  22.051  1.00  0.00    -0.274 OA
BRANCH  15  18
ATOM     18  C   UNL A   1      31.330  25.403  22.691  1.00  0.00     0.044 A 
ATOM     19  C   UNL A   1      30.365  27.649  22.530  1.00  0.00     0.120 A 
ATOM     20  C   UNL A   1      29.401  27.306  23.471  1.00  0.00     0.046 A 
ATOM     21  C   UNL A   1      31.327  26.705  22.150  1.00  0.00     0.072 A 
ATOM     22  C   UNL A   1      29.373  26.020  23.994  1.00  0.00     0.006 A 
ATOM     23  C   UNL A   1      30.327  25.076  23.598  1.00  0.00     0.026 A 
BRANCH  19  24
ATOM     24  O   UNL A   1      30.323  28.946  22.097  1.00  0.00    -0.497 OA
ATOM     25  C   UNL A   1      29.486  29.812  22.853  1.00  0.00     0.278 C 
ENDBRANCH  19  24
ENDBRANCH  15  18
ENDBRANCH   8  14
ENDBRANCH   4   7
ENDBRANCH   2   3
ENDBRANCH   1   2
BRANCH   1  26
ATOM     26  C   UNL A   1      33.704  28.549  27.251  1.00  0.00     0.118 C 
BRANCH  26  27
ATOM     27  N   UNL A   1      33.702  29.919  27.748  1.00  0.00    -0.352 N 
ATOM     28  C   UNL A   1      34.668  30.648  28.405  1.00  0.00     0.251 C 
ATOM     29  H   UNL A   1      32.863  30.410  27.586  1.00  0.00     0.163 HD
ATOM     30  O   UNL A   1      34.367  31.721  28.915  1.00  0.00    -0.269 OA
BRANCH  28  31
ATOM     31  C   UNL A   1      36.050  30.131  28.526  1.00  0.00     0.039 A 
ATOM     32  C   UNL A   1      36.921  30.245  27.439  1.00  0.00     0.014 A 
ATOM     33  C   UNL A   1      36.493  29.530  29.704  1.00  0.00     0.014 A 
ATOM     34  C   UNL A   1      38.257  29.853  27.576  1.00  0.00     0.010 A 
ATOM     35  C   UNL A   1      37.844  29.257  29.878  1.00  0.00     0.010 A 
ATOM     36  C   UNL A   1      38.744  29.413  28.816  1.00  0.00    -0.014 A 
BRANCH  36  37
ATOM     37  C   UNL A   1      40.185  29.123  29.037  1.00  0.00     0.031 A 
ATOM     38  C   UNL A   1      40.751  27.772  28.678  1.00  0.00     0.074 A 
ATOM     39  C   UNL A   1      40.963  30.042  29.644  1.00  0.00     0.049 A 
ATOM     40  N   UNL A   1      41.953  27.301  28.886  1.00  0.00    -0.248 NA
ATOM     41  C   UNL A   1      39.837  26.814  28.031  1.00  0.00     0.031 C 
ATOM     42  C   UNL A   1      40.523  31.368  30.089  1.00  0.00     0.029 A 
ATOM     43  N   UNL A   1      42.288  30.001  30.002  1.00  0.00    -0.354 N 
ATOM     44  C   UNL A   1      41.933  25.990  28.419  1.00  0.00     0.074 A 
ATOM     45  C   UNL A   1      40.585  25.723  27.970  1.00  0.00     0.031 C 
ATOM     46  C   UNL A   1      41.564  32.022  30.628  1.00  0.00     0.029 A 
ATOM     47  C   UNL A   1      42.732  31.149  30.618  1.00  0.00     0.049 A 
ATOM     48  H   UNL A   1      42.867  29.222  29.834  1.00  0.00     0.167 HD
ATOM     49  C   UNL A   1      42.949  25.098  28.349  1.00  0.00     0.031 A 
ATOM     50  C   UNL A   1      43.939  31.461  31.130  1.00  0.00     0.031 A 
ATOM     51  C   UNL A   1      44.292  25.378  28.782  1.00  0.00     0.049 A 
ATOM     52  C   UNL A   1      45.048  30.449  31.048  1.00  0.00     0.074 A 
ATOM     53  C   UNL A   1      45.408  24.565  28.692  1.00  0.00     0.029 A 
ATOM     54  N   UNL A   1      44.703  26.556  29.384  1.00  0.00    -0.354 N 
ATOM     55  N   UNL A   1      45.026  29.242  30.533  1.00  0.00    -0.248 NA
ATOM     56  C   UNL A   1      46.347  30.843  31.609  1.00  0.00     0.031 C 
ATOM     57  C   UNL A   1      46.480  25.228  29.297  1.00  0.00     0.029 A 
ATOM     58  C   UNL A   1      46.048  26.482  29.701  1.00  0.00     0.049 A 
ATOM     59  H   UNL A   1      44.122  27.332  29.561  1.00  0.00     0.167 HD
ATOM     60  C   UNL A   1      46.314  28.743  30.686  1.00  0.00     0.074 A 
ATOM     61  C   UNL A   1      47.095  29.786  31.319  1.00  0.00     0.031 C 
ATOM     62  C   UNL A   1      46.808  27.529  30.336  1.00  0.00     0.031 A 
BRANCH  49  63
ATOM     63  C   UNL A   1      42.647  23.734  27.785  1.00  0.00    -0.014 A 
ATOM     64  C   UNL A   1      42.784  23.467  26.410  1.00  0.00     0.010 A 
ATOM     65  C   UNL A   1      42.272  22.688  28.648  1.00  0.00     0.010 A 
ATOM     66  C   UNL A   1      42.520  22.192  25.904  1.00  0.00     0.020 A 
ATOM     67  C   UNL A   1      42.037  21.402  28.150  1.00  0.00     0.020 A 
ATOM     68  C   UNL A   1      42.148  21.166  26.779  1.00  0.00     0.054 A 
BRANCH  68  69
ATOM     69  S   UNL A   1      41.849  19.513  26.098  1.00  0.00     0.124 S 
ATOM     70  O   UNL A   1      42.707  19.514  24.916  1.00  0.00    -0.237 OA
ATOM     71  O   UNL A   1      42.277  18.637  27.186  1.00  0.00    -0.237 OA
ATOM     72  O   UNL A   1      40.414  19.504  25.824  1.00  0.00    -0.744 OA
ENDBRANCH  68  69
ENDBRANCH  49  63
BRANCH  50  73
ATOM     73  C   UNL A   1      44.161  32.791  31.762  1.00  0.00    -0.014 A 
ATOM     74  C   UNL A   1      44.594  33.886  30.993  1.00  0.00     0.010 A 
ATOM     75  C   UNL A   1      43.940  32.972  33.140  1.00  0.00     0.010 A 
ATOM     76  C   UNL A   1      44.824  35.129  31.592  1.00  0.00     0.020 A 
ATOM     77  C   UNL A   1      44.137  34.221  33.737  1.00  0.00     0.020 A 
ATOM     78  C   UNL A   1      44.591  35.289  32.961  1.00  0.00     0.054 A 
BRANCH  78  79
ATOM     79  S   UNL A   1      44.857  36.920  33.709  1.00  0.00     0.124 S 
ATOM     80  O   UNL A   1      45.217  36.571  35.080  1.00  0.00    -0.237 OA
ATOM     81  O   UNL A   1      45.936  37.469  32.891  1.00  0.00    -0.237 OA
ATOM     82  O   UNL A   1      43.565  37.584  33.548  1.00  0.00    -0.744 OA
ENDBRANCH  78  79
ENDBRANCH  50  73
BRANCH  62  83
ATOM     83  C   UNL A   1      48.268  27.272  30.602  1.00  0.00    -0.014 A 
ATOM     84  C   UNL A   1      49.252  27.618  29.660  1.00  0.00     0.010 A 
ATOM     85  C   UNL A   1      48.661  26.724  31.836  1.00  0.00     0.010 A 
ATOM     86  C   UNL A   1      50.602  27.389  29.934  1.00  0.00     0.020 A 
ATOM     87  C   UNL A   1      50.012  26.524  32.128  1.00  0.00     0.020 A 
ATOM     88  C   UNL A   1      50.974  26.844  31.168  1.00  0.00     0.054 A 
BRANCH  88  89
ATOM     89  S   UNL A   1      52.737  26.598  31.515  1.00  0.00     0.124 S 
ATOM     90  O   UNL A   1      53.345  26.880  30.217  1.00  0.00    -0.237 OA
ATOM     91  O   UNL A   1      52.998  27.585  32.559  1.00  0.00    -0.237 OA
ATOM     92  O   UNL A   1      52.814  25.205  31.949  1.00  0.00    -0.744 OA
ENDBRANCH  88  89
ENDBRANCH  62  83
ENDBRANCH  36  37
ENDBRANCH  28  31
ENDBRANCH  26  27
ENDBRANCH   1  26
TORSDOF 16
ENDMDL
