MODEL 1
REMARK VINA RESULT:     -11.5      0.000      0.000
REMARK SMILES [NH3+][C@@]1(C(=O)NCCCNC(=O)c2ccc(-c3c4nc(c(-c5ccc(S(=O)(=O)[O-])cc5)c5ccc([nH]5)c(-c5ccc(S(=O)(=O)[O-])cc5)c5nc(c(-c6ccc(S(=O)(=O)[O-])cc6)c6ccc3[nH]6)C=C5)C=C4)cc2)CCC[C@@H]1CCOC1CCCCC1
REMARK SMILES IDX 6 1 5 2 3 3 4 4 2 6 72 7 75 8 73 9 74 10 1 11 76 15 77 16
REMARK SMILES IDX 78 17 79 18 80 19 84 20 81 21 83 22 82 23 7 24 8 25 9 26
REMARK SMILES IDX 10 27 11 29 12 30 13 31 71 32 14 33 70 34 15 35 16 36 17 37
REMARK SMILES IDX 64 38 18 39 69 40 63 41 65 42 19 43 68 44 62 45 61 46 20 48
REMARK SMILES IDX 50 49 31 50 49 51 32 52 35 53 48 54 66 55 33 56 34 57 47 59
REMARK SMILES IDX 67 60 36 61 21 62 22 63 30 64 23 65 29 66 24 67 25 68 26 69
REMARK SMILES IDX 27 70 28 71 51 72 52 73 60 74 53 75 59 76 54 77 55 78 56 79
REMARK SMILES IDX 57 80 58 81 37 82 38 83 46 84 39 85 45 86 40 87 41 88 42 89
REMARK SMILES IDX 43 90 44 91
REMARK H PARENT 5 5 1 12 1 13 1 14 9 28 65 47 35 58
REMARK Flexibility Score: inf
ROOT
ATOM      1  C   UNL A   1      38.131  23.691  26.187  1.00  0.00     0.118 C 
ENDROOT
BRANCH   1   2
ATOM      2  N   UNL A   1      37.367  23.418  24.886  1.00  0.00    -0.351 N 
ATOM      3  C   UNL A   1      36.138  23.186  24.279  1.00  0.00     0.281 C 
ATOM      4  O   UNL A   1      36.239  23.169  23.034  1.00  0.00    -0.268 OA
ATOM      5  H   UNL A   1      38.040  23.399  24.167  1.00  0.00     0.163 HD
BRANCH   3   6
ATOM      6  C   UNL A   1      34.536  22.869  24.926  1.00  0.00     0.176 C 
ATOM      7  C   UNL A   1      34.551  21.027  25.380  1.00  0.00     0.079 C 
ATOM      8  C   UNL A   1      33.037  23.312  23.756  1.00  0.00     0.063 C 
ATOM      9  C   UNL A   1      33.290  20.059  24.156  1.00  0.00     0.008 C 
ATOM     10  C   UNL A   1      32.169  21.643  23.185  1.00  0.00     0.011 C 
BRANCH   6  11
ATOM     11  N   UNL A   1      34.435  23.723  26.131  1.00  0.00    -0.345 N 
ATOM     12  H   UNL A   1      35.173  24.427  26.112  1.00  0.00     0.345 HD
ATOM     13  H   UNL A   1      34.537  23.147  26.966  1.00  0.00     0.345 HD
ATOM     14  H   UNL A   1      33.526  24.185  26.146  1.00  0.00     0.345 HD
ENDBRANCH   6  11
BRANCH   8  15
ATOM     15  C   UNL A   1      33.244  24.115  22.448  1.00  0.00     0.039 C 
BRANCH  15  16
ATOM     16  C   UNL A   1      33.616  25.610  22.587  1.00  0.00     0.161 C 
BRANCH  16  17
ATOM     17  O   UNL A   1      32.670  26.621  22.117  1.00  0.00    -0.378 OA
BRANCH  17  18
ATOM     18  C   UNL A   1      32.030  27.559  23.050  1.00  0.00     0.118 C 
ATOM     19  C   UNL A   1      31.116  26.673  24.155  1.00  0.00     0.032 C 
ATOM     20  C   UNL A   1      33.037  28.754  23.639  1.00  0.00     0.032 C 
ATOM     21  C   UNL A   1      31.729  26.412  26.240  1.00  0.00     0.003 C 
ATOM     22  C   UNL A   1      33.411  28.972  25.300  1.00  0.00     0.003 C 
ATOM     23  C   UNL A   1      33.071  27.802  26.648  1.00  0.00     0.000 C 
ENDBRANCH  17  18
ENDBRANCH  16  17
ENDBRANCH  15  16
ENDBRANCH   8  15
ENDBRANCH   3   6
ENDBRANCH   1   2
BRANCH   1  24
ATOM     24  C   UNL A   1      39.370  22.804  26.493  1.00  0.00     0.042 C 
BRANCH  24  25
ATOM     25  C   UNL A   1      40.671  23.408  26.987  1.00  0.00     0.118 C 
BRANCH  25  26
ATOM     26  N   UNL A   1      41.314  24.284  26.010  1.00  0.00    -0.352 N 
ATOM     27  C   UNL A   1      41.458  25.660  25.998  1.00  0.00     0.251 C 
ATOM     28  H   UNL A   1      41.705  23.820  25.235  1.00  0.00     0.163 HD
ATOM     29  O   UNL A   1      41.805  26.207  24.952  1.00  0.00    -0.269 OA
BRANCH  27  30
ATOM     30  C   UNL A   1      41.207  26.484  27.211  1.00  0.00     0.039 A 
ATOM     31  C   UNL A   1      40.222  26.102  28.131  1.00  0.00     0.014 A 
ATOM     32  C   UNL A   1      41.911  27.665  27.433  1.00  0.00     0.014 A 
ATOM     33  C   UNL A   1      39.982  26.890  29.263  1.00  0.00     0.010 A 
ATOM     34  C   UNL A   1      41.810  28.334  28.642  1.00  0.00     0.010 A 
ATOM     35  C   UNL A   1      40.797  28.002  29.541  1.00  0.00    -0.014 A 
BRANCH  35  36
ATOM     36  C   UNL A   1      40.563  28.869  30.722  1.00  0.00     0.031 A 
ATOM     37  C   UNL A   1      41.423  28.716  31.955  1.00  0.00     0.074 A 
ATOM     38  C   UNL A   1      39.568  29.776  30.685  1.00  0.00     0.049 A 
ATOM     39  N   UNL A   1      41.403  29.411  33.063  1.00  0.00    -0.248 NA
ATOM     40  C   UNL A   1      42.410  27.619  31.969  1.00  0.00     0.031 C 
ATOM     41  C   UNL A   1      38.630  29.956  29.572  1.00  0.00     0.029 A 
ATOM     42  N   UNL A   1      39.192  30.732  31.590  1.00  0.00    -0.354 N 
ATOM     43  C   UNL A   1      42.357  28.830  33.893  1.00  0.00     0.074 A 
ATOM     44  C   UNL A   1      42.874  27.673  33.206  1.00  0.00     0.031 C 
ATOM     45  C   UNL A   1      37.844  31.013  29.826  1.00  0.00     0.029 A 
ATOM     46  C   UNL A   1      38.179  31.545  31.140  1.00  0.00     0.049 A 
ATOM     47  H   UNL A   1      39.607  30.827  32.479  1.00  0.00     0.167 HD
ATOM     48  C   UNL A   1      42.796  29.246  35.104  1.00  0.00     0.031 A 
ATOM     49  C   UNL A   1      37.592  32.607  31.722  1.00  0.00     0.031 A 
ATOM     50  C   UNL A   1      42.275  30.405  35.772  1.00  0.00     0.049 A 
ATOM     51  C   UNL A   1      38.089  33.044  33.072  1.00  0.00     0.074 A 
ATOM     52  C   UNL A   1      42.671  30.954  36.977  1.00  0.00     0.029 A 
ATOM     53  N   UNL A   1      41.238  31.192  35.292  1.00  0.00    -0.354 N 
ATOM     54  N   UNL A   1      39.047  32.528  33.806  1.00  0.00    -0.248 NA
ATOM     55  C   UNL A   1      37.439  34.220  33.660  1.00  0.00     0.031 C 
ATOM     56  C   UNL A   1      41.818  32.024  37.265  1.00  0.00     0.029 A 
ATOM     57  C   UNL A   1      40.956  32.202  36.194  1.00  0.00     0.049 A 
ATOM     58  H   UNL A   1      40.771  31.051  34.436  1.00  0.00     0.167 HD
ATOM     59  C   UNL A   1      39.140  33.339  34.930  1.00  0.00     0.074 A 
ATOM     60  C   UNL A   1      38.157  34.393  34.760  1.00  0.00     0.031 C 
ATOM     61  C   UNL A   1      39.960  33.229  36.006  1.00  0.00     0.031 A 
BRANCH  48  62
ATOM     62  C   UNL A   1      43.878  28.436  35.777  1.00  0.00    -0.014 A 
ATOM     63  C   UNL A   1      45.243  28.689  35.540  1.00  0.00     0.010 A 
ATOM     64  C   UNL A   1      43.524  27.427  36.690  1.00  0.00     0.010 A 
ATOM     65  C   UNL A   1      46.228  27.925  36.172  1.00  0.00     0.020 A 
ATOM     66  C   UNL A   1      44.507  26.686  37.354  1.00  0.00     0.020 A 
ATOM     67  C   UNL A   1      45.853  26.931  37.080  1.00  0.00     0.054 A 
BRANCH  67  68
ATOM     68  S   UNL A   1      47.155  25.989  37.921  1.00  0.00     0.124 S 
ATOM     69  O   UNL A   1      46.878  24.626  37.473  1.00  0.00    -0.237 OA
ATOM     70  O   UNL A   1      48.375  26.589  37.387  1.00  0.00    -0.237 OA
ATOM     71  O   UNL A   1      46.907  26.240  39.338  1.00  0.00    -0.744 OA
ENDBRANCH  67  68
ENDBRANCH  48  62
BRANCH  49  72
ATOM     72  C   UNL A   1      36.493  33.330  31.023  1.00  0.00    -0.014 A 
ATOM     73  C   UNL A   1      36.724  34.007  29.812  1.00  0.00     0.010 A 
ATOM     74  C   UNL A   1      35.195  33.333  31.566  1.00  0.00     0.010 A 
ATOM     75  C   UNL A   1      35.686  34.695  29.174  1.00  0.00     0.020 A 
ATOM     76  C   UNL A   1      34.147  33.984  30.912  1.00  0.00     0.020 A 
ATOM     77  C   UNL A   1      34.403  34.674  29.727  1.00  0.00     0.054 A 
BRANCH  77  78
ATOM     78  S   UNL A   1      33.064  35.540  28.863  1.00  0.00     0.124 S 
ATOM     79  O   UNL A   1      33.798  36.510  28.057  1.00  0.00    -0.237 OA
ATOM     80  O   UNL A   1      32.420  34.458  28.122  1.00  0.00    -0.237 OA
ATOM     81  O   UNL A   1      32.265  36.106  29.948  1.00  0.00    -0.744 OA
ENDBRANCH  77  78
ENDBRANCH  49  72
BRANCH  61  82
ATOM     82  C   UNL A   1      39.860  34.307  37.053  1.00  0.00    -0.014 A 
ATOM     83  C   UNL A   1      40.547  35.526  36.930  1.00  0.00     0.010 A 
ATOM     84  C   UNL A   1      39.049  34.088  38.183  1.00  0.00     0.010 A 
ATOM     85  C   UNL A   1      40.487  36.475  37.952  1.00  0.00     0.020 A 
ATOM     86  C   UNL A   1      38.946  35.054  39.184  1.00  0.00     0.020 A 
ATOM     87  C   UNL A   1      39.689  36.229  39.075  1.00  0.00     0.054 A 
BRANCH  87  88
ATOM     88  S   UNL A   1      39.634  37.474  40.389  1.00  0.00     0.124 S 
ATOM     89  O   UNL A   1      38.815  36.811  41.401  1.00  0.00    -0.237 OA
ATOM     90  O   UNL A   1      41.044  37.640  40.729  1.00  0.00    -0.237 OA
ATOM     91  O   UNL A   1      39.013  38.631  39.745  1.00  0.00    -0.744 OA
ENDBRANCH  87  88
ENDBRANCH  61  82
ENDBRANCH  35  36
ENDBRANCH  27  30
ENDBRANCH  25  26
ENDBRANCH  24  25
ENDBRANCH   1  24
TORSDOF 18
ENDMDL
MODEL 2
REMARK VINA RESULT:     -11.3      4.555     10.358
REMARK SMILES [NH3+][C@@]1(C(=O)NCCCNC(=O)c2ccc(-c3c4nc(c(-c5ccc(S(=O)(=O)[O-])cc5)c5ccc([nH]5)c(-c5ccc(S(=O)(=O)[O-])cc5)c5nc(c(-c6ccc(S(=O)(=O)[O-])cc6)c6ccc3[nH]6)C=C5)C=C4)cc2)CCC[C@@H]1CCOC1CCCCC1
REMARK SMILES IDX 6 1 5 2 3 3 4 4 2 6 72 7 75 8 73 9 74 10 1 11 76 15 77 16
REMARK SMILES IDX 78 17 79 18 80 19 84 20 81 21 83 22 82 23 7 24 8 25 9 26
REMARK SMILES IDX 10 27 11 29 12 30 13 31 71 32 14 33 70 34 15 35 16 36 17 37
REMARK SMILES IDX 64 38 18 39 69 40 63 41 65 42 19 43 68 44 62 45 61 46 20 48
REMARK SMILES IDX 50 49 31 50 49 51 32 52 35 53 48 54 66 55 33 56 34 57 47 59
REMARK SMILES IDX 67 60 36 61 21 62 22 63 30 64 23 65 29 66 24 67 25 68 26 69
REMARK SMILES IDX 27 70 28 71 51 72 52 73 60 74 53 75 59 76 54 77 55 78 56 79
REMARK SMILES IDX 57 80 58 81 37 82 38 83 46 84 39 85 45 86 40 87 41 88 42 89
REMARK SMILES IDX 43 90 44 91
REMARK H PARENT 5 5 1 12 1 13 1 14 9 28 65 47 35 58
REMARK Flexibility Score: inf
ROOT
ATOM      1  C   UNL A   1      33.515  29.001  24.899  1.00  0.00     0.118 C 
ENDROOT
BRANCH   1   2
ATOM      2  N   UNL A   1      33.728  28.445  23.485  1.00  0.00    -0.351 N 
ATOM      3  C   UNL A   1      33.201  27.719  22.423  1.00  0.00     0.281 C 
ATOM      4  O   UNL A   1      33.950  27.762  21.425  1.00  0.00    -0.268 OA
ATOM      5  H   UNL A   1      34.632  28.722  23.211  1.00  0.00     0.163 HD
BRANCH   3   6
ATOM      6  C   UNL A   1      31.751  26.743  22.256  1.00  0.00     0.176 C 
ATOM      7  C   UNL A   1      30.336  27.998  22.105  1.00  0.00     0.079 C 
ATOM      8  C   UNL A   1      31.420  25.450  23.680  1.00  0.00     0.063 C 
ATOM      9  C   UNL A   1      29.183  27.857  23.741  1.00  0.00     0.008 C 
ATOM     10  C   UNL A   1      29.844  26.028  24.704  1.00  0.00     0.011 C 
BRANCH   6  11
ATOM     11  N   UNL A   1      31.942  25.988  20.996  1.00  0.00    -0.345 N 
ATOM     12  H   UNL A   1      31.427  25.109  21.047  1.00  0.00     0.345 HD
ATOM     13  H   UNL A   1      32.933  25.795  20.863  1.00  0.00     0.345 HD
ATOM     14  H   UNL A   1      31.594  26.540  20.213  1.00  0.00     0.345 HD
ENDBRANCH   6  11
BRANCH   8  15
ATOM     15  C   UNL A   1      32.492  25.138  24.753  1.00  0.00     0.039 C 
BRANCH  15  16
ATOM     16  C   UNL A   1      33.951  24.968  24.266  1.00  0.00     0.161 C 
BRANCH  16  17
ATOM     17  O   UNL A   1      34.195  24.360  22.960  1.00  0.00    -0.378 OA
BRANCH  17  18
ATOM     18  C   UNL A   1      34.297  22.902  22.804  1.00  0.00     0.118 C 
ATOM     19  C   UNL A   1      35.555  22.348  23.781  1.00  0.00     0.032 C 
ATOM     20  C   UNL A   1      32.840  22.090  22.861  1.00  0.00     0.032 C 
ATOM     21  C   UNL A   1      35.199  21.229  25.627  1.00  0.00     0.003 C 
ATOM     22  C   UNL A   1      32.441  20.898  24.030  1.00  0.00     0.003 C 
ATOM     23  C   UNL A   1      33.350  20.540  25.562  1.00  0.00     0.000 C 
ENDBRANCH  17  18
ENDBRANCH  16  17
ENDBRANCH  15  16
ENDBRANCH   8  15
ENDBRANCH   3   6
ENDBRANCH   1   2
BRANCH   1  24
ATOM     24  C   UNL A   1      34.053  28.162  26.090  1.00  0.00     0.042 C 
BRANCH  24  25
ATOM     25  C   UNL A   1      33.693  28.504  27.524  1.00  0.00     0.118 C 
BRANCH  25  26
ATOM     26  N   UNL A   1      33.619  29.941  27.777  1.00  0.00    -0.352 N 
ATOM     27  C   UNL A   1      34.530  30.796  28.370  1.00  0.00     0.251 C 
ATOM     28  H   UNL A   1      32.784  30.370  27.477  1.00  0.00     0.163 HD
ATOM     29  O   UNL A   1      34.152  31.916  28.712  1.00  0.00    -0.269 OA
BRANCH  27  30
ATOM     30  C   UNL A   1      35.944  30.394  28.601  1.00  0.00     0.039 A 
ATOM     31  C   UNL A   1      36.334  29.870  29.840  1.00  0.00     0.014 A 
ATOM     32  C   UNL A   1      36.909  30.569  27.611  1.00  0.00     0.014 A 
ATOM     33  C   UNL A   1      37.669  29.508  30.054  1.00  0.00     0.010 A 
ATOM     34  C   UNL A   1      38.177  30.031  27.757  1.00  0.00     0.010 A 
ATOM     35  C   UNL A   1      38.598  29.560  29.000  1.00  0.00    -0.014 A 
BRANCH  35  36
ATOM     36  C   UNL A   1      40.024  29.199  29.193  1.00  0.00     0.031 A 
ATOM     37  C   UNL A   1      40.977  30.190  29.821  1.00  0.00     0.074 A 
ATOM     38  C   UNL A   1      40.457  27.990  28.786  1.00  0.00     0.049 A 
ATOM     39  N   UNL A   1      42.243  30.039  30.116  1.00  0.00    -0.248 NA
ATOM     40  C   UNL A   1      40.459  31.537  30.127  1.00  0.00     0.031 C 
ATOM     41  C   UNL A   1      39.638  26.986  28.101  1.00  0.00     0.029 A 
ATOM     42  N   UNL A   1      41.681  27.388  28.910  1.00  0.00    -0.354 N 
ATOM     43  C   UNL A   1      42.662  31.265  30.625  1.00  0.00     0.074 A 
ATOM     44  C   UNL A   1      41.550  32.176  30.515  1.00  0.00     0.031 C 
ATOM     45  C   UNL A   1      40.357  25.865  27.941  1.00  0.00     0.029 A 
ATOM     46  C   UNL A   1      41.702  26.091  28.454  1.00  0.00     0.049 A 
ATOM     47  H   UNL A   1      42.469  27.841  29.288  1.00  0.00     0.167 HD
ATOM     48  C   UNL A   1      43.854  31.594  31.173  1.00  0.00     0.031 A 
ATOM     49  C   UNL A   1      42.695  25.183  28.458  1.00  0.00     0.031 A 
ATOM     50  C   UNL A   1      44.951  30.673  31.280  1.00  0.00     0.049 A 
ATOM     51  C   UNL A   1      44.015  25.575  29.063  1.00  0.00     0.074 A 
ATOM     52  C   UNL A   1      46.190  30.873  31.858  1.00  0.00     0.029 A 
ATOM     53  N   UNL A   1      44.939  29.375  30.791  1.00  0.00    -0.354 N 
ATOM     54  N   UNL A   1      44.366  26.715  29.611  1.00  0.00    -0.248 NA
ATOM     55  C   UNL A   1      45.063  24.549  29.070  1.00  0.00     0.031 C 
ATOM     56  C   UNL A   1      46.957  29.723  31.645  1.00  0.00     0.029 A 
ATOM     57  C   UNL A   1      46.162  28.772  31.023  1.00  0.00     0.049 A 
ATOM     58  H   UNL A   1      44.173  28.946  30.344  1.00  0.00     0.167 HD
ATOM     59  C   UNL A   1      45.668  26.532  30.060  1.00  0.00     0.074 A 
ATOM     60  C   UNL A   1      46.026  25.163  29.742  1.00  0.00     0.031 C 
ATOM     61  C   UNL A   1      46.496  27.411  30.680  1.00  0.00     0.031 A 
BRANCH  48  62
ATOM     62  C   UNL A   1      44.030  33.005  31.682  1.00  0.00    -0.014 A 
ATOM     63  C   UNL A   1      44.540  34.027  30.859  1.00  0.00     0.010 A 
ATOM     64  C   UNL A   1      43.647  33.321  32.998  1.00  0.00     0.010 A 
ATOM     65  C   UNL A   1      44.698  35.326  31.353  1.00  0.00     0.020 A 
ATOM     66  C   UNL A   1      43.767  34.627  33.483  1.00  0.00     0.020 A 
ATOM     67  C   UNL A   1      44.304  35.618  32.661  1.00  0.00     0.054 A 
BRANCH  67  68
ATOM     68  S   UNL A   1      44.476  37.323  33.258  1.00  0.00     0.124 S 
ATOM     69  O   UNL A   1      45.923  37.516  33.206  1.00  0.00    -0.237 OA
ATOM     70  O   UNL A   1      43.706  38.081  32.276  1.00  0.00    -0.237 OA
ATOM     71  O   UNL A   1      43.902  37.281  34.600  1.00  0.00    -0.744 OA
ENDBRANCH  67  68
ENDBRANCH  48  62
BRANCH  49  72
ATOM     72  C   UNL A   1      42.469  23.825  27.891  1.00  0.00    -0.014 A 
ATOM     73  C   UNL A   1      42.114  22.742  28.717  1.00  0.00     0.010 A 
ATOM     74  C   UNL A   1      42.597  23.610  26.507  1.00  0.00     0.010 A 
ATOM     75  C   UNL A   1      41.920  21.469  28.173  1.00  0.00     0.020 A 
ATOM     76  C   UNL A   1      42.364  22.348  25.953  1.00  0.00     0.020 A 
ATOM     77  C   UNL A   1      42.041  21.282  26.793  1.00  0.00     0.054 A 
BRANCH  77  78
ATOM     78  S   UNL A   1      41.746  19.631  26.104  1.00  0.00     0.124 S 
ATOM     79  O   UNL A   1      40.322  19.680  25.792  1.00  0.00    -0.237 OA
ATOM     80  O   UNL A   1      42.648  19.607  24.954  1.00  0.00    -0.237 OA
ATOM     81  O   UNL A   1      42.116  18.732  27.196  1.00  0.00    -0.744 OA
ENDBRANCH  77  78
ENDBRANCH  49  72
BRANCH  61  82
ATOM     82  C   UNL A   1      47.848  26.895  31.098  1.00  0.00    -0.014 A 
ATOM     83  C   UNL A   1      49.000  27.129  30.328  1.00  0.00     0.010 A 
ATOM     84  C   UNL A   1      47.960  26.165  32.296  1.00  0.00     0.010 A 
ATOM     85  C   UNL A   1      50.226  26.578  30.709  1.00  0.00     0.020 A 
ATOM     86  C   UNL A   1      49.192  25.654  32.706  1.00  0.00     0.020 A 
ATOM     87  C   UNL A   1      50.311  25.840  31.894  1.00  0.00     0.054 A 
BRANCH  87  88
ATOM     88  S   UNL A   1      51.911  25.131  32.361  1.00  0.00     0.124 S 
ATOM     89  O   UNL A   1      52.184  25.807  33.627  1.00  0.00    -0.237 OA
ATOM     90  O   UNL A   1      51.610  23.705  32.460  1.00  0.00    -0.237 OA
ATOM     91  O   UNL A   1      52.791  25.502  31.254  1.00  0.00    -0.744 OA
ENDBRANCH  87  88
ENDBRANCH  61  82
ENDBRANCH  35  36
ENDBRANCH  27  30
ENDBRANCH  25  26
ENDBRANCH  24  25
ENDBRANCH   1  24
TORSDOF 18
ENDMDL
MODEL 3
REMARK VINA RESULT:     -11.2      2.942      9.389
REMARK SMILES [NH3+][C@@]1(C(=O)NCCCNC(=O)c2ccc(-c3c4nc(c(-c5ccc(S(=O)(=O)[O-])cc5)c5ccc([nH]5)c(-c5ccc(S(=O)(=O)[O-])cc5)c5nc(c(-c6ccc(S(=O)(=O)[O-])cc6)c6ccc3[nH]6)C=C5)C=C4)cc2)CCC[C@@H]1CCOC1CCCCC1
REMARK SMILES IDX 6 1 5 2 3 3 4 4 2 6 72 7 75 8 73 9 74 10 1 11 76 15 77 16
REMARK SMILES IDX 78 17 79 18 80 19 84 20 81 21 83 22 82 23 7 24 8 25 9 26
REMARK SMILES IDX 10 27 11 29 12 30 13 31 71 32 14 33 70 34 15 35 16 36 17 37
REMARK SMILES IDX 64 38 18 39 69 40 63 41 65 42 19 43 68 44 62 45 61 46 20 48
REMARK SMILES IDX 50 49 31 50 49 51 32 52 35 53 48 54 66 55 33 56 34 57 47 59
REMARK SMILES IDX 67 60 36 61 21 62 22 63 30 64 23 65 29 66 24 67 25 68 26 69
REMARK SMILES IDX 27 70 28 71 51 72 52 73 60 74 53 75 59 76 54 77 55 78 56 79
REMARK SMILES IDX 57 80 58 81 37 82 38 83 46 84 39 85 45 86 40 87 41 88 42 89
REMARK SMILES IDX 43 90 44 91
REMARK H PARENT 5 5 1 12 1 13 1 14 9 28 65 47 35 58
REMARK Flexibility Score: inf
ROOT
ATOM      1  C   UNL A   1      33.498  26.678  25.380  1.00  0.00     0.118 C 
ENDROOT
BRANCH   1   2
ATOM      2  N   UNL A   1      33.724  26.746  23.865  1.00  0.00    -0.351 N 
ATOM      3  C   UNL A   1      33.152  26.770  22.598  1.00  0.00     0.281 C 
ATOM      4  O   UNL A   1      34.008  26.984  21.714  1.00  0.00    -0.268 OA
ATOM      5  H   UNL A   1      34.698  26.794  23.731  1.00  0.00     0.163 HD
BRANCH   3   6
ATOM      6  C   UNL A   1      31.510  26.510  22.032  1.00  0.00     0.176 C 
ATOM      7  C   UNL A   1      30.726  28.237  22.004  1.00  0.00     0.079 C 
ATOM      8  C   UNL A   1      30.438  25.247  23.066  1.00  0.00     0.063 C 
ATOM      9  C   UNL A   1      29.295  28.310  23.408  1.00  0.00     0.008 C 
ATOM     10  C   UNL A   1      29.016  26.238  23.994  1.00  0.00     0.011 C 
BRANCH   6  11
ATOM     11  N   UNL A   1      31.660  25.961  20.665  1.00  0.00    -0.345 N 
ATOM     12  H   UNL A   1      31.872  24.964  20.721  1.00  0.00     0.345 HD
ATOM     13  H   UNL A   1      32.419  26.443  20.187  1.00  0.00     0.345 HD
ATOM     14  H   UNL A   1      30.792  26.095  20.148  1.00  0.00     0.345 HD
ENDBRANCH   6  11
BRANCH   8  15
ATOM     15  C   UNL A   1      31.073  24.355  24.161  1.00  0.00     0.039 C 
BRANCH  15  16
ATOM     16  C   UNL A   1      31.314  22.867  23.809  1.00  0.00     0.161 C 
BRANCH  16  17
ATOM     17  O   UNL A   1      32.625  22.280  24.078  1.00  0.00    -0.378 OA
BRANCH  17  18
ATOM     18  C   UNL A   1      33.783  23.121  24.409  1.00  0.00     0.118 C 
ATOM     19  C   UNL A   1      34.445  22.571  25.860  1.00  0.00     0.032 C 
ATOM     20  C   UNL A   1      34.819  23.416  23.134  1.00  0.00     0.032 C 
ATOM     21  C   UNL A   1      36.340  21.480  25.944  1.00  0.00     0.003 C 
ATOM     22  C   UNL A   1      36.472  22.953  23.102  1.00  0.00     0.003 C 
ATOM     23  C   UNL A   1      37.297  21.811  24.249  1.00  0.00     0.000 C 
ENDBRANCH  17  18
ENDBRANCH  16  17
ENDBRANCH  15  16
ENDBRANCH   8  15
ENDBRANCH   3   6
ENDBRANCH   1   2
BRANCH   1  24
ATOM     24  C   UNL A   1      34.126  27.801  26.252  1.00  0.00     0.042 C 
BRANCH  24  25
ATOM     25  C   UNL A   1      33.293  28.591  27.243  1.00  0.00     0.118 C 
BRANCH  25  26
ATOM     26  N   UNL A   1      33.363  30.036  27.040  1.00  0.00    -0.352 N 
ATOM     27  C   UNL A   1      34.232  30.974  27.566  1.00  0.00     0.251 C 
ATOM     28  H   UNL A   1      32.680  30.400  26.431  1.00  0.00     0.163 HD
ATOM     29  O   UNL A   1      33.946  32.167  27.463  1.00  0.00    -0.269 OA
BRANCH  27  30
ATOM     30  C   UNL A   1      35.494  30.577  28.248  1.00  0.00     0.039 A 
ATOM     31  C   UNL A   1      35.456  29.718  29.355  1.00  0.00     0.014 A 
ATOM     32  C   UNL A   1      36.723  31.080  27.829  1.00  0.00     0.014 A 
ATOM     33  C   UNL A   1      36.646  29.361  29.999  1.00  0.00     0.010 A 
ATOM     34  C   UNL A   1      37.907  30.573  28.341  1.00  0.00     0.010 A 
ATOM     35  C   UNL A   1      37.887  29.765  29.478  1.00  0.00    -0.014 A 
BRANCH  35  36
ATOM     36  C   UNL A   1      39.167  29.418  30.142  1.00  0.00     0.031 A 
ATOM     37  C   UNL A   1      39.578  30.128  31.412  1.00  0.00     0.074 A 
ATOM     38  C   UNL A   1      39.962  28.480  29.590  1.00  0.00     0.049 A 
ATOM     39  N   UNL A   1      40.631  29.929  32.161  1.00  0.00    -0.248 NA
ATOM     40  C   UNL A   1      38.718  31.229  31.888  1.00  0.00     0.031 C 
ATOM     41  C   UNL A   1      39.697  27.786  28.326  1.00  0.00     0.029 A 
ATOM     42  N   UNL A   1      41.137  27.930  30.028  1.00  0.00    -0.354 N 
ATOM     43  C   UNL A   1      40.560  30.879  33.176  1.00  0.00     0.074 A 
ATOM     44  C   UNL A   1      39.417  31.713  32.901  1.00  0.00     0.031 C 
ATOM     45  C   UNL A   1      40.634  26.847  28.135  1.00  0.00     0.029 A 
ATOM     46  C   UNL A   1      41.598  26.913  29.226  1.00  0.00     0.049 A 
ATOM     47  H   UNL A   1      41.606  28.234  30.839  1.00  0.00     0.167 HD
ATOM     48  C   UNL A   1      41.352  31.021  34.264  1.00  0.00     0.031 A 
ATOM     49  C   UNL A   1      42.675  26.117  29.362  1.00  0.00     0.031 A 
ATOM     50  C   UNL A   1      42.484  30.177  34.527  1.00  0.00     0.049 A 
ATOM     51  C   UNL A   1      43.545  26.300  30.575  1.00  0.00     0.074 A 
ATOM     52  C   UNL A   1      43.332  30.190  35.618  1.00  0.00     0.029 A 
ATOM     53  N   UNL A   1      42.929  29.170  33.683  1.00  0.00    -0.354 N 
ATOM     54  N   UNL A   1      43.415  27.152  31.564  1.00  0.00    -0.248 NA
ATOM     55  C   UNL A   1      44.695  25.397  30.697  1.00  0.00     0.031 C 
ATOM     56  C   UNL A   1      44.339  29.246  35.393  1.00  0.00     0.029 A 
ATOM     57  C   UNL A   1      44.061  28.577  34.211  1.00  0.00     0.049 A 
ATOM     58  H   UNL A   1      42.501  28.915  32.832  1.00  0.00     0.167 HD
ATOM     59  C   UNL A   1      44.449  26.866  32.447  1.00  0.00     0.074 A 
ATOM     60  C   UNL A   1      45.173  25.743  31.883  1.00  0.00     0.031 C 
ATOM     61  C   UNL A   1      44.772  27.470  33.619  1.00  0.00     0.031 A 
BRANCH  48  62
ATOM     62  C   UNL A   1      41.024  32.130  35.234  1.00  0.00    -0.014 A 
ATOM     63  C   UNL A   1      40.124  31.934  36.300  1.00  0.00     0.010 A 
ATOM     64  C   UNL A   1      41.652  33.380  35.099  1.00  0.00     0.010 A 
ATOM     65  C   UNL A   1      39.832  32.976  37.185  1.00  0.00     0.020 A 
ATOM     66  C   UNL A   1      41.393  34.413  36.005  1.00  0.00     0.020 A 
ATOM     67  C   UNL A   1      40.474  34.208  37.035  1.00  0.00     0.054 A 
BRANCH  67  68
ATOM     68  S   UNL A   1      40.111  35.526  38.228  1.00  0.00     0.124 S 
ATOM     69  O   UNL A   1      41.320  35.532  39.048  1.00  0.00    -0.237 OA
ATOM     70  O   UNL A   1      39.930  36.691  37.367  1.00  0.00    -0.237 OA
ATOM     71  O   UNL A   1      38.904  35.059  38.905  1.00  0.00    -0.744 OA
ENDBRANCH  67  68
ENDBRANCH  48  62
BRANCH  49  72
ATOM     72  C   UNL A   1      42.969  25.076  28.339  1.00  0.00    -0.014 A 
ATOM     73  C   UNL A   1      42.286  23.846  28.337  1.00  0.00     0.010 A 
ATOM     74  C   UNL A   1      43.935  25.319  27.346  1.00  0.00     0.010 A 
ATOM     75  C   UNL A   1      42.583  22.871  27.379  1.00  0.00     0.020 A 
ATOM     76  C   UNL A   1      44.206  24.364  26.363  1.00  0.00     0.020 A 
ATOM     77  C   UNL A   1      43.539  23.140  26.395  1.00  0.00     0.054 A 
BRANCH  77  78
ATOM     78  S   UNL A   1      43.881  21.876  25.140  1.00  0.00     0.124 S 
ATOM     79  O   UNL A   1      45.272  21.535  25.422  1.00  0.00    -0.237 OA
ATOM     80  O   UNL A   1      42.897  20.844  25.459  1.00  0.00    -0.237 OA
ATOM     81  O   UNL A   1      43.653  22.576  23.877  1.00  0.00    -0.744 OA
ENDBRANCH  77  78
ENDBRANCH  49  72
BRANCH  61  82
ATOM     82  C   UNL A   1      45.931  26.891  34.388  1.00  0.00    -0.014 A 
ATOM     83  C   UNL A   1      47.246  27.348  34.201  1.00  0.00     0.010 A 
ATOM     84  C   UNL A   1      45.686  25.868  35.323  1.00  0.00     0.010 A 
ATOM     85  C   UNL A   1      48.305  26.742  34.880  1.00  0.00     0.020 A 
ATOM     86  C   UNL A   1      46.736  25.293  36.040  1.00  0.00     0.020 A 
ATOM     87  C   UNL A   1      48.042  25.715  35.792  1.00  0.00     0.054 A 
BRANCH  87  88
ATOM     88  S   UNL A   1      49.435  24.941  36.653  1.00  0.00     0.124 S 
ATOM     89  O   UNL A   1      50.571  25.696  36.132  1.00  0.00    -0.237 OA
ATOM     90  O   UNL A   1      49.111  25.178  38.058  1.00  0.00    -0.237 OA
ATOM     91  O   UNL A   1      49.370  23.543  36.231  1.00  0.00    -0.744 OA
ENDBRANCH  87  88
ENDBRANCH  61  82
ENDBRANCH  35  36
ENDBRANCH  27  30
ENDBRANCH  25  26
ENDBRANCH  24  25
ENDBRANCH   1  24
TORSDOF 18
ENDMDL
