MODEL 1
REMARK VINA RESULT:     -11.9      0.000      0.000
REMARK SMILES C[C@@H]1CCN(c2cncc(C(=O)NCCCNC(=O)c3ccc(-c4c5nc(c(-c6ccc(S(=O)(=O)[O-])cc6)c6ccc([nH]6)c(-c6ccc(S(=O)(=O)[O-])cc6)c6nc(c(-c7ccc(S(=O)(=O)[O-])cc7)c7ccc4[nH]7)C=C6)C=C5)cc3)n2)[C@H](C)C1
REMARK SMILES IDX 16 1 15 2 14 3 13 4 11 5 12 6 10 8 6 9 7 10 80 11 8 12 9 13
REMARK SMILES IDX 5 14 1 15 2 16 3 17 83 18 4 19 81 20 82 21 17 22 18 23 19 25
REMARK SMILES IDX 20 26 21 27 79 28 22 29 78 30 23 31 24 32 25 33 72 34 26 35
REMARK SMILES IDX 77 36 71 37 73 38 27 39 76 40 70 41 69 42 28 44 58 45 39 46
REMARK SMILES IDX 57 47 40 48 43 49 56 50 74 51 41 52 42 53 55 55 75 56 44 57
REMARK SMILES IDX 29 58 30 59 38 60 31 61 37 62 32 63 33 64 34 65 35 66 36 67
REMARK SMILES IDX 59 68 60 69 68 70 61 71 67 72 62 73 63 74 64 75 65 76 66 77
REMARK SMILES IDX 45 78 46 79 54 80 47 81 53 82 48 83 49 84 50 85 51 86 52 87
REMARK H PARENT 13 7 17 24 73 43 43 54
REMARK Flexibility Score: inf
ROOT
ATOM      1  C   UNL A   1      40.423  23.318  27.106  1.00  0.00     0.118 C 
ENDROOT
BRANCH   1   2
ATOM      2  C   UNL A   1      39.245  22.529  26.537  1.00  0.00     0.042 C 
BRANCH   2   3
ATOM      3  C   UNL A   1      38.023  23.384  26.213  1.00  0.00     0.118 C 
BRANCH   3   4
ATOM      4  N   UNL A   1      37.623  23.270  24.822  1.00  0.00    -0.351 N 
ATOM      5  C   UNL A   1      36.397  23.439  24.221  1.00  0.00     0.271 C 
ATOM      6  O   UNL A   1      36.351  23.314  22.993  1.00  0.00    -0.267 OA
ATOM      7  H   UNL A   1      38.352  23.031  24.206  1.00  0.00     0.163 HD
BRANCH   5   8
ATOM      8  C   UNL A   1      35.145  23.763  24.966  1.00  0.00     0.148 A 
ATOM      9  C   UNL A   1      33.601  25.273  25.803  1.00  0.00     0.148 A 
ATOM     10  C   UNL A   1      32.932  24.187  26.384  1.00  0.00     0.157 A 
ATOM     11  N   UNL A   1      34.716  25.049  25.070  1.00  0.00    -0.222 NA
ATOM     12  N   UNL A   1      33.324  22.893  26.277  1.00  0.00    -0.258 NA
ATOM     13  C   UNL A   1      34.454  22.711  25.556  1.00  0.00     0.145 A 
BRANCH   9  14
ATOM     14  N   UNL A   1      33.123  26.561  25.927  1.00  0.00    -0.353 N 
ATOM     15  C   UNL A   1      31.889  30.106  26.306  1.00  0.00     0.008 C 
ATOM     16  C   UNL A   1      32.208  28.952  27.259  1.00  0.00    -0.011 C 
ATOM     17  C   UNL A   1      33.692  28.555  27.206  1.00  0.00     0.025 C 
ATOM     18  C   UNL A   1      31.302  27.723  27.050  1.00  0.00     0.028 C 
ATOM     19  C   UNL A   1      34.031  27.698  25.987  1.00  0.00     0.118 C 
ATOM     20  C   UNL A   1      31.683  26.813  25.867  1.00  0.00     0.081 C 
ATOM     21  C   UNL A   1      31.254  27.376  24.518  1.00  0.00     0.031 C 
ENDBRANCH   9  14
ENDBRANCH   5   8
ENDBRANCH   3   4
ENDBRANCH   2   3
ENDBRANCH   1   2
BRANCH   1  22
ATOM     22  N   UNL A   1      41.048  24.167  26.099  1.00  0.00    -0.352 N 
ATOM     23  C   UNL A   1      41.279  25.513  26.075  1.00  0.00     0.251 C 
ATOM     24  H   UNL A   1      41.357  23.687  25.297  1.00  0.00     0.163 HD
ATOM     25  O   UNL A   1      41.596  26.036  24.999  1.00  0.00    -0.269 OA
BRANCH  23  26
ATOM     26  C   UNL A   1      41.176  26.352  27.289  1.00  0.00     0.039 A 
ATOM     27  C   UNL A   1      40.078  26.167  28.137  1.00  0.00     0.014 A 
ATOM     28  C   UNL A   1      42.083  27.383  27.550  1.00  0.00     0.014 A 
ATOM     29  C   UNL A   1      39.898  26.999  29.245  1.00  0.00     0.010 A 
ATOM     30  C   UNL A   1      41.942  28.166  28.696  1.00  0.00     0.010 A 
ATOM     31  C   UNL A   1      40.834  28.002  29.538  1.00  0.00    -0.014 A 
BRANCH  31  32
ATOM     32  C   UNL A   1      40.633  28.920  30.689  1.00  0.00     0.031 A 
ATOM     33  C   UNL A   1      41.503  28.796  31.913  1.00  0.00     0.074 A 
ATOM     34  C   UNL A   1      39.655  29.845  30.646  1.00  0.00     0.049 A 
ATOM     35  N   UNL A   1      41.471  29.491  33.022  1.00  0.00    -0.248 NA
ATOM     36  C   UNL A   1      42.529  27.741  31.897  1.00  0.00     0.031 C 
ATOM     37  C   UNL A   1      38.725  30.044  29.531  1.00  0.00     0.029 A 
ATOM     38  N   UNL A   1      39.283  30.794  31.563  1.00  0.00    -0.354 N 
ATOM     39  C   UNL A   1      42.455  28.944  33.840  1.00  0.00     0.074 A 
ATOM     40  C   UNL A   1      43.031  27.831  33.119  1.00  0.00     0.031 C 
ATOM     41  C   UNL A   1      37.913  31.075  29.817  1.00  0.00     0.029 A 
ATOM     42  C   UNL A   1      38.243  31.589  31.143  1.00  0.00     0.049 A 
ATOM     43  H   UNL A   1      39.720  30.898  32.439  1.00  0.00     0.167 HD
ATOM     44  C   UNL A   1      42.859  29.345  35.071  1.00  0.00     0.031 A 
ATOM     45  C   UNL A   1      37.630  32.622  31.752  1.00  0.00     0.031 A 
ATOM     46  C   UNL A   1      42.297  30.463  35.779  1.00  0.00     0.049 A 
ATOM     47  C   UNL A   1      38.107  33.061  33.109  1.00  0.00     0.074 A 
ATOM     48  C   UNL A   1      42.657  30.974  37.014  1.00  0.00     0.029 A 
ATOM     49  N   UNL A   1      41.258  31.253  35.308  1.00  0.00    -0.354 N 
ATOM     50  N   UNL A   1      39.066  32.556  33.850  1.00  0.00    -0.248 NA
ATOM     51  C   UNL A   1      37.433  34.223  33.702  1.00  0.00     0.031 C 
ATOM     52  C   UNL A   1      41.815  32.053  37.304  1.00  0.00     0.029 A 
ATOM     53  C   UNL A   1      40.962  32.244  36.229  1.00  0.00     0.049 A 
ATOM     54  H   UNL A   1      40.799  31.127  34.447  1.00  0.00     0.167 HD
ATOM     55  C   UNL A   1      39.132  33.361  34.981  1.00  0.00     0.074 A 
ATOM     56  C   UNL A   1      38.123  34.389  34.823  1.00  0.00     0.031 C 
ATOM     57  C   UNL A   1      39.958  33.262  36.053  1.00  0.00     0.031 A 
BRANCH  44  58
ATOM     58  C   UNL A   1      43.965  28.557  35.723  1.00  0.00    -0.014 A 
ATOM     59  C   UNL A   1      45.315  28.898  35.521  1.00  0.00     0.010 A 
ATOM     60  C   UNL A   1      43.653  27.467  36.557  1.00  0.00     0.010 A 
ATOM     61  C   UNL A   1      46.333  28.133  36.095  1.00  0.00     0.020 A 
ATOM     62  C   UNL A   1      44.669  26.717  37.156  1.00  0.00     0.020 A 
ATOM     63  C   UNL A   1      46.004  27.041  36.903  1.00  0.00     0.054 A 
BRANCH  63  64
ATOM     64  S   UNL A   1      47.343  26.063  37.637  1.00  0.00     0.124 S 
ATOM     65  O   UNL A   1      47.742  26.900  38.767  1.00  0.00    -0.237 OA
ATOM     66  O   UNL A   1      46.677  24.812  37.988  1.00  0.00    -0.237 OA
ATOM     67  O   UNL A   1      48.326  25.961  36.561  1.00  0.00    -0.744 OA
ENDBRANCH  63  64
ENDBRANCH  44  58
BRANCH  45  68
ATOM     68  C   UNL A   1      36.527  33.342  31.060  1.00  0.00    -0.014 A 
ATOM     69  C   UNL A   1      36.729  33.883  29.778  1.00  0.00     0.010 A 
ATOM     70  C   UNL A   1      35.267  33.474  31.669  1.00  0.00     0.010 A 
ATOM     71  C   UNL A   1      35.696  34.559  29.124  1.00  0.00     0.020 A 
ATOM     72  C   UNL A   1      34.223  34.128  31.007  1.00  0.00     0.020 A 
ATOM     73  C   UNL A   1      34.448  34.676  29.743  1.00  0.00     0.054 A 
BRANCH  73  74
ATOM     74  S   UNL A   1      33.104  35.510  28.854  1.00  0.00     0.124 S 
ATOM     75  O   UNL A   1      33.830  36.498  28.062  1.00  0.00    -0.237 OA
ATOM     76  O   UNL A   1      32.497  34.416  28.100  1.00  0.00    -0.237 OA
ATOM     77  O   UNL A   1      32.273  36.053  29.926  1.00  0.00    -0.744 OA
ENDBRANCH  73  74
ENDBRANCH  45  68
BRANCH  57  78
ATOM     78  C   UNL A   1      39.836  34.321  37.113  1.00  0.00    -0.014 A 
ATOM     79  C   UNL A   1      39.060  34.117  38.266  1.00  0.00     0.010 A 
ATOM     80  C   UNL A   1      40.538  35.531  36.962  1.00  0.00     0.010 A 
ATOM     81  C   UNL A   1      38.953  35.123  39.232  1.00  0.00     0.020 A 
ATOM     82  C   UNL A   1      40.454  36.529  37.936  1.00  0.00     0.020 A 
ATOM     83  C   UNL A   1      39.646  36.325  39.057  1.00  0.00     0.054 A 
BRANCH  83  84
ATOM     84  S   UNL A   1      39.512  37.608  40.331  1.00  0.00     0.124 S 
ATOM     85  O   UNL A   1      38.623  38.576  39.694  1.00  0.00    -0.237 OA
ATOM     86  O   UNL A   1      38.942  36.882  41.463  1.00  0.00    -0.237 OA
ATOM     87  O   UNL A   1      40.890  38.055  40.516  1.00  0.00    -0.744 OA
ENDBRANCH  83  84
ENDBRANCH  57  78
ENDBRANCH  31  32
ENDBRANCH  23  26
ENDBRANCH   1  22
TORSDOF 14
ENDMDL
MODEL 2
REMARK VINA RESULT:     -11.9      3.117      5.436
REMARK SMILES C[C@@H]1CCN(c2cncc(C(=O)NCCCNC(=O)c3ccc(-c4c5nc(c(-c6ccc(S(=O)(=O)[O-])cc6)c6ccc([nH]6)c(-c6ccc(S(=O)(=O)[O-])cc6)c6nc(c(-c7ccc(S(=O)(=O)[O-])cc7)c7ccc4[nH]7)C=C6)C=C5)cc3)n2)[C@H](C)C1
REMARK SMILES IDX 16 1 15 2 14 3 13 4 11 5 12 6 10 8 6 9 7 10 80 11 8 12 9 13
REMARK SMILES IDX 5 14 1 15 2 16 3 17 83 18 4 19 81 20 82 21 17 22 18 23 19 25
REMARK SMILES IDX 20 26 21 27 79 28 22 29 78 30 23 31 24 32 25 33 72 34 26 35
REMARK SMILES IDX 77 36 71 37 73 38 27 39 76 40 70 41 69 42 28 44 58 45 39 46
REMARK SMILES IDX 57 47 40 48 43 49 56 50 74 51 41 52 42 53 55 55 75 56 44 57
REMARK SMILES IDX 29 58 30 59 38 60 31 61 37 62 32 63 33 64 34 65 35 66 36 67
REMARK SMILES IDX 59 68 60 69 68 70 61 71 67 72 62 73 63 74 64 75 65 76 66 77
REMARK SMILES IDX 45 78 46 79 54 80 47 81 53 82 48 83 49 84 50 85 51 86 52 87
REMARK H PARENT 13 7 17 24 73 43 43 54
REMARK Flexibility Score: inf
ROOT
ATOM      1  C   UNL A   1      40.421  23.032  27.299  1.00  0.00     0.118 C 
ENDROOT
BRANCH   1   2
ATOM      2  C   UNL A   1      40.420  21.553  26.914  1.00  0.00     0.042 C 
BRANCH   2   3
ATOM      3  C   UNL A   1      41.646  20.784  27.400  1.00  0.00     0.118 C 
BRANCH   3   4
ATOM      4  N   UNL A   1      42.363  20.145  26.311  1.00  0.00    -0.351 N 
ATOM      5  C   UNL A   1      43.369  20.613  25.497  1.00  0.00     0.271 C 
ATOM      6  O   UNL A   1      43.829  19.828  24.663  1.00  0.00    -0.267 OA
ATOM      7  H   UNL A   1      42.083  19.220  26.124  1.00  0.00     0.163 HD
BRANCH   5   8
ATOM      8  C   UNL A   1      43.922  21.998  25.575  1.00  0.00     0.148 A 
ATOM      9  C   UNL A   1      44.732  23.807  26.773  1.00  0.00     0.148 A 
ATOM     10  C   UNL A   1      44.826  24.501  25.558  1.00  0.00     0.157 A 
ATOM     11  N   UNL A   1      44.286  22.529  26.772  1.00  0.00    -0.222 NA
ATOM     12  N   UNL A   1      44.492  23.988  24.348  1.00  0.00    -0.258 NA
ATOM     13  C   UNL A   1      44.030  22.717  24.391  1.00  0.00     0.145 A 
BRANCH   9  14
ATOM     14  N   UNL A   1      45.124  24.384  27.962  1.00  0.00    -0.353 N 
ATOM     15  C   UNL A   1      46.125  25.929  31.256  1.00  0.00     0.008 C 
ATOM     16  C   UNL A   1      44.976  26.120  30.264  1.00  0.00    -0.011 C 
ATOM     17  C   UNL A   1      44.115  24.853  30.130  1.00  0.00     0.025 C 
ATOM     18  C   UNL A   1      45.442  26.617  28.882  1.00  0.00     0.028 C 
ATOM     19  C   UNL A   1      44.761  23.790  29.242  1.00  0.00     0.118 C 
ATOM     20  C   UNL A   1      46.026  25.536  27.952  1.00  0.00     0.081 C 
ATOM     21  C   UNL A   1      47.456  25.149  28.310  1.00  0.00     0.031 C 
ENDBRANCH   9  14
ENDBRANCH   5   8
ENDBRANCH   3   4
ENDBRANCH   2   3
ENDBRANCH   1   2
BRANCH   1  22
ATOM     22  N   UNL A   1      41.054  23.861  26.280  1.00  0.00    -0.352 N 
ATOM     23  C   UNL A   1      41.282  25.207  26.230  1.00  0.00     0.251 C 
ATOM     24  H   UNL A   1      41.372  23.364  25.492  1.00  0.00     0.163 HD
ATOM     25  O   UNL A   1      41.608  25.707  25.146  1.00  0.00    -0.269 OA
BRANCH  23  26
ATOM     26  C   UNL A   1      41.164  26.071  27.425  1.00  0.00     0.039 A 
ATOM     27  C   UNL A   1      40.011  25.968  28.212  1.00  0.00     0.014 A 
ATOM     28  C   UNL A   1      42.116  27.049  27.722  1.00  0.00     0.014 A 
ATOM     29  C   UNL A   1      39.822  26.828  29.296  1.00  0.00     0.010 A 
ATOM     30  C   UNL A   1      41.962  27.859  28.847  1.00  0.00     0.010 A 
ATOM     31  C   UNL A   1      40.800  27.777  29.627  1.00  0.00    -0.014 A 
BRANCH  31  32
ATOM     32  C   UNL A   1      40.593  28.725  30.753  1.00  0.00     0.031 A 
ATOM     33  C   UNL A   1      41.447  28.625  31.990  1.00  0.00     0.074 A 
ATOM     34  C   UNL A   1      39.624  29.658  30.674  1.00  0.00     0.049 A 
ATOM     35  N   UNL A   1      41.407  29.348  33.081  1.00  0.00    -0.248 NA
ATOM     36  C   UNL A   1      42.464  27.561  32.013  1.00  0.00     0.031 C 
ATOM     37  C   UNL A   1      38.710  29.836  29.543  1.00  0.00     0.029 A 
ATOM     38  N   UNL A   1      39.249  30.633  31.562  1.00  0.00    -0.354 N 
ATOM     39  C   UNL A   1      42.376  28.814  33.925  1.00  0.00     0.074 A 
ATOM     40  C   UNL A   1      42.952  27.678  33.239  1.00  0.00     0.031 C 
ATOM     41  C   UNL A   1      37.904  30.881  29.793  1.00  0.00     0.029 A 
ATOM     42  C   UNL A   1      38.221  31.425  31.110  1.00  0.00     0.049 A 
ATOM     43  H   UNL A   1      39.676  30.755  32.441  1.00  0.00     0.167 HD
ATOM     44  C   UNL A   1      42.768  29.242  35.150  1.00  0.00     0.031 A 
ATOM     45  C   UNL A   1      37.610  32.478  31.685  1.00  0.00     0.031 A 
ATOM     46  C   UNL A   1      42.207  30.382  35.823  1.00  0.00     0.049 A 
ATOM     47  C   UNL A   1      38.074  32.948  33.037  1.00  0.00     0.074 A 
ATOM     48  C   UNL A   1      42.557  30.920  37.049  1.00  0.00     0.029 A 
ATOM     49  N   UNL A   1      41.182  31.168  35.319  1.00  0.00    -0.354 N 
ATOM     50  N   UNL A   1      39.019  32.453  33.801  1.00  0.00    -0.248 NA
ATOM     51  C   UNL A   1      37.403  34.130  33.592  1.00  0.00     0.031 C 
ATOM     52  C   UNL A   1      41.721  32.014  37.302  1.00  0.00     0.029 A 
ATOM     53  C   UNL A   1      40.883  32.185  36.211  1.00  0.00     0.049 A 
ATOM     54  H   UNL A   1      40.732  31.025  34.456  1.00  0.00     0.167 HD
ATOM     55  C   UNL A   1      39.078  33.285  34.913  1.00  0.00     0.074 A 
ATOM     56  C   UNL A   1      38.081  34.318  34.717  1.00  0.00     0.031 C 
ATOM     57  C   UNL A   1      39.890  33.206  35.997  1.00  0.00     0.031 A 
BRANCH  44  58
ATOM     58  C   UNL A   1      43.859  28.461  35.836  1.00  0.00    -0.014 A 
ATOM     59  C   UNL A   1      45.214  28.792  35.650  1.00  0.00     0.010 A 
ATOM     60  C   UNL A   1      43.528  27.389  36.685  1.00  0.00     0.010 A 
ATOM     61  C   UNL A   1      46.219  28.033  36.255  1.00  0.00     0.020 A 
ATOM     62  C   UNL A   1      44.530  26.645  37.315  1.00  0.00     0.020 A 
ATOM     63  C   UNL A   1      45.870  26.958  37.078  1.00  0.00     0.054 A 
BRANCH  63  64
ATOM     64  S   UNL A   1      47.192  25.988  37.853  1.00  0.00     0.124 S 
ATOM     65  O   UNL A   1      46.945  26.224  39.274  1.00  0.00    -0.237 OA
ATOM     66  O   UNL A   1      46.916  24.632  37.386  1.00  0.00    -0.237 OA
ATOM     67  O   UNL A   1      48.416  26.587  37.326  1.00  0.00    -0.744 OA
ENDBRANCH  63  64
ENDBRANCH  44  58
BRANCH  45  68
ATOM     68  C   UNL A   1      36.522  33.190  30.962  1.00  0.00    -0.014 A 
ATOM     69  C   UNL A   1      35.221  33.224  31.495  1.00  0.00     0.010 A 
ATOM     70  C   UNL A   1      36.784  33.853  29.750  1.00  0.00     0.010 A 
ATOM     71  C   UNL A   1      34.197  33.892  30.819  1.00  0.00     0.020 A 
ATOM     72  C   UNL A   1      35.766  34.544  29.084  1.00  0.00     0.020 A 
ATOM     73  C   UNL A   1      34.477  34.550  29.618  1.00  0.00     0.054 A 
BRANCH  73  74
ATOM     74  S   UNL A   1      33.144  35.458  28.786  1.00  0.00     0.124 S 
ATOM     75  O   UNL A   1      33.888  36.442  28.006  1.00  0.00    -0.237 OA
ATOM     76  O   UNL A   1      32.479  34.411  28.015  1.00  0.00    -0.237 OA
ATOM     77  O   UNL A   1      32.358  35.999  29.893  1.00  0.00    -0.744 OA
ENDBRANCH  73  74
ENDBRANCH  45  68
BRANCH  57  78
ATOM     78  C   UNL A   1      39.765  34.293  37.029  1.00  0.00    -0.014 A 
ATOM     79  C   UNL A   1      38.948  34.137  38.162  1.00  0.00     0.010 A 
ATOM     80  C   UNL A   1      40.503  35.480  36.873  1.00  0.00     0.010 A 
ATOM     81  C   UNL A   1      38.839  35.167  39.101  1.00  0.00     0.020 A 
ATOM     82  C   UNL A   1      40.417  36.502  37.821  1.00  0.00     0.020 A 
ATOM     83  C   UNL A   1      39.569  36.346  38.920  1.00  0.00     0.054 A 
BRANCH  83  84
ATOM     84  S   UNL A   1      39.431  37.662  40.160  1.00  0.00     0.124 S 
ATOM     85  O   UNL A   1      40.747  38.290  40.084  1.00  0.00    -0.237 OA
ATOM     86  O   UNL A   1      38.320  38.466  39.656  1.00  0.00    -0.237 OA
ATOM     87  O   UNL A   1      39.154  36.939  41.400  1.00  0.00    -0.744 OA
ENDBRANCH  83  84
ENDBRANCH  57  78
ENDBRANCH  31  32
ENDBRANCH  23  26
ENDBRANCH   1  22
TORSDOF 14
ENDMDL
MODEL 3
REMARK VINA RESULT:     -11.8      6.361     13.170
REMARK SMILES C[C@@H]1CCN(c2cncc(C(=O)NCCCNC(=O)c3ccc(-c4c5nc(c(-c6ccc(S(=O)(=O)[O-])cc6)c6ccc([nH]6)c(-c6ccc(S(=O)(=O)[O-])cc6)c6nc(c(-c7ccc(S(=O)(=O)[O-])cc7)c7ccc4[nH]7)C=C6)C=C5)cc3)n2)[C@H](C)C1
REMARK SMILES IDX 16 1 15 2 14 3 13 4 11 5 12 6 10 8 6 9 7 10 80 11 8 12 9 13
REMARK SMILES IDX 5 14 1 15 2 16 3 17 83 18 4 19 81 20 82 21 17 22 18 23 19 25
REMARK SMILES IDX 20 26 21 27 79 28 22 29 78 30 23 31 24 32 25 33 72 34 26 35
REMARK SMILES IDX 77 36 71 37 73 38 27 39 76 40 70 41 69 42 28 44 58 45 39 46
REMARK SMILES IDX 57 47 40 48 43 49 56 50 74 51 41 52 42 53 55 55 75 56 44 57
REMARK SMILES IDX 29 58 30 59 38 60 31 61 37 62 32 63 33 64 34 65 35 66 36 67
REMARK SMILES IDX 59 68 60 69 68 70 61 71 67 72 62 73 63 74 64 75 65 76 66 77
REMARK SMILES IDX 45 78 46 79 54 80 47 81 53 82 48 83 49 84 50 85 51 86 52 87
REMARK H PARENT 13 7 17 24 73 43 43 54
REMARK Flexibility Score: inf
ROOT
ATOM      1  C   UNL A   1      36.240  32.740  28.784  1.00  0.00     0.118 C 
ENDROOT
BRANCH   1   2
ATOM      2  C   UNL A   1      35.249  33.878  28.542  1.00  0.00     0.042 C 
BRANCH   2   3
ATOM      3  C   UNL A   1      33.871  33.641  29.153  1.00  0.00     0.118 C 
BRANCH   3   4
ATOM      4  N   UNL A   1      33.381  34.802  29.875  1.00  0.00    -0.351 N 
ATOM      5  C   UNL A   1      33.685  35.276  31.130  1.00  0.00     0.271 C 
ATOM      6  O   UNL A   1      33.138  36.325  31.484  1.00  0.00    -0.267 OA
ATOM      7  H   UNL A   1      32.720  35.340  29.384  1.00  0.00     0.163 HD
BRANCH   5   8
ATOM      8  C   UNL A   1      34.630  34.598  32.067  1.00  0.00     0.148 A 
ATOM      9  C   UNL A   1      36.766  33.995  32.728  1.00  0.00     0.148 A 
ATOM     10  C   UNL A   1      36.180  33.280  33.782  1.00  0.00     0.157 A 
ATOM     11  N   UNL A   1      35.973  34.676  31.869  1.00  0.00    -0.222 NA
ATOM     12  N   UNL A   1      34.847  33.205  34.017  1.00  0.00    -0.258 NA
ATOM     13  C   UNL A   1      34.086  33.879  33.125  1.00  0.00     0.145 A 
BRANCH   9  14
ATOM     14  N   UNL A   1      38.135  34.054  32.573  1.00  0.00    -0.353 N 
ATOM     15  C   UNL A   1      41.870  34.208  32.062  1.00  0.00     0.008 C 
ATOM     16  C   UNL A   1      40.782  33.153  31.854  1.00  0.00    -0.011 C 
ATOM     17  C   UNL A   1      39.747  33.593  30.805  1.00  0.00     0.025 C 
ATOM     18  C   UNL A   1      40.090  32.726  33.163  1.00  0.00     0.028 C 
ATOM     19  C   UNL A   1      38.733  34.593  31.358  1.00  0.00     0.118 C 
ATOM     20  C   UNL A   1      39.011  33.694  33.688  1.00  0.00     0.081 C 
ATOM     21  C   UNL A   1      39.595  34.920  34.379  1.00  0.00     0.031 C 
ENDBRANCH   9  14
ENDBRANCH   5   8
ENDBRANCH   3   4
ENDBRANCH   2   3
ENDBRANCH   1   2
BRANCH   1  22
ATOM     22  N   UNL A   1      35.989  32.057  30.047  1.00  0.00    -0.352 N 
ATOM     23  C   UNL A   1      36.579  30.960  30.609  1.00  0.00     0.251 C 
ATOM     24  H   UNL A   1      35.270  32.456  30.588  1.00  0.00     0.163 HD
ATOM     25  O   UNL A   1      36.019  30.421  31.572  1.00  0.00    -0.269 OA
BRANCH  23  26
ATOM     26  C   UNL A   1      37.860  30.414  30.112  1.00  0.00     0.039 A 
ATOM     27  C   UNL A   1      38.853  30.087  31.043  1.00  0.00     0.014 A 
ATOM     28  C   UNL A   1      38.138  30.317  28.746  1.00  0.00     0.014 A 
ATOM     29  C   UNL A   1      40.107  29.653  30.609  1.00  0.00     0.010 A 
ATOM     30  C   UNL A   1      39.366  29.815  28.314  1.00  0.00     0.010 A 
ATOM     31  C   UNL A   1      40.372  29.506  29.240  1.00  0.00    -0.014 A 
BRANCH  31  32
ATOM     32  C   UNL A   1      41.716  29.084  28.764  1.00  0.00     0.031 A 
ATOM     33  C   UNL A   1      42.843  30.083  28.708  1.00  0.00     0.074 A 
ATOM     34  C   UNL A   1      41.916  27.815  28.361  1.00  0.00     0.049 A 
ATOM     35  N   UNL A   1      44.078  29.911  28.308  1.00  0.00    -0.248 NA
ATOM     36  C   UNL A   1      42.538  31.457  29.137  1.00  0.00     0.031 C 
ATOM     37  C   UNL A   1      40.897  26.763  28.337  1.00  0.00     0.029 A 
ATOM     38  N   UNL A   1      43.047  27.194  27.896  1.00  0.00    -0.354 N 
ATOM     39  C   UNL A   1      44.688  31.157  28.418  1.00  0.00     0.074 A 
ATOM     40  C   UNL A   1      43.676  32.083  28.874  1.00  0.00     0.031 C 
ATOM     41  C   UNL A   1      41.459  25.618  27.915  1.00  0.00     0.029 A 
ATOM     42  C   UNL A   1      42.865  25.863  27.608  1.00  0.00     0.049 A 
ATOM     43  H   UNL A   1      43.908  27.658  27.779  1.00  0.00     0.167 HD
ATOM     44  C   UNL A   1      45.979  31.496  28.182  1.00  0.00     0.031 A 
ATOM     45  C   UNL A   1      43.736  24.938  27.158  1.00  0.00     0.031 A 
ATOM     46  C   UNL A   1      46.989  30.570  27.745  1.00  0.00     0.049 A 
ATOM     47  C   UNL A   1      45.168  25.333  26.921  1.00  0.00     0.074 A 
ATOM     48  C   UNL A   1      48.333  30.805  27.511  1.00  0.00     0.029 A 
ATOM     49  N   UNL A   1      46.767  29.227  27.485  1.00  0.00    -0.354 N 
ATOM     50  N   UNL A   1      45.734  26.508  27.069  1.00  0.00    -0.248 NA
ATOM     51  C   UNL A   1      46.081  24.272  26.477  1.00  0.00     0.031 C 
ATOM     52  C   UNL A   1      48.917  29.609  27.079  1.00  0.00     0.029 A 
ATOM     53  C   UNL A   1      47.947  28.619  27.090  1.00  0.00     0.049 A 
ATOM     54  H   UNL A   1      45.898  28.772  27.568  1.00  0.00     0.167 HD
ATOM     55  C   UNL A   1      47.078  26.318  26.769  1.00  0.00     0.074 A 
ATOM     56  C   UNL A   1      47.240  24.916  26.440  1.00  0.00     0.031 C 
ATOM     57  C   UNL A   1      48.090  27.222  26.771  1.00  0.00     0.031 A 
BRANCH  44  58
ATOM     58  C   UNL A   1      46.362  32.938  28.393  1.00  0.00    -0.014 A 
ATOM     59  C   UNL A   1      46.362  33.852  27.323  1.00  0.00     0.010 A 
ATOM     60  C   UNL A   1      46.717  33.390  29.677  1.00  0.00     0.010 A 
ATOM     61  C   UNL A   1      46.761  35.177  27.522  1.00  0.00     0.020 A 
ATOM     62  C   UNL A   1      47.089  34.721  29.885  1.00  0.00     0.020 A 
ATOM     63  C   UNL A   1      47.131  35.601  28.801  1.00  0.00     0.054 A 
BRANCH  63  64
ATOM     64  S   UNL A   1      47.646  37.324  29.034  1.00  0.00     0.124 S 
ATOM     65  O   UNL A   1      48.847  37.393  28.203  1.00  0.00    -0.237 OA
ATOM     66  O   UNL A   1      46.496  38.075  28.537  1.00  0.00    -0.237 OA
ATOM     67  O   UNL A   1      47.877  37.425  30.472  1.00  0.00    -0.744 OA
ENDBRANCH  63  64
ENDBRANCH  44  58
BRANCH  45  68
ATOM     68  C   UNL A   1      43.286  23.536  26.948  1.00  0.00    -0.014 A 
ATOM     69  C   UNL A   1      42.940  23.089  25.660  1.00  0.00     0.010 A 
ATOM     70  C   UNL A   1      43.219  22.636  28.026  1.00  0.00     0.010 A 
ATOM     71  C   UNL A   1      42.517  21.773  25.457  1.00  0.00     0.020 A 
ATOM     72  C   UNL A   1      42.821  21.312  27.822  1.00  0.00     0.020 A 
ATOM     73  C   UNL A   1      42.462  20.892  26.540  1.00  0.00     0.054 A 
BRANCH  73  74
ATOM     74  S   UNL A   1      41.964  19.172  26.246  1.00  0.00     0.124 S 
ATOM     75  O   UNL A   1      42.897  18.760  25.202  1.00  0.00    -0.237 OA
ATOM     76  O   UNL A   1      42.165  18.555  27.554  1.00  0.00    -0.237 OA
ATOM     77  O   UNL A   1      40.568  19.289  25.829  1.00  0.00    -0.744 OA
ENDBRANCH  73  74
ENDBRANCH  45  68
BRANCH  57  78
ATOM     78  C   UNL A   1      49.468  26.710  26.455  1.00  0.00    -0.014 A 
ATOM     79  C   UNL A   1      50.314  26.214  27.461  1.00  0.00     0.010 A 
ATOM     80  C   UNL A   1      49.909  26.699  25.119  1.00  0.00     0.010 A 
ATOM     81  C   UNL A   1      51.596  25.755  27.142  1.00  0.00     0.020 A 
ATOM     82  C   UNL A   1      51.179  26.217  24.792  1.00  0.00     0.020 A 
ATOM     83  C   UNL A   1      52.022  25.766  25.810  1.00  0.00     0.054 A 
BRANCH  83  84
ATOM     84  S   UNL A   1      53.680  25.146  25.415  1.00  0.00     0.124 S 
ATOM     85  O   UNL A   1      53.959  25.815  24.147  1.00  0.00    -0.237 OA
ATOM     86  O   UNL A   1      54.475  25.599  26.553  1.00  0.00    -0.237 OA
ATOM     87  O   UNL A   1      53.495  23.699  25.330  1.00  0.00    -0.744 OA
ENDBRANCH  83  84
ENDBRANCH  57  78
ENDBRANCH  31  32
ENDBRANCH  23  26
ENDBRANCH   1  22
TORSDOF 14
ENDMDL
