MODEL 1
REMARK VINA RESULT:     -10.8      0.000      0.000
REMARK SMILES COc1ccccc1Nc1nc(C)c(C(=O)NCCCNC(=O)c2ccc(-c3c4nc(c(-c5ccc(S(=O)(=O)[O-])cc5)c5ccc([nH]5)c(-c5ccc(S(=O)(=O)[O-])cc5)c5nc(c(-c6ccc(S(=O)(=O)[O-])cc6)c6ccc3[nH]6)C=C5)C=C4)cc2)s1
REMARK SMILES IDX 19 1 18 2 17 3 15 4 16 5 14 7 10 8 11 9 84 10 12 11 13 12
REMARK SMILES IDX 9 13 8 15 3 16 4 17 5 18 7 19 6 20 2 21 1 22 20 23 21 24
REMARK SMILES IDX 22 25 23 27 24 28 25 29 83 30 26 31 82 32 27 33 28 34 29 35
REMARK SMILES IDX 76 36 30 37 81 38 75 39 77 40 31 41 80 42 74 43 73 44 32 46
REMARK SMILES IDX 62 47 43 48 61 49 44 50 47 51 60 52 78 53 45 54 46 55 59 57
REMARK SMILES IDX 79 58 48 59 33 60 34 61 42 62 35 63 41 64 36 65 37 66 38 67
REMARK SMILES IDX 39 68 40 69 63 70 64 71 72 72 65 73 71 74 66 75 67 76 68 77
REMARK SMILES IDX 69 78 70 79 49 80 50 81 58 82 51 83 57 84 52 85 53 86 54 87
REMARK SMILES IDX 55 88 56 89
REMARK H PARENT 17 6 9 14 21 26 77 45 47 56
REMARK Flexibility Score: inf
ROOT
ATOM      1  C   UNL A   1      35.122  22.655  25.964  1.00  0.00     0.042 C 
ENDROOT
BRANCH   1   2
ATOM      2  C   UNL A   1      35.261  21.432  25.057  1.00  0.00     0.118 C 
BRANCH   2   3
ATOM      3  N   UNL A   1      34.139  20.538  25.227  1.00  0.00    -0.351 N 
ATOM      4  C   UNL A   1      32.787  20.667  25.050  1.00  0.00     0.263 C 
ATOM      5  O   UNL A   1      32.175  19.615  25.283  1.00  0.00    -0.268 OA
ATOM      6  H   UNL A   1      34.404  19.642  25.538  1.00  0.00     0.163 HD
BRANCH   4   7
ATOM      7  C   UNL A   1      32.110  21.877  24.601  1.00  0.00     0.117 A 
ATOM      8  C   UNL A   1      30.781  23.944  24.790  1.00  0.00     0.188 A 
ATOM      9  N   UNL A   1      31.261  23.811  23.583  1.00  0.00    -0.225 NA
ATOM     10  S   UNL A   1      31.014  22.568  25.774  1.00  0.00    -0.091 S 
ATOM     11  C   UNL A   1      32.121  22.724  23.495  1.00  0.00     0.063 A 
ATOM     12  C   UNL A   1      32.939  22.741  22.258  1.00  0.00     0.068 C 
BRANCH   8  13
ATOM     13  N   UNL A   1      30.102  25.052  25.149  1.00  0.00    -0.328 N 
ATOM     14  H   UNL A   1      29.400  24.925  25.828  1.00  0.00     0.169 HD
BRANCH  13  15
ATOM     15  C   UNL A   1      30.272  26.373  24.675  1.00  0.00     0.083 A 
ATOM     16  C   UNL A   1      31.248  27.195  25.275  1.00  0.00     0.142 A 
ATOM     17  C   UNL A   1      31.386  28.538  24.914  1.00  0.00     0.048 A 
ATOM     18  C   UNL A   1      30.591  29.072  23.903  1.00  0.00     0.004 A 
ATOM     19  C   UNL A   1      29.504  26.927  23.641  1.00  0.00     0.030 A 
ATOM     20  C   UNL A   1      29.658  28.264  23.260  1.00  0.00     0.002 A 
BRANCH  16  21
ATOM     21  O   UNL A   1      32.032  26.761  26.319  1.00  0.00    -0.495 OA
ATOM     22  C   UNL A   1      33.421  26.976  26.069  1.00  0.00     0.278 C 
ENDBRANCH  16  21
ENDBRANCH  13  15
ENDBRANCH   8  13
ENDBRANCH   4   7
ENDBRANCH   2   3
ENDBRANCH   1   2
BRANCH   1  23
ATOM     23  C   UNL A   1      36.408  23.463  26.107  1.00  0.00     0.118 C 
BRANCH  23  24
ATOM     24  N   UNL A   1      37.586  22.611  26.073  1.00  0.00    -0.352 N 
ATOM     25  C   UNL A   1      38.908  22.919  26.286  1.00  0.00     0.251 C 
ATOM     26  H   UNL A   1      37.409  21.665  25.863  1.00  0.00     0.163 HD
ATOM     27  O   UNL A   1      39.768  22.110  25.945  1.00  0.00    -0.269 OA
BRANCH  25  28
ATOM     28  C   UNL A   1      39.307  24.203  26.909  1.00  0.00     0.039 A 
ATOM     29  C   UNL A   1      38.930  24.455  28.232  1.00  0.00     0.014 A 
ATOM     30  C   UNL A   1      39.993  25.183  26.186  1.00  0.00     0.014 A 
ATOM     31  C   UNL A   1      39.293  25.658  28.846  1.00  0.00     0.010 A 
ATOM     32  C   UNL A   1      40.413  26.353  26.818  1.00  0.00     0.010 A 
ATOM     33  C   UNL A   1      40.067  26.603  28.154  1.00  0.00    -0.014 A 
BRANCH  33  34
ATOM     34  C   UNL A   1      40.542  27.846  28.816  1.00  0.00     0.031 A 
ATOM     35  C   UNL A   1      41.911  27.903  29.443  1.00  0.00     0.074 A 
ATOM     36  C   UNL A   1      39.710  28.901  28.918  1.00  0.00     0.049 A 
ATOM     37  N   UNL A   1      42.460  28.870  30.133  1.00  0.00    -0.248 NA
ATOM     38  C   UNL A   1      42.763  26.713  29.293  1.00  0.00     0.031 C 
ATOM     39  C   UNL A   1      38.345  28.957  28.387  1.00  0.00     0.029 A 
ATOM     40  N   UNL A   1      39.881  30.124  29.515  1.00  0.00    -0.354 N 
ATOM     41  C   UNL A   1      43.711  28.400  30.517  1.00  0.00     0.074 A 
ATOM     42  C   UNL A   1      43.826  27.048  30.012  1.00  0.00     0.031 C 
ATOM     43  C   UNL A   1      37.810  30.155  28.670  1.00  0.00     0.029 A 
ATOM     44  C   UNL A   1      38.775  30.937  29.436  1.00  0.00     0.049 A 
ATOM     45  H   UNL A   1      40.718  30.395  29.959  1.00  0.00     0.167 HD
ATOM     46  C   UNL A   1      44.682  29.039  31.213  1.00  0.00     0.031 A 
ATOM     47  C   UNL A   1      38.551  32.167  29.937  1.00  0.00     0.031 A 
ATOM     48  C   UNL A   1      44.569  30.389  31.701  1.00  0.00     0.049 A 
ATOM     49  C   UNL A   1      39.639  32.851  30.716  1.00  0.00     0.074 A 
ATOM     50  C   UNL A   1      45.524  31.148  32.358  1.00  0.00     0.029 A 
ATOM     51  N   UNL A   1      43.437  31.180  31.591  1.00  0.00    -0.354 N 
ATOM     52  N   UNL A   1      40.841  32.415  31.007  1.00  0.00    -0.248 NA
ATOM     53  C   UNL A   1      39.344  34.196  31.229  1.00  0.00     0.031 C 
ATOM     54  C   UNL A   1      44.950  32.380  32.689  1.00  0.00     0.029 A 
ATOM     55  C   UNL A   1      43.657  32.408  32.194  1.00  0.00     0.049 A 
ATOM     56  H   UNL A   1      42.599  30.910  31.149  1.00  0.00     0.167 HD
ATOM     57  C   UNL A   1      41.450  33.437  31.726  1.00  0.00     0.074 A 
ATOM     58  C   UNL A   1      40.493  34.521  31.806  1.00  0.00     0.031 C 
ATOM     59  C   UNL A   1      42.690  33.472  32.274  1.00  0.00     0.031 A 
BRANCH  46  60
ATOM     60  C   UNL A   1      45.953  28.284  31.498  1.00  0.00    -0.014 A 
ATOM     61  C   UNL A   1      47.044  28.342  30.612  1.00  0.00     0.010 A 
ATOM     62  C   UNL A   1      46.081  27.555  32.695  1.00  0.00     0.010 A 
ATOM     63  C   UNL A   1      48.227  27.656  30.900  1.00  0.00     0.020 A 
ATOM     64  C   UNL A   1      47.272  26.887  32.998  1.00  0.00     0.020 A 
ATOM     65  C   UNL A   1      48.332  26.930  32.091  1.00  0.00     0.054 A 
BRANCH  65  66
ATOM     66  S   UNL A   1      49.890  26.073  32.454  1.00  0.00     0.124 S 
ATOM     67  O   UNL A   1      49.452  25.035  33.383  1.00  0.00    -0.237 OA
ATOM     68  O   UNL A   1      50.310  25.600  31.137  1.00  0.00    -0.237 OA
ATOM     69  O   UNL A   1      50.732  27.116  33.035  1.00  0.00    -0.744 OA
ENDBRANCH  65  66
ENDBRANCH  46  60
BRANCH  47  70
ATOM     70  C   UNL A   1      37.236  32.829  29.722  1.00  0.00    -0.014 A 
ATOM     71  C   UNL A   1      36.309  32.933  30.772  1.00  0.00     0.010 A 
ATOM     72  C   UNL A   1      36.911  33.372  28.465  1.00  0.00     0.010 A 
ATOM     73  C   UNL A   1      35.072  33.552  30.567  1.00  0.00     0.020 A 
ATOM     74  C   UNL A   1      35.686  34.014  28.262  1.00  0.00     0.020 A 
ATOM     75  C   UNL A   1      34.769  34.089  29.312  1.00  0.00     0.054 A 
BRANCH  75  76
ATOM     76  S   UNL A   1      33.180  34.934  29.080  1.00  0.00     0.124 S 
ATOM     77  O   UNL A   1      32.548  34.115  28.051  1.00  0.00    -0.237 OA
ATOM     78  O   UNL A   1      32.582  34.855  30.411  1.00  0.00    -0.237 OA
ATOM     79  O   UNL A   1      33.569  36.279  28.661  1.00  0.00    -0.744 OA
ENDBRANCH  75  76
ENDBRANCH  47  70
BRANCH  59  80
ATOM     80  C   UNL A   1      43.085  34.729  32.999  1.00  0.00    -0.014 A 
ATOM     81  C   UNL A   1      42.926  34.840  34.392  1.00  0.00     0.010 A 
ATOM     82  C   UNL A   1      43.668  35.792  32.287  1.00  0.00     0.010 A 
ATOM     83  C   UNL A   1      43.319  36.005  35.056  1.00  0.00     0.020 A 
ATOM     84  C   UNL A   1      44.085  36.948  32.952  1.00  0.00     0.020 A 
ATOM     85  C   UNL A   1      43.894  37.053  34.331  1.00  0.00     0.054 A 
BRANCH  85  86
ATOM     86  S   UNL A   1      44.435  38.537  35.222  1.00  0.00     0.124 S 
ATOM     87  O   UNL A   1      43.723  39.595  34.510  1.00  0.00    -0.237 OA
ATOM     88  O   UNL A   1      43.977  38.280  36.585  1.00  0.00    -0.237 OA
ATOM     89  O   UNL A   1      45.885  38.535  35.048  1.00  0.00    -0.744 OA
ENDBRANCH  85  86
ENDBRANCH  59  80
ENDBRANCH  33  34
ENDBRANCH  25  28
ENDBRANCH  23  24
ENDBRANCH   1  23
TORSDOF 16
ENDMDL
MODEL 2
REMARK VINA RESULT:     -10.7      2.696      9.329
REMARK SMILES COc1ccccc1Nc1nc(C)c(C(=O)NCCCNC(=O)c2ccc(-c3c4nc(c(-c5ccc(S(=O)(=O)[O-])cc5)c5ccc([nH]5)c(-c5ccc(S(=O)(=O)[O-])cc5)c5nc(c(-c6ccc(S(=O)(=O)[O-])cc6)c6ccc3[nH]6)C=C5)C=C4)cc2)s1
REMARK SMILES IDX 19 1 18 2 17 3 15 4 16 5 14 7 10 8 11 9 84 10 12 11 13 12
REMARK SMILES IDX 9 13 8 15 3 16 4 17 5 18 7 19 6 20 2 21 1 22 20 23 21 24
REMARK SMILES IDX 22 25 23 27 24 28 25 29 83 30 26 31 82 32 27 33 28 34 29 35
REMARK SMILES IDX 76 36 30 37 81 38 75 39 77 40 31 41 80 42 74 43 73 44 32 46
REMARK SMILES IDX 62 47 43 48 61 49 44 50 47 51 60 52 78 53 45 54 46 55 59 57
REMARK SMILES IDX 79 58 48 59 33 60 34 61 42 62 35 63 41 64 36 65 37 66 38 67
REMARK SMILES IDX 39 68 40 69 63 70 64 71 72 72 65 73 71 74 66 75 67 76 68 77
REMARK SMILES IDX 69 78 70 79 49 80 50 81 58 82 51 83 57 84 52 85 53 86 54 87
REMARK SMILES IDX 55 88 56 89
REMARK H PARENT 17 6 9 14 21 26 77 45 47 56
REMARK Flexibility Score: inf
ROOT
ATOM      1  C   UNL A   1      33.278  28.829  24.976  1.00  0.00     0.042 C 
ENDROOT
BRANCH   1   2
ATOM      2  C   UNL A   1      31.785  29.136  25.088  1.00  0.00     0.118 C 
BRANCH   2   3
ATOM      3  N   UNL A   1      31.191  29.278  23.779  1.00  0.00    -0.351 N 
ATOM      4  C   UNL A   1      30.769  28.390  22.826  1.00  0.00     0.263 C 
ATOM      5  O   UNL A   1      30.277  28.952  21.838  1.00  0.00    -0.268 OA
ATOM      6  H   UNL A   1      31.062  30.218  23.515  1.00  0.00     0.163 HD
BRANCH   4   7
ATOM      7  C   UNL A   1      30.840  26.938  22.940  1.00  0.00     0.117 A 
ATOM      8  C   UNL A   1      31.690  24.662  22.528  1.00  0.00     0.188 A 
ATOM      9  N   UNL A   1      30.771  24.652  23.455  1.00  0.00    -0.225 NA
ATOM     10  S   UNL A   1      31.847  26.168  21.738  1.00  0.00    -0.091 S 
ATOM     11  C   UNL A   1      30.378  25.940  23.795  1.00  0.00     0.063 A 
ATOM     12  C   UNL A   1      29.604  25.987  25.059  1.00  0.00     0.068 C 
BRANCH   8  13
ATOM     13  N   UNL A   1      32.364  23.540  22.206  1.00  0.00    -0.328 N 
ATOM     14  H   UNL A   1      32.493  23.376  21.244  1.00  0.00     0.169 HD
BRANCH  13  15
ATOM     15  C   UNL A   1      32.910  22.569  23.077  1.00  0.00     0.083 A 
ATOM     16  C   UNL A   1      34.106  22.863  23.764  1.00  0.00     0.142 A 
ATOM     17  C   UNL A   1      34.742  21.901  24.556  1.00  0.00     0.048 A 
ATOM     18  C   UNL A   1      34.164  20.646  24.725  1.00  0.00     0.004 A 
ATOM     19  C   UNL A   1      32.335  21.308  23.286  1.00  0.00     0.030 A 
ATOM     20  C   UNL A   1      32.956  20.353  24.098  1.00  0.00     0.002 A 
BRANCH  16  21
ATOM     21  O   UNL A   1      34.770  24.057  23.605  1.00  0.00    -0.495 OA
ATOM     22  C   UNL A   1      34.702  24.867  24.780  1.00  0.00     0.278 C 
ENDBRANCH  16  21
ENDBRANCH  13  15
ENDBRANCH   8  13
ENDBRANCH   4   7
ENDBRANCH   2   3
ENDBRANCH   1   2
BRANCH   1  23
ATOM     23  C   UNL A   1      34.023  28.912  26.304  1.00  0.00     0.118 C 
BRANCH  23  24
ATOM     24  N   UNL A   1      33.843  30.206  26.944  1.00  0.00    -0.352 N 
ATOM     25  C   UNL A   1      34.582  30.818  27.927  1.00  0.00     0.251 C 
ATOM     26  H   UNL A   1      33.070  30.723  26.622  1.00  0.00     0.163 HD
ATOM     27  O   UNL A   1      34.104  31.787  28.512  1.00  0.00    -0.269 OA
BRANCH  25  28
ATOM     28  C   UNL A   1      35.931  30.325  28.294  1.00  0.00     0.039 A 
ATOM     29  C   UNL A   1      36.958  30.409  27.348  1.00  0.00     0.014 A 
ATOM     30  C   UNL A   1      36.178  29.729  29.534  1.00  0.00     0.014 A 
ATOM     31  C   UNL A   1      38.241  29.953  27.667  1.00  0.00     0.010 A 
ATOM     32  C   UNL A   1      37.472  29.336  29.875  1.00  0.00     0.010 A 
ATOM     33  C   UNL A   1      38.517  29.443  28.946  1.00  0.00    -0.014 A 
BRANCH  33  34
ATOM     34  C   UNL A   1      39.892  29.040  29.336  1.00  0.00     0.031 A 
ATOM     35  C   UNL A   1      40.812  30.018  30.017  1.00  0.00     0.074 A 
ATOM     36  C   UNL A   1      40.339  27.811  29.009  1.00  0.00     0.049 A 
ATOM     37  N   UNL A   1      42.068  29.870  30.355  1.00  0.00    -0.248 NA
ATOM     38  C   UNL A   1      40.256  31.341  30.342  1.00  0.00     0.031 C 
ATOM     39  C   UNL A   1      39.558  26.784  28.313  1.00  0.00     0.029 A 
ATOM     40  N   UNL A   1      41.562  27.219  29.203  1.00  0.00    -0.354 N 
ATOM     41  C   UNL A   1      42.458  31.082  30.912  1.00  0.00     0.074 A 
ATOM     42  C   UNL A   1      41.316  31.968  30.835  1.00  0.00     0.031 C 
ATOM     43  C   UNL A   1      40.316  25.687  28.152  1.00  0.00     0.029 A 
ATOM     44  C   UNL A   1      41.646  25.945  28.694  1.00  0.00     0.049 A 
ATOM     45  H   UNL A   1      42.310  27.666  29.663  1.00  0.00     0.167 HD
ATOM     46  C   UNL A   1      43.654  31.424  31.450  1.00  0.00     0.031 A 
ATOM     47  C   UNL A   1      42.680  25.083  28.651  1.00  0.00     0.031 A 
ATOM     48  C   UNL A   1      44.783  30.535  31.538  1.00  0.00     0.049 A 
ATOM     49  C   UNL A   1      43.999  25.489  29.245  1.00  0.00     0.074 A 
ATOM     50  C   UNL A   1      46.015  30.767  32.128  1.00  0.00     0.029 A 
ATOM     51  N   UNL A   1      44.824  29.251  31.020  1.00  0.00    -0.354 N 
ATOM     52  N   UNL A   1      44.326  26.617  29.829  1.00  0.00    -0.248 NA
ATOM     53  C   UNL A   1      45.089  24.505  29.179  1.00  0.00     0.031 C 
ATOM     54  C   UNL A   1      46.817  29.639  31.921  1.00  0.00     0.029 A 
ATOM     55  C   UNL A   1      46.068  28.687  31.249  1.00  0.00     0.049 A 
ATOM     56  H   UNL A   1      44.077  28.804  30.557  1.00  0.00     0.167 HD
ATOM     57  C   UNL A   1      45.654  26.472  30.213  1.00  0.00     0.074 A 
ATOM     58  C   UNL A   1      46.063  25.142  29.815  1.00  0.00     0.031 C 
ATOM     59  C   UNL A   1      46.463  27.365  30.836  1.00  0.00     0.031 A 
BRANCH  46  60
ATOM     60  C   UNL A   1      43.807  32.823  31.985  1.00  0.00    -0.014 A 
ATOM     61  C   UNL A   1      44.156  33.889  31.137  1.00  0.00     0.010 A 
ATOM     62  C   UNL A   1      43.543  33.087  33.342  1.00  0.00     0.010 A 
ATOM     63  C   UNL A   1      44.271  35.188  31.641  1.00  0.00     0.020 A 
ATOM     64  C   UNL A   1      43.634  34.388  33.846  1.00  0.00     0.020 A 
ATOM     65  C   UNL A   1      44.012  35.427  32.995  1.00  0.00     0.054 A 
BRANCH  65  66
ATOM     66  S   UNL A   1      44.141  37.128  33.617  1.00  0.00     0.124 S 
ATOM     67  O   UNL A   1      45.101  36.976  34.707  1.00  0.00    -0.237 OA
ATOM     68  O   UNL A   1      44.627  37.860  32.451  1.00  0.00    -0.237 OA
ATOM     69  O   UNL A   1      42.777  37.451  34.028  1.00  0.00    -0.744 OA
ENDBRANCH  65  66
ENDBRANCH  46  60
BRANCH  47  70
ATOM     70  C   UNL A   1      42.509  23.749  28.013  1.00  0.00    -0.014 A 
ATOM     71  C   UNL A   1      42.709  23.587  26.632  1.00  0.00     0.010 A 
ATOM     72  C   UNL A   1      42.158  22.630  28.791  1.00  0.00     0.010 A 
ATOM     73  C   UNL A   1      42.544  22.334  26.035  1.00  0.00     0.020 A 
ATOM     74  C   UNL A   1      42.018  21.370  28.202  1.00  0.00     0.020 A 
ATOM     75  C   UNL A   1      42.200  21.233  26.825  1.00  0.00     0.054 A 
BRANCH  75  76
ATOM     76  S   UNL A   1      42.042  19.605  26.038  1.00  0.00     0.124 S 
ATOM     77  O   UNL A   1      42.457  18.709  27.113  1.00  0.00    -0.237 OA
ATOM     78  O   UNL A   1      40.625  19.559  25.685  1.00  0.00    -0.237 OA
ATOM     79  O   UNL A   1      42.955  19.687  24.901  1.00  0.00    -0.744 OA
ENDBRANCH  75  76
ENDBRANCH  47  70
BRANCH  59  80
ATOM     80  C   UNL A   1      47.870  26.925  31.136  1.00  0.00    -0.014 A 
ATOM     81  C   UNL A   1      48.191  26.322  32.365  1.00  0.00     0.010 A 
ATOM     82  C   UNL A   1      48.871  27.071  30.160  1.00  0.00     0.010 A 
ATOM     83  C   UNL A   1      49.497  25.898  32.623  1.00  0.00     0.020 A 
ATOM     84  C   UNL A   1      50.172  26.625  30.404  1.00  0.00     0.020 A 
ATOM     85  C   UNL A   1      50.480  26.054  31.640  1.00  0.00     0.054 A 
BRANCH  85  86
ATOM     86  S   UNL A   1      52.158  25.456  31.981  1.00  0.00     0.124 S 
ATOM     87  O   UNL A   1      52.497  26.181  33.203  1.00  0.00    -0.237 OA
ATOM     88  O   UNL A   1      51.962  24.017  32.139  1.00  0.00    -0.237 OA
ATOM     89  O   UNL A   1      52.912  25.849  30.794  1.00  0.00    -0.744 OA
ENDBRANCH  85  86
ENDBRANCH  59  80
ENDBRANCH  33  34
ENDBRANCH  25  28
ENDBRANCH  23  24
ENDBRANCH   1  23
TORSDOF 16
ENDMDL
MODEL 3
REMARK VINA RESULT:     -10.7      4.444     10.419
REMARK SMILES COc1ccccc1Nc1nc(C)c(C(=O)NCCCNC(=O)c2ccc(-c3c4nc(c(-c5ccc(S(=O)(=O)[O-])cc5)c5ccc([nH]5)c(-c5ccc(S(=O)(=O)[O-])cc5)c5nc(c(-c6ccc(S(=O)(=O)[O-])cc6)c6ccc3[nH]6)C=C5)C=C4)cc2)s1
REMARK SMILES IDX 19 1 18 2 17 3 15 4 16 5 14 7 10 8 11 9 84 10 12 11 13 12
REMARK SMILES IDX 9 13 8 15 3 16 4 17 5 18 7 19 6 20 2 21 1 22 20 23 21 24
REMARK SMILES IDX 22 25 23 27 24 28 25 29 83 30 26 31 82 32 27 33 28 34 29 35
REMARK SMILES IDX 76 36 30 37 81 38 75 39 77 40 31 41 80 42 74 43 73 44 32 46
REMARK SMILES IDX 62 47 43 48 61 49 44 50 47 51 60 52 78 53 45 54 46 55 59 57
REMARK SMILES IDX 79 58 48 59 33 60 34 61 42 62 35 63 41 64 36 65 37 66 38 67
REMARK SMILES IDX 39 68 40 69 63 70 64 71 72 72 65 73 71 74 66 75 67 76 68 77
REMARK SMILES IDX 69 78 70 79 49 80 50 81 58 82 51 83 57 84 52 85 53 86 54 87
REMARK SMILES IDX 55 88 56 89
REMARK H PARENT 17 6 9 14 21 26 77 45 47 56
REMARK Flexibility Score: inf
ROOT
ATOM      1  C   UNL A   1      33.969  29.334  26.950  1.00  0.00     0.042 C 
ENDROOT
BRANCH   1   2
ATOM      2  C   UNL A   1      33.936  28.452  25.702  1.00  0.00     0.118 C 
BRANCH   2   3
ATOM      3  N   UNL A   1      32.896  28.882  24.798  1.00  0.00    -0.351 N 
ATOM      4  C   UNL A   1      31.951  28.224  24.055  1.00  0.00     0.263 C 
ATOM      5  O   UNL A   1      31.216  28.999  23.427  1.00  0.00    -0.268 OA
ATOM      6  H   UNL A   1      32.857  29.860  24.692  1.00  0.00     0.163 HD
BRANCH   4   7
ATOM      7  C   UNL A   1      31.775  26.778  24.010  1.00  0.00     0.117 A 
ATOM      8  C   UNL A   1      32.326  24.433  23.487  1.00  0.00     0.188 A 
ATOM      9  N   UNL A   1      31.259  24.502  24.238  1.00  0.00    -0.225 NA
ATOM     10  S   UNL A   1      32.858  25.952  22.916  1.00  0.00    -0.091 S 
ATOM     11  C   UNL A   1      31.013  25.805  24.652  1.00  0.00     0.063 A 
ATOM     12  C   UNL A   1      30.033  25.875  25.764  1.00  0.00     0.068 C 
BRANCH   8  13
ATOM     13  N   UNL A   1      32.867  23.244  23.157  1.00  0.00    -0.328 N 
ATOM     14  H   UNL A   1      32.340  22.688  22.538  1.00  0.00     0.169 HD
BRANCH  13  15
ATOM     15  C   UNL A   1      34.097  22.695  23.586  1.00  0.00     0.083 A 
ATOM     16  C   UNL A   1      34.087  21.649  24.533  1.00  0.00     0.142 A 
ATOM     17  C   UNL A   1      35.275  21.143  25.066  1.00  0.00     0.048 A 
ATOM     18  C   UNL A   1      36.502  21.629  24.620  1.00  0.00     0.004 A 
ATOM     19  C   UNL A   1      35.345  23.147  23.133  1.00  0.00     0.030 A 
ATOM     20  C   UNL A   1      36.536  22.624  23.647  1.00  0.00     0.002 A 
BRANCH  16  21
ATOM     21  O   UNL A   1      32.920  21.154  25.066  1.00  0.00    -0.495 OA
ATOM     22  C   UNL A   1      32.705  19.789  24.707  1.00  0.00     0.278 C 
ENDBRANCH  16  21
ENDBRANCH  13  15
ENDBRANCH   8  13
ENDBRANCH   4   7
ENDBRANCH   2   3
ENDBRANCH   1   2
BRANCH   1  23
ATOM     23  C   UNL A   1      35.368  29.536  27.522  1.00  0.00     0.118 C 
BRANCH  23  24
ATOM     24  N   UNL A   1      35.328  29.899  28.930  1.00  0.00    -0.352 N 
ATOM     25  C   UNL A   1      36.290  29.778  29.904  1.00  0.00     0.251 C 
ATOM     26  H   UNL A   1      34.478  30.292  29.233  1.00  0.00     0.163 HD
ATOM     27  O   UNL A   1      35.960  29.895  31.081  1.00  0.00    -0.269 OA
BRANCH  25  28
ATOM     28  C   UNL A   1      37.704  29.504  29.556  1.00  0.00     0.039 A 
ATOM     29  C   UNL A   1      38.603  29.199  30.584  1.00  0.00     0.014 A 
ATOM     30  C   UNL A   1      38.165  29.601  28.240  1.00  0.00     0.014 A 
ATOM     31  C   UNL A   1      39.943  28.934  30.286  1.00  0.00     0.010 A 
ATOM     32  C   UNL A   1      39.485  29.271  27.935  1.00  0.00     0.010 A 
ATOM     33  C   UNL A   1      40.389  28.934  28.955  1.00  0.00    -0.014 A 
BRANCH  33  34
ATOM     34  C   UNL A   1      41.785  28.565  28.608  1.00  0.00     0.031 A 
ATOM     35  C   UNL A   1      42.863  29.616  28.551  1.00  0.00     0.074 A 
ATOM     36  C   UNL A   1      42.068  27.291  28.270  1.00  0.00     0.049 A 
ATOM     37  N   UNL A   1      44.114  29.494  28.188  1.00  0.00    -0.248 NA
ATOM     38  C   UNL A   1      42.479  30.985  28.931  1.00  0.00     0.031 C 
ATOM     39  C   UNL A   1      41.104  26.187  28.248  1.00  0.00     0.029 A 
ATOM     40  N   UNL A   1      43.244  26.710  27.867  1.00  0.00    -0.354 N 
ATOM     41  C   UNL A   1      44.662  30.769  28.275  1.00  0.00     0.074 A 
ATOM     42  C   UNL A   1      43.597  31.656  28.693  1.00  0.00     0.031 C 
ATOM     43  C   UNL A   1      41.731  25.063  27.865  1.00  0.00     0.029 A 
ATOM     44  C   UNL A   1      43.127  25.371  27.577  1.00  0.00     0.049 A 
ATOM     45  H   UNL A   1      44.092  27.205  27.792  1.00  0.00     0.167 HD
ATOM     46  C   UNL A   1      45.937  31.162  28.043  1.00  0.00     0.031 A 
ATOM     47  C   UNL A   1      44.035  24.490  27.113  1.00  0.00     0.031 A 
ATOM     48  C   UNL A   1      46.997  30.273  27.642  1.00  0.00     0.049 A 
ATOM     49  C   UNL A   1      45.441  24.954  26.853  1.00  0.00     0.074 A 
ATOM     50  C   UNL A   1      48.336  30.565  27.449  1.00  0.00     0.029 A 
ATOM     51  N   UNL A   1      46.838  28.924  27.369  1.00  0.00    -0.354 N 
ATOM     52  N   UNL A   1      45.954  26.150  27.009  1.00  0.00    -0.248 NA
ATOM     53  C   UNL A   1      46.391  23.948  26.359  1.00  0.00     0.031 C 
ATOM     54  C   UNL A   1      48.978  29.402  27.010  1.00  0.00     0.029 A 
ATOM     55  C   UNL A   1      48.048  28.375  26.979  1.00  0.00     0.049 A 
ATOM     56  H   UNL A   1      45.990  28.428  27.441  1.00  0.00     0.167 HD
ATOM     57  C   UNL A   1      47.291  26.038  26.646  1.00  0.00     0.074 A 
ATOM     58  C   UNL A   1      47.511  24.653  26.283  1.00  0.00     0.031 C 
ATOM     59  C   UNL A   1      48.249  26.997  26.611  1.00  0.00     0.031 A 
BRANCH  46  60
ATOM     60  C   UNL A   1      46.261  32.623  28.211  1.00  0.00    -0.014 A 
ATOM     61  C   UNL A   1      46.703  33.131  29.446  1.00  0.00     0.010 A 
ATOM     62  C   UNL A   1      46.179  33.490  27.105  1.00  0.00     0.010 A 
ATOM     63  C   UNL A   1      47.023  34.485  29.581  1.00  0.00     0.020 A 
ATOM     64  C   UNL A   1      46.521  34.840  27.230  1.00  0.00     0.020 A 
ATOM     65  C   UNL A   1      46.927  35.331  28.472  1.00  0.00     0.054 A 
BRANCH  65  66
ATOM     66  S   UNL A   1      47.378  37.078  28.669  1.00  0.00     0.124 S 
ATOM     67  O   UNL A   1      46.497  37.494  29.757  1.00  0.00    -0.237 OA
ATOM     68  O   UNL A   1      48.798  37.007  29.004  1.00  0.00    -0.237 OA
ATOM     69  O   UNL A   1      47.077  37.663  27.365  1.00  0.00    -0.744 OA
ENDBRANCH  65  66
ENDBRANCH  46  60
BRANCH  47  70
ATOM     70  C   UNL A   1      43.638  23.079  26.859  1.00  0.00    -0.014 A 
ATOM     71  C   UNL A   1      43.868  22.488  25.606  1.00  0.00     0.010 A 
ATOM     72  C   UNL A   1      43.039  22.315  27.878  1.00  0.00     0.010 A 
ATOM     73  C   UNL A   1      43.491  21.163  25.368  1.00  0.00     0.020 A 
ATOM     74  C   UNL A   1      42.684  20.982  27.652  1.00  0.00     0.020 A 
ATOM     75  C   UNL A   1      42.901  20.418  26.393  1.00  0.00     0.054 A 
BRANCH  75  76
ATOM     76  S   UNL A   1      42.467  18.684  26.080  1.00  0.00     0.124 S 
ATOM     77  O   UNL A   1      42.711  18.071  27.382  1.00  0.00    -0.237 OA
ATOM     78  O   UNL A   1      41.066  18.776  25.675  1.00  0.00    -0.237 OA
ATOM     79  O   UNL A   1      43.388  18.290  25.017  1.00  0.00    -0.744 OA
ENDBRANCH  75  76
ENDBRANCH  47  70
BRANCH  59  80
ATOM     80  C   UNL A   1      49.627  26.578  26.178  1.00  0.00    -0.014 A 
ATOM     81  C   UNL A   1      50.081  26.831  24.871  1.00  0.00     0.010 A 
ATOM     82  C   UNL A   1      50.495  25.968  27.101  1.00  0.00     0.010 A 
ATOM     83  C   UNL A   1      51.371  26.456  24.487  1.00  0.00     0.020 A 
ATOM     84  C   UNL A   1      51.794  25.615  26.728  1.00  0.00     0.020 A 
ATOM     85  C   UNL A   1      52.219  25.849  25.419  1.00  0.00     0.054 A 
BRANCH  85  86
ATOM     86  S   UNL A   1      53.904  25.411  24.910  1.00  0.00     0.124 S 
ATOM     87  O   UNL A   1      54.705  25.980  25.989  1.00  0.00    -0.237 OA
ATOM     88  O   UNL A   1      53.857  23.951  24.865  1.00  0.00    -0.237 OA
ATOM     89  O   UNL A   1      54.053  26.062  23.611  1.00  0.00    -0.744 OA
ENDBRANCH  85  86
ENDBRANCH  59  80
ENDBRANCH  33  34
ENDBRANCH  25  28
ENDBRANCH  23  24
ENDBRANCH   1  23
TORSDOF 16
ENDMDL
