MODEL 1
REMARK VINA RESULT:     -11.3      0.000      0.000
REMARK SMILES CCS(=O)(=O)Nc1ccc(N2CC[NH+](C)CC2)cc1C(=O)NCCCNC(=O)c1ccc(-c2c3nc(c(-c4ccc(S(=O)(=O)[O-])cc4)c4ccc([nH]4)c(-c4ccc(S(=O)(=O)[O-])cc4)c4nc(c(-c5ccc(S(=O)(=O)[O-])cc5)c5ccc2[nH]5)C=C4)C=C3)cc1
REMARK SMILES IDX 24 1 23 2 22 3 20 4 21 5 19 7 7 8 8 9 9 10 18 11 10 12 6 13
REMARK SMILES IDX 3 15 4 16 5 17 2 18 1 19 11 20 12 21 17 22 13 23 16 24 14 25
REMARK SMILES IDX 15 26 25 28 26 29 27 30 28 32 29 33 30 34 88 35 31 36 87 37
REMARK SMILES IDX 32 38 33 39 34 40 81 41 35 42 86 43 80 44 82 45 36 46 85 47
REMARK SMILES IDX 79 48 78 49 37 51 67 52 48 53 66 54 49 55 52 56 65 57 83 58
REMARK SMILES IDX 50 59 51 60 64 62 84 63 53 64 38 65 39 66 47 67 40 68 46 69
REMARK SMILES IDX 41 70 42 71 43 72 44 73 45 74 68 75 69 76 77 77 70 78 76 79
REMARK SMILES IDX 71 80 72 81 73 82 74 83 75 84 54 85 55 86 63 87 56 88 62 89
REMARK SMILES IDX 57 90 58 91 59 92 60 93 61 94
REMARK H PARENT 22 6 6 14 14 27 26 31 82 50 52 61
REMARK Flexibility Score: inf
ROOT
ATOM      1  C   UNL A   1      37.910  21.578  25.112  1.00  0.00     0.042 C 
ENDROOT
BRANCH   1   2
ATOM      2  C   UNL A   1      36.851  22.579  25.535  1.00  0.00     0.118 C 
BRANCH   2   3
ATOM      3  N   UNL A   1      35.901  22.026  26.484  1.00  0.00    -0.352 N 
ATOM      4  C   UNL A   1      34.579  21.715  26.359  1.00  0.00     0.253 C 
ATOM      5  O   UNL A   1      33.990  21.291  27.355  1.00  0.00    -0.269 OA
ATOM      6  H   UNL A   1      36.277  21.844  27.375  1.00  0.00     0.163 HD
BRANCH   4   7
ATOM      7  C   UNL A   1      33.803  21.937  25.115  1.00  0.00     0.066 A 
ATOM      8  C   UNL A   1      32.971  21.017  24.472  1.00  0.00     0.061 A 
ATOM      9  C   UNL A   1      32.424  21.367  23.235  1.00  0.00     0.030 A 
ATOM     10  C   UNL A   1      32.566  22.655  22.723  1.00  0.00     0.028 A 
ATOM     11  C   UNL A   1      33.886  23.258  24.601  1.00  0.00     0.042 A 
ATOM     12  C   UNL A   1      33.220  23.663  23.436  1.00  0.00     0.038 A 
BRANCH   8  13
ATOM     13  N   UNL A   1      32.570  19.734  24.944  1.00  0.00    -0.283 N 
ATOM     14  H   UNL A   1      31.818  19.696  25.579  1.00  0.00     0.180 HD
BRANCH  13  15
ATOM     15  S   UNL A   1      33.279  18.291  24.497  1.00  0.00     0.232 S 
ATOM     16  O   UNL A   1      34.712  18.481  24.469  1.00  0.00    -0.207 OA
ATOM     17  O   UNL A   1      32.574  17.955  23.274  1.00  0.00    -0.207 OA
BRANCH  15  18
ATOM     18  C   UNL A   1      32.850  17.022  25.693  1.00  0.00     0.156 C 
ATOM     19  C   UNL A   1      32.906  15.602  25.172  1.00  0.00     0.023 C 
ENDBRANCH  15  18
ENDBRANCH  13  15
ENDBRANCH   8  13
BRANCH  12  20
ATOM     20  N   UNL A   1      33.142  24.980  23.041  1.00  0.00    -0.360 N 
ATOM     21  C   UNL A   1      33.615  26.120  23.842  1.00  0.00     0.178 C 
ATOM     22  C   UNL A   1      32.681  25.337  21.688  1.00  0.00     0.178 C 
ATOM     23  C   UNL A   1      32.579  27.276  23.825  1.00  0.00     0.283 C 
ATOM     24  C   UNL A   1      31.645  26.477  21.755  1.00  0.00     0.283 C 
ATOM     25  N   UNL A   1      32.158  27.670  22.459  1.00  0.00    -0.334 N 
ATOM     26  C   UNL A   1      31.129  28.706  22.510  1.00  0.00     0.332 C 
ATOM     27  H   UNL A   1      32.960  28.051  21.957  1.00  0.00     0.347 HD
ENDBRANCH  12  20
ENDBRANCH   4   7
ENDBRANCH   2   3
ENDBRANCH   1   2
BRANCH   1  28
ATOM     28  C   UNL A   1      39.131  21.532  26.028  1.00  0.00     0.118 C 
BRANCH  28  29
ATOM     29  N   UNL A   1      39.865  20.270  26.040  1.00  0.00    -0.352 N 
ATOM     30  C   UNL A   1      41.209  20.014  26.225  1.00  0.00     0.251 C 
ATOM     31  H   UNL A   1      39.311  19.470  25.891  1.00  0.00     0.163 HD
ATOM     32  O   UNL A   1      41.650  18.870  26.180  1.00  0.00    -0.269 OA
BRANCH  30  33
ATOM     33  C   UNL A   1      42.145  21.146  26.409  1.00  0.00     0.039 A 
ATOM     34  C   UNL A   1      42.520  21.905  25.299  1.00  0.00     0.014 A 
ATOM     35  C   UNL A   1      42.566  21.520  27.682  1.00  0.00     0.014 A 
ATOM     36  C   UNL A   1      43.176  23.124  25.488  1.00  0.00     0.010 A 
ATOM     37  C   UNL A   1      43.084  22.795  27.878  1.00  0.00     0.010 A 
ATOM     38  C   UNL A   1      43.378  23.625  26.785  1.00  0.00    -0.014 A 
BRANCH  38  39
ATOM     39  C   UNL A   1      43.846  25.017  27.032  1.00  0.00     0.031 A 
ATOM     40  C   UNL A   1      45.293  25.378  26.809  1.00  0.00     0.074 A 
ATOM     41  C   UNL A   1      43.004  25.926  27.570  1.00  0.00     0.049 A 
ATOM     42  N   UNL A   1      45.924  26.484  27.111  1.00  0.00    -0.248 NA
ATOM     43  C   UNL A   1      46.155  24.342  26.215  1.00  0.00     0.031 C 
ATOM     44  C   UNL A   1      41.596  25.692  27.908  1.00  0.00     0.029 A 
ATOM     45  N   UNL A   1      43.212  27.233  27.937  1.00  0.00    -0.354 N 
ATOM     46  C   UNL A   1      47.256  26.258  26.788  1.00  0.00     0.074 A 
ATOM     47  C   UNL A   1      47.354  24.894  26.322  1.00  0.00     0.031 C 
ATOM     48  C   UNL A   1      41.060  26.825  28.389  1.00  0.00     0.029 A 
ATOM     49  C   UNL A   1      42.093  27.853  28.445  1.00  0.00     0.049 A 
ATOM     50  H   UNL A   1      44.082  27.685  27.847  1.00  0.00     0.167 HD
ATOM     51  C   UNL A   1      48.304  27.115  26.847  1.00  0.00     0.031 A 
ATOM     52  C   UNL A   1      41.914  29.105  28.909  1.00  0.00     0.031 A 
ATOM     53  C   UNL A   1      48.197  28.488  27.257  1.00  0.00     0.049 A 
ATOM     54  C   UNL A   1      43.078  30.056  28.915  1.00  0.00     0.074 A 
ATOM     55  C   UNL A   1      49.181  29.461  27.273  1.00  0.00     0.029 A 
ATOM     56  N   UNL A   1      47.032  29.088  27.710  1.00  0.00    -0.354 N 
ATOM     57  N   UNL A   1      44.319  29.838  28.548  1.00  0.00    -0.248 NA
ATOM     58  C   UNL A   1      42.819  31.423  29.389  1.00  0.00     0.031 C 
ATOM     59  C   UNL A   1      48.618  30.643  27.767  1.00  0.00     0.029 A 
ATOM     60  C   UNL A   1      47.273  30.417  28.015  1.00  0.00     0.049 A 
ATOM     61  H   UNL A   1      46.161  28.636  27.800  1.00  0.00     0.167 HD
ATOM     62  C   UNL A   1      44.981  31.048  28.722  1.00  0.00     0.074 A 
ATOM     63  C   UNL A   1      44.002  31.996  29.213  1.00  0.00     0.031 C 
ATOM     64  C   UNL A   1      46.284  31.347  28.496  1.00  0.00     0.031 A 
BRANCH  51  65
ATOM     65  C   UNL A   1      49.655  26.586  26.441  1.00  0.00    -0.014 A 
ATOM     66  C   UNL A   1      50.174  26.830  25.157  1.00  0.00     0.010 A 
ATOM     67  C   UNL A   1      50.425  25.851  27.361  1.00  0.00     0.010 A 
ATOM     68  C   UNL A   1      51.412  26.304  24.780  1.00  0.00     0.020 A 
ATOM     69  C   UNL A   1      51.678  25.348  26.999  1.00  0.00     0.020 A 
ATOM     70  C   UNL A   1      52.154  25.559  25.702  1.00  0.00     0.054 A 
BRANCH  70  71
ATOM     71  S   UNL A   1      53.763  24.897  25.191  1.00  0.00     0.124 S 
ATOM     72  O   UNL A   1      53.468  23.474  25.046  1.00  0.00    -0.237 OA
ATOM     73  O   UNL A   1      54.025  25.614  23.945  1.00  0.00    -0.237 OA
ATOM     74  O   UNL A   1      54.647  25.241  26.301  1.00  0.00    -0.744 OA
ENDBRANCH  70  71
ENDBRANCH  51  65
BRANCH  52  75
ATOM     75  C   UNL A   1      40.571  29.543  29.380  1.00  0.00    -0.014 A 
ATOM     76  C   UNL A   1      39.617  30.015  28.460  1.00  0.00     0.010 A 
ATOM     77  C   UNL A   1      40.230  29.480  30.743  1.00  0.00     0.010 A 
ATOM     78  C   UNL A   1      38.356  30.434  28.896  1.00  0.00     0.020 A 
ATOM     79  C   UNL A   1      38.962  29.873  31.180  1.00  0.00     0.020 A 
ATOM     80  C   UNL A   1      38.035  30.359  30.255  1.00  0.00     0.054 A 
BRANCH  80  81
ATOM     81  S   UNL A   1      36.375  30.858  30.792  1.00  0.00     0.124 S 
ATOM     82  O   UNL A   1      36.588  32.247  31.186  1.00  0.00    -0.237 OA
ATOM     83  O   UNL A   1      35.577  30.657  29.584  1.00  0.00    -0.237 OA
ATOM     84  O   UNL A   1      36.079  29.934  31.884  1.00  0.00    -0.744 OA
ENDBRANCH  80  81
ENDBRANCH  52  75
BRANCH  64  85
ATOM     85  C   UNL A   1      46.722  32.764  28.740  1.00  0.00    -0.014 A 
ATOM     86  C   UNL A   1      46.589  33.748  27.746  1.00  0.00     0.010 A 
ATOM     87  C   UNL A   1      47.216  33.128  30.006  1.00  0.00     0.010 A 
ATOM     88  C   UNL A   1      46.964  35.068  28.006  1.00  0.00     0.020 A 
ATOM     89  C   UNL A   1      47.568  34.451  30.279  1.00  0.00     0.020 A 
ATOM     90  C   UNL A   1      47.452  35.412  29.272  1.00  0.00     0.054 A 
BRANCH  90  91
ATOM     91  S   UNL A   1      47.882  37.142  29.603  1.00  0.00     0.124 S 
ATOM     92  O   UNL A   1      49.287  37.037  29.986  1.00  0.00    -0.237 OA
ATOM     93  O   UNL A   1      47.627  37.789  28.318  1.00  0.00    -0.237 OA
ATOM     94  O   UNL A   1      46.969  37.526  30.678  1.00  0.00    -0.744 OA
ENDBRANCH  90  91
ENDBRANCH  64  85
ENDBRANCH  38  39
ENDBRANCH  30  33
ENDBRANCH  28  29
ENDBRANCH   1  28
TORSDOF 17
ENDMDL
MODEL 2
REMARK VINA RESULT:     -11.3      1.086      8.169
REMARK SMILES CCS(=O)(=O)Nc1ccc(N2CC[NH+](C)CC2)cc1C(=O)NCCCNC(=O)c1ccc(-c2c3nc(c(-c4ccc(S(=O)(=O)[O-])cc4)c4ccc([nH]4)c(-c4ccc(S(=O)(=O)[O-])cc4)c4nc(c(-c5ccc(S(=O)(=O)[O-])cc5)c5ccc2[nH]5)C=C4)C=C3)cc1
REMARK SMILES IDX 24 1 23 2 22 3 20 4 21 5 19 7 7 8 8 9 9 10 18 11 10 12 6 13
REMARK SMILES IDX 3 15 4 16 5 17 2 18 1 19 11 20 12 21 17 22 13 23 16 24 14 25
REMARK SMILES IDX 15 26 25 28 26 29 27 30 28 32 29 33 30 34 88 35 31 36 87 37
REMARK SMILES IDX 32 38 33 39 34 40 81 41 35 42 86 43 80 44 82 45 36 46 85 47
REMARK SMILES IDX 79 48 78 49 37 51 67 52 48 53 66 54 49 55 52 56 65 57 83 58
REMARK SMILES IDX 50 59 51 60 64 62 84 63 53 64 38 65 39 66 47 67 40 68 46 69
REMARK SMILES IDX 41 70 42 71 43 72 44 73 45 74 68 75 69 76 77 77 70 78 76 79
REMARK SMILES IDX 71 80 72 81 73 82 74 83 75 84 54 85 55 86 63 87 56 88 62 89
REMARK SMILES IDX 57 90 58 91 59 92 60 93 61 94
REMARK H PARENT 22 6 6 14 14 27 26 31 82 50 52 61
REMARK Flexibility Score: inf
ROOT
ATOM      1  C   UNL A   1      38.023  21.579  25.345  1.00  0.00     0.042 C 
ENDROOT
BRANCH   1   2
ATOM      2  C   UNL A   1      37.342  22.922  25.540  1.00  0.00     0.118 C 
BRANCH   2   3
ATOM      3  N   UNL A   1      36.257  22.867  26.503  1.00  0.00    -0.352 N 
ATOM      4  C   UNL A   1      34.916  23.076  26.365  1.00  0.00     0.253 C 
ATOM      5  O   UNL A   1      34.214  23.006  27.375  1.00  0.00    -0.269 OA
ATOM      6  H   UNL A   1      36.538  22.640  27.419  1.00  0.00     0.163 HD
BRANCH   4   7
ATOM      7  C   UNL A   1      34.279  23.459  25.081  1.00  0.00     0.066 A 
ATOM      8  C   UNL A   1      33.922  22.603  24.036  1.00  0.00     0.061 A 
ATOM      9  C   UNL A   1      33.451  23.167  22.847  1.00  0.00     0.030 A 
ATOM     10  C   UNL A   1      33.185  24.532  22.754  1.00  0.00     0.028 A 
ATOM     11  C   UNL A   1      33.947  24.835  24.980  1.00  0.00     0.042 A 
ATOM     12  C   UNL A   1      33.336  25.388  23.847  1.00  0.00     0.038 A 
BRANCH   8  13
ATOM     13  N   UNL A   1      33.952  21.179  24.033  1.00  0.00    -0.283 N 
ATOM     14  H   UNL A   1      34.832  20.742  23.967  1.00  0.00     0.180 HD
BRANCH  13  15
ATOM     15  S   UNL A   1      32.606  20.199  24.133  1.00  0.00     0.232 S 
ATOM     16  O   UNL A   1      32.075  20.019  22.800  1.00  0.00    -0.207 OA
ATOM     17  O   UNL A   1      31.803  20.863  25.143  1.00  0.00    -0.207 OA
BRANCH  15  18
ATOM     18  C   UNL A   1      33.077  18.611  24.827  1.00  0.00     0.156 C 
ATOM     19  C   UNL A   1      33.786  17.675  23.871  1.00  0.00     0.023 C 
ENDBRANCH  15  18
ENDBRANCH  13  15
ENDBRANCH   8  13
BRANCH  12  20
ATOM     20  N   UNL A   1      32.842  26.674  23.818  1.00  0.00    -0.360 N 
ATOM     21  C   UNL A   1      33.631  27.862  23.454  1.00  0.00     0.178 C 
ATOM     22  C   UNL A   1      31.409  26.938  24.033  1.00  0.00     0.178 C 
ATOM     23  C   UNL A   1      33.358  29.031  24.437  1.00  0.00     0.283 C 
ATOM     24  C   UNL A   1      31.219  28.098  25.032  1.00  0.00     0.283 C 
ATOM     25  N   UNL A   1      31.915  29.331  24.610  1.00  0.00    -0.334 N 
ATOM     26  C   UNL A   1      31.718  30.385  25.602  1.00  0.00     0.332 C 
ATOM     27  H   UNL A   1      31.533  29.660  23.724  1.00  0.00     0.347 HD
ENDBRANCH  12  20
ENDBRANCH   4   7
ENDBRANCH   2   3
ENDBRANCH   1   2
BRANCH   1  28
ATOM     28  C   UNL A   1      39.314  21.410  26.144  1.00  0.00     0.118 C 
BRANCH  28  29
ATOM     29  N   UNL A   1      40.000  20.133  25.971  1.00  0.00    -0.352 N 
ATOM     30  C   UNL A   1      41.336  19.806  26.102  1.00  0.00     0.251 C 
ATOM     31  H   UNL A   1      39.416  19.382  25.719  1.00  0.00     0.163 HD
ATOM     32  O   UNL A   1      41.733  18.665  25.893  1.00  0.00    -0.269 OA
BRANCH  30  33
ATOM     33  C   UNL A   1      42.314  20.868  26.430  1.00  0.00     0.039 A 
ATOM     34  C   UNL A   1      42.981  21.522  25.392  1.00  0.00     0.014 A 
ATOM     35  C   UNL A   1      42.495  21.286  27.745  1.00  0.00     0.014 A 
ATOM     36  C   UNL A   1      43.694  22.693  25.661  1.00  0.00     0.010 A 
ATOM     37  C   UNL A   1      43.077  22.524  27.989  1.00  0.00     0.010 A 
ATOM     38  C   UNL A   1      43.667  23.256  26.947  1.00  0.00    -0.014 A 
BRANCH  38  39
ATOM     39  C   UNL A   1      44.202  24.618  27.226  1.00  0.00     0.031 A 
ATOM     40  C   UNL A   1      43.273  25.717  27.679  1.00  0.00     0.074 A 
ATOM     41  C   UNL A   1      45.495  24.902  26.959  1.00  0.00     0.049 A 
ATOM     42  N   UNL A   1      43.515  26.994  27.824  1.00  0.00    -0.248 NA
ATOM     43  C   UNL A   1      41.878  25.337  27.957  1.00  0.00     0.031 C 
ATOM     44  C   UNL A   1      46.490  23.955  26.444  1.00  0.00     0.029 A 
ATOM     45  N   UNL A   1      46.197  26.077  27.075  1.00  0.00    -0.354 N 
ATOM     46  C   UNL A   1      42.297  27.572  28.162  1.00  0.00     0.074 A 
ATOM     47  C   UNL A   1      41.309  26.518  28.144  1.00  0.00     0.031 C 
ATOM     48  C   UNL A   1      47.676  24.573  26.333  1.00  0.00     0.029 A 
ATOM     49  C   UNL A   1      47.521  25.971  26.715  1.00  0.00     0.049 A 
ATOM     50  H   UNL A   1      45.790  26.919  27.385  1.00  0.00     0.167 HD
ATOM     51  C   UNL A   1      42.026  28.859  28.485  1.00  0.00     0.031 A 
ATOM     52  C   UNL A   1      48.503  26.895  26.689  1.00  0.00     0.031 A 
ATOM     53  C   UNL A   1      43.018  29.897  28.556  1.00  0.00     0.049 A 
ATOM     54  C   UNL A   1      48.191  28.305  27.103  1.00  0.00     0.074 A 
ATOM     55  C   UNL A   1      42.860  31.212  28.953  1.00  0.00     0.029 A 
ATOM     56  N   UNL A   1      44.357  29.731  28.237  1.00  0.00    -0.354 N 
ATOM     57  N   UNL A   1      47.043  28.818  27.478  1.00  0.00    -0.248 NA
ATOM     58  C   UNL A   1      49.307  29.262  27.100  1.00  0.00     0.031 C 
ATOM     59  C   UNL A   1      44.100  31.852  28.843  1.00  0.00     0.029 A 
ATOM     60  C   UNL A   1      45.037  30.923  28.421  1.00  0.00     0.049 A 
ATOM     61  H   UNL A   1      44.764  28.890  27.927  1.00  0.00     0.167 HD
ATOM     62  C   UNL A   1      47.304  30.149  27.780  1.00  0.00     0.074 A 
ATOM     63  C   UNL A   1      48.720  30.359  27.558  1.00  0.00     0.031 C 
ATOM     64  C   UNL A   1      46.448  31.111  28.203  1.00  0.00     0.031 A 
BRANCH  51  65
ATOM     65  C   UNL A   1      40.594  29.208  28.799  1.00  0.00    -0.014 A 
ATOM     66  C   UNL A   1      39.632  29.317  27.779  1.00  0.00     0.010 A 
ATOM     67  C   UNL A   1      40.200  29.412  30.134  1.00  0.00     0.010 A 
ATOM     68  C   UNL A   1      38.317  29.677  28.079  1.00  0.00     0.020 A 
ATOM     69  C   UNL A   1      38.877  29.742  30.443  1.00  0.00     0.020 A 
ATOM     70  C   UNL A   1      37.948  29.894  29.411  1.00  0.00     0.054 A 
BRANCH  70  71
ATOM     71  S   UNL A   1      36.231  30.349  29.775  1.00  0.00     0.124 S 
ATOM     72  O   UNL A   1      35.982  29.614  31.012  1.00  0.00    -0.237 OA
ATOM     73  O   UNL A   1      36.305  31.802  29.912  1.00  0.00    -0.237 OA
ATOM     74  O   UNL A   1      35.493  29.875  28.607  1.00  0.00    -0.744 OA
ENDBRANCH  70  71
ENDBRANCH  51  65
BRANCH  52  75
ATOM     75  C   UNL A   1      49.882  26.507  26.283  1.00  0.00    -0.014 A 
ATOM     76  C   UNL A   1      50.324  26.736  24.967  1.00  0.00     0.010 A 
ATOM     77  C   UNL A   1      50.766  25.920  27.206  1.00  0.00     0.010 A 
ATOM     78  C   UNL A   1      51.615  26.368  24.577  1.00  0.00     0.020 A 
ATOM     79  C   UNL A   1      52.067  25.575  26.827  1.00  0.00     0.020 A 
ATOM     80  C   UNL A   1      52.480  25.790  25.510  1.00  0.00     0.054 A 
BRANCH  80  81
ATOM     81  S   UNL A   1      54.169  25.369  24.996  1.00  0.00     0.124 S 
ATOM     82  O   UNL A   1      54.121  23.911  24.963  1.00  0.00    -0.237 OA
ATOM     83  O   UNL A   1      54.280  26.030  23.697  1.00  0.00    -0.237 OA
ATOM     84  O   UNL A   1      55.000  25.946  26.051  1.00  0.00    -0.744 OA
ENDBRANCH  80  81
ENDBRANCH  52  75
BRANCH  64  85
ATOM     85  C   UNL A   1      47.021  32.471  28.491  1.00  0.00    -0.014 A 
ATOM     86  C   UNL A   1      47.060  33.468  27.502  1.00  0.00     0.010 A 
ATOM     87  C   UNL A   1      47.468  32.772  29.790  1.00  0.00     0.010 A 
ATOM     88  C   UNL A   1      47.559  34.738  27.801  1.00  0.00     0.020 A 
ATOM     89  C   UNL A   1      47.944  34.048  30.100  1.00  0.00     0.020 A 
ATOM     90  C   UNL A   1      47.999  35.020  29.099  1.00  0.00     0.054 A 
BRANCH  90  91
ATOM     91  S   UNL A   1      48.592  36.691  29.478  1.00  0.00     0.124 S 
ATOM     92  O   UNL A   1      48.290  36.805  30.902  1.00  0.00    -0.237 OA
ATOM     93  O   UNL A   1      50.012  36.612  29.141  1.00  0.00    -0.237 OA
ATOM     94  O   UNL A   1      47.798  37.548  28.601  1.00  0.00    -0.744 OA
ENDBRANCH  90  91
ENDBRANCH  64  85
ENDBRANCH  38  39
ENDBRANCH  30  33
ENDBRANCH  28  29
ENDBRANCH   1  28
TORSDOF 17
ENDMDL
MODEL 3
REMARK VINA RESULT:     -10.8      5.898      7.591
REMARK SMILES CCS(=O)(=O)Nc1ccc(N2CC[NH+](C)CC2)cc1C(=O)NCCCNC(=O)c1ccc(-c2c3nc(c(-c4ccc(S(=O)(=O)[O-])cc4)c4ccc([nH]4)c(-c4ccc(S(=O)(=O)[O-])cc4)c4nc(c(-c5ccc(S(=O)(=O)[O-])cc5)c5ccc2[nH]5)C=C4)C=C3)cc1
REMARK SMILES IDX 24 1 23 2 22 3 20 4 21 5 19 7 7 8 8 9 9 10 18 11 10 12 6 13
REMARK SMILES IDX 3 15 4 16 5 17 2 18 1 19 11 20 12 21 17 22 13 23 16 24 14 25
REMARK SMILES IDX 15 26 25 28 26 29 27 30 28 32 29 33 30 34 88 35 31 36 87 37
REMARK SMILES IDX 32 38 33 39 34 40 81 41 35 42 86 43 80 44 82 45 36 46 85 47
REMARK SMILES IDX 79 48 78 49 37 51 67 52 48 53 66 54 49 55 52 56 65 57 83 58
REMARK SMILES IDX 50 59 51 60 64 62 84 63 53 64 38 65 39 66 47 67 40 68 46 69
REMARK SMILES IDX 41 70 42 71 43 72 44 73 45 74 68 75 69 76 77 77 70 78 76 79
REMARK SMILES IDX 71 80 72 81 73 82 74 83 75 84 54 85 55 86 63 87 56 88 62 89
REMARK SMILES IDX 57 90 58 91 59 92 60 93 61 94
REMARK H PARENT 22 6 6 14 14 27 26 31 82 50 52 61
REMARK Flexibility Score: inf
ROOT
ATOM      1  C   UNL A   1      38.385  21.999  25.750  1.00  0.00     0.042 C 
ENDROOT
BRANCH   1   2
ATOM      2  C   UNL A   1      37.180  22.763  25.230  1.00  0.00     0.118 C 
BRANCH   2   3
ATOM      3  N   UNL A   1      36.099  22.832  26.196  1.00  0.00    -0.352 N 
ATOM      4  C   UNL A   1      34.857  23.391  26.121  1.00  0.00     0.253 C 
ATOM      5  O   UNL A   1      34.142  23.342  27.123  1.00  0.00    -0.269 OA
ATOM      6  H   UNL A   1      36.297  22.401  27.059  1.00  0.00     0.163 HD
BRANCH   4   7
ATOM      7  C   UNL A   1      34.361  24.119  24.928  1.00  0.00     0.066 A 
ATOM      8  C   UNL A   1      33.957  23.559  23.714  1.00  0.00     0.061 A 
ATOM      9  C   UNL A   1      33.644  24.418  22.657  1.00  0.00     0.030 A 
ATOM     10  C   UNL A   1      33.574  25.797  22.847  1.00  0.00     0.028 A 
ATOM     11  C   UNL A   1      34.228  25.521  25.111  1.00  0.00     0.042 A 
ATOM     12  C   UNL A   1      33.772  26.378  24.101  1.00  0.00     0.038 A 
BRANCH   8  13
ATOM     13  N   UNL A   1      33.791  22.177  23.409  1.00  0.00    -0.283 N 
ATOM     14  H   UNL A   1      34.560  21.700  23.022  1.00  0.00     0.180 HD
BRANCH  13  15
ATOM     15  S   UNL A   1      32.389  21.308  23.662  1.00  0.00     0.232 S 
ATOM     16  O   UNL A   1      31.778  21.050  22.377  1.00  0.00    -0.207 OA
ATOM     17  O   UNL A   1      31.687  22.115  24.643  1.00  0.00    -0.207 OA
BRANCH  15  18
ATOM     18  C   UNL A   1      32.788  19.759  24.476  1.00  0.00     0.156 C 
ATOM     19  C   UNL A   1      34.210  19.647  24.987  1.00  0.00     0.023 C 
ENDBRANCH  15  18
ENDBRANCH  13  15
ENDBRANCH   8  13
BRANCH  12  20
ATOM     20  N   UNL A   1      33.462  27.701  24.329  1.00  0.00    -0.360 N 
ATOM     21  C   UNL A   1      34.271  28.617  25.150  1.00  0.00     0.178 C 
ATOM     22  C   UNL A   1      32.329  28.342  23.639  1.00  0.00     0.178 C 
ATOM     23  C   UNL A   1      33.370  29.461  26.090  1.00  0.00     0.283 C 
ATOM     24  C   UNL A   1      31.474  29.146  24.640  1.00  0.00     0.283 C 
ATOM     25  N   UNL A   1      32.261  30.149  25.384  1.00  0.00    -0.334 N 
ATOM     26  C   UNL A   1      31.405  30.862  26.328  1.00  0.00     0.332 C 
ATOM     27  H   UNL A   1      32.651  30.834  24.736  1.00  0.00     0.347 HD
ENDBRANCH  12  20
ENDBRANCH   4   7
ENDBRANCH   2   3
ENDBRANCH   1   2
BRANCH   1  28
ATOM     28  C   UNL A   1      39.321  22.827  26.628  1.00  0.00     0.118 C 
BRANCH  28  29
ATOM     29  N   UNL A   1      40.681  22.990  26.122  1.00  0.00    -0.352 N 
ATOM     30  C   UNL A   1      41.583  24.023  26.287  1.00  0.00     0.251 C 
ATOM     31  H   UNL A   1      41.009  22.242  25.572  1.00  0.00     0.163 HD
ATOM     32  O   UNL A   1      42.690  23.989  25.760  1.00  0.00    -0.269 OA
BRANCH  30  33
ATOM     33  C   UNL A   1      41.181  25.223  27.055  1.00  0.00     0.039 A 
ATOM     34  C   UNL A   1      40.109  25.131  27.946  1.00  0.00     0.014 A 
ATOM     35  C   UNL A   1      41.921  26.399  26.976  1.00  0.00     0.014 A 
ATOM     36  C   UNL A   1      39.889  26.159  28.867  1.00  0.00     0.010 A 
ATOM     37  C   UNL A   1      41.795  27.349  27.982  1.00  0.00     0.010 A 
ATOM     38  C   UNL A   1      40.790  27.233  28.956  1.00  0.00    -0.014 A 
BRANCH  38  39
ATOM     39  C   UNL A   1      40.740  28.218  30.071  1.00  0.00     0.031 A 
ATOM     40  C   UNL A   1      41.664  28.070  31.253  1.00  0.00     0.074 A 
ATOM     41  C   UNL A   1      39.786  29.175  30.083  1.00  0.00     0.049 A 
ATOM     42  N   UNL A   1      41.670  28.728  32.384  1.00  0.00    -0.248 NA
ATOM     43  C   UNL A   1      42.684  27.011  31.173  1.00  0.00     0.031 C 
ATOM     44  C   UNL A   1      38.776  29.388  29.040  1.00  0.00     0.029 A 
ATOM     45  N   UNL A   1      39.502  30.147  31.011  1.00  0.00    -0.354 N 
ATOM     46  C   UNL A   1      42.656  28.132  33.162  1.00  0.00     0.074 A 
ATOM     47  C   UNL A   1      43.186  27.026  32.398  1.00  0.00     0.031 C 
ATOM     48  C   UNL A   1      38.017  30.446  29.366  1.00  0.00     0.029 A 
ATOM     49  C   UNL A   1      38.447  30.958  30.662  1.00  0.00     0.049 A 
ATOM     50  H   UNL A   1      40.006  30.252  31.850  1.00  0.00     0.167 HD
ATOM     51  C   UNL A   1      43.101  28.487  34.391  1.00  0.00     0.031 A 
ATOM     52  C   UNL A   1      37.882  31.996  31.310  1.00  0.00     0.031 A 
ATOM     53  C   UNL A   1      42.612  29.620  35.127  1.00  0.00     0.049 A 
ATOM     54  C   UNL A   1      38.428  32.406  32.649  1.00  0.00     0.074 A 
ATOM     55  C   UNL A   1      43.054  30.113  36.341  1.00  0.00     0.029 A 
ATOM     56  N   UNL A   1      41.581  30.447  34.709  1.00  0.00    -0.354 N 
ATOM     57  N   UNL A   1      39.402  31.864  33.341  1.00  0.00    -0.248 NA
ATOM     58  C   UNL A   1      37.805  33.571  33.293  1.00  0.00     0.031 C 
ATOM     59  C   UNL A   1      42.266  31.221  36.675  1.00  0.00     0.029 A 
ATOM     60  C   UNL A   1      41.366  31.443  35.646  1.00  0.00     0.049 A 
ATOM     61  H   UNL A   1      41.076  30.342  33.870  1.00  0.00     0.167 HD
ATOM     62  C   UNL A   1      39.527  32.639  34.488  1.00  0.00     0.074 A 
ATOM     63  C   UNL A   1      38.538  33.693  34.392  1.00  0.00     0.031 C 
ATOM     64  C   UNL A   1      40.382  32.489  35.529  1.00  0.00     0.031 A 
BRANCH  51  65
ATOM     65  C   UNL A   1      44.186  27.641  35.005  1.00  0.00    -0.014 A 
ATOM     66  C   UNL A   1      43.876  26.470  35.720  1.00  0.00     0.010 A 
ATOM     67  C   UNL A   1      45.534  28.011  34.853  1.00  0.00     0.010 A 
ATOM     68  C   UNL A   1      44.887  25.714  36.317  1.00  0.00     0.020 A 
ATOM     69  C   UNL A   1      46.553  27.241  35.422  1.00  0.00     0.020 A 
ATOM     70  C   UNL A   1      46.221  26.108  36.170  1.00  0.00     0.054 A 
BRANCH  70  71
ATOM     71  S   UNL A   1      47.516  25.103  36.945  1.00  0.00     0.124 S 
ATOM     72  O   UNL A   1      48.503  25.007  35.873  1.00  0.00    -0.237 OA
ATOM     73  O   UNL A   1      47.912  25.918  38.092  1.00  0.00    -0.237 OA
ATOM     74  O   UNL A   1      46.832  23.856  37.278  1.00  0.00    -0.744 OA
ENDBRANCH  70  71
ENDBRANCH  51  65
BRANCH  52  75
ATOM     75  C   UNL A   1      36.751  32.739  30.688  1.00  0.00    -0.014 A 
ATOM     76  C   UNL A   1      37.005  33.801  29.801  1.00  0.00     0.010 A 
ATOM     77  C   UNL A   1      35.418  32.386  30.965  1.00  0.00     0.010 A 
ATOM     78  C   UNL A   1      35.949  34.508  29.218  1.00  0.00     0.020 A 
ATOM     79  C   UNL A   1      34.360  33.074  30.364  1.00  0.00     0.020 A 
ATOM     80  C   UNL A   1      34.631  34.139  29.503  1.00  0.00     0.054 A 
BRANCH  80  81
ATOM     81  S   UNL A   1      33.276  35.036  28.695  1.00  0.00     0.124 S 
ATOM     82  O   UNL A   1      33.998  35.997  27.869  1.00  0.00    -0.237 OA
ATOM     83  O   UNL A   1      32.579  33.974  27.971  1.00  0.00    -0.237 OA
ATOM     84  O   UNL A   1      32.530  35.606  29.815  1.00  0.00    -0.744 OA
ENDBRANCH  80  81
ENDBRANCH  52  75
BRANCH  64  85
ATOM     85  C   UNL A   1      40.317  33.510  36.631  1.00  0.00    -0.014 A 
ATOM     86  C   UNL A   1      41.076  34.691  36.575  1.00  0.00     0.010 A 
ATOM     87  C   UNL A   1      39.434  33.310  37.708  1.00  0.00     0.010 A 
ATOM     88  C   UNL A   1      40.970  35.645  37.589  1.00  0.00     0.020 A 
ATOM     89  C   UNL A   1      39.306  34.272  38.711  1.00  0.00     0.020 A 
ATOM     90  C   UNL A   1      40.086  35.430  38.652  1.00  0.00     0.054 A 
BRANCH  90  91
ATOM     91  S   UNL A   1      39.926  36.707  39.929  1.00  0.00     0.124 S 
ATOM     92  O   UNL A   1      41.322  37.026  40.216  1.00  0.00    -0.237 OA
ATOM     93  O   UNL A   1      39.169  37.753  39.245  1.00  0.00    -0.237 OA
ATOM     94  O   UNL A   1      39.207  36.031  41.007  1.00  0.00    -0.744 OA
ENDBRANCH  90  91
ENDBRANCH  64  85
ENDBRANCH  38  39
ENDBRANCH  30  33
ENDBRANCH  28  29
ENDBRANCH   1  28
TORSDOF 17
ENDMDL
