MODEL 1
REMARK VINA RESULT:     -10.3      0.000      0.000
REMARK SMILES CC(C)c1ccc(C[N@@H+](CC(=O)NCCCNC(=O)c2ccc(-c3c4nc(c(-c5ccc(S(=O)(=O)[O-])cc5)c5ccc([nH]5)c(-c5ccc(S(=O)(=O)[O-])cc5)c5nc(c(-c6ccc(S(=O)(=O)[O-])cc6)c6ccc3[nH]6)C=C5)C=C4)cc2)CC(F)(F)F)cc1
REMARK SMILES IDX 14 1 13 2 11 3 12 4 10 6 9 7 8 9 7 10 4 11 5 12 86 13 6 14
REMARK SMILES IDX 85 15 2 16 1 17 3 18 80 19 81 20 82 21 83 22 84 23 15 24
REMARK SMILES IDX 16 25 17 26 18 27 19 29 20 30 21 31 79 32 22 33 78 34 23 35
REMARK SMILES IDX 24 36 25 37 72 38 26 39 77 40 71 41 73 42 27 43 76 44 70 45
REMARK SMILES IDX 69 46 28 48 58 49 39 50 57 51 40 52 43 53 56 54 74 55 41 56
REMARK SMILES IDX 42 57 55 59 75 60 44 61 29 62 30 63 38 64 31 65 37 66 32 67
REMARK SMILES IDX 33 68 34 69 35 70 36 71 59 72 60 73 68 74 61 75 67 76 62 77
REMARK SMILES IDX 63 78 64 79 65 80 66 81 45 82 46 83 54 84 47 85 53 86 48 87
REMARK SMILES IDX 49 88 50 89 51 90 52 91
REMARK H PARENT 13 5 9 8 17 28 73 47 43 58
REMARK Flexibility Score: inf
ROOT
ATOM      1  C   UNL A   1      32.225  27.666  26.860  1.00  0.00     0.118 C 
ENDROOT
BRANCH   1   2
ATOM      2  N   UNL A   1      31.749  26.364  27.312  1.00  0.00    -0.351 N 
ATOM      3  C   UNL A   1      31.229  25.289  26.655  1.00  0.00     0.275 C 
ATOM      4  O   UNL A   1      31.060  24.262  27.321  1.00  0.00    -0.269 OA
ATOM      5  H   UNL A   1      31.818  26.235  28.286  1.00  0.00     0.163 HD
BRANCH   3   6
ATOM      6  C   UNL A   1      30.873  25.292  25.162  1.00  0.00     0.364 C 
BRANCH   6   7
ATOM      7  N   UNL A   1      32.010  25.219  24.200  1.00  0.00    -0.316 N 
ATOM      8  H   UNL A   1      32.824  25.641  24.646  1.00  0.00     0.349 HD
BRANCH   7   9
ATOM      9  C   UNL A   1      31.703  26.010  23.016  1.00  0.00     0.299 C 
BRANCH   9  10
ATOM     10  C   UNL A   1      30.767  27.186  23.100  1.00  0.00     0.006 A 
ATOM     11  C   UNL A   1      28.911  29.291  22.692  1.00  0.00    -0.045 A 
ATOM     12  C   UNL A   1      28.527  28.087  23.311  1.00  0.00     0.004 A 
ATOM     13  C   UNL A   1      30.260  29.451  22.361  1.00  0.00     0.004 A 
ATOM     14  C   UNL A   1      29.441  27.043  23.512  1.00  0.00     0.010 A 
ATOM     15  C   UNL A   1      31.173  28.418  22.565  1.00  0.00     0.010 A 
BRANCH  11  16
ATOM     16  C   UNL A   1      27.861  30.356  22.382  1.00  0.00     0.013 C 
ATOM     17  C   UNL A   1      27.473  31.252  23.569  1.00  0.00     0.012 C 
ATOM     18  C   UNL A   1      28.317  31.258  21.226  1.00  0.00     0.012 C 
ENDBRANCH  11  16
ENDBRANCH   9  10
ENDBRANCH   7   9
BRANCH   7  19
ATOM     19  C   UNL A   1      32.500  23.839  23.926  1.00  0.00     0.380 C 
BRANCH  19  20
ATOM     20  C   UNL A   1      33.741  23.507  23.054  1.00  0.00     0.438 C 
ATOM     21  F   UNL A   1      34.304  22.319  23.363  1.00  0.00    -0.165 F 
ATOM     22  F   UNL A   1      33.399  23.457  21.743  1.00  0.00    -0.165 F 
ATOM     23  F   UNL A   1      34.695  24.457  23.164  1.00  0.00    -0.165 F 
ENDBRANCH  19  20
ENDBRANCH   7  19
ENDBRANCH   6   7
ENDBRANCH   3   6
ENDBRANCH   1   2
BRANCH   1  24
ATOM     24  C   UNL A   1      33.648  27.642  26.280  1.00  0.00     0.042 C 
BRANCH  24  25
ATOM     25  C   UNL A   1      34.114  28.937  25.625  1.00  0.00     0.118 C 
BRANCH  25  26
ATOM     26  N   UNL A   1      33.884  30.088  26.476  1.00  0.00    -0.352 N 
ATOM     27  C   UNL A   1      34.581  30.556  27.566  1.00  0.00     0.251 C 
ATOM     28  H   UNL A   1      33.096  30.626  26.234  1.00  0.00     0.163 HD
ATOM     29  O   UNL A   1      34.045  31.410  28.270  1.00  0.00    -0.269 OA
BRANCH  27  30
ATOM     30  C   UNL A   1      35.938  30.062  27.927  1.00  0.00     0.039 A 
ATOM     31  C   UNL A   1      36.129  29.537  29.211  1.00  0.00     0.014 A 
ATOM     32  C   UNL A   1      37.046  30.202  27.085  1.00  0.00     0.014 A 
ATOM     33  C   UNL A   1      37.402  29.131  29.634  1.00  0.00     0.010 A 
ATOM     34  C   UNL A   1      38.302  29.727  27.480  1.00  0.00     0.010 A 
ATOM     35  C   UNL A   1      38.502  29.205  28.766  1.00  0.00    -0.014 A 
BRANCH  35  36
ATOM     36  C   UNL A   1      39.863  28.787  29.208  1.00  0.00     0.031 A 
ATOM     37  C   UNL A   1      40.722  29.718  30.030  1.00  0.00     0.074 A 
ATOM     38  C   UNL A   1      40.352  27.583  28.848  1.00  0.00     0.049 A 
ATOM     39  N   UNL A   1      41.945  29.545  30.467  1.00  0.00    -0.248 NA
ATOM     40  C   UNL A   1      40.137  31.020  30.390  1.00  0.00     0.031 C 
ATOM     41  C   UNL A   1      39.650  26.591  28.031  1.00  0.00     0.029 A 
ATOM     42  N   UNL A   1      41.561  26.990  29.122  1.00  0.00    -0.354 N 
ATOM     43  C   UNL A   1      42.284  30.722  31.127  1.00  0.00     0.074 A 
ATOM     44  C   UNL A   1      41.151  31.614  31.003  1.00  0.00     0.031 C 
ATOM     45  C   UNL A   1      40.429  25.506  27.891  1.00  0.00     0.029 A 
ATOM     46  C   UNL A   1      41.698  25.735  28.576  1.00  0.00     0.049 A 
ATOM     47  H   UNL A   1      42.264  27.423  29.658  1.00  0.00     0.167 HD
ATOM     48  C   UNL A   1      43.424  31.031  31.792  1.00  0.00     0.031 A 
ATOM     49  C   UNL A   1      42.726  24.865  28.617  1.00  0.00     0.031 A 
ATOM     50  C   UNL A   1      44.545  30.142  31.945  1.00  0.00     0.049 A 
ATOM     51  C   UNL A   1      43.976  25.222  29.371  1.00  0.00     0.074 A 
ATOM     52  C   UNL A   1      45.720  30.351  32.648  1.00  0.00     0.029 A 
ATOM     53  N   UNL A   1      44.632  28.875  31.391  1.00  0.00    -0.354 N 
ATOM     54  N   UNL A   1      44.254  26.321  30.031  1.00  0.00    -0.248 NA
ATOM     55  C   UNL A   1      45.048  24.215  29.398  1.00  0.00     0.031 C 
ATOM     56  C   UNL A   1      46.532  29.222  32.489  1.00  0.00     0.029 A 
ATOM     57  C   UNL A   1      45.845  28.295  31.723  1.00  0.00     0.049 A 
ATOM     58  H   UNL A   1      43.934  28.450  30.842  1.00  0.00     0.167 HD
ATOM     59  C   UNL A   1      45.524  26.130  30.566  1.00  0.00     0.074 A 
ATOM     60  C   UNL A   1      45.953  24.806  30.167  1.00  0.00     0.031 C 
ATOM     61  C   UNL A   1      46.264  26.977  31.322  1.00  0.00     0.031 A 
BRANCH  48  62
ATOM     62  C   UNL A   1      43.517  32.404  32.405  1.00  0.00    -0.014 A 
ATOM     63  C   UNL A   1      43.068  32.645  33.717  1.00  0.00     0.010 A 
ATOM     64  C   UNL A   1      44.093  33.459  31.674  1.00  0.00     0.010 A 
ATOM     65  C   UNL A   1      43.149  33.926  34.268  1.00  0.00     0.020 A 
ATOM     66  C   UNL A   1      44.199  34.737  32.232  1.00  0.00     0.020 A 
ATOM     67  C   UNL A   1      43.707  34.966  33.519  1.00  0.00     0.054 A 
BRANCH  67  68
ATOM     68  S   UNL A   1      43.809  36.619  34.260  1.00  0.00     0.124 S 
ATOM     69  O   UNL A   1      43.028  37.418  33.319  1.00  0.00    -0.237 OA
ATOM     70  O   UNL A   1      43.198  36.423  35.572  1.00  0.00    -0.237 OA
ATOM     71  O   UNL A   1      45.242  36.901  34.280  1.00  0.00    -0.744 OA
ENDBRANCH  67  68
ENDBRANCH  48  62
BRANCH  49  72
ATOM     72  C   UNL A   1      42.607  23.553  27.926  1.00  0.00    -0.014 A 
ATOM     73  C   UNL A   1      43.144  23.375  26.638  1.00  0.00     0.010 A 
ATOM     74  C   UNL A   1      41.975  22.469  28.561  1.00  0.00     0.010 A 
ATOM     75  C   UNL A   1      43.042  22.139  25.994  1.00  0.00     0.020 A 
ATOM     76  C   UNL A   1      41.892  21.226  27.928  1.00  0.00     0.020 A 
ATOM     77  C   UNL A   1      42.419  21.071  26.645  1.00  0.00     0.054 A 
BRANCH  77  78
ATOM     78  S   UNL A   1      42.357  19.454  25.822  1.00  0.00     0.124 S 
ATOM     79  O   UNL A   1      42.670  18.544  26.918  1.00  0.00    -0.237 OA
ATOM     80  O   UNL A   1      40.984  19.402  25.326  1.00  0.00    -0.237 OA
ATOM     81  O   UNL A   1      43.380  19.564  24.784  1.00  0.00    -0.744 OA
ENDBRANCH  77  78
ENDBRANCH  49  72
BRANCH  61  82
ATOM     82  C   UNL A   1      47.609  26.493  31.791  1.00  0.00    -0.014 A 
ATOM     83  C   UNL A   1      48.794  26.935  31.178  1.00  0.00     0.010 A 
ATOM     84  C   UNL A   1      47.689  25.625  32.895  1.00  0.00     0.010 A 
ATOM     85  C   UNL A   1      50.037  26.495  31.644  1.00  0.00     0.020 A 
ATOM     86  C   UNL A   1      48.930  25.202  33.378  1.00  0.00     0.020 A 
ATOM     87  C   UNL A   1      50.097  25.629  32.740  1.00  0.00     0.054 A 
BRANCH  87  88
ATOM     88  S   UNL A   1      51.721  25.106  33.358  1.00  0.00     0.124 S 
ATOM     89  O   UNL A   1      52.455  26.369  33.384  1.00  0.00    -0.237 OA
ATOM     90  O   UNL A   1      51.403  24.538  34.666  1.00  0.00    -0.237 OA
ATOM     91  O   UNL A   1      52.175  24.141  32.361  1.00  0.00    -0.744 OA
ENDBRANCH  87  88
ENDBRANCH  61  82
ENDBRANCH  35  36
ENDBRANCH  27  30
ENDBRANCH  25  26
ENDBRANCH  24  25
ENDBRANCH   1  24
TORSDOF 19
ENDMDL
MODEL 2
REMARK VINA RESULT:     -10.3      3.805      5.167
REMARK SMILES CC(C)c1ccc(C[N@@H+](CC(=O)NCCCNC(=O)c2ccc(-c3c4nc(c(-c5ccc(S(=O)(=O)[O-])cc5)c5ccc([nH]5)c(-c5ccc(S(=O)(=O)[O-])cc5)c5nc(c(-c6ccc(S(=O)(=O)[O-])cc6)c6ccc3[nH]6)C=C5)C=C4)cc2)CC(F)(F)F)cc1
REMARK SMILES IDX 14 1 13 2 11 3 12 4 10 6 9 7 8 9 7 10 4 11 5 12 86 13 6 14
REMARK SMILES IDX 85 15 2 16 1 17 3 18 80 19 81 20 82 21 83 22 84 23 15 24
REMARK SMILES IDX 16 25 17 26 18 27 19 29 20 30 21 31 79 32 22 33 78 34 23 35
REMARK SMILES IDX 24 36 25 37 72 38 26 39 77 40 71 41 73 42 27 43 76 44 70 45
REMARK SMILES IDX 69 46 28 48 58 49 39 50 57 51 40 52 43 53 56 54 74 55 41 56
REMARK SMILES IDX 42 57 55 59 75 60 44 61 29 62 30 63 38 64 31 65 37 66 32 67
REMARK SMILES IDX 33 68 34 69 35 70 36 71 59 72 60 73 68 74 61 75 67 76 62 77
REMARK SMILES IDX 63 78 64 79 65 80 66 81 45 82 46 83 54 84 47 85 53 86 48 87
REMARK SMILES IDX 49 88 50 89 51 90 52 91
REMARK H PARENT 13 5 9 8 17 28 73 47 43 58
REMARK Flexibility Score: inf
ROOT
ATOM      1  C   UNL A   1      33.253  29.515  26.474  1.00  0.00     0.118 C 
ENDROOT
BRANCH   1   2
ATOM      2  N   UNL A   1      33.491  29.501  25.036  1.00  0.00    -0.351 N 
ATOM      3  C   UNL A   1      33.030  28.706  24.029  1.00  0.00     0.275 C 
ATOM      4  O   UNL A   1      33.310  29.055  22.876  1.00  0.00    -0.269 OA
ATOM      5  H   UNL A   1      34.108  30.205  24.731  1.00  0.00     0.163 HD
BRANCH   3   6
ATOM      6  C   UNL A   1      32.185  27.445  24.256  1.00  0.00     0.364 C 
BRANCH   6   7
ATOM      7  N   UNL A   1      30.706  27.627  24.302  1.00  0.00    -0.316 N 
ATOM      8  H   UNL A   1      30.512  28.487  24.815  1.00  0.00     0.349 HD
BRANCH   7   9
ATOM      9  C   UNL A   1      30.100  26.532  25.047  1.00  0.00     0.299 C 
BRANCH   9  10
ATOM     10  C   UNL A   1      30.712  25.157  25.026  1.00  0.00     0.006 A 
ATOM     11  C   UNL A   1      32.330  22.843  24.763  1.00  0.00    -0.045 A 
ATOM     12  C   UNL A   1      32.157  23.477  26.008  1.00  0.00     0.004 A 
ATOM     13  C   UNL A   1      31.609  23.340  23.673  1.00  0.00     0.004 A 
ATOM     14  C   UNL A   1      31.360  24.623  26.141  1.00  0.00     0.010 A 
ATOM     15  C   UNL A   1      30.811  24.476  23.804  1.00  0.00     0.010 A 
BRANCH  11  16
ATOM     16  C   UNL A   1      33.300  21.670  24.635  1.00  0.00     0.013 C 
ATOM     17  C   UNL A   1      34.722  22.047  24.191  1.00  0.00     0.012 C 
ATOM     18  C   UNL A   1      33.398  20.891  25.955  1.00  0.00     0.012 C 
ENDBRANCH  11  16
ENDBRANCH   9  10
ENDBRANCH   7   9
BRANCH   7  19
ATOM     19  C   UNL A   1      30.077  27.916  22.983  1.00  0.00     0.380 C 
BRANCH  19  20
ATOM     20  C   UNL A   1      29.681  29.335  22.494  1.00  0.00     0.438 C 
ATOM     21  F   UNL A   1      30.486  29.802  21.513  1.00  0.00    -0.165 F 
ATOM     22  F   UNL A   1      28.417  29.333  22.005  1.00  0.00    -0.165 F 
ATOM     23  F   UNL A   1      29.700  30.233  23.503  1.00  0.00    -0.165 F 
ENDBRANCH  19  20
ENDBRANCH   7  19
ENDBRANCH   6   7
ENDBRANCH   3   6
ENDBRANCH   1   2
BRANCH   1  24
ATOM     24  C   UNL A   1      34.513  29.258  27.317  1.00  0.00     0.042 C 
BRANCH  24  25
ATOM     25  C   UNL A   1      35.326  30.495  27.681  1.00  0.00     0.118 C 
BRANCH  25  26
ATOM     26  N   UNL A   1      35.311  30.752  29.108  1.00  0.00    -0.352 N 
ATOM     27  C   UNL A   1      36.263  30.524  30.074  1.00  0.00     0.251 C 
ATOM     28  H   UNL A   1      34.479  31.159  29.443  1.00  0.00     0.163 HD
ATOM     29  O   UNL A   1      35.918  30.599  31.252  1.00  0.00    -0.269 OA
BRANCH  27  30
ATOM     30  C   UNL A   1      37.674  30.179  29.749  1.00  0.00     0.039 A 
ATOM     31  C   UNL A   1      38.050  30.142  28.400  1.00  0.00     0.014 A 
ATOM     32  C   UNL A   1      38.602  29.787  30.718  1.00  0.00     0.014 A 
ATOM     33  C   UNL A   1      39.343  29.747  28.031  1.00  0.00     0.010 A 
ATOM     34  C   UNL A   1      39.916  29.465  30.354  1.00  0.00     0.010 A 
ATOM     35  C   UNL A   1      40.297  29.420  29.006  1.00  0.00    -0.014 A 
BRANCH  35  36
ATOM     36  C   UNL A   1      41.672  28.988  28.625  1.00  0.00     0.031 A 
ATOM     37  C   UNL A   1      42.808  29.983  28.596  1.00  0.00     0.074 A 
ATOM     38  C   UNL A   1      41.907  27.708  28.270  1.00  0.00     0.049 A 
ATOM     39  N   UNL A   1      44.058  29.801  28.250  1.00  0.00    -0.248 NA
ATOM     40  C   UNL A   1      42.492  31.365  28.991  1.00  0.00     0.031 C 
ATOM     41  C   UNL A   1      40.903  26.643  28.220  1.00  0.00     0.029 A 
ATOM     42  N   UNL A   1      43.068  27.087  27.877  1.00  0.00    -0.354 N 
ATOM     43  C   UNL A   1      44.668  31.047  28.357  1.00  0.00     0.074 A 
ATOM     44  C   UNL A   1      43.644  31.982  28.768  1.00  0.00     0.031 C 
ATOM     45  C   UNL A   1      41.496  25.498  27.845  1.00  0.00     0.029 A 
ATOM     46  C   UNL A   1      42.912  25.750  27.594  1.00  0.00     0.049 A 
ATOM     47  H   UNL A   1      43.932  27.555  27.806  1.00  0.00     0.167 HD
ATOM     48  C   UNL A   1      45.965  31.384  28.151  1.00  0.00     0.031 A 
ATOM     49  C   UNL A   1      43.803  24.829  27.174  1.00  0.00     0.031 A 
ATOM     50  C   UNL A   1      46.998  30.457  27.770  1.00  0.00     0.049 A 
ATOM     51  C   UNL A   1      45.239  25.221  26.966  1.00  0.00     0.074 A 
ATOM     52  C   UNL A   1      48.349  30.700  27.592  1.00  0.00     0.029 A 
ATOM     53  N   UNL A   1      46.797  29.111  27.510  1.00  0.00    -0.354 N 
ATOM     54  N   UNL A   1      45.803  26.395  27.123  1.00  0.00    -0.248 NA
ATOM     55  C   UNL A   1      46.163  24.161  26.535  1.00  0.00     0.031 C 
ATOM     56  C   UNL A   1      48.960  29.506  27.190  1.00  0.00     0.029 A 
ATOM     57  C   UNL A   1      47.996  28.512  27.160  1.00  0.00     0.049 A 
ATOM     58  H   UNL A   1      45.929  28.648  27.567  1.00  0.00     0.167 HD
ATOM     59  C   UNL A   1      47.150  26.209  26.828  1.00  0.00     0.074 A 
ATOM     60  C   UNL A   1      47.319  24.809  26.499  1.00  0.00     0.031 C 
ATOM     61  C   UNL A   1      48.155  27.119  26.834  1.00  0.00     0.031 A 
BRANCH  48  62
ATOM     62  C   UNL A   1      46.341  32.831  28.332  1.00  0.00    -0.014 A 
ATOM     63  C   UNL A   1      46.755  33.323  29.583  1.00  0.00     0.010 A 
ATOM     64  C   UNL A   1      46.314  33.704  27.229  1.00  0.00     0.010 A 
ATOM     65  C   UNL A   1      47.088  34.671  29.740  1.00  0.00     0.020 A 
ATOM     66  C   UNL A   1      46.671  35.048  27.376  1.00  0.00     0.020 A 
ATOM     67  C   UNL A   1      47.037  35.527  28.636  1.00  0.00     0.054 A 
BRANCH  67  68
ATOM     68  S   UNL A   1      47.483  37.271  28.861  1.00  0.00     0.124 S 
ATOM     69  O   UNL A   1      46.173  37.895  29.034  1.00  0.00    -0.237 OA
ATOM     70  O   UNL A   1      48.324  37.237  30.055  1.00  0.00    -0.237 OA
ATOM     71  O   UNL A   1      48.178  37.613  27.622  1.00  0.00    -0.744 OA
ENDBRANCH  67  68
ENDBRANCH  48  62
BRANCH  49  72
ATOM     72  C   UNL A   1      43.357  23.430  26.938  1.00  0.00    -0.014 A 
ATOM     73  C   UNL A   1      43.244  22.931  25.628  1.00  0.00     0.010 A 
ATOM     74  C   UNL A   1      43.064  22.583  28.022  1.00  0.00     0.010 A 
ATOM     75  C   UNL A   1      42.837  21.613  25.405  1.00  0.00     0.020 A 
ATOM     76  C   UNL A   1      42.678  21.258  27.803  1.00  0.00     0.020 A 
ATOM     77  C   UNL A   1      42.559  20.784  26.495  1.00  0.00     0.054 A 
BRANCH  77  78
ATOM     78  S   UNL A   1      42.098  19.055  26.191  1.00  0.00     0.124 S 
ATOM     79  O   UNL A   1      40.699  19.178  25.798  1.00  0.00    -0.237 OA
ATOM     80  O   UNL A   1      43.023  18.661  25.131  1.00  0.00    -0.237 OA
ATOM     81  O   UNL A   1      42.334  18.410  27.481  1.00  0.00    -0.744 OA
ENDBRANCH  77  78
ENDBRANCH  49  72
BRANCH  61  82
ATOM     82  C   UNL A   1      49.536  26.629  26.496  1.00  0.00    -0.014 A 
ATOM     83  C   UNL A   1      50.025  26.685  25.179  1.00  0.00     0.010 A 
ATOM     84  C   UNL A   1      50.375  26.154  27.520  1.00  0.00     0.010 A 
ATOM     85  C   UNL A   1      51.321  26.250  24.888  1.00  0.00     0.020 A 
ATOM     86  C   UNL A   1      51.679  25.739  27.236  1.00  0.00     0.020 A 
ATOM     87  C   UNL A   1      52.139  25.776  25.919  1.00  0.00     0.054 A 
BRANCH  87  88
ATOM     88  S   UNL A   1      53.833  25.259  25.526  1.00  0.00     0.124 S 
ATOM     89  O   UNL A   1      53.605  24.059  24.724  1.00  0.00    -0.237 OA
ATOM     90  O   UNL A   1      54.364  26.409  24.799  1.00  0.00    -0.237 OA
ATOM     91  O   UNL A   1      54.436  25.027  26.837  1.00  0.00    -0.744 OA
ENDBRANCH  87  88
ENDBRANCH  61  82
ENDBRANCH  35  36
ENDBRANCH  27  30
ENDBRANCH  25  26
ENDBRANCH  24  25
ENDBRANCH   1  24
TORSDOF 19
ENDMDL
MODEL 3
REMARK VINA RESULT:     -10.2      2.572      8.930
REMARK SMILES CC(C)c1ccc(C[N@@H+](CC(=O)NCCCNC(=O)c2ccc(-c3c4nc(c(-c5ccc(S(=O)(=O)[O-])cc5)c5ccc([nH]5)c(-c5ccc(S(=O)(=O)[O-])cc5)c5nc(c(-c6ccc(S(=O)(=O)[O-])cc6)c6ccc3[nH]6)C=C5)C=C4)cc2)CC(F)(F)F)cc1
REMARK SMILES IDX 14 1 13 2 11 3 12 4 10 6 9 7 8 9 7 10 4 11 5 12 86 13 6 14
REMARK SMILES IDX 85 15 2 16 1 17 3 18 80 19 81 20 82 21 83 22 84 23 15 24
REMARK SMILES IDX 16 25 17 26 18 27 19 29 20 30 21 31 79 32 22 33 78 34 23 35
REMARK SMILES IDX 24 36 25 37 72 38 26 39 77 40 71 41 73 42 27 43 76 44 70 45
REMARK SMILES IDX 69 46 28 48 58 49 39 50 57 51 40 52 43 53 56 54 74 55 41 56
REMARK SMILES IDX 42 57 55 59 75 60 44 61 29 62 30 63 38 64 31 65 37 66 32 67
REMARK SMILES IDX 33 68 34 69 35 70 36 71 59 72 60 73 68 74 61 75 67 76 62 77
REMARK SMILES IDX 63 78 64 79 65 80 66 81 45 82 46 83 54 84 47 85 53 86 48 87
REMARK SMILES IDX 49 88 50 89 51 90 52 91
REMARK H PARENT 13 5 9 8 17 28 73 47 43 58
REMARK Flexibility Score: inf
ROOT
ATOM      1  C   UNL A   1      31.764  28.294  27.308  1.00  0.00     0.118 C 
ENDROOT
BRANCH   1   2
ATOM      2  N   UNL A   1      30.982  27.082  27.094  1.00  0.00    -0.351 N 
ATOM      3  C   UNL A   1      30.907  26.198  26.059  1.00  0.00     0.275 C 
ATOM      4  O   UNL A   1      30.245  25.173  26.253  1.00  0.00    -0.269 OA
ATOM      5  H   UNL A   1      30.389  26.857  27.847  1.00  0.00     0.163 HD
BRANCH   3   6
ATOM      6  C   UNL A   1      31.608  26.405  24.709  1.00  0.00     0.364 C 
BRANCH   6   7
ATOM      7  N   UNL A   1      30.770  26.244  23.486  1.00  0.00    -0.316 N 
ATOM      8  H   UNL A   1      29.958  25.680  23.735  1.00  0.00     0.349 HD
BRANCH   7   9
ATOM      9  C   UNL A   1      31.516  25.509  22.473  1.00  0.00     0.299 C 
BRANCH   9  10
ATOM     10  C   UNL A   1      32.226  24.228  22.821  1.00  0.00     0.006 A 
ATOM     11  C   UNL A   1      33.673  22.084  23.982  1.00  0.00    -0.045 A 
ATOM     12  C   UNL A   1      32.266  22.074  23.930  1.00  0.00     0.004 A 
ATOM     13  C   UNL A   1      34.340  23.147  23.365  1.00  0.00     0.004 A 
ATOM     14  C   UNL A   1      31.548  23.134  23.360  1.00  0.00     0.010 A 
ATOM     15  C   UNL A   1      33.628  24.199  22.790  1.00  0.00     0.010 A 
BRANCH  11  16
ATOM     16  C   UNL A   1      34.415  20.971  24.718  1.00  0.00     0.013 C 
ATOM     17  C   UNL A   1      35.198  21.421  25.962  1.00  0.00     0.012 C 
ATOM     18  C   UNL A   1      33.451  19.850  25.135  1.00  0.00     0.012 C 
ENDBRANCH  11  16
ENDBRANCH   9  10
ENDBRANCH   7   9
BRANCH   7  19
ATOM     19  C   UNL A   1      30.127  27.500  23.008  1.00  0.00     0.380 C 
BRANCH  19  20
ATOM     20  C   UNL A   1      30.812  28.894  23.018  1.00  0.00     0.438 C 
ATOM     21  F   UNL A   1      32.072  28.869  22.533  1.00  0.00    -0.165 F 
ATOM     22  F   UNL A   1      30.111  29.772  22.260  1.00  0.00    -0.165 F 
ATOM     23  F   UNL A   1      30.860  29.416  24.263  1.00  0.00    -0.165 F 
ENDBRANCH  19  20
ENDBRANCH   7  19
ENDBRANCH   6   7
ENDBRANCH   3   6
ENDBRANCH   1   2
BRANCH   1  24
ATOM     24  C   UNL A   1      33.276  28.102  27.109  1.00  0.00     0.042 C 
BRANCH  24  25
ATOM     25  C   UNL A   1      33.955  29.120  26.199  1.00  0.00     0.118 C 
BRANCH  25  26
ATOM     26  N   UNL A   1      33.683  30.482  26.614  1.00  0.00    -0.352 N 
ATOM     27  C   UNL A   1      34.291  31.274  27.560  1.00  0.00     0.251 C 
ATOM     28  H   UNL A   1      32.937  30.915  26.138  1.00  0.00     0.163 HD
ATOM     29  O   UNL A   1      33.719  32.308  27.901  1.00  0.00    -0.269 OA
BRANCH  27  30
ATOM     30  C   UNL A   1      35.594  30.922  28.189  1.00  0.00     0.039 A 
ATOM     31  C   UNL A   1      35.634  29.819  29.051  1.00  0.00     0.014 A 
ATOM     32  C   UNL A   1      36.743  31.705  28.044  1.00  0.00     0.014 A 
ATOM     33  C   UNL A   1      36.813  29.488  29.733  1.00  0.00     0.010 A 
ATOM     34  C   UNL A   1      37.941  31.330  28.665  1.00  0.00     0.010 A 
ATOM     35  C   UNL A   1      37.986  30.231  29.535  1.00  0.00    -0.014 A 
BRANCH  35  36
ATOM     36  C   UNL A   1      39.243  29.896  30.262  1.00  0.00     0.031 A 
ATOM     37  C   UNL A   1      40.139  28.784  29.771  1.00  0.00     0.074 A 
ATOM     38  C   UNL A   1      39.575  30.563  31.386  1.00  0.00     0.049 A 
ATOM     39  N   UNL A   1      41.248  28.322  30.296  1.00  0.00    -0.248 NA
ATOM     40  C   UNL A   1      39.726  28.089  28.541  1.00  0.00     0.031 C 
ATOM     41  C   UNL A   1      38.792  31.639  31.996  1.00  0.00     0.029 A 
ATOM     42  N   UNL A   1      40.659  30.429  32.220  1.00  0.00    -0.354 N 
ATOM     43  C   UNL A   1      41.646  27.269  29.479  1.00  0.00     0.074 A 
ATOM     44  C   UNL A   1      40.644  27.138  28.444  1.00  0.00     0.031 C 
ATOM     45  C   UNL A   1      39.433  32.083  33.090  1.00  0.00     0.029 A 
ATOM     46  C   UNL A   1      40.652  31.303  33.281  1.00  0.00     0.049 A 
ATOM     47  H   UNL A   1      41.375  29.768  32.071  1.00  0.00     0.167 HD
ATOM     48  C   UNL A   1      42.752  26.490  29.567  1.00  0.00     0.031 A 
ATOM     49  C   UNL A   1      41.523  31.460  34.298  1.00  0.00     0.031 A 
ATOM     50  C   UNL A   1      43.769  26.629  30.576  1.00  0.00     0.049 A 
ATOM     51  C   UNL A   1      42.751  30.596  34.369  1.00  0.00     0.074 A 
ATOM     52  C   UNL A   1      44.951  25.920  30.711  1.00  0.00     0.029 A 
ATOM     53  N   UNL A   1      43.729  27.540  31.620  1.00  0.00    -0.354 N 
ATOM     54  N   UNL A   1      43.133  29.640  33.556  1.00  0.00    -0.248 NA
ATOM     55  C   UNL A   1      43.673  30.840  35.488  1.00  0.00     0.031 C 
ATOM     56  C   UNL A   1      45.609  26.379  31.858  1.00  0.00     0.029 A 
ATOM     57  C   UNL A   1      44.857  27.401  32.412  1.00  0.00     0.049 A 
ATOM     58  H   UNL A   1      43.005  28.189  31.776  1.00  0.00     0.167 HD
ATOM     59  C   UNL A   1      44.347  29.182  34.056  1.00  0.00     0.074 A 
ATOM     60  C   UNL A   1      44.645  29.974  35.230  1.00  0.00     0.031 C 
ATOM     61  C   UNL A   1      45.144  28.194  33.580  1.00  0.00     0.031 A 
BRANCH  48  62
ATOM     62  C   UNL A   1      42.918  25.403  28.537  1.00  0.00    -0.014 A 
ATOM     63  C   UNL A   1      43.528  25.666  27.297  1.00  0.00     0.010 A 
ATOM     64  C   UNL A   1      42.489  24.095  28.826  1.00  0.00     0.010 A 
ATOM     65  C   UNL A   1      43.664  24.652  26.346  1.00  0.00     0.020 A 
ATOM     66  C   UNL A   1      42.646  23.071  27.886  1.00  0.00     0.020 A 
ATOM     67  C   UNL A   1      43.214  23.362  26.644  1.00  0.00     0.054 A 
BRANCH  67  68
ATOM     68  S   UNL A   1      43.409  22.059  25.396  1.00  0.00     0.124 S 
ATOM     69  O   UNL A   1      42.273  21.189  25.692  1.00  0.00    -0.237 OA
ATOM     70  O   UNL A   1      43.321  22.800  24.140  1.00  0.00    -0.237 OA
ATOM     71  O   UNL A   1      44.722  21.492  25.691  1.00  0.00    -0.744 OA
ENDBRANCH  67  68
ENDBRANCH  48  62
BRANCH  49  72
ATOM     72  C   UNL A   1      41.267  32.500  35.331  1.00  0.00    -0.014 A 
ATOM     73  C   UNL A   1      40.561  32.179  36.504  1.00  0.00     0.010 A 
ATOM     74  C   UNL A   1      41.748  33.810  35.156  1.00  0.00     0.010 A 
ATOM     75  C   UNL A   1      40.331  33.152  37.480  1.00  0.00     0.020 A 
ATOM     76  C   UNL A   1      41.539  34.779  36.141  1.00  0.00     0.020 A 
ATOM     77  C   UNL A   1      40.824  34.446  37.293  1.00  0.00     0.054 A 
BRANCH  77  78
ATOM     78  S   UNL A   1      40.577  35.679  38.602  1.00  0.00     0.124 S 
ATOM     79  O   UNL A   1      39.736  34.954  39.547  1.00  0.00    -0.237 OA
ATOM     80  O   UNL A   1      41.942  35.951  39.045  1.00  0.00    -0.237 OA
ATOM     81  O   UNL A   1      39.927  36.787  37.903  1.00  0.00    -0.744 OA
ENDBRANCH  77  78
ENDBRANCH  49  72
BRANCH  61  82
ATOM     82  C   UNL A   1      46.430  27.926  34.313  1.00  0.00    -0.014 A 
ATOM     83  C   UNL A   1      46.482  27.004  35.374  1.00  0.00     0.010 A 
ATOM     84  C   UNL A   1      47.613  28.565  33.900  1.00  0.00     0.010 A 
ATOM     85  C   UNL A   1      47.691  26.748  36.027  1.00  0.00     0.020 A 
ATOM     86  C   UNL A   1      48.827  28.294  34.537  1.00  0.00     0.020 A 
ATOM     87  C   UNL A   1      48.856  27.397  35.606  1.00  0.00     0.054 A 
BRANCH  87  88
ATOM     88  S   UNL A   1      50.423  27.015  36.437  1.00  0.00     0.124 S 
ATOM     89  O   UNL A   1      49.999  26.866  37.828  1.00  0.00    -0.237 OA
ATOM     90  O   UNL A   1      50.850  25.784  35.776  1.00  0.00    -0.237 OA
ATOM     91  O   UNL A   1      51.254  28.184  36.160  1.00  0.00    -0.744 OA
ENDBRANCH  87  88
ENDBRANCH  61  82
ENDBRANCH  35  36
ENDBRANCH  27  30
ENDBRANCH  25  26
ENDBRANCH  24  25
ENDBRANCH   1  24
TORSDOF 19
ENDMDL
