MODEL 1
REMARK VINA RESULT:     -12.1      0.000      0.000
REMARK SMILES C=CCn1nc(C(=O)NCCCNC(=O)c2ccc(-c3c4nc(c(-c5ccc(S(=O)(=O)[O-])cc5)c5ccc([nH]5)c(-c5ccc(S(=O)(=O)[O-])cc5)c5nc(c(-c6ccc(S(=O)(=O)[O-])cc6)c6ccc3[nH]6)C=C5)C=C4)cc2)c2c1CC[C@@H]([NH+]1CCC(C(C)(C)O)CC1)C2
REMARK SMILES IDX 11 1 10 2 9 3 7 4 8 5 6 7 4 8 5 9 77 10 76 11 78 12 91 13
REMARK SMILES IDX 79 14 80 15 3 16 2 17 1 18 81 19 82 20 90 21 83 23 89 24
REMARK SMILES IDX 84 25 85 26 86 27 87 28 88 29 12 31 13 32 14 33 15 35 16 36
REMARK SMILES IDX 17 37 75 38 18 39 74 40 19 41 20 42 21 43 68 44 22 45 73 46
REMARK SMILES IDX 67 47 69 48 23 49 72 50 66 51 65 52 24 54 54 55 35 56 53 57
REMARK SMILES IDX 36 58 39 59 52 60 70 61 37 62 38 63 51 65 71 66 40 67 25 68
REMARK SMILES IDX 26 69 34 70 27 71 33 72 28 73 29 74 30 75 31 76 32 77 55 78
REMARK SMILES IDX 56 79 64 80 57 81 63 82 58 83 59 84 60 85 61 86 62 87 41 88
REMARK SMILES IDX 42 89 50 90 43 91 49 92 44 93 45 94 46 95 47 96 48 97
REMARK H PARENT 9 6 81 22 88 30 13 34 69 53 39 64
REMARK Flexibility Score: inf
ROOT
ATOM      1  C   UNL A   1      33.268  30.584  27.344  1.00  0.00     0.042 C 
ENDROOT
BRANCH   1   2
ATOM      2  C   UNL A   1      34.012  29.348  26.800  1.00  0.00     0.118 C 
BRANCH   2   3
ATOM      3  N   UNL A   1      34.130  29.338  25.339  1.00  0.00    -0.351 N 
ATOM      4  C   UNL A   1      33.361  28.918  24.265  1.00  0.00     0.272 C 
ATOM      5  O   UNL A   1      33.794  29.286  23.168  1.00  0.00    -0.267 OA
ATOM      6  H   UNL A   1      34.981  29.734  25.042  1.00  0.00     0.163 HD
BRANCH   4   7
ATOM      7  C   UNL A   1      32.114  28.107  24.359  1.00  0.00     0.153 A 
ATOM      8  N   UNL A   1      30.037  27.602  24.009  1.00  0.00    -0.265 N 
ATOM      9  N   UNL A   1      30.945  28.596  23.874  1.00  0.00    -0.167 NA
ATOM     10  C   UNL A   1      30.518  26.567  24.754  1.00  0.00     0.043 A 
ATOM     11  C   UNL A   1      31.871  26.788  24.809  1.00  0.00     0.012 A 
ATOM     12  C   UNL A   1      29.826  25.357  25.269  1.00  0.00     0.062 C 
ATOM     13  C   UNL A   1      32.797  25.733  25.207  1.00  0.00     0.105 C 
ATOM     14  C   UNL A   1      30.860  24.330  25.803  1.00  0.00     0.072 C 
ATOM     15  C   UNL A   1      32.267  24.300  25.156  1.00  0.00     0.189 C 
BRANCH   8  16
ATOM     16  C   UNL A   1      28.743  27.728  23.340  1.00  0.00     0.171 C 
BRANCH  16  17
ATOM     17  C   UNL A   1      28.287  29.156  23.163  1.00  0.00    -0.011 C 
ATOM     18  C   UNL A   1      27.984  29.714  21.981  1.00  0.00     0.006 C 
ENDBRANCH  16  17
ENDBRANCH   8  16
BRANCH  15  19
ATOM     19  N   UNL A   1      32.658  23.697  23.865  1.00  0.00    -0.332 N 
ATOM     20  C   UNL A   1      32.638  22.257  23.698  1.00  0.00     0.262 C 
ATOM     21  C   UNL A   1      33.826  24.254  23.209  1.00  0.00     0.262 C 
ATOM     22  H   UNL A   1      31.820  24.016  23.379  1.00  0.00     0.348 HD
ATOM     23  C   UNL A   1      33.835  21.580  24.340  1.00  0.00     0.068 C 
ATOM     24  C   UNL A   1      35.110  23.821  23.887  1.00  0.00     0.068 C 
ATOM     25  C   UNL A   1      35.197  22.310  24.234  1.00  0.00     0.031 C 
BRANCH  25  26
ATOM     26  C   UNL A   1      36.117  22.077  25.487  1.00  0.00     0.062 C 
ATOM     27  C   UNL A   1      37.319  21.175  25.207  1.00  0.00     0.042 C 
ATOM     28  C   UNL A   1      36.584  23.414  26.066  1.00  0.00     0.042 C 
BRANCH  26  29
ATOM     29  O   UNL A   1      35.382  21.429  26.527  1.00  0.00    -0.390 OA
ATOM     30  H   UNL A   1      34.457  21.325  26.253  1.00  0.00     0.211 HD
ENDBRANCH  26  29
ENDBRANCH  25  26
ENDBRANCH  15  19
ENDBRANCH   4   7
ENDBRANCH   2   3
ENDBRANCH   1   2
BRANCH   1  31
ATOM     31  C   UNL A   1      34.024  31.877  27.462  1.00  0.00     0.118 C 
BRANCH  31  32
ATOM     32  N   UNL A   1      34.032  32.407  28.831  1.00  0.00    -0.352 N 
ATOM     33  C   UNL A   1      34.890  32.032  29.860  1.00  0.00     0.251 C 
ATOM     34  H   UNL A   1      33.364  33.097  29.042  1.00  0.00     0.163 HD
ATOM     35  O   UNL A   1      34.592  32.175  31.027  1.00  0.00    -0.269 OA
BRANCH  33  36
ATOM     36  C   UNL A   1      36.177  31.444  29.446  1.00  0.00     0.039 A 
ATOM     37  C   UNL A   1      37.303  32.226  29.183  1.00  0.00     0.014 A 
ATOM     38  C   UNL A   1      36.260  30.065  29.561  1.00  0.00     0.014 A 
ATOM     39  C   UNL A   1      38.546  31.596  29.161  1.00  0.00     0.010 A 
ATOM     40  C   UNL A   1      37.485  29.521  29.818  1.00  0.00     0.010 A 
ATOM     41  C   UNL A   1      38.633  30.243  29.531  1.00  0.00    -0.014 A 
BRANCH  41  42
ATOM     42  C   UNL A   1      39.904  29.556  29.712  1.00  0.00     0.031 A 
ATOM     43  C   UNL A   1      40.328  29.356  31.121  1.00  0.00     0.074 A 
ATOM     44  C   UNL A   1      40.570  28.975  28.688  1.00  0.00     0.049 A 
ATOM     45  N   UNL A   1      41.238  30.021  31.749  1.00  0.00    -0.248 NA
ATOM     46  C   UNL A   1      39.577  28.427  31.979  1.00  0.00     0.031 C 
ATOM     47  C   UNL A   1      40.168  28.828  27.280  1.00  0.00     0.029 A 
ATOM     48  N   UNL A   1      41.733  28.279  28.725  1.00  0.00    -0.354 N 
ATOM     49  C   UNL A   1      41.342  29.448  33.010  1.00  0.00     0.074 A 
ATOM     50  C   UNL A   1      40.178  28.608  33.160  1.00  0.00     0.031 C 
ATOM     51  C   UNL A   1      40.930  27.890  26.679  1.00  0.00     0.029 A 
ATOM     52  C   UNL A   1      42.003  27.532  27.585  1.00  0.00     0.049 A 
ATOM     53  H   UNL A   1      42.340  28.301  29.500  1.00  0.00     0.167 HD
ATOM     54  C   UNL A   1      42.495  29.533  33.731  1.00  0.00     0.031 A 
ATOM     55  C   UNL A   1      43.044  26.688  27.393  1.00  0.00     0.031 A 
ATOM     56  C   UNL A   1      43.431  30.443  33.117  1.00  0.00     0.049 A 
ATOM     57  C   UNL A   1      44.099  27.099  28.351  1.00  0.00     0.074 A 
ATOM     58  C   UNL A   1      43.414  31.788  32.805  1.00  0.00     0.029 A 
ATOM     59  N   UNL A   1      44.416  29.881  32.333  1.00  0.00    -0.354 N 
ATOM     60  N   UNL A   1      44.718  28.244  28.271  1.00  0.00    -0.248 NA
ATOM     61  C   UNL A   1      44.121  26.472  29.663  1.00  0.00     0.031 C 
ATOM     62  C   UNL A   1      44.031  31.872  31.522  1.00  0.00     0.029 A 
ATOM     63  C   UNL A   1      44.471  30.595  31.162  1.00  0.00     0.049 A 
ATOM     64  H   UNL A   1      44.976  29.107  32.570  1.00  0.00     0.167 HD
ATOM     65  C   UNL A   1      44.806  28.692  29.581  1.00  0.00     0.074 A 
ATOM     66  C   UNL A   1      44.520  27.514  30.400  1.00  0.00     0.031 C 
ATOM     67  C   UNL A   1      44.820  30.028  29.874  1.00  0.00     0.031 A 
BRANCH  54  68
ATOM     68  C   UNL A   1      42.941  28.532  34.763  1.00  0.00    -0.014 A 
ATOM     69  C   UNL A   1      43.175  28.978  36.081  1.00  0.00     0.010 A 
ATOM     70  C   UNL A   1      43.392  27.239  34.433  1.00  0.00     0.010 A 
ATOM     71  C   UNL A   1      43.882  28.193  37.000  1.00  0.00     0.020 A 
ATOM     72  C   UNL A   1      44.060  26.431  35.355  1.00  0.00     0.020 A 
ATOM     73  C   UNL A   1      44.329  26.927  36.625  1.00  0.00     0.054 A 
BRANCH  73  74
ATOM     74  S   UNL A   1      45.324  25.962  37.788  1.00  0.00     0.124 S 
ATOM     75  O   UNL A   1      44.910  24.597  37.479  1.00  0.00    -0.237 OA
ATOM     76  O   UNL A   1      46.686  26.316  37.397  1.00  0.00    -0.237 OA
ATOM     77  O   UNL A   1      44.906  26.464  39.094  1.00  0.00    -0.744 OA
ENDBRANCH  73  74
ENDBRANCH  54  68
BRANCH  55  78
ATOM     78  C   UNL A   1      43.084  25.421  26.624  1.00  0.00    -0.014 A 
ATOM     79  C   UNL A   1      43.679  25.367  25.350  1.00  0.00     0.010 A 
ATOM     80  C   UNL A   1      42.800  24.198  27.268  1.00  0.00     0.010 A 
ATOM     81  C   UNL A   1      44.051  24.139  24.777  1.00  0.00     0.020 A 
ATOM     82  C   UNL A   1      43.164  22.970  26.700  1.00  0.00     0.020 A 
ATOM     83  C   UNL A   1      43.814  22.948  25.469  1.00  0.00     0.054 A 
BRANCH  83  84
ATOM     84  S   UNL A   1      44.488  21.389  24.816  1.00  0.00     0.124 S 
ATOM     85  O   UNL A   1      44.593  21.669  23.387  1.00  0.00    -0.237 OA
ATOM     86  O   UNL A   1      45.756  21.267  25.530  1.00  0.00    -0.237 OA
ATOM     87  O   UNL A   1      43.478  20.398  25.182  1.00  0.00    -0.744 OA
ENDBRANCH  83  84
ENDBRANCH  55  78
BRANCH  67  88
ATOM     88  C   UNL A   1      44.992  31.013  28.736  1.00  0.00    -0.014 A 
ATOM     89  C   UNL A   1      43.951  31.408  27.870  1.00  0.00     0.010 A 
ATOM     90  C   UNL A   1      46.225  31.680  28.639  1.00  0.00     0.010 A 
ATOM     91  C   UNL A   1      44.151  32.419  26.918  1.00  0.00     0.020 A 
ATOM     92  C   UNL A   1      46.427  32.700  27.706  1.00  0.00     0.020 A 
ATOM     93  C   UNL A   1      45.393  33.057  26.841  1.00  0.00     0.054 A 
BRANCH  93  94
ATOM     94  S   UNL A   1      45.644  34.388  25.632  1.00  0.00     0.124 S 
ATOM     95  O   UNL A   1      47.066  34.272  25.323  1.00  0.00    -0.237 OA
ATOM     96  O   UNL A   1      44.734  34.023  24.548  1.00  0.00    -0.237 OA
ATOM     97  O   UNL A   1      45.268  35.598  26.362  1.00  0.00    -0.744 OA
ENDBRANCH  93  94
ENDBRANCH  67  88
ENDBRANCH  41  42
ENDBRANCH  33  36
ENDBRANCH  31  32
ENDBRANCH   1  31
TORSDOF 18
ENDMDL
MODEL 2
REMARK VINA RESULT:     -11.9      2.603      9.564
REMARK SMILES C=CCn1nc(C(=O)NCCCNC(=O)c2ccc(-c3c4nc(c(-c5ccc(S(=O)(=O)[O-])cc5)c5ccc([nH]5)c(-c5ccc(S(=O)(=O)[O-])cc5)c5nc(c(-c6ccc(S(=O)(=O)[O-])cc6)c6ccc3[nH]6)C=C5)C=C4)cc2)c2c1CC[C@@H]([NH+]1CCC(C(C)(C)O)CC1)C2
REMARK SMILES IDX 11 1 10 2 9 3 7 4 8 5 6 7 4 8 5 9 77 10 76 11 78 12 91 13
REMARK SMILES IDX 79 14 80 15 3 16 2 17 1 18 81 19 82 20 90 21 83 23 89 24
REMARK SMILES IDX 84 25 85 26 86 27 87 28 88 29 12 31 13 32 14 33 15 35 16 36
REMARK SMILES IDX 17 37 75 38 18 39 74 40 19 41 20 42 21 43 68 44 22 45 73 46
REMARK SMILES IDX 67 47 69 48 23 49 72 50 66 51 65 52 24 54 54 55 35 56 53 57
REMARK SMILES IDX 36 58 39 59 52 60 70 61 37 62 38 63 51 65 71 66 40 67 25 68
REMARK SMILES IDX 26 69 34 70 27 71 33 72 28 73 29 74 30 75 31 76 32 77 55 78
REMARK SMILES IDX 56 79 64 80 57 81 63 82 58 83 59 84 60 85 61 86 62 87 41 88
REMARK SMILES IDX 42 89 50 90 43 91 49 92 44 93 45 94 46 95 47 96 48 97
REMARK H PARENT 9 6 81 22 88 30 13 34 69 53 39 64
REMARK Flexibility Score: inf
ROOT
ATOM      1  C   UNL A   1      39.187  22.279  26.361  1.00  0.00     0.042 C 
ENDROOT
BRANCH   1   2
ATOM      2  C   UNL A   1      37.795  21.952  25.785  1.00  0.00     0.118 C 
BRANCH   2   3
ATOM      3  N   UNL A   1      37.635  22.356  24.385  1.00  0.00    -0.351 N 
ATOM      4  C   UNL A   1      36.584  22.644  23.529  1.00  0.00     0.272 C 
ATOM      5  O   UNL A   1      36.939  23.130  22.450  1.00  0.00    -0.267 OA
ATOM      6  H   UNL A   1      38.506  22.445  23.933  1.00  0.00     0.163 HD
BRANCH   4   7
ATOM      7  C   UNL A   1      35.140  22.422  23.828  1.00  0.00     0.153 A 
ATOM      8  N   UNL A   1      33.421  21.482  24.749  1.00  0.00    -0.265 N 
ATOM      9  N   UNL A   1      34.754  21.350  24.564  1.00  0.00    -0.167 NA
ATOM     10  C   UNL A   1      32.894  22.480  23.984  1.00  0.00     0.043 A 
ATOM     11  C   UNL A   1      33.986  23.194  23.560  1.00  0.00     0.012 A 
ATOM     12  C   UNL A   1      31.477  22.868  23.764  1.00  0.00     0.062 C 
ATOM     13  C   UNL A   1      33.847  24.540  23.014  1.00  0.00     0.105 C 
ATOM     14  C   UNL A   1      31.400  24.248  23.056  1.00  0.00     0.072 C 
ATOM     15  C   UNL A   1      32.537  25.268  23.311  1.00  0.00     0.189 C 
BRANCH   8  16
ATOM     16  C   UNL A   1      32.751  20.621  25.723  1.00  0.00     0.171 C 
BRANCH  16  17
ATOM     17  C   UNL A   1      32.811  19.152  25.379  1.00  0.00    -0.011 C 
ATOM     18  C   UNL A   1      32.462  18.638  24.190  1.00  0.00     0.006 C 
ENDBRANCH  16  17
ENDBRANCH   8  16
BRANCH  15  19
ATOM     19  N   UNL A   1      32.732  26.129  24.496  1.00  0.00    -0.332 N 
ATOM     20  C   UNL A   1      31.691  26.239  25.497  1.00  0.00     0.262 C 
ATOM     21  C   UNL A   1      33.337  27.429  24.267  1.00  0.00     0.262 C 
ATOM     22  H   UNL A   1      33.424  25.512  24.921  1.00  0.00     0.348 HD
ATOM     23  C   UNL A   1      30.559  27.151  25.063  1.00  0.00     0.068 C 
ATOM     24  C   UNL A   1      32.361  28.397  23.631  1.00  0.00     0.068 C 
ATOM     25  C   UNL A   1      30.945  28.423  24.267  1.00  0.00     0.031 C 
BRANCH  25  26
ATOM     26  C   UNL A   1      29.863  28.835  23.204  1.00  0.00     0.062 C 
ATOM     27  C   UNL A   1      28.651  27.904  23.169  1.00  0.00     0.042 C 
ATOM     28  C   UNL A   1      29.413  30.279  23.427  1.00  0.00     0.042 C 
BRANCH  26  29
ATOM     29  O   UNL A   1      30.421  28.792  21.889  1.00  0.00    -0.390 OA
ATOM     30  H   UNL A   1      31.025  29.541  21.768  1.00  0.00     0.211 HD
ENDBRANCH  26  29
ENDBRANCH  25  26
ENDBRANCH  15  19
ENDBRANCH   4   7
ENDBRANCH   2   3
ENDBRANCH   1   2
BRANCH   1  31
ATOM     31  C   UNL A   1      40.148  21.147  26.592  1.00  0.00     0.118 C 
BRANCH  31  32
ATOM     32  N   UNL A   1      41.427  21.338  25.897  1.00  0.00    -0.352 N 
ATOM     33  C   UNL A   1      42.125  22.533  25.756  1.00  0.00     0.251 C 
ATOM     34  H   UNL A   1      41.832  20.539  25.490  1.00  0.00     0.163 HD
ATOM     35  O   UNL A   1      42.913  22.712  24.853  1.00  0.00    -0.269 OA
BRANCH  33  36
ATOM     36  C   UNL A   1      41.841  23.569  26.767  1.00  0.00     0.039 A 
ATOM     37  C   UNL A   1      42.466  23.583  28.014  1.00  0.00     0.014 A 
ATOM     38  C   UNL A   1      41.098  24.648  26.313  1.00  0.00     0.014 A 
ATOM     39  C   UNL A   1      42.428  24.766  28.751  1.00  0.00     0.010 A 
ATOM     40  C   UNL A   1      41.312  25.860  26.902  1.00  0.00     0.010 A 
ATOM     41  C   UNL A   1      41.889  25.921  28.161  1.00  0.00    -0.014 A 
BRANCH  41  42
ATOM     42  C   UNL A   1      41.973  27.236  28.782  1.00  0.00     0.031 A 
ATOM     43  C   UNL A   1      43.114  28.079  28.343  1.00  0.00     0.074 A 
ATOM     44  C   UNL A   1      40.990  27.736  29.565  1.00  0.00     0.049 A 
ATOM     45  N   UNL A   1      44.194  28.314  29.008  1.00  0.00    -0.248 NA
ATOM     46  C   UNL A   1      43.140  28.604  26.969  1.00  0.00     0.031 C 
ATOM     47  C   UNL A   1      39.671  27.165  29.882  1.00  0.00     0.029 A 
ATOM     48  N   UNL A   1      40.927  28.948  30.169  1.00  0.00    -0.354 N 
ATOM     49  C   UNL A   1      44.939  29.201  28.243  1.00  0.00     0.074 A 
ATOM     50  C   UNL A   1      44.339  29.194  26.931  1.00  0.00     0.031 C 
ATOM     51  C   UNL A   1      38.865  28.121  30.390  1.00  0.00     0.029 A 
ATOM     52  C   UNL A   1      39.667  29.302  30.635  1.00  0.00     0.049 A 
ATOM     53  H   UNL A   1      41.713  29.532  30.270  1.00  0.00     0.167 HD
ATOM     54  C   UNL A   1      45.845  30.041  28.819  1.00  0.00     0.031 A 
ATOM     55  C   UNL A   1      39.309  30.482  31.197  1.00  0.00     0.031 A 
ATOM     56  C   UNL A   1      46.052  29.716  30.209  1.00  0.00     0.049 A 
ATOM     57  C   UNL A   1      40.557  31.096  31.712  1.00  0.00     0.074 A 
ATOM     58  C   UNL A   1      46.508  28.604  30.888  1.00  0.00     0.029 A 
ATOM     59  N   UNL A   1      45.349  30.464  31.129  1.00  0.00    -0.354 N 
ATOM     60  N   UNL A   1      41.247  30.579  32.690  1.00  0.00    -0.248 NA
ATOM     61  C   UNL A   1      41.297  31.991  30.836  1.00  0.00     0.031 C 
ATOM     62  C   UNL A   1      45.655  28.497  32.026  1.00  0.00     0.029 A 
ATOM     63  C   UNL A   1      44.789  29.593  32.030  1.00  0.00     0.049 A 
ATOM     64  H   UNL A   1      45.264  31.445  31.138  1.00  0.00     0.167 HD
ATOM     65  C   UNL A   1      42.572  30.710  32.298  1.00  0.00     0.074 A 
ATOM     66  C   UNL A   1      42.545  31.681  31.204  1.00  0.00     0.031 C 
ATOM     67  C   UNL A   1      43.523  29.814  32.702  1.00  0.00     0.031 A 
BRANCH  54  68
ATOM     68  C   UNL A   1      46.259  31.376  28.259  1.00  0.00    -0.014 A 
ATOM     69  C   UNL A   1      45.326  32.434  28.273  1.00  0.00     0.010 A 
ATOM     70  C   UNL A   1      47.423  31.556  27.486  1.00  0.00     0.010 A 
ATOM     71  C   UNL A   1      45.519  33.585  27.500  1.00  0.00     0.020 A 
ATOM     72  C   UNL A   1      47.646  32.719  26.745  1.00  0.00     0.020 A 
ATOM     73  C   UNL A   1      46.675  33.713  26.732  1.00  0.00     0.054 A 
BRANCH  73  74
ATOM     74  S   UNL A   1      46.869  35.161  25.664  1.00  0.00     0.124 S 
ATOM     75  O   UNL A   1      46.259  36.214  26.470  1.00  0.00    -0.237 OA
ATOM     76  O   UNL A   1      48.320  35.239  25.511  1.00  0.00    -0.237 OA
ATOM     77  O   UNL A   1      46.138  34.794  24.454  1.00  0.00    -0.744 OA
ENDBRANCH  73  74
ENDBRANCH  54  68
BRANCH  55  78
ATOM     78  C   UNL A   1      38.021  31.208  31.095  1.00  0.00    -0.014 A 
ATOM     79  C   UNL A   1      36.887  30.770  31.803  1.00  0.00     0.010 A 
ATOM     80  C   UNL A   1      37.984  32.502  30.533  1.00  0.00     0.010 A 
ATOM     81  C   UNL A   1      35.790  31.624  32.011  1.00  0.00     0.020 A 
ATOM     82  C   UNL A   1      36.893  33.357  30.733  1.00  0.00     0.020 A 
ATOM     83  C   UNL A   1      35.812  32.923  31.497  1.00  0.00     0.054 A 
BRANCH  83  84
ATOM     84  S   UNL A   1      34.487  34.084  31.951  1.00  0.00     0.124 S 
ATOM     85  O   UNL A   1      33.830  34.324  30.669  1.00  0.00    -0.237 OA
ATOM     86  O   UNL A   1      33.712  33.318  32.924  1.00  0.00    -0.237 OA
ATOM     87  O   UNL A   1      35.207  35.230  32.503  1.00  0.00    -0.744 OA
ENDBRANCH  83  84
ENDBRANCH  55  78
BRANCH  67  88
ATOM     88  C   UNL A   1      43.161  28.819  33.786  1.00  0.00    -0.014 A 
ATOM     89  C   UNL A   1      43.388  29.034  35.161  1.00  0.00     0.010 A 
ATOM     90  C   UNL A   1      42.421  27.688  33.403  1.00  0.00     0.010 A 
ATOM     91  C   UNL A   1      42.913  28.125  36.120  1.00  0.00     0.020 A 
ATOM     92  C   UNL A   1      41.929  26.788  34.352  1.00  0.00     0.020 A 
ATOM     93  C   UNL A   1      42.187  27.004  35.706  1.00  0.00     0.054 A 
BRANCH  93  94
ATOM     94  S   UNL A   1      41.543  25.844  36.946  1.00  0.00     0.124 S 
ATOM     95  O   UNL A   1      40.538  26.646  37.637  1.00  0.00    -0.237 OA
ATOM     96  O   UNL A   1      41.023  24.749  36.131  1.00  0.00    -0.237 OA
ATOM     97  O   UNL A   1      42.718  25.504  37.748  1.00  0.00    -0.744 OA
ENDBRANCH  93  94
ENDBRANCH  67  88
ENDBRANCH  41  42
ENDBRANCH  33  36
ENDBRANCH  31  32
ENDBRANCH   1  31
TORSDOF 18
ENDMDL
MODEL 3
REMARK VINA RESULT:     -11.7      5.174     12.129
REMARK SMILES C=CCn1nc(C(=O)NCCCNC(=O)c2ccc(-c3c4nc(c(-c5ccc(S(=O)(=O)[O-])cc5)c5ccc([nH]5)c(-c5ccc(S(=O)(=O)[O-])cc5)c5nc(c(-c6ccc(S(=O)(=O)[O-])cc6)c6ccc3[nH]6)C=C5)C=C4)cc2)c2c1CC[C@@H]([NH+]1CCC(C(C)(C)O)CC1)C2
REMARK SMILES IDX 11 1 10 2 9 3 7 4 8 5 6 7 4 8 5 9 77 10 76 11 78 12 91 13
REMARK SMILES IDX 79 14 80 15 3 16 2 17 1 18 81 19 82 20 90 21 83 23 89 24
REMARK SMILES IDX 84 25 85 26 86 27 87 28 88 29 12 31 13 32 14 33 15 35 16 36
REMARK SMILES IDX 17 37 75 38 18 39 74 40 19 41 20 42 21 43 68 44 22 45 73 46
REMARK SMILES IDX 67 47 69 48 23 49 72 50 66 51 65 52 24 54 54 55 35 56 53 57
REMARK SMILES IDX 36 58 39 59 52 60 70 61 37 62 38 63 51 65 71 66 40 67 25 68
REMARK SMILES IDX 26 69 34 70 27 71 33 72 28 73 29 74 30 75 31 76 32 77 55 78
REMARK SMILES IDX 56 79 64 80 57 81 63 82 58 83 59 84 60 85 61 86 62 87 41 88
REMARK SMILES IDX 42 89 50 90 43 91 49 92 44 93 45 94 46 95 47 96 48 97
REMARK H PARENT 9 6 81 22 88 30 13 34 69 53 39 64
REMARK Flexibility Score: inf
ROOT
ATOM      1  C   UNL A   1      43.545  21.886  25.380  1.00  0.00     0.042 C 
ENDROOT
BRANCH   1   2
ATOM      2  C   UNL A   1      44.510  23.079  25.231  1.00  0.00     0.118 C 
BRANCH   2   3
ATOM      3  N   UNL A   1      43.825  24.363  25.062  1.00  0.00    -0.351 N 
ATOM      4  C   UNL A   1      43.984  25.663  25.518  1.00  0.00     0.272 C 
ATOM      5  O   UNL A   1      43.251  26.482  24.953  1.00  0.00    -0.267 OA
ATOM      6  H   UNL A   1      43.045  24.282  24.466  1.00  0.00     0.163 HD
BRANCH   4   7
ATOM      7  C   UNL A   1      44.937  26.096  26.579  1.00  0.00     0.153 A 
ATOM      8  N   UNL A   1      45.865  26.111  28.536  1.00  0.00    -0.265 N 
ATOM      9  N   UNL A   1      44.806  25.627  27.845  1.00  0.00    -0.167 NA
ATOM     10  C   UNL A   1      46.558  27.043  27.824  1.00  0.00     0.043 A 
ATOM     11  C   UNL A   1      46.104  26.894  26.537  1.00  0.00     0.012 A 
ATOM     12  C   UNL A   1      47.680  27.923  28.241  1.00  0.00     0.062 C 
ATOM     13  C   UNL A   1      46.837  27.451  25.405  1.00  0.00     0.105 C 
ATOM     14  C   UNL A   1      48.330  28.592  27.000  1.00  0.00     0.072 C 
ATOM     15  C   UNL A   1      48.297  27.830  25.652  1.00  0.00     0.189 C 
BRANCH   8  16
ATOM     16  C   UNL A   1      46.148  25.572  29.866  1.00  0.00     0.171 C 
BRANCH  16  17
ATOM     17  C   UNL A   1      44.976  24.861  30.497  1.00  0.00    -0.011 C 
ATOM     18  C   UNL A   1      44.204  25.382  31.462  1.00  0.00     0.006 C 
ENDBRANCH  16  17
ENDBRANCH   8  16
BRANCH  15  19
ATOM     19  N   UNL A   1      49.155  26.705  25.226  1.00  0.00    -0.332 N 
ATOM     20  C   UNL A   1      50.502  26.956  24.753  1.00  0.00     0.262 C 
ATOM     21  C   UNL A   1      48.531  25.676  24.416  1.00  0.00     0.262 C 
ATOM     22  H   UNL A   1      49.285  26.350  26.173  1.00  0.00     0.348 HD
ATOM     23  C   UNL A   1      50.532  27.476  23.328  1.00  0.00     0.068 C 
ATOM     24  C   UNL A   1      48.305  26.141  22.992  1.00  0.00     0.068 C 
ATOM     25  C   UNL A   1      49.510  26.868  22.336  1.00  0.00     0.031 C 
BRANCH  25  26
ATOM     26  C   UNL A   1      49.019  27.897  21.253  1.00  0.00     0.062 C 
ATOM     27  C   UNL A   1      47.653  28.509  21.563  1.00  0.00     0.042 C 
ATOM     28  C   UNL A   1      50.058  29.000  21.050  1.00  0.00     0.042 C 
BRANCH  26  29
ATOM     29  O   UNL A   1      48.874  27.250  19.987  1.00  0.00    -0.390 OA
ATOM     30  H   UNL A   1      47.988  27.426  19.632  1.00  0.00     0.211 HD
ENDBRANCH  26  29
ENDBRANCH  25  26
ENDBRANCH  15  19
ENDBRANCH   4   7
ENDBRANCH   2   3
ENDBRANCH   1   2
BRANCH   1  31
ATOM     31  C   UNL A   1      42.780  21.743  26.666  1.00  0.00     0.118 C 
BRANCH  31  32
ATOM     32  N   UNL A   1      41.333  21.623  26.454  1.00  0.00    -0.352 N 
ATOM     33  C   UNL A   1      40.358  22.529  26.858  1.00  0.00     0.251 C 
ATOM     34  H   UNL A   1      41.021  20.822  25.977  1.00  0.00     0.163 HD
ATOM     35  O   UNL A   1      39.206  22.195  27.034  1.00  0.00    -0.269 OA
BRANCH  33  36
ATOM     36  C   UNL A   1      40.812  23.916  27.067  1.00  0.00     0.039 A 
ATOM     37  C   UNL A   1      40.268  24.992  26.364  1.00  0.00     0.014 A 
ATOM     38  C   UNL A   1      41.640  24.107  28.163  1.00  0.00     0.014 A 
ATOM     39  C   UNL A   1      40.478  26.275  26.867  1.00  0.00     0.010 A 
ATOM     40  C   UNL A   1      41.594  25.318  28.791  1.00  0.00     0.010 A 
ATOM     41  C   UNL A   1      41.104  26.425  28.115  1.00  0.00    -0.014 A 
BRANCH  41  42
ATOM     42  C   UNL A   1      41.201  27.708  28.799  1.00  0.00     0.031 A 
ATOM     43  C   UNL A   1      42.366  28.548  28.423  1.00  0.00     0.074 A 
ATOM     44  C   UNL A   1      40.210  28.190  29.584  1.00  0.00     0.049 A 
ATOM     45  N   UNL A   1      43.436  28.730  29.121  1.00  0.00    -0.248 NA
ATOM     46  C   UNL A   1      42.431  29.136  27.077  1.00  0.00     0.031 C 
ATOM     47  C   UNL A   1      38.874  27.631  29.847  1.00  0.00     0.029 A 
ATOM     48  N   UNL A   1      40.157  29.374  30.244  1.00  0.00    -0.354 N 
ATOM     49  C   UNL A   1      44.214  29.636  28.414  1.00  0.00     0.074 A 
ATOM     50  C   UNL A   1      43.642  29.703  27.091  1.00  0.00     0.031 C 
ATOM     51  C   UNL A   1      38.076  28.579  30.383  1.00  0.00     0.029 A 
ATOM     52  C   UNL A   1      38.895  29.731  30.700  1.00  0.00     0.049 A 
ATOM     53  H   UNL A   1      40.952  29.936  30.388  1.00  0.00     0.167 HD
ATOM     54  C   UNL A   1      45.124  30.430  29.048  1.00  0.00     0.031 A 
ATOM     55  C   UNL A   1      38.548  30.890  31.310  1.00  0.00     0.031 A 
ATOM     56  C   UNL A   1      45.294  30.037  30.425  1.00  0.00     0.049 A 
ATOM     57  C   UNL A   1      39.796  31.454  31.878  1.00  0.00     0.074 A 
ATOM     58  C   UNL A   1      45.714  28.885  31.059  1.00  0.00     0.029 A 
ATOM     59  N   UNL A   1      44.586  30.754  31.365  1.00  0.00    -0.354 N 
ATOM     60  N   UNL A   1      40.455  30.877  32.845  1.00  0.00    -0.248 NA
ATOM     61  C   UNL A   1      40.571  32.374  31.061  1.00  0.00     0.031 C 
ATOM     62  C   UNL A   1      44.836  28.741  32.173  1.00  0.00     0.029 A 
ATOM     63  C   UNL A   1      43.991  29.854  32.212  1.00  0.00     0.049 A 
ATOM     64  H   UNL A   1      44.520  31.735  31.418  1.00  0.00     0.167 HD
ATOM     65  C   UNL A   1      41.790  31.000  32.487  1.00  0.00     0.074 A 
ATOM     66  C   UNL A   1      41.805  32.022  31.440  1.00  0.00     0.031 C 
ATOM     67  C   UNL A   1      42.715  30.068  32.867  1.00  0.00     0.031 A 
BRANCH  54  68
ATOM     68  C   UNL A   1      45.574  31.781  28.560  1.00  0.00    -0.014 A 
ATOM     69  C   UNL A   1      44.597  32.717  28.162  1.00  0.00     0.010 A 
ATOM     70  C   UNL A   1      46.913  32.070  28.229  1.00  0.00     0.010 A 
ATOM     71  C   UNL A   1      44.937  33.851  27.414  1.00  0.00     0.020 A 
ATOM     72  C   UNL A   1      47.268  33.219  27.520  1.00  0.00     0.020 A 
ATOM     73  C   UNL A   1      46.272  34.087  27.089  1.00  0.00     0.054 A 
BRANCH  73  74
ATOM     74  S   UNL A   1      46.688  35.503  26.041  1.00  0.00     0.124 S 
ATOM     75  O   UNL A   1      46.413  34.980  24.706  1.00  0.00    -0.237 OA
ATOM     76  O   UNL A   1      45.764  36.525  26.524  1.00  0.00    -0.237 OA
ATOM     77  O   UNL A   1      48.096  35.749  26.341  1.00  0.00    -0.744 OA
ENDBRANCH  73  74
ENDBRANCH  54  68
BRANCH  55  78
ATOM     78  C   UNL A   1      37.276  31.645  31.216  1.00  0.00    -0.014 A 
ATOM     79  C   UNL A   1      36.226  31.408  32.122  1.00  0.00     0.010 A 
ATOM     80  C   UNL A   1      37.205  32.808  30.419  1.00  0.00     0.010 A 
ATOM     81  C   UNL A   1      35.185  32.339  32.283  1.00  0.00     0.020 A 
ATOM     82  C   UNL A   1      36.169  33.738  30.571  1.00  0.00     0.020 A 
ATOM     83  C   UNL A   1      35.178  33.512  31.524  1.00  0.00     0.054 A 
BRANCH  83  84
ATOM     84  S   UNL A   1      33.949  34.803  31.890  1.00  0.00     0.124 S 
ATOM     85  O   UNL A   1      33.343  35.036  30.582  1.00  0.00    -0.237 OA
ATOM     86  O   UNL A   1      33.090  34.154  32.877  1.00  0.00    -0.237 OA
ATOM     87  O   UNL A   1      34.754  35.908  32.407  1.00  0.00    -0.744 OA
ENDBRANCH  83  84
ENDBRANCH  55  78
BRANCH  67  88
ATOM     88  C   UNL A   1      42.311  29.031  33.896  1.00  0.00    -0.014 A 
ATOM     89  C   UNL A   1      41.761  27.773  33.574  1.00  0.00     0.010 A 
ATOM     90  C   UNL A   1      42.647  29.286  35.236  1.00  0.00     0.010 A 
ATOM     91  C   UNL A   1      41.528  26.812  34.571  1.00  0.00     0.020 A 
ATOM     92  C   UNL A   1      42.434  28.329  36.232  1.00  0.00     0.020 A 
ATOM     93  C   UNL A   1      41.865  27.100  35.897  1.00  0.00     0.054 A 
BRANCH  93  94
ATOM     94  S   UNL A   1      41.594  25.847  37.183  1.00  0.00     0.124 S 
ATOM     95  O   UNL A   1      41.731  24.597  36.441  1.00  0.00    -0.237 OA
ATOM     96  O   UNL A   1      42.659  26.129  38.143  1.00  0.00    -0.237 OA
ATOM     97  O   UNL A   1      40.244  26.132  37.668  1.00  0.00    -0.744 OA
ENDBRANCH  93  94
ENDBRANCH  67  88
ENDBRANCH  41  42
ENDBRANCH  33  36
ENDBRANCH  31  32
ENDBRANCH   1  31
TORSDOF 18
ENDMDL
