MODEL 1
REMARK VINA RESULT:     -10.9      0.000      0.000
REMARK SMILES O=C(CNC(=O)c1cccs1)N[C@@H]1C=C[C@H](C(=O)NCCCNC(=O)c2ccc(-c3c4nc(c(-c5ccc(S(=O)(=O)[O-])cc5)c5ccc([nH]5)c(-c5ccc(S(=O)(=O)[O-])cc5)c5nc(c(-c6ccc(S(=O)(=O)[O-])cc6)c6ccc3[nH]6)C=C5)C=C4)cc2)C1
REMARK SMILES IDX 20 1 19 2 17 3 18 4 16 6 13 7 14 8 86 9 15 10 12 11 1 12
REMARK SMILES IDX 2 13 3 15 4 16 5 17 6 19 7 20 8 21 11 22 9 23 10 24 21 25
REMARK SMILES IDX 22 26 23 27 24 28 25 30 26 31 27 32 85 33 28 34 84 35 29 36
REMARK SMILES IDX 30 37 31 38 78 39 32 40 83 41 77 42 79 43 33 44 82 45 76 46
REMARK SMILES IDX 75 47 34 49 64 50 45 51 63 52 46 53 49 54 62 55 80 56 47 57
REMARK SMILES IDX 48 58 61 60 81 61 50 62 35 63 36 64 44 65 37 66 43 67 38 68
REMARK SMILES IDX 39 69 40 70 41 71 42 72 65 73 66 74 74 75 67 76 73 77 68 78
REMARK SMILES IDX 69 79 70 80 71 81 72 82 51 83 52 84 60 85 53 86 59 87 54 88
REMARK SMILES IDX 55 89 56 90 57 91 58 92
REMARK H PARENT 19 5 12 14 4 18 23 29 79 48 49 59
REMARK Flexibility Score: inf
ROOT
ATOM      1  C   UNL A   1      31.886  27.746  26.628  1.00  0.00     0.117 C 
ENDROOT
BRANCH   1   2
ATOM      2  N   UNL A   1      31.069  26.568  26.856  1.00  0.00    -0.356 N 
ATOM      3  C   UNL A   1      30.161  25.911  26.093  1.00  0.00     0.227 C 
ATOM      4  O   UNL A   1      29.568  24.971  26.638  1.00  0.00    -0.274 OA
ATOM      5  H   UNL A   1      31.199  26.165  27.746  1.00  0.00     0.163 HD
BRANCH   3   6
ATOM      6  C   UNL A   1      29.903  26.189  24.605  1.00  0.00     0.103 C 
ATOM      7  C   UNL A   1      31.626  25.663  22.914  1.00  0.00     0.106 C 
ATOM      8  C   UNL A   1      31.421  27.129  23.076  1.00  0.00    -0.006 C 
ATOM      9  C   UNL A   1      30.493  25.050  23.750  1.00  0.00     0.047 C 
ATOM     10  C   UNL A   1      30.460  27.415  23.963  1.00  0.00    -0.016 C 
BRANCH   7  11
ATOM     11  N   UNL A   1      32.934  25.286  23.405  1.00  0.00    -0.348 N 
ATOM     12  O   UNL A   1      33.386  23.938  21.604  1.00  0.00    -0.273 OA
ATOM     13  C   UNL A   1      33.716  24.396  22.697  1.00  0.00     0.239 C 
ATOM     14  H   UNL A   1      33.269  25.668  24.249  1.00  0.00     0.164 HD
BRANCH  13  15
ATOM     15  C   UNL A   1      34.909  23.818  23.458  1.00  0.00     0.216 C 
BRANCH  15  16
ATOM     16  N   UNL A   1      34.804  23.916  24.903  1.00  0.00    -0.342 N 
ATOM     17  C   UNL A   1      34.356  22.987  25.810  1.00  0.00     0.261 C 
ATOM     18  H   UNL A   1      35.097  24.773  25.289  1.00  0.00     0.164 HD
ATOM     19  O   UNL A   1      34.353  23.325  26.995  1.00  0.00    -0.268 OA
BRANCH  17  20
ATOM     20  C   UNL A   1      33.884  21.701  25.338  1.00  0.00     0.092 A 
ATOM     21  C   UNL A   1      34.574  20.526  25.092  1.00  0.00     0.025 A 
ATOM     22  S   UNL A   1      32.207  21.511  25.036  1.00  0.00    -0.139 S 
ATOM     23  C   UNL A   1      33.730  19.499  24.577  1.00  0.00     0.012 A 
ATOM     24  C   UNL A   1      32.417  19.904  24.494  1.00  0.00     0.065 A 
ENDBRANCH  17  20
ENDBRANCH  15  16
ENDBRANCH  13  15
ENDBRANCH   7  11
ENDBRANCH   3   6
ENDBRANCH   1   2
BRANCH   1  25
ATOM     25  C   UNL A   1      33.355  27.385  26.431  1.00  0.00     0.042 C 
BRANCH  25  26
ATOM     26  C   UNL A   1      34.189  28.553  25.909  1.00  0.00     0.118 C 
BRANCH  26  27
ATOM     27  N   UNL A   1      33.871  29.800  26.595  1.00  0.00    -0.352 N 
ATOM     28  C   UNL A   1      34.521  30.441  27.619  1.00  0.00     0.251 C 
ATOM     29  H   UNL A   1      33.061  30.254  26.272  1.00  0.00     0.163 HD
ATOM     30  O   UNL A   1      33.950  31.346  28.220  1.00  0.00    -0.269 OA
BRANCH  28  31
ATOM     31  C   UNL A   1      35.895  30.055  27.997  1.00  0.00     0.039 A 
ATOM     32  C   UNL A   1      36.132  29.582  29.290  1.00  0.00     0.014 A 
ATOM     33  C   UNL A   1      36.956  30.210  27.102  1.00  0.00     0.014 A 
ATOM     34  C   UNL A   1      37.428  29.224  29.669  1.00  0.00     0.010 A 
ATOM     35  C   UNL A   1      38.227  29.768  27.449  1.00  0.00     0.010 A 
ATOM     36  C   UNL A   1      38.480  29.289  28.742  1.00  0.00    -0.014 A 
BRANCH  36  37
ATOM     37  C   UNL A   1      39.861  28.891  29.114  1.00  0.00     0.031 A 
ATOM     38  C   UNL A   1      40.759  29.867  29.828  1.00  0.00     0.074 A 
ATOM     39  C   UNL A   1      40.321  27.675  28.762  1.00  0.00     0.049 A 
ATOM     40  N   UNL A   1      42.009  29.727  30.187  1.00  0.00    -0.248 NA
ATOM     41  C   UNL A   1      40.185  31.184  30.157  1.00  0.00     0.031 C 
ATOM     42  C   UNL A   1      39.557  26.655  28.039  1.00  0.00     0.029 A 
ATOM     43  N   UNL A   1      41.545  27.090  28.965  1.00  0.00    -0.354 N 
ATOM     44  C   UNL A   1      42.373  30.938  30.766  1.00  0.00     0.074 A 
ATOM     45  C   UNL A   1      41.234  31.820  30.654  1.00  0.00     0.031 C 
ATOM     46  C   UNL A   1      40.317  25.558  27.893  1.00  0.00     0.029 A 
ATOM     47  C   UNL A   1      41.634  25.811  28.468  1.00  0.00     0.049 A 
ATOM     48  H   UNL A   1      42.290  27.543  29.423  1.00  0.00     0.167 HD
ATOM     49  C   UNL A   1      43.542  31.277  31.361  1.00  0.00     0.031 A 
ATOM     50  C   UNL A   1      42.662  24.940  28.474  1.00  0.00     0.031 A 
ATOM     51  C   UNL A   1      44.670  30.391  31.475  1.00  0.00     0.049 A 
ATOM     52  C   UNL A   1      43.956  25.346  29.123  1.00  0.00     0.074 A 
ATOM     53  C   UNL A   1      45.887  30.620  32.094  1.00  0.00     0.029 A 
ATOM     54  N   UNL A   1      44.719  29.104  30.960  1.00  0.00    -0.354 N 
ATOM     55  N   UNL A   1      44.265  26.477  29.711  1.00  0.00    -0.248 NA
ATOM     56  C   UNL A   1      45.036  24.351  29.122  1.00  0.00     0.031 C 
ATOM     57  C   UNL A   1      46.690  29.491  31.905  1.00  0.00     0.029 A 
ATOM     58  C   UNL A   1      45.951  28.533  31.229  1.00  0.00     0.049 A 
ATOM     59  H   UNL A   1      43.985  28.662  30.474  1.00  0.00     0.167 HD
ATOM     60  C   UNL A   1      45.563  26.315  30.184  1.00  0.00     0.074 A 
ATOM     61  C   UNL A   1      45.974  24.974  29.822  1.00  0.00     0.031 C 
ATOM     62  C   UNL A   1      46.343  27.195  30.863  1.00  0.00     0.031 A 
BRANCH  49  63
ATOM     63  C   UNL A   1      43.654  32.670  31.928  1.00  0.00    -0.014 A 
ATOM     64  C   UNL A   1      44.297  33.698  31.212  1.00  0.00     0.010 A 
ATOM     65  C   UNL A   1      43.091  32.964  33.184  1.00  0.00     0.010 A 
ATOM     66  C   UNL A   1      44.421  34.976  31.763  1.00  0.00     0.020 A 
ATOM     67  C   UNL A   1      43.183  34.250  33.724  1.00  0.00     0.020 A 
ATOM     68  C   UNL A   1      43.867  35.243  33.018  1.00  0.00     0.054 A 
BRANCH  68  69
ATOM     69  S   UNL A   1      44.035  36.914  33.704  1.00  0.00     0.124 S 
ATOM     70  O   UNL A   1      45.004  36.702  34.777  1.00  0.00    -0.237 OA
ATOM     71  O   UNL A   1      44.523  37.681  32.561  1.00  0.00    -0.237 OA
ATOM     72  O   UNL A   1      42.683  37.247  34.143  1.00  0.00    -0.744 OA
ENDBRANCH  68  69
ENDBRANCH  49  63
BRANCH  50  73
ATOM     73  C   UNL A   1      42.494  23.589  27.873  1.00  0.00    -0.014 A 
ATOM     74  C   UNL A   1      43.020  23.306  26.599  1.00  0.00     0.010 A 
ATOM     75  C   UNL A   1      41.820  22.573  28.574  1.00  0.00     0.010 A 
ATOM     76  C   UNL A   1      42.856  22.039  26.030  1.00  0.00     0.020 A 
ATOM     77  C   UNL A   1      41.680  21.296  28.020  1.00  0.00     0.020 A 
ATOM     78  C   UNL A   1      42.189  21.042  26.746  1.00  0.00     0.054 A 
BRANCH  78  79
ATOM     79  S   UNL A   1      42.031  19.393  26.005  1.00  0.00     0.124 S 
ATOM     80  O   UNL A   1      40.591  19.296  25.786  1.00  0.00    -0.237 OA
ATOM     81  O   UNL A   1      42.849  19.508  24.802  1.00  0.00    -0.237 OA
ATOM     82  O   UNL A   1      42.569  18.505  27.033  1.00  0.00    -0.744 OA
ENDBRANCH  78  79
ENDBRANCH  50  73
BRANCH  62  83
ATOM     83  C   UNL A   1      47.702  26.718  31.302  1.00  0.00    -0.014 A 
ATOM     84  C   UNL A   1      47.883  26.022  32.510  1.00  0.00     0.010 A 
ATOM     85  C   UNL A   1      48.811  26.937  30.464  1.00  0.00     0.010 A 
ATOM     86  C   UNL A   1      49.157  25.589  32.890  1.00  0.00     0.020 A 
ATOM     87  C   UNL A   1      50.079  26.478  30.825  1.00  0.00     0.020 A 
ATOM     88  C   UNL A   1      50.247  25.821  32.045  1.00  0.00     0.054 A 
BRANCH  88  89
ATOM     89  S   UNL A   1      51.883  25.220  32.546  1.00  0.00     0.124 S 
ATOM     90  O   UNL A   1      52.091  25.923  33.809  1.00  0.00    -0.237 OA
ATOM     91  O   UNL A   1      51.675  23.778  32.656  1.00  0.00    -0.237 OA
ATOM     92  O   UNL A   1      52.756  25.636  31.451  1.00  0.00    -0.744 OA
ENDBRANCH  88  89
ENDBRANCH  62  83
ENDBRANCH  36  37
ENDBRANCH  28  31
ENDBRANCH  26  27
ENDBRANCH  25  26
ENDBRANCH   1  25
TORSDOF 17
ENDMDL
MODEL 2
REMARK VINA RESULT:     -10.8      1.171      2.055
REMARK SMILES O=C(CNC(=O)c1cccs1)N[C@@H]1C=C[C@H](C(=O)NCCCNC(=O)c2ccc(-c3c4nc(c(-c5ccc(S(=O)(=O)[O-])cc5)c5ccc([nH]5)c(-c5ccc(S(=O)(=O)[O-])cc5)c5nc(c(-c6ccc(S(=O)(=O)[O-])cc6)c6ccc3[nH]6)C=C5)C=C4)cc2)C1
REMARK SMILES IDX 20 1 19 2 17 3 18 4 16 6 13 7 14 8 86 9 15 10 12 11 1 12
REMARK SMILES IDX 2 13 3 15 4 16 5 17 6 19 7 20 8 21 11 22 9 23 10 24 21 25
REMARK SMILES IDX 22 26 23 27 24 28 25 30 26 31 27 32 85 33 28 34 84 35 29 36
REMARK SMILES IDX 30 37 31 38 78 39 32 40 83 41 77 42 79 43 33 44 82 45 76 46
REMARK SMILES IDX 75 47 34 49 64 50 45 51 63 52 46 53 49 54 62 55 80 56 47 57
REMARK SMILES IDX 48 58 61 60 81 61 50 62 35 63 36 64 44 65 37 66 43 67 38 68
REMARK SMILES IDX 39 69 40 70 41 71 42 72 65 73 66 74 74 75 67 76 73 77 68 78
REMARK SMILES IDX 69 79 70 80 71 81 72 82 51 83 52 84 60 85 53 86 59 87 54 88
REMARK SMILES IDX 55 89 56 90 57 91 58 92
REMARK H PARENT 19 5 12 14 4 18 23 29 79 48 49 59
REMARK Flexibility Score: inf
ROOT
ATOM      1  C   UNL A   1      33.349  28.924  24.676  1.00  0.00     0.117 C 
ENDROOT
BRANCH   1   2
ATOM      2  N   UNL A   1      32.841  28.327  23.454  1.00  0.00    -0.356 N 
ATOM      3  C   UNL A   1      31.651  27.769  23.123  1.00  0.00     0.227 C 
ATOM      4  O   UNL A   1      31.580  27.265  21.995  1.00  0.00    -0.274 OA
ATOM      5  H   UNL A   1      33.494  28.327  22.716  1.00  0.00     0.163 HD
BRANCH   3   6
ATOM      6  C   UNL A   1      30.391  27.810  24.000  1.00  0.00     0.103 C 
ATOM      7  C   UNL A   1      29.736  25.845  25.348  1.00  0.00     0.106 C 
ATOM      8  C   UNL A   1      28.790  26.104  24.227  1.00  0.00    -0.006 C 
ATOM      9  C   UNL A   1      30.655  27.076  25.330  1.00  0.00     0.047 C 
ATOM     10  C   UNL A   1      29.121  27.191  23.520  1.00  0.00    -0.016 C 
BRANCH   7  11
ATOM     11  N   UNL A   1      30.463  24.616  25.113  1.00  0.00    -0.348 N 
ATOM     12  O   UNL A   1      30.135  23.840  27.247  1.00  0.00    -0.273 OA
ATOM     13  C   UNL A   1      30.635  23.701  26.132  1.00  0.00     0.239 C 
ATOM     14  H   UNL A   1      30.837  24.432  24.221  1.00  0.00     0.164 HD
BRANCH  13  15
ATOM     15  C   UNL A   1      31.685  22.619  25.875  1.00  0.00     0.216 C 
BRANCH  15  16
ATOM     16  N   UNL A   1      31.541  21.934  24.603  1.00  0.00    -0.342 N 
ATOM     17  C   UNL A   1      32.507  21.398  23.786  1.00  0.00     0.261 C 
ATOM     18  H   UNL A   1      30.617  21.839  24.278  1.00  0.00     0.164 HD
ATOM     19  O   UNL A   1      32.121  20.875  22.740  1.00  0.00    -0.268 OA
BRANCH  17  20
ATOM     20  C   UNL A   1      33.901  21.505  24.167  1.00  0.00     0.092 A 
ATOM     21  C   UNL A   1      34.800  22.544  24.001  1.00  0.00     0.025 A 
ATOM     22  S   UNL A   1      34.623  20.183  24.986  1.00  0.00    -0.139 S 
ATOM     23  C   UNL A   1      36.104  22.215  24.476  1.00  0.00     0.012 A 
ATOM     24  C   UNL A   1      36.146  20.957  25.034  1.00  0.00     0.065 A 
ENDBRANCH  17  20
ENDBRANCH  15  16
ENDBRANCH  13  15
ENDBRANCH   7  11
ENDBRANCH   3   6
ENDBRANCH   1   2
BRANCH   1  25
ATOM     25  C   UNL A   1      33.958  27.880  25.606  1.00  0.00     0.042 C 
BRANCH  25  26
ATOM     26  C   UNL A   1      33.738  28.199  27.083  1.00  0.00     0.118 C 
BRANCH  26  27
ATOM     27  N   UNL A   1      33.593  29.631  27.316  1.00  0.00    -0.352 N 
ATOM     28  C   UNL A   1      34.422  30.516  27.955  1.00  0.00     0.251 C 
ATOM     29  H   UNL A   1      32.766  30.026  26.957  1.00  0.00     0.163 HD
ATOM     30  O   UNL A   1      33.996  31.625  28.263  1.00  0.00    -0.269 OA
BRANCH  28  31
ATOM     31  C   UNL A   1      35.817  30.147  28.270  1.00  0.00     0.039 A 
ATOM     32  C   UNL A   1      36.120  29.685  29.554  1.00  0.00     0.014 A 
ATOM     33  C   UNL A   1      36.832  30.307  27.325  1.00  0.00     0.014 A 
ATOM     34  C   UNL A   1      37.436  29.344  29.873  1.00  0.00     0.010 A 
ATOM     35  C   UNL A   1      38.123  29.881  27.615  1.00  0.00     0.010 A 
ATOM     36  C   UNL A   1      38.443  29.414  28.897  1.00  0.00    -0.014 A 
BRANCH  36  37
ATOM     37  C   UNL A   1      39.843  29.033  29.206  1.00  0.00     0.031 A 
ATOM     38  C   UNL A   1      40.764  30.024  29.867  1.00  0.00     0.074 A 
ATOM     39  C   UNL A   1      40.299  27.818  28.843  1.00  0.00     0.049 A 
ATOM     40  N   UNL A   1      42.032  29.900  30.166  1.00  0.00    -0.248 NA
ATOM     41  C   UNL A   1      40.194  31.338  30.211  1.00  0.00     0.031 C 
ATOM     42  C   UNL A   1      39.511  26.783  28.168  1.00  0.00     0.029 A 
ATOM     43  N   UNL A   1      41.537  27.247  28.993  1.00  0.00    -0.354 N 
ATOM     44  C   UNL A   1      42.411  31.120  30.716  1.00  0.00     0.074 A 
ATOM     45  C   UNL A   1      41.259  31.990  30.651  1.00  0.00     0.031 C 
ATOM     46  C   UNL A   1      40.275  25.693  27.995  1.00  0.00     0.029 A 
ATOM     47  C   UNL A   1      41.615  25.964  28.504  1.00  0.00     0.049 A 
ATOM     48  H   UNL A   1      42.298  27.711  29.410  1.00  0.00     0.167 HD
ATOM     49  C   UNL A   1      43.604  31.477  31.251  1.00  0.00     0.031 A 
ATOM     50  C   UNL A   1      42.650  25.103  28.468  1.00  0.00     0.031 A 
ATOM     51  C   UNL A   1      44.745  30.602  31.319  1.00  0.00     0.049 A 
ATOM     52  C   UNL A   1      43.970  25.528  29.051  1.00  0.00     0.074 A 
ATOM     53  C   UNL A   1      45.987  30.849  31.876  1.00  0.00     0.029 A 
ATOM     54  N   UNL A   1      44.782  29.311  30.814  1.00  0.00    -0.354 N 
ATOM     55  N   UNL A   1      44.296  26.668  29.612  1.00  0.00    -0.248 NA
ATOM     56  C   UNL A   1      45.059  24.543  29.006  1.00  0.00     0.031 C 
ATOM     57  C   UNL A   1      46.792  29.726  31.660  1.00  0.00     0.029 A 
ATOM     58  C   UNL A   1      46.032  28.755  31.029  1.00  0.00     0.049 A 
ATOM     59  H   UNL A   1      44.031  28.857  30.368  1.00  0.00     0.167 HD
ATOM     60  C   UNL A   1      45.616  26.523  30.024  1.00  0.00     0.074 A 
ATOM     61  C   UNL A   1      46.023  25.183  29.654  1.00  0.00     0.031 C 
ATOM     62  C   UNL A   1      46.419  27.417  30.656  1.00  0.00     0.031 A 
BRANCH  49  63
ATOM     63  C   UNL A   1      43.729  32.876  31.799  1.00  0.00    -0.014 A 
ATOM     64  C   UNL A   1      43.385  33.170  33.132  1.00  0.00     0.010 A 
ATOM     65  C   UNL A   1      44.216  33.910  30.977  1.00  0.00     0.010 A 
ATOM     66  C   UNL A   1      43.476  34.477  33.616  1.00  0.00     0.020 A 
ATOM     67  C   UNL A   1      44.341  35.213  31.468  1.00  0.00     0.020 A 
ATOM     68  C   UNL A   1      43.950  35.492  32.780  1.00  0.00     0.054 A 
BRANCH  68  69
ATOM     69  S   UNL A   1      44.066  37.177  33.439  1.00  0.00     0.124 S 
ATOM     70  O   UNL A   1      43.866  37.985  32.239  1.00  0.00    -0.237 OA
ATOM     71  O   UNL A   1      42.976  37.217  34.411  1.00  0.00    -0.237 OA
ATOM     72  O   UNL A   1      45.409  37.235  34.010  1.00  0.00    -0.744 OA
ENDBRANCH  68  69
ENDBRANCH  49  63
BRANCH  50  73
ATOM     73  C   UNL A   1      42.468  23.745  27.888  1.00  0.00    -0.014 A 
ATOM     74  C   UNL A   1      42.670  23.524  26.514  1.00  0.00     0.010 A 
ATOM     75  C   UNL A   1      42.104  22.660  28.707  1.00  0.00     0.010 A 
ATOM     76  C   UNL A   1      42.490  22.250  25.967  1.00  0.00     0.020 A 
ATOM     77  C   UNL A   1      41.954  21.378  28.169  1.00  0.00     0.020 A 
ATOM     78  C   UNL A   1      42.136  21.185  26.799  1.00  0.00     0.054 A 
BRANCH  78  79
ATOM     79  S   UNL A   1      41.956  19.532  26.072  1.00  0.00     0.124 S 
ATOM     80  O   UNL A   1      42.787  19.634  24.877  1.00  0.00    -0.237 OA
ATOM     81  O   UNL A   1      42.468  18.665  27.129  1.00  0.00    -0.237 OA
ATOM     82  O   UNL A   1      40.519  19.422  25.827  1.00  0.00    -0.744 OA
ENDBRANCH  78  79
ENDBRANCH  50  73
BRANCH  62  83
ATOM     83  C   UNL A   1      47.802  26.958  31.034  1.00  0.00    -0.014 A 
ATOM     84  C   UNL A   1      48.086  26.449  32.313  1.00  0.00     0.010 A 
ATOM     85  C   UNL A   1      48.827  26.999  30.070  1.00  0.00     0.010 A 
ATOM     86  C   UNL A   1      49.380  26.028  32.635  1.00  0.00     0.020 A 
ATOM     87  C   UNL A   1      50.113  26.548  30.377  1.00  0.00     0.020 A 
ATOM     88  C   UNL A   1      50.385  26.081  31.664  1.00  0.00     0.054 A 
BRANCH  88  89
ATOM     89  S   UNL A   1      52.047  25.497  32.096  1.00  0.00     0.124 S 
ATOM     90  O   UNL A   1      52.248  26.099  33.411  1.00  0.00    -0.237 OA
ATOM     91  O   UNL A   1      51.889  24.045  32.087  1.00  0.00    -0.237 OA
ATOM     92  O   UNL A   1      52.890  26.033  31.030  1.00  0.00    -0.744 OA
ENDBRANCH  88  89
ENDBRANCH  62  83
ENDBRANCH  36  37
ENDBRANCH  28  31
ENDBRANCH  26  27
ENDBRANCH  25  26
ENDBRANCH   1  25
TORSDOF 17
ENDMDL
MODEL 3
REMARK VINA RESULT:     -10.7      3.113      4.115
REMARK SMILES O=C(CNC(=O)c1cccs1)N[C@@H]1C=C[C@H](C(=O)NCCCNC(=O)c2ccc(-c3c4nc(c(-c5ccc(S(=O)(=O)[O-])cc5)c5ccc([nH]5)c(-c5ccc(S(=O)(=O)[O-])cc5)c5nc(c(-c6ccc(S(=O)(=O)[O-])cc6)c6ccc3[nH]6)C=C5)C=C4)cc2)C1
REMARK SMILES IDX 20 1 19 2 17 3 18 4 16 6 13 7 14 8 86 9 15 10 12 11 1 12
REMARK SMILES IDX 2 13 3 15 4 16 5 17 6 19 7 20 8 21 11 22 9 23 10 24 21 25
REMARK SMILES IDX 22 26 23 27 24 28 25 30 26 31 27 32 85 33 28 34 84 35 29 36
REMARK SMILES IDX 30 37 31 38 78 39 32 40 83 41 77 42 79 43 33 44 82 45 76 46
REMARK SMILES IDX 75 47 34 49 64 50 45 51 63 52 46 53 49 54 62 55 80 56 47 57
REMARK SMILES IDX 48 58 61 60 81 61 50 62 35 63 36 64 44 65 37 66 43 67 38 68
REMARK SMILES IDX 39 69 40 70 41 71 42 72 65 73 66 74 74 75 67 76 73 77 68 78
REMARK SMILES IDX 69 79 70 80 71 81 72 82 51 83 52 84 60 85 53 86 59 87 54 88
REMARK SMILES IDX 55 89 56 90 57 91 58 92
REMARK H PARENT 19 5 12 14 4 18 23 29 79 48 49 59
REMARK Flexibility Score: inf
ROOT
ATOM      1  C   UNL A   1      33.644  29.622  25.908  1.00  0.00     0.117 C 
ENDROOT
BRANCH   1   2
ATOM      2  N   UNL A   1      33.589  28.534  24.949  1.00  0.00    -0.356 N 
ATOM      3  C   UNL A   1      32.610  27.667  24.589  1.00  0.00     0.227 C 
ATOM      4  O   UNL A   1      32.932  26.785  23.783  1.00  0.00    -0.274 OA
ATOM      5  H   UNL A   1      34.434  28.396  24.462  1.00  0.00     0.163 HD
BRANCH   3   6
ATOM      6  C   UNL A   1      31.143  27.772  25.031  1.00  0.00     0.103 C 
ATOM      7  C   UNL A   1      29.830  25.734  25.511  1.00  0.00     0.106 C 
ATOM      8  C   UNL A   1      29.360  26.435  24.284  1.00  0.00    -0.006 C 
ATOM      9  C   UNL A   1      30.847  26.715  26.114  1.00  0.00     0.047 C 
ATOM     10  C   UNL A   1      30.044  27.560  24.044  1.00  0.00    -0.016 C 
BRANCH   7  11
ATOM     11  N   UNL A   1      30.434  24.467  25.161  1.00  0.00    -0.348 N 
ATOM     12  O   UNL A   1      30.045  23.543  27.225  1.00  0.00    -0.273 OA
ATOM     13  C   UNL A   1      30.523  23.455  26.095  1.00  0.00     0.239 C 
ATOM     14  H   UNL A   1      30.783  24.326  24.252  1.00  0.00     0.164 HD
BRANCH  13  15
ATOM     15  C   UNL A   1      31.462  22.304  25.731  1.00  0.00     0.216 C 
BRANCH  15  16
ATOM     16  N   UNL A   1      32.380  21.922  26.789  1.00  0.00    -0.342 N 
ATOM     17  C   UNL A   1      33.748  22.038  26.841  1.00  0.00     0.261 C 
ATOM     18  H   UNL A   1      31.962  21.522  27.585  1.00  0.00     0.164 HD
ATOM     19  O   UNL A   1      34.302  21.620  27.859  1.00  0.00    -0.268 OA
BRANCH  17  20
ATOM     20  C   UNL A   1      34.459  22.596  25.709  1.00  0.00     0.092 A 
ATOM     21  C   UNL A   1      34.481  23.887  25.209  1.00  0.00     0.025 A 
ATOM     22  S   UNL A   1      35.482  21.562  24.801  1.00  0.00    -0.139 S 
ATOM     23  C   UNL A   1      35.276  24.000  24.032  1.00  0.00     0.012 A 
ATOM     24  C   UNL A   1      35.876  22.807  23.699  1.00  0.00     0.065 A 
ENDBRANCH  17  20
ENDBRANCH  15  16
ENDBRANCH  13  15
ENDBRANCH   7  11
ENDBRANCH   3   6
ENDBRANCH   1   2
BRANCH   1  25
ATOM     25  C   UNL A   1      33.900  29.117  27.324  1.00  0.00     0.042 C 
BRANCH  25  26
ATOM     26  C   UNL A   1      35.339  29.340  27.783  1.00  0.00     0.118 C 
BRANCH  26  27
ATOM     27  N   UNL A   1      35.403  30.075  29.041  1.00  0.00    -0.352 N 
ATOM     28  C   UNL A   1      36.428  30.206  29.943  1.00  0.00     0.251 C 
ATOM     29  H   UNL A   1      34.578  30.553  29.282  1.00  0.00     0.163 HD
ATOM     30  O   UNL A   1      36.192  30.659  31.059  1.00  0.00    -0.269 OA
BRANCH  28  31
ATOM     31  C   UNL A   1      37.804  29.811  29.580  1.00  0.00     0.039 A 
ATOM     32  C   UNL A   1      38.224  29.964  28.257  1.00  0.00     0.014 A 
ATOM     33  C   UNL A   1      38.659  29.241  30.525  1.00  0.00     0.014 A 
ATOM     34  C   UNL A   1      39.517  29.584  27.893  1.00  0.00     0.010 A 
ATOM     35  C   UNL A   1      39.974  28.948  30.184  1.00  0.00     0.010 A 
ATOM     36  C   UNL A   1      40.411  29.098  28.860  1.00  0.00    -0.014 A 
BRANCH  36  37
ATOM     37  C   UNL A   1      41.798  28.710  28.503  1.00  0.00     0.031 A 
ATOM     38  C   UNL A   1      42.890  29.747  28.490  1.00  0.00     0.074 A 
ATOM     39  C   UNL A   1      42.062  27.441  28.137  1.00  0.00     0.049 A 
ATOM     40  N   UNL A   1      44.147  29.618  28.153  1.00  0.00    -0.248 NA
ATOM     41  C   UNL A   1      42.513  31.117  28.881  1.00  0.00     0.031 C 
ATOM     42  C   UNL A   1      41.081  26.354  28.077  1.00  0.00     0.029 A 
ATOM     43  N   UNL A   1      43.236  26.848  27.747  1.00  0.00    -0.354 N 
ATOM     44  C   UNL A   1      44.704  30.886  28.276  1.00  0.00     0.074 A 
ATOM     45  C   UNL A   1      43.637  31.782  28.656  1.00  0.00     0.031 C 
ATOM     46  C   UNL A   1      41.701  25.222  27.710  1.00  0.00     0.029 A 
ATOM     47  C   UNL A   1      43.110  25.509  27.464  1.00  0.00     0.049 A 
ATOM     48  H   UNL A   1      44.088  27.337  27.674  1.00  0.00     0.167 HD
ATOM     49  C   UNL A   1      45.994  31.267  28.112  1.00  0.00     0.031 A 
ATOM     50  C   UNL A   1      44.027  24.612  27.052  1.00  0.00     0.031 A 
ATOM     51  C   UNL A   1      47.054  30.367  27.740  1.00  0.00     0.049 A 
ATOM     52  C   UNL A   1      45.449  25.063  26.858  1.00  0.00     0.074 A 
ATOM     53  C   UNL A   1      48.402  30.641  27.586  1.00  0.00     0.029 A 
ATOM     54  N   UNL A   1      46.885  29.018  27.464  1.00  0.00    -0.354 N 
ATOM     55  N   UNL A   1      45.968  26.256  27.028  1.00  0.00    -0.248 NA
ATOM     56  C   UNL A   1      46.413  24.041  26.429  1.00  0.00     0.031 C 
ATOM     57  C   UNL A   1      49.039  29.469  27.166  1.00  0.00     0.029 A 
ATOM     58  C   UNL A   1      48.101  28.450  27.123  1.00  0.00     0.049 A 
ATOM     59  H   UNL A   1      46.028  28.537  27.505  1.00  0.00     0.167 HD
ATOM     60  C   UNL A   1      47.326  26.119  26.765  1.00  0.00     0.074 A 
ATOM     61  C   UNL A   1      47.548  24.726  26.434  1.00  0.00     0.031 C 
ATOM     62  C   UNL A   1      48.304  27.059  26.799  1.00  0.00     0.031 A 
BRANCH  49  63
ATOM     63  C   UNL A   1      46.321  32.722  28.331  1.00  0.00    -0.014 A 
ATOM     64  C   UNL A   1      46.838  33.176  29.560  1.00  0.00     0.010 A 
ATOM     65  C   UNL A   1      46.131  33.649  27.289  1.00  0.00     0.010 A 
ATOM     66  C   UNL A   1      47.107  34.533  29.758  1.00  0.00     0.020 A 
ATOM     67  C   UNL A   1      46.431  35.002  27.472  1.00  0.00     0.020 A 
ATOM     68  C   UNL A   1      46.898  35.438  28.715  1.00  0.00     0.054 A 
BRANCH  68  69
ATOM     69  S   UNL A   1      47.265  37.191  28.999  1.00  0.00     0.124 S 
ATOM     70  O   UNL A   1      46.354  37.845  28.063  1.00  0.00    -0.237 OA
ATOM     71  O   UNL A   1      46.940  37.361  30.413  1.00  0.00    -0.237 OA
ATOM     72  O   UNL A   1      48.683  37.307  28.670  1.00  0.00    -0.744 OA
ENDBRANCH  68  69
ENDBRANCH  49  63
BRANCH  50  73
ATOM     73  C   UNL A   1      43.633  23.195  26.827  1.00  0.00    -0.014 A 
ATOM     74  C   UNL A   1      43.085  22.433  27.875  1.00  0.00     0.010 A 
ATOM     75  C   UNL A   1      43.791  22.601  25.561  1.00  0.00     0.010 A 
ATOM     76  C   UNL A   1      42.723  21.099  27.667  1.00  0.00     0.020 A 
ATOM     77  C   UNL A   1      43.401  21.276  25.342  1.00  0.00     0.020 A 
ATOM     78  C   UNL A   1      42.881  20.530  26.400  1.00  0.00     0.054 A 
BRANCH  78  79
ATOM     79  S   UNL A   1      42.358  18.812  26.144  1.00  0.00     0.124 S 
ATOM     80  O   UNL A   1      43.285  18.364  25.109  1.00  0.00    -0.237 OA
ATOM     81  O   UNL A   1      42.551  18.223  27.466  1.00  0.00    -0.237 OA
ATOM     82  O   UNL A   1      40.964  18.938  25.724  1.00  0.00    -0.744 OA
ENDBRANCH  78  79
ENDBRANCH  50  73
BRANCH  62  83
ATOM     83  C   UNL A   1      49.712  26.604  26.520  1.00  0.00    -0.014 A 
ATOM     84  C   UNL A   1      50.272  26.686  25.234  1.00  0.00     0.010 A 
ATOM     85  C   UNL A   1      50.502  26.124  27.582  1.00  0.00     0.010 A 
ATOM     86  C   UNL A   1      51.583  26.259  25.006  1.00  0.00     0.020 A 
ATOM     87  C   UNL A   1      51.822  25.727  27.365  1.00  0.00     0.020 A 
ATOM     88  C   UNL A   1      52.350  25.781  26.074  1.00  0.00     0.054 A 
BRANCH  88  89
ATOM     89  S   UNL A   1      54.059  25.264  25.758  1.00  0.00     0.124 S 
ATOM     90  O   UNL A   1      53.884  23.875  25.341  1.00  0.00    -0.237 OA
ATOM     91  O   UNL A   1      54.484  26.186  24.709  1.00  0.00    -0.237 OA
ATOM     92  O   UNL A   1      54.721  25.448  27.047  1.00  0.00    -0.744 OA
ENDBRANCH  88  89
ENDBRANCH  62  83
ENDBRANCH  36  37
ENDBRANCH  28  31
ENDBRANCH  26  27
ENDBRANCH  25  26
ENDBRANCH   1  25
TORSDOF 17
ENDMDL
