MODEL 1
REMARK VINA RESULT:     -11.8      0.000      0.000
REMARK SMILES Cc1cc(Cl)c2c(c1)C=C(C(=O)NCCCNC(=O)c1ccc(-c3c4nc(c(-c5ccc(S(=O)(=O)[O-])cc5)c5ccc([nH]5)c(-c5ccc(S(=O)(=O)[O-])cc5)c5nc(c(-c6ccc(S(=O)(=O)[O-])cc6)c6ccc3[nH]6)C=C5)C=C4)cc1)[C@@H](C(F)(F)F)O2
REMARK SMILES IDX 16 1 15 2 14 3 13 4 11 5 12 6 10 8 1 9 2 10 3 11 8 12 4 13
REMARK SMILES IDX 7 14 5 15 6 16 9 17 85 18 80 19 81 20 82 21 83 22 84 23
REMARK SMILES IDX 17 24 18 25 19 27 20 28 21 29 79 30 22 31 78 32 23 33 24 34
REMARK SMILES IDX 25 35 72 36 26 37 77 38 71 39 73 40 27 41 76 42 70 43 69 44
REMARK SMILES IDX 28 46 58 47 39 48 57 49 40 50 43 51 56 52 74 53 41 54 42 55
REMARK SMILES IDX 55 57 75 58 44 59 29 60 30 61 38 62 31 63 37 64 32 65 33 66
REMARK SMILES IDX 34 67 35 68 36 69 59 70 60 71 68 72 61 73 67 74 62 75 63 76
REMARK SMILES IDX 64 77 65 78 66 79 45 80 46 81 54 82 47 83 53 84 48 85 49 86
REMARK SMILES IDX 50 87 51 88 52 89
REMARK H PARENT 13 7 17 26 73 45 43 56
REMARK Flexibility Score: inf
ROOT
ATOM      1  C   UNL A   1      33.434  28.355  26.818  1.00  0.00     0.118 C 
ENDROOT
BRANCH   1   2
ATOM      2  C   UNL A   1      33.861  28.036  25.391  1.00  0.00     0.042 C 
BRANCH   2   3
ATOM      3  C   UNL A   1      32.800  27.249  24.638  1.00  0.00     0.118 C 
BRANCH   3   4
ATOM      4  N   UNL A   1      31.871  26.586  25.542  1.00  0.00    -0.352 N 
ATOM      5  C   UNL A   1      31.689  25.341  26.039  1.00  0.00     0.251 C 
ATOM      6  O   UNL A   1      30.733  25.219  26.813  1.00  0.00    -0.270 OA
ATOM      7  H   UNL A   1      31.193  27.211  25.884  1.00  0.00     0.163 HD
BRANCH   5   8
ATOM      8  C   UNL A   1      32.542  24.157  25.728  1.00  0.00     0.067 C 
ATOM      9  C   UNL A   1      38.465  22.383  25.891  1.00  0.00     0.044 C 
ATOM     10  C   UNL A   1      36.985  22.219  25.714  1.00  0.00    -0.049 A 
ATOM     11  C   UNL A   1      36.451  21.004  25.270  1.00  0.00     0.028 A 
ATOM     12  C   UNL A   1      36.121  23.295  25.965  1.00  0.00     0.015 A 
ATOM     13  C   UNL A   1      35.074  20.861  25.100  1.00  0.00     0.084 A 
ATOM     14  C   UNL A   1      34.739  23.155  25.789  1.00  0.00     0.019 A 
ATOM     15  Cl  UNL A   1      34.465  19.339  24.554  1.00  0.00    -0.080 Cl
ATOM     16  C   UNL A   1      34.217  21.936  25.354  1.00  0.00     0.146 A 
ATOM     17  C   UNL A   1      33.835  24.259  26.089  1.00  0.00     0.025 C 
ATOM     18  O   UNL A   1      32.871  21.742  25.213  1.00  0.00    -0.474 OA
ATOM     19  C   UNL A   1      32.053  22.926  25.021  1.00  0.00     0.314 C 
BRANCH  19  20
ATOM     20  C   UNL A   1      31.840  23.155  23.512  1.00  0.00     0.429 C 
ATOM     21  F   UNL A   1      30.565  23.539  23.261  1.00  0.00    -0.167 F 
ATOM     22  F   UNL A   1      32.639  24.128  23.014  1.00  0.00    -0.167 F 
ATOM     23  F   UNL A   1      32.083  22.043  22.780  1.00  0.00    -0.167 F 
ENDBRANCH  19  20
ENDBRANCH   5   8
ENDBRANCH   3   4
ENDBRANCH   2   3
ENDBRANCH   1   2
BRANCH   1  24
ATOM     24  N   UNL A   1      33.385  29.795  27.059  1.00  0.00    -0.352 N 
ATOM     25  C   UNL A   1      34.251  30.605  27.750  1.00  0.00     0.251 C 
ATOM     26  H   UNL A   1      32.610  30.257  26.663  1.00  0.00     0.163 HD
ATOM     27  O   UNL A   1      33.890  31.730  28.092  1.00  0.00    -0.269 OA
BRANCH  25  28
ATOM     28  C   UNL A   1      35.606  30.123  28.081  1.00  0.00     0.039 A 
ATOM     29  C   UNL A   1      36.611  30.168  27.113  1.00  0.00     0.014 A 
ATOM     30  C   UNL A   1      35.873  29.604  29.349  1.00  0.00     0.014 A 
ATOM     31  C   UNL A   1      37.900  29.748  27.441  1.00  0.00     0.010 A 
ATOM     32  C   UNL A   1      37.176  29.287  29.706  1.00  0.00     0.010 A 
ATOM     33  C   UNL A   1      38.199  29.336  28.750  1.00  0.00    -0.014 A 
BRANCH  33  34
ATOM     34  C   UNL A   1      39.564  28.907  29.135  1.00  0.00     0.031 A 
ATOM     35  C   UNL A   1      40.434  29.826  29.950  1.00  0.00     0.074 A 
ATOM     36  C   UNL A   1      40.032  27.714  28.719  1.00  0.00     0.049 A 
ATOM     37  N   UNL A   1      41.661  29.647  30.363  1.00  0.00    -0.248 NA
ATOM     38  C   UNL A   1      39.857  31.127  30.329  1.00  0.00     0.031 C 
ATOM     39  C   UNL A   1      39.290  26.751  27.902  1.00  0.00     0.029 A 
ATOM     40  N   UNL A   1      41.239  27.103  28.940  1.00  0.00    -0.354 N 
ATOM     41  C   UNL A   1      41.999  30.808  31.048  1.00  0.00     0.074 A 
ATOM     42  C   UNL A   1      40.882  31.717  30.922  1.00  0.00     0.031 C 
ATOM     43  C   UNL A   1      40.036  25.645  27.744  1.00  0.00     0.029 A 
ATOM     44  C   UNL A   1      41.320  25.838  28.408  1.00  0.00     0.049 A 
ATOM     45  H   UNL A   1      41.978  27.529  29.432  1.00  0.00     0.167 HD
ATOM     46  C   UNL A   1      43.121  31.082  31.755  1.00  0.00     0.031 A 
ATOM     47  C   UNL A   1      42.314  24.930  28.463  1.00  0.00     0.031 A 
ATOM     48  C   UNL A   1      44.227  30.174  31.878  1.00  0.00     0.049 A 
ATOM     49  C   UNL A   1      43.577  25.276  29.202  1.00  0.00     0.074 A 
ATOM     50  C   UNL A   1      45.404  30.343  32.585  1.00  0.00     0.029 A 
ATOM     51  N   UNL A   1      44.289  28.924  31.282  1.00  0.00    -0.354 N 
ATOM     52  N   UNL A   1      43.865  26.366  29.873  1.00  0.00    -0.248 NA
ATOM     53  C   UNL A   1      44.649  24.271  29.190  1.00  0.00     0.031 C 
ATOM     54  C   UNL A   1      46.199  29.211  32.376  1.00  0.00     0.029 A 
ATOM     55  C   UNL A   1      45.494  28.316  31.584  1.00  0.00     0.049 A 
ATOM     56  H   UNL A   1      43.579  28.528  30.726  1.00  0.00     0.167 HD
ATOM     57  C   UNL A   1      45.145  26.171  30.378  1.00  0.00     0.074 A 
ATOM     58  C   UNL A   1      45.570  24.854  29.946  1.00  0.00     0.031 C 
ATOM     59  C   UNL A   1      45.900  27.008  31.133  1.00  0.00     0.031 A 
BRANCH  46  60
ATOM     60  C   UNL A   1      43.182  32.415  32.451  1.00  0.00    -0.014 A 
ATOM     61  C   UNL A   1      42.690  32.562  33.763  1.00  0.00     0.010 A 
ATOM     62  C   UNL A   1      43.725  33.534  31.798  1.00  0.00     0.010 A 
ATOM     63  C   UNL A   1      42.684  33.814  34.383  1.00  0.00     0.020 A 
ATOM     64  C   UNL A   1      43.750  34.783  32.426  1.00  0.00     0.020 A 
ATOM     65  C   UNL A   1      43.206  34.919  33.705  1.00  0.00     0.054 A 
BRANCH  65  66
ATOM     66  S   UNL A   1      43.171  36.533  34.531  1.00  0.00     0.124 S 
ATOM     67  O   UNL A   1      41.839  36.532  35.132  1.00  0.00    -0.237 OA
ATOM     68  O   UNL A   1      44.283  36.436  35.473  1.00  0.00    -0.237 OA
ATOM     69  O   UNL A   1      43.362  37.485  33.441  1.00  0.00    -0.744 OA
ENDBRANCH  65  66
ENDBRANCH  46  60
BRANCH  47  70
ATOM     70  C   UNL A   1      42.120  23.589  27.849  1.00  0.00    -0.014 A 
ATOM     71  C   UNL A   1      42.620  23.329  26.561  1.00  0.00     0.010 A 
ATOM     72  C   UNL A   1      41.496  22.549  28.563  1.00  0.00     0.010 A 
ATOM     73  C   UNL A   1      42.504  22.056  25.999  1.00  0.00     0.020 A 
ATOM     74  C   UNL A   1      41.398  21.267  28.012  1.00  0.00     0.020 A 
ATOM     75  C   UNL A   1      41.903  21.030  26.732  1.00  0.00     0.054 A 
BRANCH  75  76
ATOM     76  S   UNL A   1      41.841  19.366  26.009  1.00  0.00     0.124 S 
ATOM     77  O   UNL A   1      42.737  19.497  24.865  1.00  0.00    -0.237 OA
ATOM     78  O   UNL A   1      42.330  18.532  27.105  1.00  0.00    -0.237 OA
ATOM     79  O   UNL A   1      40.428  19.187  25.682  1.00  0.00    -0.744 OA
ENDBRANCH  75  76
ENDBRANCH  47  70
BRANCH  59  80
ATOM     80  C   UNL A   1      47.267  26.533  31.544  1.00  0.00    -0.014 A 
ATOM     81  C   UNL A   1      47.447  25.812  32.737  1.00  0.00     0.010 A 
ATOM     82  C   UNL A   1      48.358  26.716  30.676  1.00  0.00     0.010 A 
ATOM     83  C   UNL A   1      48.700  25.286  33.057  1.00  0.00     0.020 A 
ATOM     84  C   UNL A   1      49.607  26.169  30.981  1.00  0.00     0.020 A 
ATOM     85  C   UNL A   1      49.770  25.459  32.173  1.00  0.00     0.054 A 
BRANCH  85  86
ATOM     86  S   UNL A   1      51.361  24.687  32.575  1.00  0.00     0.124 S 
ATOM     87  O   UNL A   1      52.296  25.490  31.791  1.00  0.00    -0.237 OA
ATOM     88  O   UNL A   1      51.442  24.862  34.022  1.00  0.00    -0.237 OA
ATOM     89  O   UNL A   1      51.201  23.305  32.127  1.00  0.00    -0.744 OA
ENDBRANCH  85  86
ENDBRANCH  59  80
ENDBRANCH  33  34
ENDBRANCH  25  28
ENDBRANCH   1  24
TORSDOF 14
ENDMDL
MODEL 2
REMARK VINA RESULT:     -11.7      2.972      9.364
REMARK SMILES Cc1cc(Cl)c2c(c1)C=C(C(=O)NCCCNC(=O)c1ccc(-c3c4nc(c(-c5ccc(S(=O)(=O)[O-])cc5)c5ccc([nH]5)c(-c5ccc(S(=O)(=O)[O-])cc5)c5nc(c(-c6ccc(S(=O)(=O)[O-])cc6)c6ccc3[nH]6)C=C5)C=C4)cc1)[C@@H](C(F)(F)F)O2
REMARK SMILES IDX 16 1 15 2 14 3 13 4 11 5 12 6 10 8 1 9 2 10 3 11 8 12 4 13
REMARK SMILES IDX 7 14 5 15 6 16 9 17 85 18 80 19 81 20 82 21 83 22 84 23
REMARK SMILES IDX 17 24 18 25 19 27 20 28 21 29 79 30 22 31 78 32 23 33 24 34
REMARK SMILES IDX 25 35 72 36 26 37 77 38 71 39 73 40 27 41 76 42 70 43 69 44
REMARK SMILES IDX 28 46 58 47 39 48 57 49 40 50 43 51 56 52 74 53 41 54 42 55
REMARK SMILES IDX 55 57 75 58 44 59 29 60 30 61 38 62 31 63 37 64 32 65 33 66
REMARK SMILES IDX 34 67 35 68 36 69 59 70 60 71 68 72 61 73 67 74 62 75 63 76
REMARK SMILES IDX 64 77 65 78 66 79 45 80 46 81 54 82 47 83 53 84 48 85 49 86
REMARK SMILES IDX 50 87 51 88 52 89
REMARK H PARENT 13 7 17 26 73 45 43 56
REMARK Flexibility Score: inf
ROOT
ATOM      1  C   UNL A   1      36.689  23.658  25.218  1.00  0.00     0.118 C 
ENDROOT
BRANCH   1   2
ATOM      2  C   UNL A   1      35.516  23.658  26.190  1.00  0.00     0.042 C 
BRANCH   2   3
ATOM      3  C   UNL A   1      34.239  23.139  25.547  1.00  0.00     0.118 C 
BRANCH   3   4
ATOM      4  N   UNL A   1      34.236  23.341  24.105  1.00  0.00    -0.352 N 
ATOM      5  C   UNL A   1      33.817  24.291  23.238  1.00  0.00     0.251 C 
ATOM      6  O   UNL A   1      34.027  24.042  22.046  1.00  0.00    -0.270 OA
ATOM      7  H   UNL A   1      34.649  22.582  23.635  1.00  0.00     0.163 HD
BRANCH   5   8
ATOM      8  C   UNL A   1      33.153  25.571  23.619  1.00  0.00     0.067 C 
ATOM      9  C   UNL A   1      33.971  30.433  27.353  1.00  0.00     0.044 C 
ATOM     10  C   UNL A   1      33.318  29.624  26.272  1.00  0.00    -0.049 A 
ATOM     11  C   UNL A   1      32.136  30.066  25.666  1.00  0.00     0.028 A 
ATOM     12  C   UNL A   1      33.872  28.398  25.877  1.00  0.00     0.015 A 
ATOM     13  C   UNL A   1      31.531  29.304  24.667  1.00  0.00     0.084 A 
ATOM     14  C   UNL A   1      33.263  27.630  24.878  1.00  0.00     0.019 A 
ATOM     15  Cl  UNL A   1      30.075  29.896  23.948  1.00  0.00    -0.080 Cl
ATOM     16  C   UNL A   1      32.089  28.084  24.275  1.00  0.00     0.146 A 
ATOM     17  C   UNL A   1      33.859  26.375  24.435  1.00  0.00     0.025 C 
ATOM     18  O   UNL A   1      31.486  27.388  23.264  1.00  0.00    -0.474 OA
ATOM     19  C   UNL A   1      31.771  25.967  23.184  1.00  0.00     0.314 C 
BRANCH  19  20
ATOM     20  C   UNL A   1      30.669  25.187  23.928  1.00  0.00     0.429 C 
ATOM     21  F   UNL A   1      29.639  26.004  24.254  1.00  0.00    -0.167 F 
ATOM     22  F   UNL A   1      30.144  24.185  23.182  1.00  0.00    -0.167 F 
ATOM     23  F   UNL A   1      31.118  24.621  25.072  1.00  0.00    -0.167 F 
ENDBRANCH  19  20
ENDBRANCH   5   8
ENDBRANCH   3   4
ENDBRANCH   2   3
ENDBRANCH   1   2
BRANCH   1  24
ATOM     24  N   UNL A   1      37.695  22.664  25.584  1.00  0.00    -0.352 N 
ATOM     25  C   UNL A   1      38.941  22.829  26.135  1.00  0.00     0.251 C 
ATOM     26  H   UNL A   1      37.438  21.729  25.409  1.00  0.00     0.163 HD
ATOM     27  O   UNL A   1      39.750  21.904  26.096  1.00  0.00    -0.269 OA
BRANCH  25  28
ATOM     28  C   UNL A   1      39.304  24.113  26.766  1.00  0.00     0.039 A 
ATOM     29  C   UNL A   1      38.951  24.353  28.095  1.00  0.00     0.014 A 
ATOM     30  C   UNL A   1      39.976  25.089  26.029  1.00  0.00     0.014 A 
ATOM     31  C   UNL A   1      39.330  25.552  28.700  1.00  0.00     0.010 A 
ATOM     32  C   UNL A   1      40.444  26.233  26.660  1.00  0.00     0.010 A 
ATOM     33  C   UNL A   1      40.108  26.486  27.997  1.00  0.00    -0.014 A 
BRANCH  33  34
ATOM     34  C   UNL A   1      40.545  27.757  28.620  1.00  0.00     0.031 A 
ATOM     35  C   UNL A   1      41.972  27.914  29.072  1.00  0.00     0.074 A 
ATOM     36  C   UNL A   1      39.654  28.748  28.814  1.00  0.00     0.049 A 
ATOM     37  N   UNL A   1      42.542  28.933  29.662  1.00  0.00    -0.248 NA
ATOM     38  C   UNL A   1      42.870  26.766  28.858  1.00  0.00     0.031 C 
ATOM     39  C   UNL A   1      38.239  28.699  28.441  1.00  0.00     0.029 A 
ATOM     40  N   UNL A   1      39.811  29.996  29.360  1.00  0.00    -0.354 N 
ATOM     41  C   UNL A   1      43.858  28.548  29.886  1.00  0.00     0.074 A 
ATOM     42  C   UNL A   1      43.981  27.176  29.447  1.00  0.00     0.031 C 
ATOM     43  C   UNL A   1      37.673  29.887  28.712  1.00  0.00     0.029 A 
ATOM     44  C   UNL A   1      38.671  30.763  29.316  1.00  0.00     0.049 A 
ATOM     45  H   UNL A   1      40.659  30.313  29.746  1.00  0.00     0.167 HD
ATOM     46  C   UNL A   1      44.887  29.282  30.372  1.00  0.00     0.031 A 
ATOM     47  C   UNL A   1      38.460  32.034  29.707  1.00  0.00     0.031 A 
ATOM     48  C   UNL A   1      44.760  30.645  30.804  1.00  0.00     0.049 A 
ATOM     49  C   UNL A   1      39.599  32.813  30.302  1.00  0.00     0.074 A 
ATOM     50  C   UNL A   1      45.740  31.487  31.296  1.00  0.00     0.029 A 
ATOM     51  N   UNL A   1      43.576  31.368  30.790  1.00  0.00    -0.354 N 
ATOM     52  N   UNL A   1      40.847  32.444  30.473  1.00  0.00    -0.248 NA
ATOM     53  C   UNL A   1      39.303  34.179  30.757  1.00  0.00     0.031 C 
ATOM     54  C   UNL A   1      45.138  32.706  31.625  1.00  0.00     0.029 A 
ATOM     55  C   UNL A   1      43.794  32.640  31.287  1.00  0.00     0.049 A 
ATOM     56  H   UNL A   1      42.709  31.025  30.473  1.00  0.00     0.167 HD
ATOM     57  C   UNL A   1      41.490  33.538  31.040  1.00  0.00     0.074 A 
ATOM     58  C   UNL A   1      40.496  34.586  31.171  1.00  0.00     0.031 C 
ATOM     59  C   UNL A   1      42.786  33.664  31.418  1.00  0.00     0.031 A 
BRANCH  46  60
ATOM     60  C   UNL A   1      46.233  28.610  30.444  1.00  0.00    -0.014 A 
ATOM     61  C   UNL A   1      46.629  27.923  31.608  1.00  0.00     0.010 A 
ATOM     62  C   UNL A   1      47.114  28.666  29.351  1.00  0.00     0.010 A 
ATOM     63  C   UNL A   1      47.904  27.360  31.699  1.00  0.00     0.020 A 
ATOM     64  C   UNL A   1      48.380  28.076  29.426  1.00  0.00     0.020 A 
ATOM     65  C   UNL A   1      48.775  27.448  30.609  1.00  0.00     0.054 A 
BRANCH  65  66
ATOM     66  S   UNL A   1      50.428  26.719  30.763  1.00  0.00     0.124 S 
ATOM     67  O   UNL A   1      50.588  26.644  32.214  1.00  0.00    -0.237 OA
ATOM     68  O   UNL A   1      50.277  25.435  30.082  1.00  0.00    -0.237 OA
ATOM     69  O   UNL A   1      51.296  27.680  30.090  1.00  0.00    -0.744 OA
ENDBRANCH  65  66
ENDBRANCH  46  60
BRANCH  47  70
ATOM     70  C   UNL A   1      37.128  32.659  29.486  1.00  0.00    -0.014 A 
ATOM     71  C   UNL A   1      36.249  32.835  30.569  1.00  0.00     0.010 A 
ATOM     72  C   UNL A   1      36.753  33.138  28.217  1.00  0.00     0.010 A 
ATOM     73  C   UNL A   1      35.023  33.480  30.390  1.00  0.00     0.020 A 
ATOM     74  C   UNL A   1      35.537  33.805  28.038  1.00  0.00     0.020 A 
ATOM     75  C   UNL A   1      34.679  33.970  29.128  1.00  0.00     0.054 A 
BRANCH  75  76
ATOM     76  S   UNL A   1      33.117  34.877  28.943  1.00  0.00     0.124 S 
ATOM     77  O   UNL A   1      32.434  34.102  27.913  1.00  0.00    -0.237 OA
ATOM     78  O   UNL A   1      32.547  34.791  30.285  1.00  0.00    -0.237 OA
ATOM     79  O   UNL A   1      33.545  36.215  28.541  1.00  0.00    -0.744 OA
ENDBRANCH  75  76
ENDBRANCH  47  70
BRANCH  59  80
ATOM     80  C   UNL A   1      43.215  34.977  32.012  1.00  0.00    -0.014 A 
ATOM     81  C   UNL A   1      43.757  35.988  31.200  1.00  0.00     0.010 A 
ATOM     82  C   UNL A   1      42.973  35.239  33.373  1.00  0.00     0.010 A 
ATOM     83  C   UNL A   1      44.054  37.240  31.742  1.00  0.00     0.020 A 
ATOM     84  C   UNL A   1      43.245  36.499  33.911  1.00  0.00     0.020 A 
ATOM     85  C   UNL A   1      43.787  37.491  33.092  1.00  0.00     0.054 A 
BRANCH  85  86
ATOM     86  S   UNL A   1      44.101  39.154  33.744  1.00  0.00     0.124 S 
ATOM     87  O   UNL A   1      45.109  39.660  32.817  1.00  0.00    -0.237 OA
ATOM     88  O   UNL A   1      42.787  39.786  33.650  1.00  0.00    -0.237 OA
ATOM     89  O   UNL A   1      44.573  38.911  35.106  1.00  0.00    -0.744 OA
ENDBRANCH  85  86
ENDBRANCH  59  80
ENDBRANCH  33  34
ENDBRANCH  25  28
ENDBRANCH   1  24
TORSDOF 14
ENDMDL
MODEL 3
REMARK VINA RESULT:     -11.2      4.194     10.041
REMARK SMILES Cc1cc(Cl)c2c(c1)C=C(C(=O)NCCCNC(=O)c1ccc(-c3c4nc(c(-c5ccc(S(=O)(=O)[O-])cc5)c5ccc([nH]5)c(-c5ccc(S(=O)(=O)[O-])cc5)c5nc(c(-c6ccc(S(=O)(=O)[O-])cc6)c6ccc3[nH]6)C=C5)C=C4)cc1)[C@@H](C(F)(F)F)O2
REMARK SMILES IDX 16 1 15 2 14 3 13 4 11 5 12 6 10 8 1 9 2 10 3 11 8 12 4 13
REMARK SMILES IDX 7 14 5 15 6 16 9 17 85 18 80 19 81 20 82 21 83 22 84 23
REMARK SMILES IDX 17 24 18 25 19 27 20 28 21 29 79 30 22 31 78 32 23 33 24 34
REMARK SMILES IDX 25 35 72 36 26 37 77 38 71 39 73 40 27 41 76 42 70 43 69 44
REMARK SMILES IDX 28 46 58 47 39 48 57 49 40 50 43 51 56 52 74 53 41 54 42 55
REMARK SMILES IDX 55 57 75 58 44 59 29 60 30 61 38 62 31 63 37 64 32 65 33 66
REMARK SMILES IDX 34 67 35 68 36 69 59 70 60 71 68 72 61 73 67 74 62 75 63 76
REMARK SMILES IDX 64 77 65 78 66 79 45 80 46 81 54 82 47 83 53 84 48 85 49 86
REMARK SMILES IDX 50 87 51 88 52 89
REMARK H PARENT 13 7 17 26 73 45 43 56
REMARK Flexibility Score: inf
ROOT
ATOM      1  C   UNL A   1      39.433  23.632  26.912  1.00  0.00     0.118 C 
ENDROOT
BRANCH   1   2
ATOM      2  C   UNL A   1      38.103  23.711  26.171  1.00  0.00     0.042 C 
BRANCH   2   3
ATOM      3  C   UNL A   1      37.702  22.372  25.572  1.00  0.00     0.118 C 
BRANCH   3   4
ATOM      4  N   UNL A   1      36.434  21.896  26.107  1.00  0.00    -0.352 N 
ATOM      5  C   UNL A   1      35.118  22.126  25.894  1.00  0.00     0.251 C 
ATOM      6  O   UNL A   1      34.348  21.470  26.604  1.00  0.00    -0.270 OA
ATOM      7  H   UNL A   1      36.571  21.226  26.814  1.00  0.00     0.163 HD
BRANCH   5   8
ATOM      8  C   UNL A   1      34.563  23.080  24.891  1.00  0.00     0.067 C 
ATOM      9  C   UNL A   1      33.043  29.049  24.329  1.00  0.00     0.044 C 
ATOM     10  C   UNL A   1      33.283  27.642  23.869  1.00  0.00    -0.049 A 
ATOM     11  C   UNL A   1      32.986  27.262  22.555  1.00  0.00     0.028 A 
ATOM     12  C   UNL A   1      33.780  26.683  24.762  1.00  0.00     0.015 A 
ATOM     13  C   UNL A   1      33.203  25.949  22.136  1.00  0.00     0.084 A 
ATOM     14  C   UNL A   1      33.995  25.363  24.345  1.00  0.00     0.019 A 
ATOM     15  Cl  UNL A   1      32.825  25.532  20.503  1.00  0.00    -0.080 Cl
ATOM     16  C   UNL A   1      33.703  24.998  23.030  1.00  0.00     0.146 A 
ATOM     17  C   UNL A   1      34.552  24.374  25.260  1.00  0.00     0.025 C 
ATOM     18  O   UNL A   1      33.939  23.733  22.569  1.00  0.00    -0.474 OA
ATOM     19  C   UNL A   1      34.001  22.673  23.559  1.00  0.00     0.314 C 
BRANCH  19  20
ATOM     20  C   UNL A   1      32.615  22.010  23.678  1.00  0.00     0.429 C 
ATOM     21  F   UNL A   1      31.966  22.037  22.489  1.00  0.00    -0.167 F 
ATOM     22  F   UNL A   1      32.689  20.708  24.046  1.00  0.00    -0.167 F 
ATOM     23  F   UNL A   1      31.824  22.624  24.589  1.00  0.00    -0.167 F 
ENDBRANCH  19  20
ENDBRANCH   5   8
ENDBRANCH   3   4
ENDBRANCH   2   3
ENDBRANCH   1   2
BRANCH   1  24
ATOM     24  N   UNL A   1      40.538  24.122  26.092  1.00  0.00    -0.352 N 
ATOM     25  C   UNL A   1      41.191  25.328  26.119  1.00  0.00     0.251 C 
ATOM     26  H   UNL A   1      40.866  23.487  25.414  1.00  0.00     0.163 HD
ATOM     27  O   UNL A   1      41.891  25.663  25.164  1.00  0.00    -0.269 OA
BRANCH  25  28
ATOM     28  C   UNL A   1      41.050  26.217  27.288  1.00  0.00     0.039 A 
ATOM     29  C   UNL A   1      41.810  27.385  27.363  1.00  0.00     0.014 A 
ATOM     30  C   UNL A   1      40.178  25.876  28.325  1.00  0.00     0.014 A 
ATOM     31  C   UNL A   1      41.645  28.243  28.452  1.00  0.00     0.010 A 
ATOM     32  C   UNL A   1      39.938  26.779  29.350  1.00  0.00     0.010 A 
ATOM     33  C   UNL A   1      40.683  27.962  29.436  1.00  0.00    -0.014 A 
BRANCH  33  34
ATOM     34  C   UNL A   1      40.469  28.865  30.591  1.00  0.00     0.031 A 
ATOM     35  C   UNL A   1      41.357  28.753  31.801  1.00  0.00     0.074 A 
ATOM     36  C   UNL A   1      39.456  29.753  30.567  1.00  0.00     0.049 A 
ATOM     37  N   UNL A   1      41.316  29.430  32.919  1.00  0.00    -0.248 NA
ATOM     38  C   UNL A   1      42.415  27.729  31.759  1.00  0.00     0.031 C 
ATOM     39  C   UNL A   1      38.514  29.933  29.460  1.00  0.00     0.029 A 
ATOM     40  N   UNL A   1      39.060  30.680  31.495  1.00  0.00    -0.354 N 
ATOM     41  C   UNL A   1      42.337  28.914  33.707  1.00  0.00     0.074 A 
ATOM     42  C   UNL A   1      42.925  27.815  32.977  1.00  0.00     0.031 C 
ATOM     43  C   UNL A   1      37.689  30.953  29.749  1.00  0.00     0.029 A 
ATOM     44  C   UNL A   1      38.015  31.467  31.075  1.00  0.00     0.049 A 
ATOM     45  H   UNL A   1      39.483  30.774  32.379  1.00  0.00     0.167 HD
ATOM     46  C   UNL A   1      42.778  29.342  34.915  1.00  0.00     0.031 A 
ATOM     47  C   UNL A   1      37.398  32.498  31.685  1.00  0.00     0.031 A 
ATOM     48  C   UNL A   1      42.191  30.437  35.635  1.00  0.00     0.049 A 
ATOM     49  C   UNL A   1      37.861  32.920  33.051  1.00  0.00     0.074 A 
ATOM     50  C   UNL A   1      42.569  30.965  36.856  1.00  0.00     0.029 A 
ATOM     51  N   UNL A   1      41.102  31.175  35.195  1.00  0.00    -0.354 N 
ATOM     52  N   UNL A   1      38.853  32.443  33.766  1.00  0.00    -0.248 NA
ATOM     53  C   UNL A   1      37.124  34.016  33.693  1.00  0.00     0.031 C 
ATOM     54  C   UNL A   1      41.677  31.994  37.176  1.00  0.00     0.029 A 
ATOM     55  C   UNL A   1      40.777  32.140  36.131  1.00  0.00     0.049 A 
ATOM     56  H   UNL A   1      40.629  31.031  34.343  1.00  0.00     0.167 HD
ATOM     57  C   UNL A   1      38.869  33.193  34.936  1.00  0.00     0.074 A 
ATOM     58  C   UNL A   1      37.797  34.163  34.826  1.00  0.00     0.031 C 
ATOM     59  C   UNL A   1      39.698  33.088  36.005  1.00  0.00     0.031 A 
BRANCH  46  60
ATOM     60  C   UNL A   1      43.958  28.620  35.507  1.00  0.00    -0.014 A 
ATOM     61  C   UNL A   1      45.272  29.032  35.211  1.00  0.00     0.010 A 
ATOM     62  C   UNL A   1      43.763  27.519  36.359  1.00  0.00     0.010 A 
ATOM     63  C   UNL A   1      46.367  28.319  35.705  1.00  0.00     0.020 A 
ATOM     64  C   UNL A   1      44.857  26.822  36.882  1.00  0.00     0.020 A 
ATOM     65  C   UNL A   1      46.151  27.212  36.531  1.00  0.00     0.054 A 
BRANCH  65  66
ATOM     66  S   UNL A   1      47.593  26.299  37.145  1.00  0.00     0.124 S 
ATOM     67  O   UNL A   1      47.979  25.524  35.969  1.00  0.00    -0.237 OA
ATOM     68  O   UNL A   1      48.514  27.369  37.521  1.00  0.00    -0.237 OA
ATOM     69  O   UNL A   1      47.061  25.518  38.258  1.00  0.00    -0.744 OA
ENDBRANCH  65  66
ENDBRANCH  46  60
BRANCH  47  70
ATOM     70  C   UNL A   1      36.319  33.234  30.973  1.00  0.00    -0.014 A 
ATOM     71  C   UNL A   1      35.056  33.379  31.574  1.00  0.00     0.010 A 
ATOM     72  C   UNL A   1      36.558  33.847  29.729  1.00  0.00     0.010 A 
ATOM     73  C   UNL A   1      34.054  34.124  30.948  1.00  0.00     0.020 A 
ATOM     74  C   UNL A   1      35.565  34.612  29.109  1.00  0.00     0.020 A 
ATOM     75  C   UNL A   1      34.318  34.744  29.724  1.00  0.00     0.054 A 
BRANCH  75  76
ATOM     76  S   UNL A   1      33.024  35.775  28.975  1.00  0.00     0.124 S 
ATOM     77  O   UNL A   1      33.807  36.815  28.315  1.00  0.00    -0.237 OA
ATOM     78  O   UNL A   1      32.349  34.830  28.088  1.00  0.00    -0.237 OA
ATOM     79  O   UNL A   1      32.233  36.217  30.121  1.00  0.00    -0.744 OA
ENDBRANCH  75  76
ENDBRANCH  47  70
BRANCH  59  80
ATOM     80  C   UNL A   1      39.485  34.042  37.148  1.00  0.00    -0.014 A 
ATOM     81  C   UNL A   1      38.846  33.619  38.326  1.00  0.00     0.010 A 
ATOM     82  C   UNL A   1      40.024  35.340  37.083  1.00  0.00     0.010 A 
ATOM     83  C   UNL A   1      38.747  34.480  39.420  1.00  0.00     0.020 A 
ATOM     84  C   UNL A   1      39.950  36.195  38.185  1.00  0.00     0.020 A 
ATOM     85  C   UNL A   1      39.308  35.760  39.346  1.00  0.00     0.054 A 
BRANCH  85  86
ATOM     86  S   UNL A   1      39.241  36.822  40.815  1.00  0.00     0.124 S 
ATOM     87  O   UNL A   1      38.351  36.070  41.695  1.00  0.00    -0.237 OA
ATOM     88  O   UNL A   1      40.640  36.876  41.232  1.00  0.00    -0.237 OA
ATOM     89  O   UNL A   1      38.698  38.081  40.309  1.00  0.00    -0.744 OA
ENDBRANCH  85  86
ENDBRANCH  59  80
ENDBRANCH  33  34
ENDBRANCH  25  28
ENDBRANCH   1  24
TORSDOF 14
ENDMDL
