MODEL 1
REMARK VINA RESULT:     -13.9      0.000      0.000
REMARK SMILES O=C(NCCCNC(=O)c1ccc([C@@H]2CC(O)=Nc3c2ncn3-c2cccc(Cl)c2)cc1)c1ccc(-c2c3nc(c(-c4ccc(S(=O)(=O)[O-])cc4)c4ccc([nH]4)c(-c4ccc(S(=O)(=O)[O-])cc4)c4nc(c(-c5ccc(S(=O)(=O)[O-])cc5)c5ccc2[nH]5)C=C4)C=C3)cc1
REMARK SMILES IDX 4 1 3 2 1 3 2 4 33 6 34 7 92 8 35 9 91 10 36 11 37 12 38 13
REMARK SMILES IDX 85 14 39 15 90 16 84 17 86 18 40 19 89 20 83 21 82 22 41 24
REMARK SMILES IDX 71 25 52 26 70 27 53 28 56 29 69 30 87 31 54 32 55 33 68 35
REMARK SMILES IDX 88 36 57 37 42 38 43 39 51 40 44 41 50 42 45 43 46 44 47 45
REMARK SMILES IDX 48 46 49 47 72 48 73 49 81 50 74 51 80 52 75 53 76 54 77 55
REMARK SMILES IDX 78 56 79 57 58 58 59 59 67 60 60 61 66 62 61 63 62 64 63 65
REMARK SMILES IDX 64 66 65 67 5 68 6 69 7 70 8 71 9 73 10 74 11 75 32 76 12 77
REMARK SMILES IDX 31 78 13 79 14 80 15 81 20 82 16 83 19 84 21 85 18 86 23 87
REMARK SMILES IDX 22 88 17 89 24 91 25 92 30 93 26 94 28 95 27 96 29 97
REMARK H PARENT 3 5 86 23 56 34 7 72 17 90
REMARK Flexibility Score: inf
ROOT
ATOM      1  C   UNL A   1      33.152  29.706  25.940  1.00  0.00     0.118 C 
ENDROOT
BRANCH   1   2
ATOM      2  N   UNL A   1      33.062  30.838  26.841  1.00  0.00    -0.352 N 
ATOM      3  O   UNL A   1      33.535  32.545  28.157  1.00  0.00    -0.269 OA
ATOM      4  C   UNL A   1      33.940  31.491  27.660  1.00  0.00     0.251 C 
ATOM      5  H   UNL A   1      32.158  31.228  26.869  1.00  0.00     0.163 HD
BRANCH   4   6
ATOM      6  C   UNL A   1      35.292  30.995  28.035  1.00  0.00     0.039 A 
ATOM      7  C   UNL A   1      35.696  29.658  28.043  1.00  0.00     0.014 A 
ATOM      8  C   UNL A   1      36.225  31.979  28.413  1.00  0.00     0.014 A 
ATOM      9  C   UNL A   1      36.968  29.305  28.489  1.00  0.00     0.010 A 
ATOM     10  C   UNL A   1      37.504  31.635  28.838  1.00  0.00     0.010 A 
ATOM     11  C   UNL A   1      37.869  30.292  28.897  1.00  0.00    -0.014 A 
BRANCH  11  12
ATOM     12  C   UNL A   1      39.249  29.896  29.177  1.00  0.00     0.031 A 
ATOM     13  C   UNL A   1      39.618  29.910  30.621  1.00  0.00     0.074 A 
ATOM     14  C   UNL A   1      40.086  29.361  28.266  1.00  0.00     0.049 A 
ATOM     15  N   UNL A   1      40.533  30.607  31.213  1.00  0.00    -0.248 NA
ATOM     16  C   UNL A   1      38.786  29.110  31.535  1.00  0.00     0.031 C 
ATOM     17  C   UNL A   1      39.762  28.987  26.888  1.00  0.00     0.029 A 
ATOM     18  N   UNL A   1      41.369  28.913  28.420  1.00  0.00    -0.354 N 
ATOM     19  C   UNL A   1      40.543  30.167  32.536  1.00  0.00     0.074 A 
ATOM     20  C   UNL A   1      39.343  29.389  32.714  1.00  0.00     0.031 C 
ATOM     21  C   UNL A   1      40.727  28.168  26.416  1.00  0.00     0.029 A 
ATOM     22  C   UNL A   1      41.785  28.054  27.409  1.00  0.00     0.049 A 
ATOM     23  H   UNL A   1      41.943  29.174  29.176  1.00  0.00     0.167 HD
ATOM     24  C   UNL A   1      41.659  30.238  33.315  1.00  0.00     0.031 A 
ATOM     25  C   UNL A   1      42.871  27.241  27.415  1.00  0.00     0.031 A 
ATOM     26  C   UNL A   1      42.636  31.152  32.784  1.00  0.00     0.049 A 
ATOM     27  C   UNL A   1      43.811  27.738  28.445  1.00  0.00     0.074 A 
ATOM     28  C   UNL A   1      42.652  32.487  32.434  1.00  0.00     0.029 A 
ATOM     29  N   UNL A   1      43.767  30.602  32.229  1.00  0.00    -0.354 N 
ATOM     30  N   UNL A   1      44.471  28.857  28.347  1.00  0.00    -0.248 NA
ATOM     31  C   UNL A   1      43.763  27.159  29.779  1.00  0.00     0.031 C 
ATOM     32  C   UNL A   1      43.540  32.572  31.322  1.00  0.00     0.029 A 
ATOM     33  C   UNL A   1      44.046  31.294  31.082  1.00  0.00     0.049 A 
ATOM     34  H   UNL A   1      44.283  29.847  32.591  1.00  0.00     0.167 HD
ATOM     35  C   UNL A   1      44.549  29.338  29.645  1.00  0.00     0.074 A 
ATOM     36  C   UNL A   1      44.217  28.195  30.490  1.00  0.00     0.031 C 
ATOM     37  C   UNL A   1      44.598  30.680  29.893  1.00  0.00     0.031 A 
BRANCH  24  38
ATOM     38  C   UNL A   1      42.047  29.142  34.290  1.00  0.00    -0.014 A 
ATOM     39  C   UNL A   1      42.544  27.924  33.778  1.00  0.00     0.010 A 
ATOM     40  C   UNL A   1      41.636  29.141  35.640  1.00  0.00     0.010 A 
ATOM     41  C   UNL A   1      42.505  26.746  34.535  1.00  0.00     0.020 A 
ATOM     42  C   UNL A   1      41.645  27.986  36.421  1.00  0.00     0.020 A 
ATOM     43  C   UNL A   1      42.030  26.783  35.846  1.00  0.00     0.054 A 
BRANCH  43  44
ATOM     44  S   UNL A   1      41.825  25.239  36.766  1.00  0.00     0.124 S 
ATOM     45  O   UNL A   1      43.143  25.086  37.375  1.00  0.00    -0.237 OA
ATOM     46  O   UNL A   1      40.735  25.567  37.681  1.00  0.00    -0.237 OA
ATOM     47  O   UNL A   1      41.492  24.267  35.728  1.00  0.00    -0.744 OA
ENDBRANCH  43  44
ENDBRANCH  24  38
BRANCH  25  48
ATOM     48  C   UNL A   1      43.033  25.915  26.765  1.00  0.00    -0.014 A 
ATOM     49  C   UNL A   1      43.249  25.808  25.377  1.00  0.00     0.010 A 
ATOM     50  C   UNL A   1      43.243  24.762  27.547  1.00  0.00     0.010 A 
ATOM     51  C   UNL A   1      43.719  24.612  24.808  1.00  0.00     0.020 A 
ATOM     52  C   UNL A   1      43.694  23.563  26.986  1.00  0.00     0.020 A 
ATOM     53  C   UNL A   1      43.956  23.500  25.620  1.00  0.00     0.054 A 
BRANCH  53  54
ATOM     54  S   UNL A   1      44.734  22.018  24.914  1.00  0.00     0.124 S 
ATOM     55  O   UNL A   1      43.668  21.025  25.024  1.00  0.00    -0.237 OA
ATOM     56  O   UNL A   1      45.064  22.445  23.558  1.00  0.00    -0.237 OA
ATOM     57  O   UNL A   1      45.887  21.787  25.784  1.00  0.00    -0.744 OA
ENDBRANCH  53  54
ENDBRANCH  25  48
BRANCH  37  58
ATOM     58  C   UNL A   1      44.995  31.608  28.773  1.00  0.00    -0.014 A 
ATOM     59  C   UNL A   1      44.107  32.073  27.785  1.00  0.00     0.010 A 
ATOM     60  C   UNL A   1      46.306  32.118  28.790  1.00  0.00     0.010 A 
ATOM     61  C   UNL A   1      44.534  32.989  26.814  1.00  0.00     0.020 A 
ATOM     62  C   UNL A   1      46.732  33.048  27.839  1.00  0.00     0.020 A 
ATOM     63  C   UNL A   1      45.846  33.469  26.846  1.00  0.00     0.054 A 
BRANCH  63  64
ATOM     64  S   UNL A   1      46.376  34.680  25.605  1.00  0.00     0.124 S 
ATOM     65  O   UNL A   1      45.526  34.358  24.463  1.00  0.00    -0.237 OA
ATOM     66  O   UNL A   1      46.092  35.957  26.257  1.00  0.00    -0.237 OA
ATOM     67  O   UNL A   1      47.798  34.391  25.422  1.00  0.00    -0.744 OA
ENDBRANCH  63  64
ENDBRANCH  37  58
ENDBRANCH  11  12
ENDBRANCH   4   6
ENDBRANCH   1   2
BRANCH   1  68
ATOM     68  C   UNL A   1      31.859  28.920  25.733  1.00  0.00     0.042 C 
BRANCH  68  69
ATOM     69  C   UNL A   1      31.521  28.598  24.281  1.00  0.00     0.118 C 
BRANCH  69  70
ATOM     70  N   UNL A   1      30.157  28.126  24.108  1.00  0.00    -0.352 N 
ATOM     71  C   UNL A   1      29.669  26.863  23.884  1.00  0.00     0.251 C 
ATOM     72  H   UNL A   1      29.469  28.829  24.159  1.00  0.00     0.163 HD
ATOM     73  O   UNL A   1      28.484  26.711  23.616  1.00  0.00    -0.269 OA
BRANCH  71  74
ATOM     74  C   UNL A   1      30.556  25.679  23.955  1.00  0.00     0.039 A 
ATOM     75  C   UNL A   1      31.157  25.235  22.775  1.00  0.00     0.014 A 
ATOM     76  C   UNL A   1      30.742  24.965  25.142  1.00  0.00     0.014 A 
ATOM     77  C   UNL A   1      31.987  24.113  22.793  1.00  0.00     0.005 A 
ATOM     78  C   UNL A   1      31.585  23.851  25.163  1.00  0.00     0.005 A 
ATOM     79  C   UNL A   1      32.221  23.410  23.990  1.00  0.00    -0.038 A 
BRANCH  79  80
ATOM     80  C   UNL A   1      33.116  22.183  23.962  1.00  0.00     0.081 C 
ATOM     81  C   UNL A   1      32.779  21.181  25.088  1.00  0.00     0.111 C 
ATOM     82  C   UNL A   1      34.515  22.664  24.063  1.00  0.00     0.093 A 
ATOM     83  C   UNL A   1      33.826  21.065  26.183  1.00  0.00     0.188 C 
ATOM     84  C   UNL A   1      35.344  22.267  25.089  1.00  0.00     0.164 A 
ATOM     85  N   UNL A   1      35.137  23.540  23.217  1.00  0.00    -0.238 NA
ATOM     86  N   UNL A   1      35.039  21.512  26.172  1.00  0.00    -0.198 NA
ATOM     87  N   UNL A   1      36.541  22.927  24.866  1.00  0.00    -0.283 N 
ATOM     88  C   UNL A   1      36.329  23.720  23.753  1.00  0.00     0.206 A 
BRANCH  83  89
ATOM     89  O   UNL A   1      33.416  20.361  27.257  1.00  0.00    -0.496 OA
ATOM     90  H   UNL A   1      32.589  20.554  27.655  1.00  0.00     0.294 HD
ENDBRANCH  83  89
BRANCH  87  91
ATOM     91  C   UNL A   1      37.739  22.813  25.611  1.00  0.00     0.050 A 
ATOM     92  C   UNL A   1      38.485  21.629  25.572  1.00  0.00     0.027 A 
ATOM     93  C   UNL A   1      38.168  23.889  26.400  1.00  0.00     0.047 A 
ATOM     94  C   UNL A   1      39.682  21.544  26.288  1.00  0.00     0.004 A 
ATOM     95  C   UNL A   1      39.339  23.772  27.147  1.00  0.00     0.043 A 
ATOM     96  C   UNL A   1      40.107  22.612  27.081  1.00  0.00     0.020 A 
ATOM     97  Cl  UNL A   1      39.825  25.067  28.174  1.00  0.00    -0.084 Cl
ENDBRANCH  87  91
ENDBRANCH  79  80
ENDBRANCH  71  74
ENDBRANCH  69  70
ENDBRANCH  68  69
ENDBRANCH   1  68
TORSDOF 16
ENDMDL
MODEL 2
REMARK VINA RESULT:     -13.5      2.542      9.213
REMARK SMILES O=C(NCCCNC(=O)c1ccc([C@@H]2CC(O)=Nc3c2ncn3-c2cccc(Cl)c2)cc1)c1ccc(-c2c3nc(c(-c4ccc(S(=O)(=O)[O-])cc4)c4ccc([nH]4)c(-c4ccc(S(=O)(=O)[O-])cc4)c4nc(c(-c5ccc(S(=O)(=O)[O-])cc5)c5ccc2[nH]5)C=C4)C=C3)cc1
REMARK SMILES IDX 4 1 3 2 1 3 2 4 33 6 34 7 92 8 35 9 91 10 36 11 37 12 38 13
REMARK SMILES IDX 85 14 39 15 90 16 84 17 86 18 40 19 89 20 83 21 82 22 41 24
REMARK SMILES IDX 71 25 52 26 70 27 53 28 56 29 69 30 87 31 54 32 55 33 68 35
REMARK SMILES IDX 88 36 57 37 42 38 43 39 51 40 44 41 50 42 45 43 46 44 47 45
REMARK SMILES IDX 48 46 49 47 72 48 73 49 81 50 74 51 80 52 75 53 76 54 77 55
REMARK SMILES IDX 78 56 79 57 58 58 59 59 67 60 60 61 66 62 61 63 62 64 63 65
REMARK SMILES IDX 64 66 65 67 5 68 6 69 7 70 8 71 9 73 10 74 11 75 32 76 12 77
REMARK SMILES IDX 31 78 13 79 14 80 15 81 20 82 16 83 19 84 21 85 18 86 23 87
REMARK SMILES IDX 22 88 17 89 24 91 25 92 30 93 26 94 28 95 27 96 29 97
REMARK H PARENT 3 5 86 23 56 34 7 72 17 90
REMARK Flexibility Score: inf
ROOT
ATOM      1  C   UNL A   1      36.455  22.230  25.764  1.00  0.00     0.118 C 
ENDROOT
BRANCH   1   2
ATOM      2  N   UNL A   1      37.746  21.574  25.683  1.00  0.00    -0.352 N 
ATOM      3  O   UNL A   1      39.833  20.948  26.030  1.00  0.00    -0.269 OA
ATOM      4  C   UNL A   1      38.998  21.848  26.158  1.00  0.00     0.251 C 
ATOM      5  H   UNL A   1      37.712  20.737  25.165  1.00  0.00     0.163 HD
BRANCH   4   6
ATOM      6  C   UNL A   1      39.427  23.146  26.744  1.00  0.00     0.039 A 
ATOM      7  C   UNL A   1      38.776  24.370  26.577  1.00  0.00     0.014 A 
ATOM      8  C   UNL A   1      40.596  23.110  27.529  1.00  0.00     0.014 A 
ATOM      9  C   UNL A   1      39.316  25.538  27.112  1.00  0.00     0.010 A 
ATOM     10  C   UNL A   1      41.127  24.269  28.085  1.00  0.00     0.010 A 
ATOM     11  C   UNL A   1      40.497  25.490  27.856  1.00  0.00    -0.014 A 
BRANCH  11  12
ATOM     12  C   UNL A   1      40.925  26.703  28.554  1.00  0.00     0.031 A 
ATOM     13  C   UNL A   1      42.105  27.383  27.950  1.00  0.00     0.074 A 
ATOM     14  C   UNL A   1      40.223  27.303  29.536  1.00  0.00     0.049 A 
ATOM     15  N   UNL A   1      43.261  27.620  28.482  1.00  0.00    -0.248 NA
ATOM     16  C   UNL A   1      42.010  27.759  26.529  1.00  0.00     0.031 C 
ATOM     17  C   UNL A   1      38.889  26.934  30.013  1.00  0.00     0.029 A 
ATOM     18  N   UNL A   1      40.495  28.453  30.222  1.00  0.00    -0.354 N 
ATOM     19  C   UNL A   1      43.960  28.374  27.542  1.00  0.00     0.074 A 
ATOM     20  C   UNL A   1      43.220  28.274  26.309  1.00  0.00     0.031 C 
ATOM     21  C   UNL A   1      38.378  27.960  30.728  1.00  0.00     0.029 A 
ATOM     22  C   UNL A   1      39.385  29.003  30.852  1.00  0.00     0.049 A 
ATOM     23  H   UNL A   1      41.393  28.855  30.265  1.00  0.00     0.167 HD
ATOM     24  C   UNL A   1      44.942  29.248  27.900  1.00  0.00     0.031 A 
ATOM     25  C   UNL A   1      39.265  30.253  31.367  1.00  0.00     0.031 A 
ATOM     26  C   UNL A   1      45.433  29.001  29.230  1.00  0.00     0.049 A 
ATOM     27  C   UNL A   1      40.626  30.792  31.585  1.00  0.00     0.074 A 
ATOM     28  C   UNL A   1      45.985  27.925  29.895  1.00  0.00     0.029 A 
ATOM     29  N   UNL A   1      45.079  29.904  30.204  1.00  0.00    -0.354 N 
ATOM     30  N   UNL A   1      41.447  30.344  32.491  1.00  0.00    -0.248 NA
ATOM     31  C   UNL A   1      41.231  31.616  30.551  1.00  0.00     0.031 C 
ATOM     32  C   UNL A   1      45.526  28.039  31.240  1.00  0.00     0.029 A 
ATOM     33  C   UNL A   1      44.755  29.198  31.329  1.00  0.00     0.049 A 
ATOM     34  H   UNL A   1      45.060  30.883  30.108  1.00  0.00     0.167 HD
ATOM     35  C   UNL A   1      42.705  30.461  31.919  1.00  0.00     0.074 A 
ATOM     36  C   UNL A   1      42.521  31.367  30.790  1.00  0.00     0.031 C 
ATOM     37  C   UNL A   1      43.707  29.593  32.247  1.00  0.00     0.031 A 
BRANCH  24  38
ATOM     38  C   UNL A   1      45.122  30.597  27.228  1.00  0.00    -0.014 A 
ATOM     39  C   UNL A   1      46.420  30.996  26.845  1.00  0.00     0.010 A 
ATOM     40  C   UNL A   1      44.134  31.604  27.264  1.00  0.00     0.010 A 
ATOM     41  C   UNL A   1      46.737  32.346  26.640  1.00  0.00     0.020 A 
ATOM     42  C   UNL A   1      44.426  32.944  27.008  1.00  0.00     0.020 A 
ATOM     43  C   UNL A   1      45.738  33.313  26.750  1.00  0.00     0.054 A 
BRANCH  43  44
ATOM     44  S   UNL A   1      46.177  35.065  26.649  1.00  0.00     0.124 S 
ATOM     45  O   UNL A   1      47.070  35.076  25.495  1.00  0.00    -0.237 OA
ATOM     46  O   UNL A   1      44.876  35.699  26.454  1.00  0.00    -0.237 OA
ATOM     47  O   UNL A   1      46.809  35.332  27.939  1.00  0.00    -0.744 OA
ENDBRANCH  43  44
ENDBRANCH  24  38
BRANCH  25  48
ATOM     48  C   UNL A   1      38.051  31.107  31.440  1.00  0.00    -0.014 A 
ATOM     49  C   UNL A   1      37.067  30.886  32.423  1.00  0.00     0.010 A 
ATOM     50  C   UNL A   1      37.984  32.311  30.711  1.00  0.00     0.010 A 
ATOM     51  C   UNL A   1      36.095  31.861  32.707  1.00  0.00     0.020 A 
ATOM     52  C   UNL A   1      37.010  33.279  30.976  1.00  0.00     0.020 A 
ATOM     53  C   UNL A   1      36.085  33.062  31.993  1.00  0.00     0.054 A 
BRANCH  53  54
ATOM     54  S   UNL A   1      34.948  34.392  32.483  1.00  0.00     0.124 S 
ATOM     55  O   UNL A   1      34.318  34.746  31.214  1.00  0.00    -0.237 OA
ATOM     56  O   UNL A   1      34.084  33.731  33.456  1.00  0.00    -0.237 OA
ATOM     57  O   UNL A   1      35.835  35.413  33.040  1.00  0.00    -0.744 OA
ENDBRANCH  53  54
ENDBRANCH  25  48
BRANCH  37  58
ATOM     58  C   UNL A   1      43.584  28.794  33.520  1.00  0.00    -0.014 A 
ATOM     59  C   UNL A   1      43.988  29.262  34.784  1.00  0.00     0.010 A 
ATOM     60  C   UNL A   1      42.927  27.552  33.443  1.00  0.00     0.010 A 
ATOM     61  C   UNL A   1      43.780  28.488  35.933  1.00  0.00     0.020 A 
ATOM     62  C   UNL A   1      42.696  26.785  34.587  1.00  0.00     0.020 A 
ATOM     63  C   UNL A   1      43.137  27.252  35.826  1.00  0.00     0.054 A 
BRANCH  63  64
ATOM     64  S   UNL A   1      42.842  26.274  37.325  1.00  0.00     0.124 S 
ATOM     65  O   UNL A   1      41.421  26.500  37.577  1.00  0.00    -0.237 OA
ATOM     66  O   UNL A   1      43.196  24.921  36.903  1.00  0.00    -0.237 OA
ATOM     67  O   UNL A   1      43.748  26.864  38.309  1.00  0.00    -0.744 OA
ENDBRANCH  63  64
ENDBRANCH  37  58
ENDBRANCH  11  12
ENDBRANCH   4   6
ENDBRANCH   1   2
BRANCH   1  68
ATOM     68  C   UNL A   1      35.517  21.995  24.583  1.00  0.00     0.042 C 
BRANCH  68  69
ATOM     69  C   UNL A   1      34.140  21.449  24.946  1.00  0.00     0.118 C 
BRANCH  69  70
ATOM     70  N   UNL A   1      33.395  20.976  23.790  1.00  0.00    -0.352 N 
ATOM     71  C   UNL A   1      32.321  21.522  23.133  1.00  0.00     0.251 C 
ATOM     72  H   UNL A   1      33.714  20.121  23.418  1.00  0.00     0.163 HD
ATOM     73  O   UNL A   1      31.749  20.874  22.267  1.00  0.00    -0.269 OA
BRANCH  71  74
ATOM     74  C   UNL A   1      31.837  22.883  23.462  1.00  0.00     0.039 A 
ATOM     75  C   UNL A   1      32.319  23.953  22.705  1.00  0.00     0.014 A 
ATOM     76  C   UNL A   1      30.984  23.123  24.543  1.00  0.00     0.014 A 
ATOM     77  C   UNL A   1      31.902  25.254  22.993  1.00  0.00     0.005 A 
ATOM     78  C   UNL A   1      30.555  24.423  24.821  1.00  0.00     0.005 A 
ATOM     79  C   UNL A   1      31.007  25.507  24.048  1.00  0.00    -0.038 A 
BRANCH  79  80
ATOM     80  C   UNL A   1      30.594  26.940  24.340  1.00  0.00     0.081 C 
ATOM     81  C   UNL A   1      30.783  27.868  23.120  1.00  0.00     0.111 C 
ATOM     82  C   UNL A   1      31.396  27.395  25.501  1.00  0.00     0.093 A 
ATOM     83  C   UNL A   1      31.895  28.895  23.258  1.00  0.00     0.188 C 
ATOM     84  C   UNL A   1      32.227  28.490  25.420  1.00  0.00     0.164 A 
ATOM     85  N   UNL A   1      31.443  26.812  26.736  1.00  0.00    -0.238 NA
ATOM     86  N   UNL A   1      32.533  29.236  24.330  1.00  0.00    -0.198 NA
ATOM     87  N   UNL A   1      32.816  28.593  26.669  1.00  0.00    -0.283 N 
ATOM     88  C   UNL A   1      32.342  27.518  27.396  1.00  0.00     0.206 A 
BRANCH  83  89
ATOM     89  O   UNL A   1      32.188  29.539  22.110  1.00  0.00    -0.496 OA
ATOM     90  H   UNL A   1      31.931  29.169  21.287  1.00  0.00     0.294 HD
ENDBRANCH  83  89
BRANCH  87  91
ATOM     91  C   UNL A   1      33.712  29.593  27.118  1.00  0.00     0.050 A 
ATOM     92  C   UNL A   1      33.249  30.885  27.394  1.00  0.00     0.027 A 
ATOM     93  C   UNL A   1      35.070  29.285  27.274  1.00  0.00     0.047 A 
ATOM     94  C   UNL A   1      34.140  31.852  27.867  1.00  0.00     0.004 A 
ATOM     95  C   UNL A   1      35.957  30.272  27.702  1.00  0.00     0.043 A 
ATOM     96  C   UNL A   1      35.496  31.548  28.015  1.00  0.00     0.020 A 
ATOM     97  Cl  UNL A   1      37.637  29.912  27.821  1.00  0.00    -0.084 Cl
ENDBRANCH  87  91
ENDBRANCH  79  80
ENDBRANCH  71  74
ENDBRANCH  69  70
ENDBRANCH  68  69
ENDBRANCH   1  68
TORSDOF 16
ENDMDL
MODEL 3
REMARK VINA RESULT:     -12.8      2.692      9.645
REMARK SMILES O=C(NCCCNC(=O)c1ccc([C@@H]2CC(O)=Nc3c2ncn3-c2cccc(Cl)c2)cc1)c1ccc(-c2c3nc(c(-c4ccc(S(=O)(=O)[O-])cc4)c4ccc([nH]4)c(-c4ccc(S(=O)(=O)[O-])cc4)c4nc(c(-c5ccc(S(=O)(=O)[O-])cc5)c5ccc2[nH]5)C=C4)C=C3)cc1
REMARK SMILES IDX 4 1 3 2 1 3 2 4 33 6 34 7 92 8 35 9 91 10 36 11 37 12 38 13
REMARK SMILES IDX 85 14 39 15 90 16 84 17 86 18 40 19 89 20 83 21 82 22 41 24
REMARK SMILES IDX 71 25 52 26 70 27 53 28 56 29 69 30 87 31 54 32 55 33 68 35
REMARK SMILES IDX 88 36 57 37 42 38 43 39 51 40 44 41 50 42 45 43 46 44 47 45
REMARK SMILES IDX 48 46 49 47 72 48 73 49 81 50 74 51 80 52 75 53 76 54 77 55
REMARK SMILES IDX 78 56 79 57 58 58 59 59 67 60 60 61 66 62 61 63 62 64 63 65
REMARK SMILES IDX 64 66 65 67 5 68 6 69 7 70 8 71 9 73 10 74 11 75 32 76 12 77
REMARK SMILES IDX 31 78 13 79 14 80 15 81 20 82 16 83 19 84 21 85 18 86 23 87
REMARK SMILES IDX 22 88 17 89 24 91 25 92 30 93 26 94 28 95 27 96 29 97
REMARK H PARENT 3 5 86 23 56 34 7 72 17 90
REMARK Flexibility Score: inf
ROOT
ATOM      1  C   UNL A   1      41.723  19.850  26.361  1.00  0.00     0.118 C 
ENDROOT
BRANCH   1   2
ATOM      2  N   UNL A   1      42.660  20.400  25.402  1.00  0.00    -0.352 N 
ATOM      3  O   UNL A   1      44.232  21.596  24.417  1.00  0.00    -0.269 OA
ATOM      4  C   UNL A   1      43.392  21.552  25.321  1.00  0.00     0.251 C 
ATOM      5  H   UNL A   1      42.802  19.806  24.629  1.00  0.00     0.163 HD
BRANCH   4   6
ATOM      6  C   UNL A   1      43.205  22.749  26.185  1.00  0.00     0.039 A 
ATOM      7  C   UNL A   1      43.492  22.822  27.549  1.00  0.00     0.014 A 
ATOM      8  C   UNL A   1      42.691  23.894  25.545  1.00  0.00     0.014 A 
ATOM      9  C   UNL A   1      43.201  23.977  28.273  1.00  0.00     0.010 A 
ATOM     10  C   UNL A   1      42.420  25.057  26.258  1.00  0.00     0.010 A 
ATOM     11  C   UNL A   1      42.656  25.090  27.631  1.00  0.00    -0.014 A 
BRANCH  11  12
ATOM     12  C   UNL A   1      42.543  26.339  28.386  1.00  0.00     0.031 A 
ATOM     13  C   UNL A   1      43.679  27.284  28.197  1.00  0.00     0.074 A 
ATOM     14  C   UNL A   1      41.433  26.731  29.043  1.00  0.00     0.049 A 
ATOM     15  N   UNL A   1      44.501  27.746  29.084  1.00  0.00    -0.248 NA
ATOM     16  C   UNL A   1      43.998  27.686  26.817  1.00  0.00     0.031 C 
ATOM     17  C   UNL A   1      40.132  26.061  29.048  1.00  0.00     0.029 A 
ATOM     18  N   UNL A   1      41.196  27.885  29.736  1.00  0.00    -0.354 N 
ATOM     19  C   UNL A   1      45.297  28.671  28.413  1.00  0.00     0.074 A 
ATOM     20  C   UNL A   1      45.065  28.461  27.006  1.00  0.00     0.031 C 
ATOM     21  C   UNL A   1      39.195  26.921  29.504  1.00  0.00     0.029 A 
ATOM     22  C   UNL A   1      39.844  28.154  29.926  1.00  0.00     0.049 A 
ATOM     23  H   UNL A   1      41.913  28.471  30.069  1.00  0.00     0.167 HD
ATOM     24  C   UNL A   1      45.881  29.724  29.052  1.00  0.00     0.031 A 
ATOM     25  C   UNL A   1      39.285  29.326  30.319  1.00  0.00     0.031 A 
ATOM     26  C   UNL A   1      45.927  29.537  30.479  1.00  0.00     0.049 A 
ATOM     27  C   UNL A   1      40.336  30.140  30.970  1.00  0.00     0.074 A 
ATOM     28  C   UNL A   1      46.438  28.582  31.333  1.00  0.00     0.029 A 
ATOM     29  N   UNL A   1      45.071  30.302  31.236  1.00  0.00    -0.354 N 
ATOM     30  N   UNL A   1      40.874  29.846  32.120  1.00  0.00    -0.248 NA
ATOM     31  C   UNL A   1      41.063  31.117  30.176  1.00  0.00     0.031 C 
ATOM     32  C   UNL A   1      45.533  28.539  32.434  1.00  0.00     0.029 A 
ATOM     33  C   UNL A   1      44.544  29.498  32.208  1.00  0.00     0.049 A 
ATOM     34  H   UNL A   1      44.874  31.256  31.102  1.00  0.00     0.167 HD
ATOM     35  C   UNL A   1      42.193  30.258  32.010  1.00  0.00     0.074 A 
ATOM     36  C   UNL A   1      42.214  31.145  30.852  1.00  0.00     0.031 C 
ATOM     37  C   UNL A   1      43.186  29.617  32.695  1.00  0.00     0.031 A 
BRANCH  24  38
ATOM     38  C   UNL A   1      45.980  31.105  28.431  1.00  0.00    -0.014 A 
ATOM     39  C   UNL A   1      44.802  31.867  28.280  1.00  0.00     0.010 A 
ATOM     40  C   UNL A   1      47.110  31.533  27.702  1.00  0.00     0.010 A 
ATOM     41  C   UNL A   1      44.727  32.914  27.352  1.00  0.00     0.020 A 
ATOM     42  C   UNL A   1      47.061  32.610  26.817  1.00  0.00     0.020 A 
ATOM     43  C   UNL A   1      45.854  33.260  26.608  1.00  0.00     0.054 A 
BRANCH  43  44
ATOM     44  S   UNL A   1      45.713  34.498  25.297  1.00  0.00     0.124 S 
ATOM     45  O   UNL A   1      47.105  34.647  24.886  1.00  0.00    -0.237 OA
ATOM     46  O   UNL A   1      44.834  33.833  24.337  1.00  0.00    -0.237 OA
ATOM     47  O   UNL A   1      45.128  35.650  25.978  1.00  0.00    -0.744 OA
ENDBRANCH  43  44
ENDBRANCH  24  38
BRANCH  25  48
ATOM     48  C   UNL A   1      37.964  29.890  29.939  1.00  0.00    -0.014 A 
ATOM     49  C   UNL A   1      37.248  30.720  30.823  1.00  0.00     0.010 A 
ATOM     50  C   UNL A   1      37.526  29.832  28.601  1.00  0.00     0.010 A 
ATOM     51  C   UNL A   1      36.177  31.509  30.368  1.00  0.00     0.020 A 
ATOM     52  C   UNL A   1      36.450  30.601  28.144  1.00  0.00     0.020 A 
ATOM     53  C   UNL A   1      35.796  31.458  29.025  1.00  0.00     0.054 A 
BRANCH  53  54
ATOM     54  S   UNL A   1      34.536  32.608  28.401  1.00  0.00     0.124 S 
ATOM     55  O   UNL A   1      33.981  33.161  29.634  1.00  0.00    -0.237 OA
ATOM     56  O   UNL A   1      35.323  33.534  27.590  1.00  0.00    -0.237 OA
ATOM     57  O   UNL A   1      33.628  31.747  27.644  1.00  0.00    -0.744 OA
ENDBRANCH  53  54
ENDBRANCH  25  48
BRANCH  37  58
ATOM     58  C   UNL A   1      42.812  28.760  33.879  1.00  0.00    -0.014 A 
ATOM     59  C   UNL A   1      42.421  29.274  35.129  1.00  0.00     0.010 A 
ATOM     60  C   UNL A   1      42.750  27.369  33.675  1.00  0.00     0.010 A 
ATOM     61  C   UNL A   1      42.022  28.415  36.162  1.00  0.00     0.020 A 
ATOM     62  C   UNL A   1      42.331  26.509  34.693  1.00  0.00     0.020 A 
ATOM     63  C   UNL A   1      41.983  27.037  35.937  1.00  0.00     0.054 A 
BRANCH  63  64
ATOM     64  S   UNL A   1      41.431  25.938  37.271  1.00  0.00     0.124 S 
ATOM     65  O   UNL A   1      41.296  24.654  36.589  1.00  0.00    -0.237 OA
ATOM     66  O   UNL A   1      42.528  26.023  38.234  1.00  0.00    -0.237 OA
ATOM     67  O   UNL A   1      40.176  26.538  37.720  1.00  0.00    -0.744 OA
ENDBRANCH  63  64
ENDBRANCH  37  58
ENDBRANCH  11  12
ENDBRANCH   4   6
ENDBRANCH   1   2
BRANCH   1  68
ATOM     68  C   UNL A   1      40.458  19.231  25.772  1.00  0.00     0.042 C 
BRANCH  68  69
ATOM     69  C   UNL A   1      39.263  20.171  25.665  1.00  0.00     0.118 C 
BRANCH  69  70
ATOM     70  N   UNL A   1      39.525  21.487  26.225  1.00  0.00    -0.352 N 
ATOM     71  C   UNL A   1      38.777  22.638  26.194  1.00  0.00     0.251 C 
ATOM     72  H   UNL A   1      40.381  21.566  26.706  1.00  0.00     0.163 HD
ATOM     73  O   UNL A   1      39.260  23.684  26.604  1.00  0.00    -0.269 OA
BRANCH  71  74
ATOM     74  C   UNL A   1      37.394  22.634  25.662  1.00  0.00     0.039 A 
ATOM     75  C   UNL A   1      37.016  23.671  24.807  1.00  0.00     0.014 A 
ATOM     76  C   UNL A   1      36.456  21.675  26.051  1.00  0.00     0.014 A 
ATOM     77  C   UNL A   1      35.717  23.716  24.297  1.00  0.00     0.005 A 
ATOM     78  C   UNL A   1      35.161  21.711  25.529  1.00  0.00     0.005 A 
ATOM     79  C   UNL A   1      34.773  22.731  24.643  1.00  0.00    -0.038 A 
BRANCH  79  80
ATOM     80  C   UNL A   1      33.365  22.827  24.080  1.00  0.00     0.081 C 
ATOM     81  C   UNL A   1      33.348  22.867  22.537  1.00  0.00     0.111 C 
ATOM     82  C   UNL A   1      32.747  24.042  24.663  1.00  0.00     0.093 A 
ATOM     83  C   UNL A   1      32.934  24.197  21.930  1.00  0.00     0.188 C 
ATOM     84  C   UNL A   1      32.281  25.067  23.870  1.00  0.00     0.164 A 
ATOM     85  N   UNL A   1      32.586  24.315  25.993  1.00  0.00    -0.238 NA
ATOM     86  N   UNL A   1      32.383  25.204  22.526  1.00  0.00    -0.198 NA
ATOM     87  N   UNL A   1      31.803  26.022  24.753  1.00  0.00    -0.283 N 
ATOM     88  C   UNL A   1      32.069  25.529  26.017  1.00  0.00     0.206 A 
BRANCH  83  89
ATOM     89  O   UNL A   1      33.139  24.277  20.600  1.00  0.00    -0.496 OA
ATOM     90  H   UNL A   1      34.000  24.445  20.268  1.00  0.00     0.294 HD
ENDBRANCH  83  89
BRANCH  87  91
ATOM     91  C   UNL A   1      31.166  27.245  24.436  1.00  0.00     0.050 A 
ATOM     92  C   UNL A   1      31.746  28.462  24.814  1.00  0.00     0.027 A 
ATOM     93  C   UNL A   1      29.944  27.232  23.751  1.00  0.00     0.047 A 
ATOM     94  C   UNL A   1      31.121  29.662  24.465  1.00  0.00     0.004 A 
ATOM     95  C   UNL A   1      29.308  28.435  23.451  1.00  0.00     0.043 A 
ATOM     96  C   UNL A   1      29.898  29.650  23.789  1.00  0.00     0.020 A 
ATOM     97  Cl  UNL A   1      27.769  28.414  22.676  1.00  0.00    -0.084 Cl
ENDBRANCH  87  91
ENDBRANCH  79  80
ENDBRANCH  71  74
ENDBRANCH  69  70
ENDBRANCH  68  69
ENDBRANCH   1  68
TORSDOF 16
ENDMDL
