MODEL 1
REMARK VINA RESULT:     -10.5      0.000      0.000
REMARK SMILES CC(C)Oc1ccc([C@H](O)[C@H](F)C(=O)NCCCNC(=O)c2ccc(-c3c4nc(c(-c5ccc(S(=O)(=O)[O-])cc5)c5ccc([nH]5)c(-c5ccc(S(=O)(=O)[O-])cc5)c5nc(c(-c6ccc(S(=O)(=O)[O-])cc6)c6ccc3[nH]6)C=C5)C=C4)cc2)cc1
REMARK SMILES IDX 16 1 15 2 13 3 14 4 11 6 12 7 9 8 8 9 5 10 6 11 83 12 7 13
REMARK SMILES IDX 82 14 4 15 2 16 1 17 3 18 10 19 17 21 18 22 19 23 20 24
REMARK SMILES IDX 21 26 22 27 23 28 81 29 24 30 80 31 25 32 26 33 27 34 74 35
REMARK SMILES IDX 28 36 79 37 73 38 75 39 29 40 78 41 72 42 71 43 30 45 60 46
REMARK SMILES IDX 41 47 59 48 42 49 45 50 58 51 76 52 43 53 44 54 57 56 77 57
REMARK SMILES IDX 46 58 31 59 32 60 40 61 33 62 39 63 34 64 35 65 36 66 37 67
REMARK SMILES IDX 38 68 61 69 62 70 70 71 63 72 69 73 64 74 65 75 66 76 67 77
REMARK SMILES IDX 68 78 47 79 48 80 56 81 49 82 55 83 50 84 51 85 52 86 53 87
REMARK SMILES IDX 54 88
REMARK H PARENT 15 5 10 20 19 25 75 44 45 55
REMARK Flexibility Score: inf
ROOT
ATOM      1  C   UNL A   1      31.640  29.382  25.727  1.00  0.00     0.117 C 
ENDROOT
BRANCH   1   2
ATOM      2  N   UNL A   1      31.078  29.921  24.497  1.00  0.00    -0.353 N 
ATOM      3  C   UNL A   1      30.312  29.295  23.559  1.00  0.00     0.257 C 
ATOM      4  O   UNL A   1      29.704  30.009  22.754  1.00  0.00    -0.272 OA
ATOM      5  H   UNL A   1      31.279  30.869  24.318  1.00  0.00     0.163 HD
BRANCH   3   6
ATOM      6  C   UNL A   1      30.163  27.782  23.515  1.00  0.00     0.288 C 
ATOM      7  F   UNL A   1      28.873  27.340  23.401  1.00  0.00    -0.234 F 
BRANCH   6   8
ATOM      8  C   UNL A   1      31.037  27.122  22.435  1.00  0.00     0.188 C 
BRANCH   8   9
ATOM      9  C   UNL A   1      31.688  25.816  22.852  1.00  0.00    -0.016 A 
ATOM     10  C   UNL A   1      32.960  23.335  23.380  1.00  0.00     0.119 A 
ATOM     11  C   UNL A   1      31.567  23.450  23.399  1.00  0.00     0.047 A 
ATOM     12  C   UNL A   1      33.716  24.475  23.134  1.00  0.00     0.047 A 
ATOM     13  C   UNL A   1      30.936  24.669  23.135  1.00  0.00     0.010 A 
ATOM     14  C   UNL A   1      33.087  25.707  22.887  1.00  0.00     0.010 A 
BRANCH  10  15
ATOM     15  O   UNL A   1      33.402  22.069  23.603  1.00  0.00    -0.491 OA
BRANCH  15  16
ATOM     16  C   UNL A   1      33.127  21.310  24.783  1.00  0.00     0.167 C 
ATOM     17  C   UNL A   1      32.427  19.985  24.517  1.00  0.00     0.052 C 
ATOM     18  C   UNL A   1      34.315  21.216  25.734  1.00  0.00     0.052 C 
ENDBRANCH  15  16
ENDBRANCH  10  15
ENDBRANCH   8   9
BRANCH   8  19
ATOM     19  O   UNL A   1      32.054  28.049  22.014  1.00  0.00    -0.385 OA
ATOM     20  H   UNL A   1      32.366  28.555  22.780  1.00  0.00     0.211 HD
ENDBRANCH   8  19
ENDBRANCH   6   8
ENDBRANCH   3   6
ENDBRANCH   1   2
BRANCH   1  21
ATOM     21  C   UNL A   1      33.032  28.800  25.569  1.00  0.00     0.042 C 
BRANCH  21  22
ATOM     22  C   UNL A   1      33.863  28.798  26.847  1.00  0.00     0.118 C 
BRANCH  22  23
ATOM     23  N   UNL A   1      33.818  30.048  27.602  1.00  0.00    -0.352 N 
ATOM     24  C   UNL A   1      34.790  30.673  28.350  1.00  0.00     0.251 C 
ATOM     25  H   UNL A   1      32.954  30.519  27.571  1.00  0.00     0.163 HD
ATOM     26  O   UNL A   1      34.553  31.732  28.922  1.00  0.00    -0.269 OA
BRANCH  24  27
ATOM     27  C   UNL A   1      36.113  30.041  28.495  1.00  0.00     0.039 A 
ATOM     28  C   UNL A   1      37.029  30.115  27.443  1.00  0.00     0.014 A 
ATOM     29  C   UNL A   1      36.459  29.422  29.694  1.00  0.00     0.014 A 
ATOM     30  C   UNL A   1      38.337  29.664  27.636  1.00  0.00     0.010 A 
ATOM     31  C   UNL A   1      37.779  29.063  29.917  1.00  0.00     0.010 A 
ATOM     32  C   UNL A   1      38.735  29.189  28.895  1.00  0.00    -0.014 A 
BRANCH  32  33
ATOM     33  C   UNL A   1      40.139  28.822  29.204  1.00  0.00     0.031 A 
ATOM     34  C   UNL A   1      41.069  29.867  29.755  1.00  0.00     0.074 A 
ATOM     35  C   UNL A   1      40.607  27.605  28.862  1.00  0.00     0.049 A 
ATOM     36  N   UNL A   1      42.368  29.832  29.885  1.00  0.00    -0.248 NA
ATOM     37  C   UNL A   1      40.453  31.136  30.179  1.00  0.00     0.031 C 
ATOM     38  C   UNL A   1      39.810  26.512  28.299  1.00  0.00     0.029 A 
ATOM     39  N   UNL A   1      41.879  27.093  28.914  1.00  0.00    -0.354 N 
ATOM     40  C   UNL A   1      42.730  31.084  30.367  1.00  0.00     0.074 A 
ATOM     41  C   UNL A   1      41.519  31.869  30.463  1.00  0.00     0.031 C 
ATOM     42  C   UNL A   1      40.608  25.455  28.075  1.00  0.00     0.029 A 
ATOM     43  C   UNL A   1      41.980  25.813  28.420  1.00  0.00     0.049 A 
ATOM     44  H   UNL A   1      42.647  27.594  29.271  1.00  0.00     0.167 HD
ATOM     45  C   UNL A   1      43.959  31.535  30.713  1.00  0.00     0.031 A 
ATOM     46  C   UNL A   1      43.057  25.026  28.238  1.00  0.00     0.031 A 
ATOM     47  C   UNL A   1      45.155  30.742  30.629  1.00  0.00     0.049 A 
ATOM     48  C   UNL A   1      44.418  25.558  28.593  1.00  0.00     0.074 A 
ATOM     49  C   UNL A   1      46.441  31.079  31.012  1.00  0.00     0.029 A 
ATOM     50  N   UNL A   1      45.211  29.450  30.126  1.00  0.00    -0.354 N 
ATOM     51  N   UNL A   1      44.739  26.730  29.091  1.00  0.00    -0.248 NA
ATOM     52  C   UNL A   1      45.563  24.670  28.353  1.00  0.00     0.031 C 
ATOM     53  C   UNL A   1      47.284  30.008  30.692  1.00  0.00     0.029 A 
ATOM     54  C   UNL A   1      46.514  28.986  30.157  1.00  0.00     0.049 A 
ATOM     55  H   UNL A   1      44.437  28.939  29.794  1.00  0.00     0.167 HD
ATOM     56  C   UNL A   1      46.121  26.713  29.236  1.00  0.00     0.074 A 
ATOM     57  C   UNL A   1      46.573  25.410  28.789  1.00  0.00     0.031 C 
ATOM     58  C   UNL A   1      46.943  27.688  29.696  1.00  0.00     0.031 A 
BRANCH  45  59
ATOM     59  C   UNL A   1      44.060  32.958  31.196  1.00  0.00    -0.014 A 
ATOM     60  C   UNL A   1      44.118  33.258  32.569  1.00  0.00     0.010 A 
ATOM     61  C   UNL A   1      44.092  34.013  30.265  1.00  0.00     0.010 A 
ATOM     62  C   UNL A   1      44.142  34.585  33.005  1.00  0.00     0.020 A 
ATOM     63  C   UNL A   1      44.148  35.341  30.696  1.00  0.00     0.020 A 
ATOM     64  C   UNL A   1      44.146  35.619  32.064  1.00  0.00     0.054 A 
BRANCH  64  65
ATOM     65  S   UNL A   1      44.164  37.333  32.657  1.00  0.00     0.124 S 
ATOM     66  O   UNL A   1      43.958  38.080  31.419  1.00  0.00    -0.237 OA
ATOM     67  O   UNL A   1      43.047  37.359  33.599  1.00  0.00    -0.237 OA
ATOM     68  O   UNL A   1      45.487  37.477  33.260  1.00  0.00    -0.744 OA
ENDBRANCH  64  65
ENDBRANCH  45  59
BRANCH  46  69
ATOM     69  C   UNL A   1      42.888  23.650  27.696  1.00  0.00    -0.014 A 
ATOM     70  C   UNL A   1      42.474  22.606  28.542  1.00  0.00     0.010 A 
ATOM     71  C   UNL A   1      43.097  23.382  26.330  1.00  0.00     0.010 A 
ATOM     72  C   UNL A   1      42.272  21.320  28.035  1.00  0.00     0.020 A 
ATOM     73  C   UNL A   1      42.873  22.101  25.815  1.00  0.00     0.020 A 
ATOM     74  C   UNL A   1      42.467  21.077  26.672  1.00  0.00     0.054 A 
BRANCH  74  75
ATOM     75  S   UNL A   1      42.120  19.418  26.023  1.00  0.00     0.124 S 
ATOM     76  O   UNL A   1      42.976  19.368  24.843  1.00  0.00    -0.237 OA
ATOM     77  O   UNL A   1      42.521  18.556  27.133  1.00  0.00    -0.237 OA
ATOM     78  O   UNL A   1      40.683  19.449  25.756  1.00  0.00    -0.744 OA
ENDBRANCH  74  75
ENDBRANCH  46  69
BRANCH  58  79
ATOM     79  C   UNL A   1      48.415  27.387  29.747  1.00  0.00    -0.014 A 
ATOM     80  C   UNL A   1      49.254  27.713  28.668  1.00  0.00     0.010 A 
ATOM     81  C   UNL A   1      48.978  26.849  30.919  1.00  0.00     0.010 A 
ATOM     82  C   UNL A   1      50.631  27.495  28.754  1.00  0.00     0.020 A 
ATOM     83  C   UNL A   1      50.357  26.653  31.018  1.00  0.00     0.020 A 
ATOM     84  C   UNL A   1      51.174  26.972  29.932  1.00  0.00     0.054 A 
BRANCH  84  85
ATOM     85  S   UNL A   1      52.974  26.771  30.045  1.00  0.00     0.124 S 
ATOM     86  O   UNL A   1      53.302  26.223  28.733  1.00  0.00    -0.237 OA
ATOM     87  O   UNL A   1      53.433  28.137  30.289  1.00  0.00    -0.237 OA
ATOM     88  O   UNL A   1      53.150  25.852  31.167  1.00  0.00    -0.744 OA
ENDBRANCH  84  85
ENDBRANCH  58  79
ENDBRANCH  32  33
ENDBRANCH  24  27
ENDBRANCH  22  23
ENDBRANCH  21  22
ENDBRANCH   1  21
TORSDOF 18
ENDMDL
MODEL 2
REMARK VINA RESULT:     -10.4      4.891     11.619
REMARK SMILES CC(C)Oc1ccc([C@H](O)[C@H](F)C(=O)NCCCNC(=O)c2ccc(-c3c4nc(c(-c5ccc(S(=O)(=O)[O-])cc5)c5ccc([nH]5)c(-c5ccc(S(=O)(=O)[O-])cc5)c5nc(c(-c6ccc(S(=O)(=O)[O-])cc6)c6ccc3[nH]6)C=C5)C=C4)cc2)cc1
REMARK SMILES IDX 16 1 15 2 13 3 14 4 11 6 12 7 9 8 8 9 5 10 6 11 83 12 7 13
REMARK SMILES IDX 82 14 4 15 2 16 1 17 3 18 10 19 17 21 18 22 19 23 20 24
REMARK SMILES IDX 21 26 22 27 23 28 81 29 24 30 80 31 25 32 26 33 27 34 74 35
REMARK SMILES IDX 28 36 79 37 73 38 75 39 29 40 78 41 72 42 71 43 30 45 60 46
REMARK SMILES IDX 41 47 59 48 42 49 45 50 58 51 76 52 43 53 44 54 57 56 77 57
REMARK SMILES IDX 46 58 31 59 32 60 40 61 33 62 39 63 34 64 35 65 36 66 37 67
REMARK SMILES IDX 38 68 61 69 62 70 70 71 63 72 69 73 64 74 65 75 66 76 67 77
REMARK SMILES IDX 68 78 47 79 48 80 56 81 49 82 55 83 50 84 51 85 52 86 53 87
REMARK SMILES IDX 54 88
REMARK H PARENT 15 5 10 20 19 25 75 44 45 55
REMARK Flexibility Score: inf
ROOT
ATOM      1  C   UNL A   1      42.708  21.921  26.670  1.00  0.00     0.117 C 
ENDROOT
BRANCH   1   2
ATOM      2  N   UNL A   1      43.995  21.769  26.010  1.00  0.00    -0.353 N 
ATOM      3  C   UNL A   1      45.137  22.494  26.181  1.00  0.00     0.257 C 
ATOM      4  O   UNL A   1      46.186  22.013  25.741  1.00  0.00    -0.272 OA
ATOM      5  H   UNL A   1      44.049  21.042  25.347  1.00  0.00     0.163 HD
BRANCH   3   6
ATOM      6  C   UNL A   1      45.148  23.823  26.921  1.00  0.00     0.288 C 
ATOM      7  F   UNL A   1      45.719  23.779  28.163  1.00  0.00    -0.234 F 
BRANCH   6   8
ATOM      8  C   UNL A   1      45.772  24.964  26.101  1.00  0.00     0.188 C 
BRANCH   8   9
ATOM      9  C   UNL A   1      45.467  26.360  26.612  1.00  0.00    -0.016 A 
ATOM     10  C   UNL A   1      44.993  29.059  27.346  1.00  0.00     0.119 A 
ATOM     11  C   UNL A   1      46.055  28.337  27.898  1.00  0.00     0.047 A 
ATOM     12  C   UNL A   1      44.145  28.414  26.454  1.00  0.00     0.047 A 
ATOM     13  C   UNL A   1      46.295  27.008  27.536  1.00  0.00     0.010 A 
ATOM     14  C   UNL A   1      44.370  27.073  26.102  1.00  0.00     0.010 A 
BRANCH  10  15
ATOM     15  O   UNL A   1      44.940  30.351  27.766  1.00  0.00    -0.491 OA
BRANCH  15  16
ATOM     16  C   UNL A   1      44.507  30.764  29.065  1.00  0.00     0.167 C 
ATOM     17  C   UNL A   1      45.572  31.503  29.865  1.00  0.00     0.052 C 
ATOM     18  C   UNL A   1      43.140  31.436  29.064  1.00  0.00     0.052 C 
ENDBRANCH  15  16
ENDBRANCH  10  15
ENDBRANCH   8   9
BRANCH   8  19
ATOM     19  O   UNL A   1      45.345  24.854  24.731  1.00  0.00    -0.385 OA
ATOM     20  H   UNL A   1      45.610  23.990  24.378  1.00  0.00     0.211 HD
ENDBRANCH   8  19
ENDBRANCH   6   8
ENDBRANCH   3   6
ENDBRANCH   1   2
BRANCH   1  21
ATOM     21  C   UNL A   1      41.516  21.592  25.789  1.00  0.00     0.042 C 
BRANCH  21  22
ATOM     22  C   UNL A   1      40.190  21.499  26.534  1.00  0.00     0.118 C 
BRANCH  22  23
ATOM     23  N   UNL A   1      39.054  22.088  25.829  1.00  0.00    -0.352 N 
ATOM     24  C   UNL A   1      38.583  23.382  25.824  1.00  0.00     0.251 C 
ATOM     25  H   UNL A   1      38.545  21.461  25.267  1.00  0.00     0.163 HD
ATOM     26  O   UNL A   1      37.596  23.683  25.159  1.00  0.00    -0.269 OA
BRANCH  24  27
ATOM     27  C   UNL A   1      39.246  24.401  26.655  1.00  0.00     0.039 A 
ATOM     28  C   UNL A   1      40.156  25.282  26.065  1.00  0.00     0.014 A 
ATOM     29  C   UNL A   1      38.926  24.511  28.006  1.00  0.00     0.014 A 
ATOM     30  C   UNL A   1      40.660  26.350  26.811  1.00  0.00     0.010 A 
ATOM     31  C   UNL A   1      39.351  25.623  28.717  1.00  0.00     0.010 A 
ATOM     32  C   UNL A   1      40.214  26.560  28.125  1.00  0.00    -0.014 A 
BRANCH  32  33
ATOM     33  C   UNL A   1      40.607  27.748  28.923  1.00  0.00     0.031 A 
ATOM     34  C   UNL A   1      41.882  27.711  29.717  1.00  0.00     0.074 A 
ATOM     35  C   UNL A   1      39.760  28.789  29.042  1.00  0.00     0.049 A 
ATOM     36  N   UNL A   1      42.304  28.531  30.644  1.00  0.00    -0.248 NA
ATOM     37  C   UNL A   1      42.784  26.576  29.459  1.00  0.00     0.031 C 
ATOM     38  C   UNL A   1      38.482  28.934  28.339  1.00  0.00     0.029 A 
ATOM     39  N   UNL A   1      39.837  29.917  29.821  1.00  0.00    -0.354 N 
ATOM     40  C   UNL A   1      43.497  27.990  31.106  1.00  0.00     0.074 A 
ATOM     41  C   UNL A   1      43.709  26.751  30.391  1.00  0.00     0.031 C 
ATOM     42  C   UNL A   1      37.905  30.089  28.707  1.00  0.00     0.029 A 
ATOM     43  C   UNL A   1      38.739  30.738  29.714  1.00  0.00     0.049 A 
ATOM     44  H   UNL A   1      40.604  30.117  30.403  1.00  0.00     0.167 HD
ATOM     45  C   UNL A   1      44.349  28.488  32.034  1.00  0.00     0.031 A 
ATOM     46  C   UNL A   1      38.425  31.871  30.370  1.00  0.00     0.031 A 
ATOM     47  C   UNL A   1      44.138  29.730  32.729  1.00  0.00     0.049 A 
ATOM     48  C   UNL A   1      39.364  32.389  31.423  1.00  0.00     0.074 A 
ATOM     49  C   UNL A   1      44.965  30.358  33.641  1.00  0.00     0.029 A 
ATOM     50  N   UNL A   1      43.014  30.532  32.587  1.00  0.00    -0.354 N 
ATOM     51  N   UNL A   1      40.513  31.890  31.818  1.00  0.00    -0.248 NA
ATOM     52  C   UNL A   1      38.964  33.615  32.127  1.00  0.00     0.031 C 
ATOM     53  C   UNL A   1      44.319  31.515  34.090  1.00  0.00     0.029 A 
ATOM     54  C   UNL A   1      43.111  31.634  33.419  1.00  0.00     0.049 A 
ATOM     55  H   UNL A   1      42.259  30.344  31.984  1.00  0.00     0.167 HD
ATOM     56  C   UNL A   1      40.978  32.749  32.806  1.00  0.00     0.074 A 
ATOM     57  C   UNL A   1      39.996  33.807  32.938  1.00  0.00     0.031 C 
ATOM     58  C   UNL A   1      42.115  32.669  33.541  1.00  0.00     0.031 A 
BRANCH  45  59
ATOM     59  C   UNL A   1      45.573  27.673  32.354  1.00  0.00    -0.014 A 
ATOM     60  C   UNL A   1      45.568  26.732  33.400  1.00  0.00     0.010 A 
ATOM     61  C   UNL A   1      46.750  27.852  31.603  1.00  0.00     0.010 A 
ATOM     62  C   UNL A   1      46.731  26.033  33.731  1.00  0.00     0.020 A 
ATOM     63  C   UNL A   1      47.907  27.131  31.910  1.00  0.00     0.020 A 
ATOM     64  C   UNL A   1      47.897  26.245  32.989  1.00  0.00     0.054 A 
BRANCH  64  65
ATOM     65  S   UNL A   1      49.396  25.333  33.448  1.00  0.00     0.124 S 
ATOM     66  O   UNL A   1      50.134  26.336  34.213  1.00  0.00    -0.237 OA
ATOM     67  O   UNL A   1      48.867  24.215  34.226  1.00  0.00    -0.237 OA
ATOM     68  O   UNL A   1      49.988  24.970  32.163  1.00  0.00    -0.744 OA
ENDBRANCH  64  65
ENDBRANCH  45  59
BRANCH  46  69
ATOM     69  C   UNL A   1      37.163  32.592  30.044  1.00  0.00    -0.014 A 
ATOM     70  C   UNL A   1      36.031  32.435  30.862  1.00  0.00     0.010 A 
ATOM     71  C   UNL A   1      37.097  33.467  28.944  1.00  0.00     0.010 A 
ATOM     72  C   UNL A   1      34.855  33.139  30.588  1.00  0.00     0.020 A 
ATOM     73  C   UNL A   1      35.930  34.191  28.680  1.00  0.00     0.020 A 
ATOM     74  C   UNL A   1      34.814  34.018  29.501  1.00  0.00     0.054 A 
BRANCH  74  75
ATOM     75  S   UNL A   1      33.302  34.981  29.215  1.00  0.00     0.124 S 
ATOM     76  O   UNL A   1      32.619  34.180  28.204  1.00  0.00    -0.237 OA
ATOM     77  O   UNL A   1      32.682  34.994  30.538  1.00  0.00    -0.237 OA
ATOM     78  O   UNL A   1      33.803  36.275  28.757  1.00  0.00    -0.744 OA
ENDBRANCH  74  75
ENDBRANCH  46  69
BRANCH  58  79
ATOM     79  C   UNL A   1      42.366  33.755  34.550  1.00  0.00    -0.014 A 
ATOM     80  C   UNL A   1      42.072  33.555  35.910  1.00  0.00     0.010 A 
ATOM     81  C   UNL A   1      42.977  34.956  34.147  1.00  0.00     0.010 A 
ATOM     82  C   UNL A   1      42.376  34.543  36.850  1.00  0.00     0.020 A 
ATOM     83  C   UNL A   1      43.305  35.936  35.086  1.00  0.00     0.020 A 
ATOM     84  C   UNL A   1      42.997  35.725  36.432  1.00  0.00     0.054 A 
BRANCH  84  85
ATOM     85  S   UNL A   1      43.450  36.959  37.682  1.00  0.00     0.124 S 
ATOM     86  O   UNL A   1      42.148  37.341  38.219  1.00  0.00    -0.237 OA
ATOM     87  O   UNL A   1      44.305  36.195  38.590  1.00  0.00    -0.237 OA
ATOM     88  O   UNL A   1      44.136  37.995  36.914  1.00  0.00    -0.744 OA
ENDBRANCH  84  85
ENDBRANCH  58  79
ENDBRANCH  32  33
ENDBRANCH  24  27
ENDBRANCH  22  23
ENDBRANCH  21  22
ENDBRANCH   1  21
TORSDOF 18
ENDMDL
MODEL 3
REMARK VINA RESULT:     -10.2      1.896      2.511
REMARK SMILES CC(C)Oc1ccc([C@H](O)[C@H](F)C(=O)NCCCNC(=O)c2ccc(-c3c4nc(c(-c5ccc(S(=O)(=O)[O-])cc5)c5ccc([nH]5)c(-c5ccc(S(=O)(=O)[O-])cc5)c5nc(c(-c6ccc(S(=O)(=O)[O-])cc6)c6ccc3[nH]6)C=C5)C=C4)cc2)cc1
REMARK SMILES IDX 16 1 15 2 13 3 14 4 11 6 12 7 9 8 8 9 5 10 6 11 83 12 7 13
REMARK SMILES IDX 82 14 4 15 2 16 1 17 3 18 10 19 17 21 18 22 19 23 20 24
REMARK SMILES IDX 21 26 22 27 23 28 81 29 24 30 80 31 25 32 26 33 27 34 74 35
REMARK SMILES IDX 28 36 79 37 73 38 75 39 29 40 78 41 72 42 71 43 30 45 60 46
REMARK SMILES IDX 41 47 59 48 42 49 45 50 58 51 76 52 43 53 44 54 57 56 77 57
REMARK SMILES IDX 46 58 31 59 32 60 40 61 33 62 39 63 34 64 35 65 36 66 37 67
REMARK SMILES IDX 38 68 61 69 62 70 70 71 63 72 69 73 64 74 65 75 66 76 67 77
REMARK SMILES IDX 68 78 47 79 48 80 56 81 49 82 55 83 50 84 51 85 52 86 53 87
REMARK SMILES IDX 54 88
REMARK H PARENT 15 5 10 20 19 25 75 44 45 55
REMARK Flexibility Score: inf
ROOT
ATOM      1  C   UNL A   1      32.706  28.904  25.790  1.00  0.00     0.117 C 
ENDROOT
BRANCH   1   2
ATOM      2  N   UNL A   1      31.889  29.571  24.788  1.00  0.00    -0.353 N 
ATOM      3  C   UNL A   1      30.889  29.055  24.016  1.00  0.00     0.257 C 
ATOM      4  O   UNL A   1      30.138  29.857  23.451  1.00  0.00    -0.272 OA
ATOM      5  H   UNL A   1      32.084  30.526  24.647  1.00  0.00     0.163 HD
BRANCH   3   6
ATOM      6  C   UNL A   1      30.663  27.557  23.880  1.00  0.00     0.288 C 
ATOM      7  F   UNL A   1      29.348  27.180  23.853  1.00  0.00    -0.234 F 
BRANCH   6   8
ATOM      8  C   UNL A   1      31.406  26.942  22.683  1.00  0.00     0.188 C 
BRANCH   8   9
ATOM      9  C   UNL A   1      32.278  25.747  23.018  1.00  0.00    -0.016 A 
ATOM     10  C   UNL A   1      33.694  23.367  23.637  1.00  0.00     0.119 A 
ATOM     11  C   UNL A   1      33.407  24.313  24.624  1.00  0.00     0.047 A 
ATOM     12  C   UNL A   1      33.304  23.634  22.330  1.00  0.00     0.047 A 
ATOM     13  C   UNL A   1      32.706  25.485  24.325  1.00  0.00     0.010 A 
ATOM     14  C   UNL A   1      32.616  24.819  22.020  1.00  0.00     0.010 A 
BRANCH  10  15
ATOM     15  O   UNL A   1      34.331  22.264  24.111  1.00  0.00    -0.491 OA
BRANCH  15  16
ATOM     16  C   UNL A   1      35.713  22.221  24.476  1.00  0.00     0.167 C 
ATOM     17  C   UNL A   1      36.182  20.855  24.959  1.00  0.00     0.052 C 
ATOM     18  C   UNL A   1      36.632  22.878  23.453  1.00  0.00     0.052 C 
ENDBRANCH  15  16
ENDBRANCH  10  15
ENDBRANCH   8   9
BRANCH   8  19
ATOM     19  O   UNL A   1      32.209  27.956  22.050  1.00  0.00    -0.385 OA
ATOM     20  H   UNL A   1      32.960  27.539  21.599  1.00  0.00     0.211 HD
ENDBRANCH   8  19
ENDBRANCH   6   8
ENDBRANCH   3   6
ENDBRANCH   1   2
BRANCH   1  21
ATOM     21  C   UNL A   1      34.028  29.594  26.070  1.00  0.00     0.042 C 
BRANCH  21  22
ATOM     22  C   UNL A   1      34.749  29.091  27.315  1.00  0.00     0.118 C 
BRANCH  22  23
ATOM     23  N   UNL A   1      34.844  30.065  28.399  1.00  0.00    -0.352 N 
ATOM     24  C   UNL A   1      35.919  30.433  29.176  1.00  0.00     0.251 C 
ATOM     25  H   UNL A   1      34.004  30.535  28.607  1.00  0.00     0.163 HD
ATOM     26  O   UNL A   1      35.794  31.282  30.053  1.00  0.00    -0.269 OA
BRANCH  24  27
ATOM     27  C   UNL A   1      37.220  29.771  28.976  1.00  0.00     0.039 A 
ATOM     28  C   UNL A   1      37.851  29.857  27.733  1.00  0.00     0.014 A 
ATOM     29  C   UNL A   1      37.832  29.109  30.038  1.00  0.00     0.014 A 
ATOM     30  C   UNL A   1      39.154  29.374  27.588  1.00  0.00     0.010 A 
ATOM     31  C   UNL A   1      39.157  28.717  29.921  1.00  0.00     0.010 A 
ATOM     32  C   UNL A   1      39.836  28.854  28.699  1.00  0.00    -0.014 A 
BRANCH  32  33
ATOM     33  C   UNL A   1      41.263  28.450  28.643  1.00  0.00     0.031 A 
ATOM     34  C   UNL A   1      42.330  29.496  28.799  1.00  0.00     0.074 A 
ATOM     35  C   UNL A   1      41.591  27.184  28.318  1.00  0.00     0.049 A 
ATOM     36  N   UNL A   1      43.613  29.409  28.567  1.00  0.00    -0.248 NA
ATOM     37  C   UNL A   1      41.884  30.830  29.238  1.00  0.00     0.031 C 
ATOM     38  C   UNL A   1      40.646  26.082  28.119  1.00  0.00     0.029 A 
ATOM     39  N   UNL A   1      42.816  26.617  28.070  1.00  0.00    -0.354 N 
ATOM     40  C   UNL A   1      44.121  30.683  28.793  1.00  0.00     0.074 A 
ATOM     41  C   UNL A   1      43.002  31.533  29.136  1.00  0.00     0.031 C 
ATOM     42  C   UNL A   1      41.327  24.970  27.798  1.00  0.00     0.029 A 
ATOM     43  C   UNL A   1      42.747  25.291  27.708  1.00  0.00     0.049 A 
ATOM     44  H   UNL A   1      43.663  27.111  28.144  1.00  0.00     0.167 HD
ATOM     45  C   UNL A   1      45.406  31.105  28.733  1.00  0.00     0.031 A 
ATOM     46  C   UNL A   1      43.714  24.438  27.320  1.00  0.00     0.031 A 
ATOM     47  C   UNL A   1      46.515  30.248  28.407  1.00  0.00     0.049 A 
ATOM     48  C   UNL A   1      45.130  24.934  27.224  1.00  0.00     0.074 A 
ATOM     49  C   UNL A   1      47.862  30.557  28.379  1.00  0.00     0.029 A 
ATOM     50  N   UNL A   1      46.401  28.913  28.050  1.00  0.00    -0.354 N 
ATOM     51  N   UNL A   1      45.602  26.131  27.485  1.00  0.00    -0.248 NA
ATOM     52  C   UNL A   1      46.143  23.971  26.774  1.00  0.00     0.031 C 
ATOM     53  C   UNL A   1      48.560  29.420  27.955  1.00  0.00     0.029 A 
ATOM     54  C   UNL A   1      47.651  28.390  27.769  1.00  0.00     0.049 A 
ATOM     55  H   UNL A   1      45.555  28.411  28.003  1.00  0.00     0.167 HD
ATOM     56  C   UNL A   1      46.968  26.060  27.243  1.00  0.00     0.074 A 
ATOM     57  C   UNL A   1      47.250  24.699  26.831  1.00  0.00     0.031 C 
ATOM     58  C   UNL A   1      47.906  27.034  27.349  1.00  0.00     0.031 A 
BRANCH  45  59
ATOM     59  C   UNL A   1      45.668  32.561  29.013  1.00  0.00    -0.014 A 
ATOM     60  C   UNL A   1      45.922  33.017  30.320  1.00  0.00     0.010 A 
ATOM     61  C   UNL A   1      45.655  33.490  27.957  1.00  0.00     0.010 A 
ATOM     62  C   UNL A   1      46.094  34.379  30.575  1.00  0.00     0.020 A 
ATOM     63  C   UNL A   1      45.858  34.851  28.203  1.00  0.00     0.020 A 
ATOM     64  C   UNL A   1      46.051  35.290  29.514  1.00  0.00     0.054 A 
BRANCH  64  65
ATOM     65  S   UNL A   1      46.264  37.054  29.875  1.00  0.00     0.124 S 
ATOM     66  O   UNL A   1      45.817  37.671  28.629  1.00  0.00    -0.237 OA
ATOM     67  O   UNL A   1      45.386  37.256  31.025  1.00  0.00    -0.237 OA
ATOM     68  O   UNL A   1      47.692  37.180  30.156  1.00  0.00    -0.744 OA
ENDBRANCH  64  65
ENDBRANCH  45  59
BRANCH  46  69
ATOM     69  C   UNL A   1      43.371  23.026  26.998  1.00  0.00    -0.014 A 
ATOM     70  C   UNL A   1      43.742  22.476  25.759  1.00  0.00     0.010 A 
ATOM     71  C   UNL A   1      42.711  22.212  27.937  1.00  0.00     0.010 A 
ATOM     72  C   UNL A   1      43.461  21.139  25.463  1.00  0.00     0.020 A 
ATOM     73  C   UNL A   1      42.449  20.867  27.655  1.00  0.00     0.020 A 
ATOM     74  C   UNL A   1      42.822  20.341  26.417  1.00  0.00     0.054 A 
BRANCH  74  75
ATOM     75  S   UNL A   1      42.541  18.588  26.040  1.00  0.00     0.124 S 
ATOM     76  O   UNL A   1      42.989  17.938  27.267  1.00  0.00    -0.237 OA
ATOM     77  O   UNL A   1      41.102  18.546  25.789  1.00  0.00    -0.237 OA
ATOM     78  O   UNL A   1      43.378  18.353  24.864  1.00  0.00    -0.744 OA
ENDBRANCH  74  75
ENDBRANCH  46  69
BRANCH  58  79
ATOM     79  C   UNL A   1      49.327  26.666  27.022  1.00  0.00    -0.014 A 
ATOM     80  C   UNL A   1      50.242  26.350  28.041  1.00  0.00     0.010 A 
ATOM     81  C   UNL A   1      49.728  26.555  25.678  1.00  0.00     0.010 A 
ATOM     82  C   UNL A   1      51.538  25.941  27.722  1.00  0.00     0.020 A 
ATOM     83  C   UNL A   1      51.016  26.122  25.354  1.00  0.00     0.020 A 
ATOM     84  C   UNL A   1      51.915  25.823  26.380  1.00  0.00     0.054 A 
BRANCH  84  85
ATOM     85  S   UNL A   1      53.580  25.216  25.993  1.00  0.00     0.124 S 
ATOM     86  O   UNL A   1      54.212  25.202  27.309  1.00  0.00    -0.237 OA
ATOM     87  O   UNL A   1      53.314  23.902  25.411  1.00  0.00    -0.237 OA
ATOM     88  O   UNL A   1      54.104  26.210  25.060  1.00  0.00    -0.744 OA
ENDBRANCH  84  85
ENDBRANCH  58  79
ENDBRANCH  32  33
ENDBRANCH  24  27
ENDBRANCH  22  23
ENDBRANCH  21  22
ENDBRANCH   1  21
TORSDOF 18
ENDMDL
