MODEL 1
REMARK VINA RESULT:     -13.7      0.000      0.000
REMARK SMILES Cc1ccc(C(=O)NC2(CC(=O)NCCCNC(=O)c3ccc(-c4c5nc(c(-c6ccc(S(=O)(=O)[O-])cc6)c6ccc([nH]6)c(-c6ccc(S(=O)(=O)[O-])cc6)c6nc(c(-c7ccc(S(=O)(=O)[O-])cc7)c7ccc4[nH]7)C=C6)C=C5)cc3)CCC2)cc1
REMARK SMILES IDX 15 1 14 2 13 3 11 4 12 5 10 7 9 8 80 9 82 10 81 11 8 12 6 13
REMARK SMILES IDX 7 14 5 16 1 17 2 18 3 19 84 20 4 21 83 22 16 23 17 24 18 25
REMARK SMILES IDX 19 27 20 28 21 29 79 30 22 31 78 32 23 33 24 34 25 35 72 36
REMARK SMILES IDX 26 37 77 38 71 39 73 40 27 41 76 42 70 43 69 44 28 46 58 47
REMARK SMILES IDX 39 48 57 49 40 50 43 51 56 52 74 53 41 54 42 55 55 57 75 58
REMARK SMILES IDX 44 59 29 60 30 61 38 62 31 63 37 64 32 65 33 66 34 67 35 68
REMARK SMILES IDX 36 69 59 70 60 71 68 72 61 73 67 74 62 75 63 76 64 77 65 78
REMARK SMILES IDX 66 79 45 80 46 81 54 82 47 83 53 84 48 85 49 86 50 87 51 88
REMARK SMILES IDX 52 89
REMARK H PARENT 13 6 8 15 17 26 73 45 43 56
REMARK Flexibility Score: inf
ROOT
ATOM      1  C   UNL A   1      31.772  29.324  26.676  1.00  0.00     0.042 C 
ENDROOT
BRANCH   1   2
ATOM      2  C   UNL A   1      31.701  30.507  25.727  1.00  0.00     0.117 C 
BRANCH   2   3
ATOM      3  N   UNL A   1      30.655  30.263  24.416  1.00  0.00    -0.356 N 
ATOM      4  C   UNL A   1      30.005  28.769  23.301  1.00  0.00     0.222 C 
ATOM      5  O   UNL A   1      28.899  28.591  22.717  1.00  0.00    -0.275 OA
ATOM      6  H   UNL A   1      30.256  31.115  24.126  1.00  0.00     0.163 HD
BRANCH   4   7
ATOM      7  C   UNL A   1      31.063  27.286  22.809  1.00  0.00     0.128 C 
BRANCH   7   8
ATOM      8  C   UNL A   1      32.715  27.327  22.597  1.00  0.00     0.049 C 
ATOM      9  C   UNL A   1      33.572  26.871  23.832  1.00  0.00     0.029 C 
ATOM     10  C   UNL A   1      33.924  28.502  22.528  1.00  0.00     0.029 C 
ATOM     11  C   UNL A   1      34.069  28.337  24.022  1.00  0.00     0.005 C 
BRANCH   8  12
ATOM     12  N   UNL A   1      32.936  26.703  21.301  1.00  0.00    -0.346 N 
ATOM     13  C   UNL A   1      32.962  25.334  21.317  1.00  0.00     0.251 C 
ATOM     14  O   UNL A   1      32.968  24.661  20.299  1.00  0.00    -0.269 OA
ATOM     15  H   UNL A   1      33.057  27.226  20.476  1.00  0.00     0.164 HD
BRANCH  13  16
ATOM     16  C   UNL A   1      33.206  24.760  22.688  1.00  0.00     0.039 A 
ATOM     17  C   UNL A   1      33.072  21.669  26.592  1.00  0.00     0.044 C 
ATOM     18  C   UNL A   1      33.195  22.059  25.130  1.00  0.00    -0.051 A 
ATOM     19  C   UNL A   1      31.645  22.643  24.407  1.00  0.00     0.004 A 
ATOM     20  C   UNL A   1      34.794  22.718  24.605  1.00  0.00     0.004 A 
ATOM     21  C   UNL A   1      31.656  23.968  23.194  1.00  0.00     0.014 A 
ATOM     22  C   UNL A   1      34.830  24.147  23.436  1.00  0.00     0.014 A 
ENDBRANCH  13  16
ENDBRANCH   8  12
ENDBRANCH   7   8
ENDBRANCH   4   7
ENDBRANCH   2   3
ENDBRANCH   1   2
BRANCH   1  23
ATOM     23  C   UNL A   1      33.007  29.471  27.489  1.00  0.00     0.118 C 
BRANCH  23  24
ATOM     24  N   UNL A   1      33.839  30.548  26.983  1.00  0.00    -0.352 N 
ATOM     25  C   UNL A   1      35.001  30.993  27.586  1.00  0.00     0.251 C 
ATOM     26  H   UNL A   1      33.556  30.992  26.152  1.00  0.00     0.163 HD
ATOM     27  O   UNL A   1      35.306  32.170  27.694  1.00  0.00    -0.269 OA
BRANCH  25  28
ATOM     28  C   UNL A   1      35.950  29.917  27.943  1.00  0.00     0.039 A 
ATOM     29  C   UNL A   1      36.021  29.607  29.307  1.00  0.00     0.014 A 
ATOM     30  C   UNL A   1      37.041  29.758  27.102  1.00  0.00     0.014 A 
ATOM     31  C   UNL A   1      37.262  29.370  29.868  1.00  0.00     0.010 A 
ATOM     32  C   UNL A   1      38.269  29.828  27.692  1.00  0.00     0.010 A 
ATOM     33  C   UNL A   1      38.369  29.622  29.072  1.00  0.00    -0.014 A 
BRANCH  33  34
ATOM     34  C   UNL A   1      39.738  29.409  29.460  1.00  0.00     0.031 A 
ATOM     35  C   UNL A   1      40.186  28.028  29.165  1.00  0.00     0.074 A 
ATOM     36  C   UNL A   1      40.461  30.512  29.757  1.00  0.00     0.049 A 
ATOM     37  N   UNL A   1      41.117  27.406  29.784  1.00  0.00    -0.248 NA
ATOM     38  C   UNL A   1      39.519  27.155  28.175  1.00  0.00     0.031 C 
ATOM     39  C   UNL A   1      41.902  30.720  29.780  1.00  0.00     0.029 A 
ATOM     40  N   UNL A   1      39.956  31.700  30.297  1.00  0.00    -0.354 N 
ATOM     41  C   UNL A   1      41.458  26.342  28.970  1.00  0.00     0.074 A 
ATOM     42  C   UNL A   1      40.332  26.100  28.121  1.00  0.00     0.031 C 
ATOM     43  C   UNL A   1      42.179  31.782  30.568  1.00  0.00     0.029 A 
ATOM     44  C   UNL A   1      40.925  32.213  31.176  1.00  0.00     0.049 A 
ATOM     45  H   UNL A   1      39.079  32.103  30.096  1.00  0.00     0.167 HD
ATOM     46  C   UNL A   1      42.764  25.975  28.913  1.00  0.00     0.031 A 
ATOM     47  C   UNL A   1      40.671  32.186  32.524  1.00  0.00     0.031 A 
ATOM     48  C   UNL A   1      43.536  26.837  29.801  1.00  0.00     0.049 A 
ATOM     49  C   UNL A   1      41.508  31.130  33.218  1.00  0.00     0.074 A 
ATOM     50  C   UNL A   1      44.270  27.986  29.560  1.00  0.00     0.029 A 
ATOM     51  N   UNL A   1      43.227  26.833  31.150  1.00  0.00    -0.354 N 
ATOM     52  N   UNL A   1      41.962  30.055  32.631  1.00  0.00    -0.248 NA
ATOM     53  C   UNL A   1      41.948  31.242  34.606  1.00  0.00     0.031 C 
ATOM     54  C   UNL A   1      44.347  28.707  30.782  1.00  0.00     0.029 A 
ATOM     55  C   UNL A   1      43.655  27.998  31.750  1.00  0.00     0.049 A 
ATOM     56  H   UNL A   1      42.764  26.099  31.616  1.00  0.00     0.167 HD
ATOM     57  C   UNL A   1      42.752  29.359  33.505  1.00  0.00     0.074 A 
ATOM     58  C   UNL A   1      42.708  30.139  34.729  1.00  0.00     0.031 C 
ATOM     59  C   UNL A   1      43.400  28.205  33.167  1.00  0.00     0.031 A 
BRANCH  46  60
ATOM     60  C   UNL A   1      43.394  25.104  27.861  1.00  0.00    -0.014 A 
ATOM     61  C   UNL A   1      43.942  25.748  26.733  1.00  0.00     0.010 A 
ATOM     62  C   UNL A   1      43.508  23.702  27.905  1.00  0.00     0.010 A 
ATOM     63  C   UNL A   1      44.562  25.047  25.700  1.00  0.00     0.020 A 
ATOM     64  C   UNL A   1      44.123  22.980  26.863  1.00  0.00     0.020 A 
ATOM     65  C   UNL A   1      44.655  23.664  25.771  1.00  0.00     0.054 A 
BRANCH  65  66
ATOM     66  S   UNL A   1      45.529  22.807  24.439  1.00  0.00     0.124 S 
ATOM     67  O   UNL A   1      46.217  21.734  25.154  1.00  0.00    -0.237 OA
ATOM     68  O   UNL A   1      44.434  22.381  23.572  1.00  0.00    -0.237 OA
ATOM     69  O   UNL A   1      46.403  23.835  23.877  1.00  0.00    -0.744 OA
ENDBRANCH  65  66
ENDBRANCH  46  60
BRANCH  47  70
ATOM     70  C   UNL A   1      39.233  32.487  32.835  1.00  0.00    -0.014 A 
ATOM     71  C   UNL A   1      38.832  33.841  32.806  1.00  0.00     0.010 A 
ATOM     72  C   UNL A   1      38.254  31.494  32.649  1.00  0.00     0.010 A 
ATOM     73  C   UNL A   1      37.546  34.196  32.377  1.00  0.00     0.020 A 
ATOM     74  C   UNL A   1      36.962  31.849  32.228  1.00  0.00     0.020 A 
ATOM     75  C   UNL A   1      36.646  33.194  32.016  1.00  0.00     0.054 A 
BRANCH  75  76
ATOM     76  S   UNL A   1      35.152  33.664  31.091  1.00  0.00     0.124 S 
ATOM     77  O   UNL A   1      34.448  32.392  30.970  1.00  0.00    -0.237 OA
ATOM     78  O   UNL A   1      34.528  34.649  31.979  1.00  0.00    -0.237 OA
ATOM     79  O   UNL A   1      35.679  34.213  29.847  1.00  0.00    -0.744 OA
ENDBRANCH  75  76
ENDBRANCH  47  70
BRANCH  59  80
ATOM     80  C   UNL A   1      43.921  27.178  34.144  1.00  0.00    -0.014 A 
ATOM     81  C   UNL A   1      43.097  26.336  34.900  1.00  0.00     0.010 A 
ATOM     82  C   UNL A   1      45.317  26.942  34.230  1.00  0.00     0.010 A 
ATOM     83  C   UNL A   1      43.635  25.393  35.780  1.00  0.00     0.020 A 
ATOM     84  C   UNL A   1      45.864  25.945  35.034  1.00  0.00     0.020 A 
ATOM     85  C   UNL A   1      45.016  25.212  35.848  1.00  0.00     0.054 A 
BRANCH  85  86
ATOM     86  S   UNL A   1      45.683  24.010  37.013  1.00  0.00     0.124 S 
ATOM     87  O   UNL A   1      45.311  22.748  36.379  1.00  0.00    -0.237 OA
ATOM     88  O   UNL A   1      47.112  24.319  37.006  1.00  0.00    -0.237 OA
ATOM     89  O   UNL A   1      44.990  24.312  38.262  1.00  0.00    -0.744 OA
ENDBRANCH  85  86
ENDBRANCH  59  80
ENDBRANCH  33  34
ENDBRANCH  25  28
ENDBRANCH  23  24
ENDBRANCH   1  23
TORSDOF 16
ENDMDL
MODEL 2
REMARK VINA RESULT:     -13.6      1.314      2.531
REMARK SMILES Cc1ccc(C(=O)NC2(CC(=O)NCCCNC(=O)c3ccc(-c4c5nc(c(-c6ccc(S(=O)(=O)[O-])cc6)c6ccc([nH]6)c(-c6ccc(S(=O)(=O)[O-])cc6)c6nc(c(-c7ccc(S(=O)(=O)[O-])cc7)c7ccc4[nH]7)C=C6)C=C5)cc3)CCC2)cc1
REMARK SMILES IDX 15 1 14 2 13 3 11 4 12 5 10 7 9 8 80 9 82 10 81 11 8 12 6 13
REMARK SMILES IDX 7 14 5 16 1 17 2 18 3 19 84 20 4 21 83 22 16 23 17 24 18 25
REMARK SMILES IDX 19 27 20 28 21 29 79 30 22 31 78 32 23 33 24 34 25 35 72 36
REMARK SMILES IDX 26 37 77 38 71 39 73 40 27 41 76 42 70 43 69 44 28 46 58 47
REMARK SMILES IDX 39 48 57 49 40 50 43 51 56 52 74 53 41 54 42 55 55 57 75 58
REMARK SMILES IDX 44 59 29 60 30 61 38 62 31 63 37 64 32 65 33 66 34 67 35 68
REMARK SMILES IDX 36 69 59 70 60 71 68 72 61 73 67 74 62 75 63 76 64 77 65 78
REMARK SMILES IDX 66 79 45 80 46 81 54 82 47 83 53 84 48 85 49 86 50 87 51 88
REMARK SMILES IDX 52 89
REMARK H PARENT 13 6 8 15 17 26 73 45 43 56
REMARK Flexibility Score: inf
ROOT
ATOM      1  C   UNL A   1      32.664  28.743  26.203  1.00  0.00     0.042 C 
ENDROOT
BRANCH   1   2
ATOM      2  C   UNL A   1      33.123  27.349  26.593  1.00  0.00     0.117 C 
BRANCH   2   3
ATOM      3  N   UNL A   1      31.849  26.260  26.842  1.00  0.00    -0.356 N 
ATOM      4  C   UNL A   1      31.491  24.329  26.631  1.00  0.00     0.222 C 
ATOM      5  O   UNL A   1      30.743  23.548  27.284  1.00  0.00    -0.275 OA
ATOM      6  H   UNL A   1      31.056  26.725  27.194  1.00  0.00     0.163 HD
BRANCH   4   7
ATOM      7  C   UNL A   1      32.199  23.275  25.235  1.00  0.00     0.128 C 
BRANCH   7   8
ATOM      8  C   UNL A   1      33.780  23.325  24.715  1.00  0.00     0.049 C 
ATOM      9  C   UNL A   1      34.844  22.736  25.710  1.00  0.00     0.029 C 
ATOM     10  C   UNL A   1      34.986  24.491  24.535  1.00  0.00     0.029 C 
ATOM     11  C   UNL A   1      35.408  24.170  25.949  1.00  0.00     0.005 C 
BRANCH   8  12
ATOM     12  N   UNL A   1      33.734  22.838  23.344  1.00  0.00    -0.346 N 
ATOM     13  C   UNL A   1      33.278  23.745  22.425  1.00  0.00     0.251 C 
ATOM     14  O   UNL A   1      33.337  23.553  21.222  1.00  0.00    -0.269 OA
ATOM     15  H   UNL A   1      34.008  21.926  23.097  1.00  0.00     0.164 HD
BRANCH  13  16
ATOM     16  C   UNL A   1      32.507  24.882  23.043  1.00  0.00     0.039 A 
ATOM     17  C   UNL A   1      30.432  29.364  23.689  1.00  0.00     0.044 C 
ATOM     18  C   UNL A   1      30.824  28.109  22.931  1.00  0.00    -0.051 A 
ATOM     19  C   UNL A   1      32.597  27.991  22.600  1.00  0.00     0.004 A 
ATOM     20  C   UNL A   1      29.816  26.639  23.232  1.00  0.00     0.004 A 
ATOM     21  C   UNL A   1      33.421  26.396  22.646  1.00  0.00     0.014 A 
ATOM     22  C   UNL A   1      30.652  24.999  23.383  1.00  0.00     0.014 A 
ENDBRANCH  13  16
ENDBRANCH   8  12
ENDBRANCH   7   8
ENDBRANCH   4   7
ENDBRANCH   2   3
ENDBRANCH   1   2
BRANCH   1  23
ATOM     23  C   UNL A   1      32.924  29.641  27.358  1.00  0.00     0.118 C 
BRANCH  23  24
ATOM     24  N   UNL A   1      33.799  30.736  26.980  1.00  0.00    -0.352 N 
ATOM     25  C   UNL A   1      34.932  31.112  27.678  1.00  0.00     0.251 C 
ATOM     26  H   UNL A   1      33.570  31.246  26.170  1.00  0.00     0.163 HD
ATOM     27  O   UNL A   1      35.248  32.272  27.890  1.00  0.00    -0.269 OA
BRANCH  25  28
ATOM     28  C   UNL A   1      35.842  29.995  28.004  1.00  0.00     0.039 A 
ATOM     29  C   UNL A   1      35.956  29.691  29.367  1.00  0.00     0.014 A 
ATOM     30  C   UNL A   1      36.889  29.777  27.121  1.00  0.00     0.014 A 
ATOM     31  C   UNL A   1      37.206  29.399  29.879  1.00  0.00     0.010 A 
ATOM     32  C   UNL A   1      38.142  29.792  27.659  1.00  0.00     0.010 A 
ATOM     33  C   UNL A   1      38.290  29.592  29.035  1.00  0.00    -0.014 A 
BRANCH  33  34
ATOM     34  C   UNL A   1      39.662  29.316  29.368  1.00  0.00     0.031 A 
ATOM     35  C   UNL A   1      40.037  27.920  29.046  1.00  0.00     0.074 A 
ATOM     36  C   UNL A   1      40.444  30.384  29.646  1.00  0.00     0.049 A 
ATOM     37  N   UNL A   1      40.964  27.253  29.623  1.00  0.00    -0.248 NA
ATOM     38  C   UNL A   1      39.296  27.085  28.076  1.00  0.00     0.031 C 
ATOM     39  C   UNL A   1      41.892  30.529  29.614  1.00  0.00     0.029 A 
ATOM     40  N   UNL A   1      40.011  31.588  30.213  1.00  0.00    -0.354 N 
ATOM     41  C   UNL A   1      41.226  26.182  28.789  1.00  0.00     0.074 A 
ATOM     42  C   UNL A   1      40.059  25.997  27.983  1.00  0.00     0.031 C 
ATOM     43  C   UNL A   1      42.245  31.571  30.399  1.00  0.00     0.029 A 
ATOM     44  C   UNL A   1      41.036  32.050  31.059  1.00  0.00     0.049 A 
ATOM     45  H   UNL A   1      39.147  32.031  30.050  1.00  0.00     0.167 HD
ATOM     46  C   UNL A   1      42.512  25.760  28.678  1.00  0.00     0.031 A 
ATOM     47  C   UNL A   1      40.833  32.022  32.415  1.00  0.00     0.031 A 
ATOM     48  C   UNL A   1      43.354  26.579  29.542  1.00  0.00     0.049 A 
ATOM     49  C   UNL A   1      41.649  30.925  33.068  1.00  0.00     0.074 A 
ATOM     50  C   UNL A   1      44.128  27.698  29.282  1.00  0.00     0.029 A 
ATOM     51  N   UNL A   1      43.098  26.576  30.902  1.00  0.00    -0.354 N 
ATOM     52  N   UNL A   1      42.032  29.836  32.456  1.00  0.00    -0.248 NA
ATOM     53  C   UNL A   1      42.146  31.005  34.438  1.00  0.00     0.031 C 
ATOM     54  C   UNL A   1      44.284  28.403  30.506  1.00  0.00     0.029 A 
ATOM     55  C   UNL A   1      43.599  27.715  31.494  1.00  0.00     0.049 A 
ATOM     56  H   UNL A   1      42.621  25.859  31.380  1.00  0.00     0.167 HD
ATOM     57  C   UNL A   1      42.825  29.099  33.293  1.00  0.00     0.074 A 
ATOM     58  C   UNL A   1      42.861  29.868  34.524  1.00  0.00     0.031 C 
ATOM     59  C   UNL A   1      43.407  27.920  32.921  1.00  0.00     0.031 A 
BRANCH  46  60
ATOM     60  C   UNL A   1      43.063  24.872  27.596  1.00  0.00    -0.014 A 
ATOM     61  C   UNL A   1      43.862  23.783  27.999  1.00  0.00     0.010 A 
ATOM     62  C   UNL A   1      42.839  25.014  26.213  1.00  0.00     0.010 A 
ATOM     63  C   UNL A   1      44.417  22.886  27.087  1.00  0.00     0.020 A 
ATOM     64  C   UNL A   1      43.403  24.121  25.281  1.00  0.00     0.020 A 
ATOM     65  C   UNL A   1      44.180  23.055  25.730  1.00  0.00     0.054 A 
BRANCH  65  66
ATOM     66  S   UNL A   1      44.866  21.826  24.594  1.00  0.00     0.124 S 
ATOM     67  O   UNL A   1      46.279  21.811  24.963  1.00  0.00    -0.237 OA
ATOM     68  O   UNL A   1      44.113  20.624  24.944  1.00  0.00    -0.237 OA
ATOM     69  O   UNL A   1      44.578  22.375  23.270  1.00  0.00    -0.744 OA
ENDBRANCH  65  66
ENDBRANCH  46  60
BRANCH  47  70
ATOM     70  C   UNL A   1      39.422  32.381  32.784  1.00  0.00    -0.014 A 
ATOM     71  C   UNL A   1      39.073  33.750  32.756  1.00  0.00     0.010 A 
ATOM     72  C   UNL A   1      38.398  31.426  32.651  1.00  0.00     0.010 A 
ATOM     73  C   UNL A   1      37.784  34.151  32.378  1.00  0.00     0.020 A 
ATOM     74  C   UNL A   1      37.104  31.828  32.282  1.00  0.00     0.020 A 
ATOM     75  C   UNL A   1      36.832  33.181  32.068  1.00  0.00     0.054 A 
BRANCH  75  76
ATOM     76  S   UNL A   1      35.318  33.700  31.202  1.00  0.00     0.124 S 
ATOM     77  O   UNL A   1      34.538  32.468  31.174  1.00  0.00    -0.237 OA
ATOM     78  O   UNL A   1      34.800  34.755  32.078  1.00  0.00    -0.237 OA
ATOM     79  O   UNL A   1      35.807  34.166  29.910  1.00  0.00    -0.744 OA
ENDBRANCH  75  76
ENDBRANCH  47  70
BRANCH  59  80
ATOM     80  C   UNL A   1      43.921  26.863  33.869  1.00  0.00    -0.014 A 
ATOM     81  C   UNL A   1      43.090  25.994  34.588  1.00  0.00     0.010 A 
ATOM     82  C   UNL A   1      45.317  26.627  33.963  1.00  0.00     0.010 A 
ATOM     83  C   UNL A   1      43.621  25.024  35.442  1.00  0.00     0.020 A 
ATOM     84  C   UNL A   1      45.857  25.606  34.740  1.00  0.00     0.020 A 
ATOM     85  C   UNL A   1      45.002  24.844  35.519  1.00  0.00     0.054 A 
BRANCH  85  86
ATOM     86  S   UNL A   1      45.660  23.606  36.652  1.00  0.00     0.124 S 
ATOM     87  O   UNL A   1      47.098  23.749  36.440  1.00  0.00    -0.237 OA
ATOM     88  O   UNL A   1      45.167  24.066  37.948  1.00  0.00    -0.237 OA
ATOM     89  O   UNL A   1      45.078  22.354  36.177  1.00  0.00    -0.744 OA
ENDBRANCH  85  86
ENDBRANCH  59  80
ENDBRANCH  33  34
ENDBRANCH  25  28
ENDBRANCH  23  24
ENDBRANCH   1  23
TORSDOF 16
ENDMDL
MODEL 3
REMARK VINA RESULT:     -13.6      3.736      9.902
REMARK SMILES Cc1ccc(C(=O)NC2(CC(=O)NCCCNC(=O)c3ccc(-c4c5nc(c(-c6ccc(S(=O)(=O)[O-])cc6)c6ccc([nH]6)c(-c6ccc(S(=O)(=O)[O-])cc6)c6nc(c(-c7ccc(S(=O)(=O)[O-])cc7)c7ccc4[nH]7)C=C6)C=C5)cc3)CCC2)cc1
REMARK SMILES IDX 15 1 14 2 13 3 11 4 12 5 10 7 9 8 80 9 82 10 81 11 8 12 6 13
REMARK SMILES IDX 7 14 5 16 1 17 2 18 3 19 84 20 4 21 83 22 16 23 17 24 18 25
REMARK SMILES IDX 19 27 20 28 21 29 79 30 22 31 78 32 23 33 24 34 25 35 72 36
REMARK SMILES IDX 26 37 77 38 71 39 73 40 27 41 76 42 70 43 69 44 28 46 58 47
REMARK SMILES IDX 39 48 57 49 40 50 43 51 56 52 74 53 41 54 42 55 55 57 75 58
REMARK SMILES IDX 44 59 29 60 30 61 38 62 31 63 37 64 32 65 33 66 34 67 35 68
REMARK SMILES IDX 36 69 59 70 60 71 68 72 61 73 67 74 62 75 63 76 64 77 65 78
REMARK SMILES IDX 66 79 45 80 46 81 54 82 47 83 53 84 48 85 49 86 50 87 51 88
REMARK SMILES IDX 52 89
REMARK H PARENT 13 6 8 15 17 26 73 45 43 56
REMARK Flexibility Score: inf
ROOT
ATOM      1  C   UNL A   1      36.544  21.799  24.254  1.00  0.00     0.042 C 
ENDROOT
BRANCH   1   2
ATOM      2  C   UNL A   1      36.633  20.475  24.993  1.00  0.00     0.117 C 
BRANCH   2   3
ATOM      3  N   UNL A   1      35.184  19.598  24.989  1.00  0.00    -0.356 N 
ATOM      4  C   UNL A   1      33.261  19.919  24.673  1.00  0.00     0.222 C 
ATOM      5  O   UNL A   1      32.361  19.167  24.202  1.00  0.00    -0.275 OA
ATOM      6  H   UNL A   1      35.348  18.652  25.208  1.00  0.00     0.163 HD
BRANCH   4   7
ATOM      7  C   UNL A   1      32.367  21.508  25.158  1.00  0.00     0.128 C 
BRANCH   7   8
ATOM      8  C   UNL A   1      32.732  22.432  26.495  1.00  0.00     0.049 C 
ATOM      9  C   UNL A   1      33.500  23.772  26.209  1.00  0.00     0.029 C 
ATOM     10  C   UNL A   1      33.837  22.382  27.769  1.00  0.00     0.029 C 
ATOM     11  C   UNL A   1      34.771  23.186  26.896  1.00  0.00     0.005 C 
BRANCH   8  12
ATOM     12  N   UNL A   1      31.500  22.463  27.269  1.00  0.00    -0.346 N 
ATOM     13  C   UNL A   1      30.605  23.428  26.892  1.00  0.00     0.251 C 
ATOM     14  O   UNL A   1      29.465  23.477  27.324  1.00  0.00    -0.269 OA
ATOM     15  H   UNL A   1      31.324  21.837  28.009  1.00  0.00     0.164 HD
BRANCH  13  16
ATOM     16  C   UNL A   1      31.228  24.531  26.078  1.00  0.00     0.039 A 
ATOM     17  C   UNL A   1      31.780  28.181  22.734  1.00  0.00     0.044 C 
ATOM     18  C   UNL A   1      31.083  27.386  23.824  1.00  0.00    -0.051 A 
ATOM     19  C   UNL A   1      30.511  25.762  23.277  1.00  0.00     0.004 A 
ATOM     20  C   UNL A   1      31.652  27.672  25.515  1.00  0.00     0.004 A 
ATOM     21  C   UNL A   1      30.574  24.358  24.396  1.00  0.00     0.014 A 
ATOM     22  C   UNL A   1      31.821  26.230  26.656  1.00  0.00     0.014 A 
ENDBRANCH  13  16
ENDBRANCH   8  12
ENDBRANCH   7   8
ENDBRANCH   4   7
ENDBRANCH   2   3
ENDBRANCH   1   2
BRANCH   1  23
ATOM     23  C   UNL A   1      37.687  22.640  24.697  1.00  0.00     0.118 C 
BRANCH  23  24
ATOM     24  N   UNL A   1      38.219  22.171  25.963  1.00  0.00    -0.352 N 
ATOM     25  C   UNL A   1      39.283  22.751  26.630  1.00  0.00     0.251 C 
ATOM     26  H   UNL A   1      37.793  21.386  26.375  1.00  0.00     0.163 HD
ATOM     27  O   UNL A   1      40.169  22.117  27.182  1.00  0.00    -0.269 OA
BRANCH  25  28
ATOM     28  C   UNL A   1      39.177  24.217  26.784  1.00  0.00     0.039 A 
ATOM     29  C   UNL A   1      40.074  24.968  26.013  1.00  0.00     0.014 A 
ATOM     30  C   UNL A   1      38.708  24.674  28.006  1.00  0.00     0.014 A 
ATOM     31  C   UNL A   1      40.686  26.065  26.590  1.00  0.00     0.010 A 
ATOM     32  C   UNL A   1      39.516  25.550  28.670  1.00  0.00     0.010 A 
ATOM     33  C   UNL A   1      40.493  26.246  27.951  1.00  0.00    -0.014 A 
BRANCH  33  34
ATOM     34  C   UNL A   1      41.016  27.340  28.726  1.00  0.00     0.031 A 
ATOM     35  C   UNL A   1      40.100  28.503  28.726  1.00  0.00     0.074 A 
ATOM     36  C   UNL A   1      42.070  27.064  29.527  1.00  0.00     0.049 A 
ATOM     37  N   UNL A   1      40.454  29.721  28.895  1.00  0.00    -0.248 NA
ATOM     38  C   UNL A   1      38.658  28.399  28.415  1.00  0.00     0.031 C 
ATOM     39  C   UNL A   1      42.574  27.762  30.702  1.00  0.00     0.029 A 
ATOM     40  N   UNL A   1      43.049  26.094  29.285  1.00  0.00    -0.354 N 
ATOM     41  C   UNL A   1      39.293  30.407  29.199  1.00  0.00     0.074 A 
ATOM     42  C   UNL A   1      38.210  29.624  28.688  1.00  0.00     0.031 C 
ATOM     43  C   UNL A   1      43.870  27.430  30.886  1.00  0.00     0.029 A 
ATOM     44  C   UNL A   1      44.274  26.599  29.757  1.00  0.00     0.049 A 
ATOM     45  H   UNL A   1      42.906  25.216  28.860  1.00  0.00     0.167 HD
ATOM     46  C   UNL A   1      39.366  31.418  30.103  1.00  0.00     0.031 A 
ATOM     47  C   UNL A   1      45.236  26.951  28.845  1.00  0.00     0.031 A 
ATOM     48  C   UNL A   1      40.749  31.556  30.545  1.00  0.00     0.049 A 
ATOM     49  C   UNL A   1      45.373  28.456  28.744  1.00  0.00     0.074 A 
ATOM     50  C   UNL A   1      41.416  31.061  31.652  1.00  0.00     0.029 A 
ATOM     51  N   UNL A   1      41.713  31.859  29.598  1.00  0.00    -0.354 N 
ATOM     52  N   UNL A   1      44.409  29.297  29.012  1.00  0.00    -0.248 NA
ATOM     53  C   UNL A   1      46.623  29.125  28.397  1.00  0.00     0.031 C 
ATOM     54  C   UNL A   1      42.800  31.016  31.332  1.00  0.00     0.029 A 
ATOM     55  C   UNL A   1      42.962  31.473  30.035  1.00  0.00     0.049 A 
ATOM     56  H   UNL A   1      41.530  32.289  28.731  1.00  0.00     0.167 HD
ATOM     57  C   UNL A   1      44.882  30.577  28.912  1.00  0.00     0.074 A 
ATOM     58  C   UNL A   1      46.270  30.418  28.519  1.00  0.00     0.031 C 
ATOM     59  C   UNL A   1      44.113  31.677  29.171  1.00  0.00     0.031 A 
BRANCH  46  60
ATOM     60  C   UNL A   1      38.206  32.047  30.825  1.00  0.00    -0.014 A 
ATOM     61  C   UNL A   1      37.879  31.529  32.094  1.00  0.00     0.010 A 
ATOM     62  C   UNL A   1      37.425  33.122  30.361  1.00  0.00     0.010 A 
ATOM     63  C   UNL A   1      36.833  32.039  32.862  1.00  0.00     0.020 A 
ATOM     64  C   UNL A   1      36.359  33.639  31.122  1.00  0.00     0.020 A 
ATOM     65  C   UNL A   1      36.079  33.097  32.374  1.00  0.00     0.054 A 
BRANCH  65  66
ATOM     66  S   UNL A   1      34.777  33.767  33.437  1.00  0.00     0.124 S 
ATOM     67  O   UNL A   1      34.800  35.189  33.103  1.00  0.00    -0.237 OA
ATOM     68  O   UNL A   1      33.597  33.035  32.984  1.00  0.00    -0.237 OA
ATOM     69  O   UNL A   1      35.229  33.441  34.789  1.00  0.00    -0.744 OA
ENDBRANCH  65  66
ENDBRANCH  46  60
BRANCH  47  70
ATOM     70  C   UNL A   1      45.287  26.001  27.681  1.00  0.00    -0.014 A 
ATOM     71  C   UNL A   1      45.957  24.772  27.876  1.00  0.00     0.010 A 
ATOM     72  C   UNL A   1      44.313  26.081  26.670  1.00  0.00     0.010 A 
ATOM     73  C   UNL A   1      45.508  23.607  27.240  1.00  0.00     0.020 A 
ATOM     74  C   UNL A   1      43.870  24.915  26.025  1.00  0.00     0.020 A 
ATOM     75  C   UNL A   1      44.415  23.678  26.377  1.00  0.00     0.054 A 
BRANCH  75  76
ATOM     76  S   UNL A   1      43.600  22.128  25.885  1.00  0.00     0.124 S 
ATOM     77  O   UNL A   1      42.591  22.594  24.940  1.00  0.00    -0.237 OA
ATOM     78  O   UNL A   1      44.705  21.362  25.300  1.00  0.00    -0.237 OA
ATOM     79  O   UNL A   1      43.088  21.596  27.142  1.00  0.00    -0.744 OA
ENDBRANCH  75  76
ENDBRANCH  47  70
BRANCH  59  80
ATOM     80  C   UNL A   1      44.405  33.078  28.689  1.00  0.00    -0.014 A 
ATOM     81  C   UNL A   1      44.201  33.505  27.371  1.00  0.00     0.010 A 
ATOM     82  C   UNL A   1      44.788  34.073  29.625  1.00  0.00     0.010 A 
ATOM     83  C   UNL A   1      44.476  34.819  26.984  1.00  0.00     0.020 A 
ATOM     84  C   UNL A   1      44.978  35.406  29.272  1.00  0.00     0.020 A 
ATOM     85  C   UNL A   1      44.872  35.758  27.936  1.00  0.00     0.054 A 
BRANCH  85  86
ATOM     86  S   UNL A   1      45.249  37.438  27.403  1.00  0.00     0.124 S 
ATOM     87  O   UNL A   1      43.943  37.898  26.938  1.00  0.00    -0.237 OA
ATOM     88  O   UNL A   1      45.733  38.061  28.633  1.00  0.00    -0.237 OA
ATOM     89  O   UNL A   1      46.257  37.257  26.362  1.00  0.00    -0.744 OA
ENDBRANCH  85  86
ENDBRANCH  59  80
ENDBRANCH  33  34
ENDBRANCH  25  28
ENDBRANCH  23  24
ENDBRANCH   1  23
TORSDOF 16
ENDMDL
