MODEL 1
REMARK VINA RESULT:     -12.0      0.000      0.000
REMARK SMILES O=C(NCCCNC(=O)c1ccc(-c2c3nc(c(-c4ccc(S(=O)(=O)[O-])cc4)c4ccc([nH]4)c(-c4ccc(S(=O)(=O)[O-])cc4)c4nc(c(-c5ccc(S(=O)(=O)[O-])cc5)c5ccc2[nH]5)C=C4)C=C3)cc1)C1=C([O-])N(c2ccc3c(c2)OCCO3)CC1
REMARK SMILES IDX 6 1 5 2 4 3 3 4 1 5 2 6 70 8 71 9 85 10 72 11 73 12 84 13
REMARK SMILES IDX 74 14 75 15 79 16 76 17 78 18 77 19 80 20 83 21 81 22 82 23
REMARK SMILES IDX 7 24 8 25 9 27 10 28 11 29 69 30 12 31 68 32 13 33 14 34
REMARK SMILES IDX 15 35 62 36 16 37 67 38 61 39 63 40 17 41 66 42 60 43 59 44
REMARK SMILES IDX 18 46 48 47 29 48 47 49 30 50 33 51 46 52 64 53 31 54 32 55
REMARK SMILES IDX 45 57 65 58 34 59 19 60 20 61 28 62 21 63 27 64 22 65 23 66
REMARK SMILES IDX 24 67 25 68 26 69 49 70 50 71 58 72 51 73 57 74 52 75 53 76
REMARK SMILES IDX 54 77 55 78 56 79 35 80 36 81 44 82 37 83 43 84 38 85 39 86
REMARK SMILES IDX 40 87 41 88 42 89
REMARK H PARENT 3 7 7 26 63 45 33 56
REMARK Flexibility Score: inf
ROOT
ATOM      1  C   UNL A   1      33.271  28.420  27.269  1.00  0.00     0.118 C 
ENDROOT
BRANCH   1   2
ATOM      2  C   UNL A   1      33.830  27.974  25.927  1.00  0.00     0.042 C 
BRANCH   2   3
ATOM      3  C   UNL A   1      33.107  26.792  25.301  1.00  0.00     0.118 C 
BRANCH   3   4
ATOM      4  N   UNL A   1      31.809  26.517  25.901  1.00  0.00    -0.352 N 
ATOM      5  O   UNL A   1      30.040  25.323  26.607  1.00  0.00    -0.270 OA
ATOM      6  C   UNL A   1      31.150  25.334  26.079  1.00  0.00     0.248 C 
ATOM      7  H   UNL A   1      31.330  27.311  26.230  1.00  0.00     0.163 HD
BRANCH   6   8
ATOM      8  C   UNL A   1      31.829  24.104  25.684  1.00  0.00     0.027 C 
ATOM      9  C   UNL A   1      31.666  23.425  24.538  1.00  0.00    -0.028 C 
ATOM     10  C   UNL A   1      32.784  23.361  26.572  1.00  0.00     0.064 C 
ATOM     11  O   UNL A   1      30.827  23.733  23.521  1.00  0.00    -0.860 OA
ATOM     12  N   UNL A   1      32.566  22.383  24.429  1.00  0.00    -0.354 N 
ATOM     13  C   UNL A   1      33.524  22.477  25.556  1.00  0.00     0.126 C 
BRANCH  12  14
ATOM     14  C   UNL A   1      32.265  21.049  24.088  1.00  0.00     0.044 A 
ATOM     15  C   UNL A   1      32.116  20.708  22.737  1.00  0.00     0.030 A 
ATOM     16  C   UNL A   1      32.405  20.030  25.043  1.00  0.00     0.076 A 
ATOM     17  C   UNL A   1      32.237  19.379  22.328  1.00  0.00     0.052 A 
ATOM     18  C   UNL A   1      32.611  18.719  24.629  1.00  0.00     0.163 A 
ATOM     19  C   UNL A   1      32.565  18.407  23.268  1.00  0.00     0.161 A 
ATOM     20  O   UNL A   1      32.987  17.831  25.604  1.00  0.00    -0.486 OA
ATOM     21  O   UNL A   1      32.934  17.173  22.792  1.00  0.00    -0.486 OA
ATOM     22  C   UNL A   1      33.338  16.542  25.087  1.00  0.00     0.271 C 
ATOM     23  C   UNL A   1      33.914  16.621  23.681  1.00  0.00     0.271 C 
ENDBRANCH  12  14
ENDBRANCH   6   8
ENDBRANCH   3   4
ENDBRANCH   2   3
ENDBRANCH   1   2
BRANCH   1  24
ATOM     24  N   UNL A   1      33.323  29.865  27.459  1.00  0.00    -0.352 N 
ATOM     25  C   UNL A   1      34.315  30.673  27.956  1.00  0.00     0.251 C 
ATOM     26  H   UNL A   1      32.506  30.342  27.184  1.00  0.00     0.163 HD
ATOM     27  O   UNL A   1      34.068  31.859  28.171  1.00  0.00    -0.269 OA
BRANCH  25  28
ATOM     28  C   UNL A   1      35.658  30.133  28.267  1.00  0.00     0.039 A 
ATOM     29  C   UNL A   1      36.627  30.113  27.258  1.00  0.00     0.014 A 
ATOM     30  C   UNL A   1      35.966  29.630  29.532  1.00  0.00     0.014 A 
ATOM     31  C   UNL A   1      37.923  29.674  27.544  1.00  0.00     0.010 A 
ATOM     32  C   UNL A   1      37.277  29.272  29.838  1.00  0.00     0.010 A 
ATOM     33  C   UNL A   1      38.271  29.296  28.849  1.00  0.00    -0.014 A 
BRANCH  33  34
ATOM     34  C   UNL A   1      39.664  28.929  29.213  1.00  0.00     0.031 A 
ATOM     35  C   UNL A   1      40.568  29.943  29.861  1.00  0.00     0.074 A 
ATOM     36  C   UNL A   1      40.147  27.717  28.873  1.00  0.00     0.049 A 
ATOM     37  N   UNL A   1      41.848  29.858  30.122  1.00  0.00    -0.248 NA
ATOM     38  C   UNL A   1      39.962  31.230  30.237  1.00  0.00     0.031 C 
ATOM     39  C   UNL A   1      39.390  26.657  28.203  1.00  0.00     0.029 A 
ATOM     40  N   UNL A   1      41.401  27.179  29.030  1.00  0.00    -0.354 N 
ATOM     41  C   UNL A   1      42.207  31.090  30.655  1.00  0.00     0.074 A 
ATOM     42  C   UNL A   1      41.016  31.913  30.655  1.00  0.00     0.031 C 
ATOM     43  C   UNL A   1      40.188  25.591  28.024  1.00  0.00     0.029 A 
ATOM     44  C   UNL A   1      41.521  25.905  28.527  1.00  0.00     0.049 A 
ATOM     45  H   UNL A   1      42.143  27.660  29.463  1.00  0.00     0.167 HD
ATOM     46  C   UNL A   1      43.415  31.498  31.113  1.00  0.00     0.031 A 
ATOM     47  C   UNL A   1      42.587  25.084  28.464  1.00  0.00     0.031 A 
ATOM     48  C   UNL A   1      44.590  30.672  31.147  1.00  0.00     0.049 A 
ATOM     49  C   UNL A   1      43.909  25.545  29.009  1.00  0.00     0.074 A 
ATOM     50  C   UNL A   1      45.843  30.976  31.651  1.00  0.00     0.029 A 
ATOM     51  N   UNL A   1      44.656  29.372  30.667  1.00  0.00    -0.354 N 
ATOM     52  N   UNL A   1      44.216  26.702  29.544  1.00  0.00    -0.248 NA
ATOM     53  C   UNL A   1      45.023  24.591  28.945  1.00  0.00     0.031 C 
ATOM     54  C   UNL A   1      46.675  29.868  31.452  1.00  0.00     0.029 A 
ATOM     55  C   UNL A   1      45.929  28.864  30.855  1.00  0.00     0.049 A 
ATOM     56  H   UNL A   1      43.907  28.884  30.254  1.00  0.00     0.167 HD
ATOM     57  C   UNL A   1      45.557  26.607  29.899  1.00  0.00     0.074 A 
ATOM     58  C   UNL A   1      45.997  25.278  29.526  1.00  0.00     0.031 C 
ATOM     59  C   UNL A   1      46.350  27.539  30.482  1.00  0.00     0.031 A 
BRANCH  46  60
ATOM     60  C   UNL A   1      43.519  32.914  31.612  1.00  0.00    -0.014 A 
ATOM     61  C   UNL A   1      43.871  33.962  30.745  1.00  0.00     0.010 A 
ATOM     62  C   UNL A   1      43.245  33.200  32.962  1.00  0.00     0.010 A 
ATOM     63  C   UNL A   1      43.992  35.267  31.227  1.00  0.00     0.020 A 
ATOM     64  C   UNL A   1      43.343  34.509  33.443  1.00  0.00     0.020 A 
ATOM     65  C   UNL A   1      43.736  35.531  32.576  1.00  0.00     0.054 A 
BRANCH  65  66
ATOM     66  S   UNL A   1      43.894  37.235  33.180  1.00  0.00     0.124 S 
ATOM     67  O   UNL A   1      42.740  37.345  34.069  1.00  0.00    -0.237 OA
ATOM     68  O   UNL A   1      45.196  37.226  33.841  1.00  0.00    -0.237 OA
ATOM     69  O   UNL A   1      43.823  38.040  31.963  1.00  0.00    -0.744 OA
ENDBRANCH  65  66
ENDBRANCH  46  60
BRANCH  47  70
ATOM     70  C   UNL A   1      42.440  23.730  27.870  1.00  0.00    -0.014 A 
ATOM     71  C   UNL A   1      42.658  23.533  26.496  1.00  0.00     0.010 A 
ATOM     72  C   UNL A   1      42.111  22.627  28.678  1.00  0.00     0.010 A 
ATOM     73  C   UNL A   1      42.542  22.258  25.937  1.00  0.00     0.020 A 
ATOM     74  C   UNL A   1      42.013  21.347  28.126  1.00  0.00     0.020 A 
ATOM     75  C   UNL A   1      42.222  21.172  26.756  1.00  0.00     0.054 A 
BRANCH  75  76
ATOM     76  S   UNL A   1      42.145  19.512  26.026  1.00  0.00     0.124 S 
ATOM     77  O   UNL A   1      42.598  18.674  27.132  1.00  0.00    -0.237 OA
ATOM     78  O   UNL A   1      40.734  19.383  25.671  1.00  0.00    -0.237 OA
ATOM     79  O   UNL A   1      43.058  19.600  24.889  1.00  0.00    -0.744 OA
ENDBRANCH  75  76
ENDBRANCH  47  70
BRANCH  59  80
ATOM     80  C   UNL A   1      47.769  27.146  30.781  1.00  0.00    -0.014 A 
ATOM     81  C   UNL A   1      48.768  27.243  29.796  1.00  0.00     0.010 A 
ATOM     82  C   UNL A   1      48.116  26.732  32.079  1.00  0.00     0.010 A 
ATOM     83  C   UNL A   1      50.091  26.913  30.101  1.00  0.00     0.020 A 
ATOM     84  C   UNL A   1      49.442  26.419  32.391  1.00  0.00     0.020 A 
ATOM     85  C   UNL A   1      50.419  26.501  31.397  1.00  0.00     0.054 A 
BRANCH  85  86
ATOM     86  S   UNL A   1      52.151  26.129  31.788  1.00  0.00     0.124 S 
ATOM     87  O   UNL A   1      52.852  26.720  30.652  1.00  0.00    -0.237 OA
ATOM     88  O   UNL A   1      52.347  26.804  33.068  1.00  0.00    -0.237 OA
ATOM     89  O   UNL A   1      52.182  24.669  31.851  1.00  0.00    -0.744 OA
ENDBRANCH  85  86
ENDBRANCH  59  80
ENDBRANCH  33  34
ENDBRANCH  25  28
ENDBRANCH   1  24
TORSDOF 14
ENDMDL
MODEL 2
REMARK VINA RESULT:     -12.0      1.525      2.224
REMARK SMILES O=C(NCCCNC(=O)c1ccc(-c2c3nc(c(-c4ccc(S(=O)(=O)[O-])cc4)c4ccc([nH]4)c(-c4ccc(S(=O)(=O)[O-])cc4)c4nc(c(-c5ccc(S(=O)(=O)[O-])cc5)c5ccc2[nH]5)C=C4)C=C3)cc1)C1=C([O-])N(c2ccc3c(c2)OCCO3)CC1
REMARK SMILES IDX 6 1 5 2 4 3 3 4 1 5 2 6 70 8 71 9 85 10 72 11 73 12 84 13
REMARK SMILES IDX 74 14 75 15 79 16 76 17 78 18 77 19 80 20 83 21 81 22 82 23
REMARK SMILES IDX 7 24 8 25 9 27 10 28 11 29 69 30 12 31 68 32 13 33 14 34
REMARK SMILES IDX 15 35 62 36 16 37 67 38 61 39 63 40 17 41 66 42 60 43 59 44
REMARK SMILES IDX 18 46 48 47 29 48 47 49 30 50 33 51 46 52 64 53 31 54 32 55
REMARK SMILES IDX 45 57 65 58 34 59 19 60 20 61 28 62 21 63 27 64 22 65 23 66
REMARK SMILES IDX 24 67 25 68 26 69 49 70 50 71 58 72 51 73 57 74 52 75 53 76
REMARK SMILES IDX 54 77 55 78 56 79 35 80 36 81 44 82 37 83 43 84 38 85 39 86
REMARK SMILES IDX 40 87 41 88 42 89
REMARK H PARENT 3 7 7 26 63 45 33 56
REMARK Flexibility Score: inf
ROOT
ATOM      1  C   UNL A   1      33.341  28.436  27.306  1.00  0.00     0.118 C 
ENDROOT
BRANCH   1   2
ATOM      2  C   UNL A   1      32.001  27.961  26.766  1.00  0.00     0.042 C 
BRANCH   2   3
ATOM      3  C   UNL A   1      31.900  27.943  25.249  1.00  0.00     0.118 C 
BRANCH   3   4
ATOM      4  N   UNL A   1      30.547  27.722  24.756  1.00  0.00    -0.352 N 
ATOM      5  O   UNL A   1      28.789  26.623  23.890  1.00  0.00    -0.270 OA
ATOM      6  C   UNL A   1      29.958  26.592  24.268  1.00  0.00     0.248 C 
ATOM      7  H   UNL A   1      29.965  28.515  24.779  1.00  0.00     0.163 HD
BRANCH   6   8
ATOM      8  C   UNL A   1      30.735  25.356  24.273  1.00  0.00     0.027 C 
ATOM      9  C   UNL A   1      31.017  24.584  25.334  1.00  0.00    -0.028 C 
ATOM     10  C   UNL A   1      31.414  24.798  23.057  1.00  0.00     0.064 C 
ATOM     11  O   UNL A   1      30.652  24.802  26.620  1.00  0.00    -0.860 OA
ATOM     12  N   UNL A   1      31.653  23.416  24.961  1.00  0.00    -0.354 N 
ATOM     13  C   UNL A   1      31.658  23.341  23.482  1.00  0.00     0.126 C 
BRANCH  12  14
ATOM     14  C   UNL A   1      32.828  22.884  25.532  1.00  0.00     0.044 A 
ATOM     15  C   UNL A   1      33.000  21.494  25.566  1.00  0.00     0.030 A 
ATOM     16  C   UNL A   1      33.926  23.720  25.787  1.00  0.00     0.076 A 
ATOM     17  C   UNL A   1      34.274  20.946  25.721  1.00  0.00     0.052 A 
ATOM     18  C   UNL A   1      35.205  23.179  25.856  1.00  0.00     0.163 A 
ATOM     19  C   UNL A   1      35.375  21.794  25.783  1.00  0.00     0.161 A 
ATOM     20  O   UNL A   1      36.241  24.076  25.855  1.00  0.00    -0.486 OA
ATOM     21  O   UNL A   1      36.617  21.218  25.666  1.00  0.00    -0.486 OA
ATOM     22  C   UNL A   1      37.528  23.452  25.765  1.00  0.00     0.271 C 
ATOM     23  C   UNL A   1      37.481  22.143  24.991  1.00  0.00     0.271 C 
ENDBRANCH  12  14
ENDBRANCH   6   8
ENDBRANCH   3   4
ENDBRANCH   2   3
ENDBRANCH   1   2
BRANCH   1  24
ATOM     24  N   UNL A   1      33.377  29.869  27.573  1.00  0.00    -0.352 N 
ATOM     25  C   UNL A   1      34.368  30.664  28.093  1.00  0.00     0.251 C 
ATOM     26  H   UNL A   1      32.548  30.348  27.340  1.00  0.00     0.163 HD
ATOM     27  O   UNL A   1      34.109  31.833  28.376  1.00  0.00    -0.269 OA
BRANCH  25  28
ATOM     28  C   UNL A   1      35.725  30.128  28.347  1.00  0.00     0.039 A 
ATOM     29  C   UNL A   1      36.652  30.117  27.301  1.00  0.00     0.014 A 
ATOM     30  C   UNL A   1      36.085  29.620  29.596  1.00  0.00     0.014 A 
ATOM     31  C   UNL A   1      37.961  29.683  27.532  1.00  0.00     0.010 A 
ATOM     32  C   UNL A   1      37.408  29.266  29.848  1.00  0.00     0.010 A 
ATOM     33  C   UNL A   1      38.362  29.299  28.820  1.00  0.00    -0.014 A 
BRANCH  33  34
ATOM     34  C   UNL A   1      39.770  28.937  29.126  1.00  0.00     0.031 A 
ATOM     35  C   UNL A   1      40.706  29.962  29.707  1.00  0.00     0.074 A 
ATOM     36  C   UNL A   1      40.234  27.716  28.792  1.00  0.00     0.049 A 
ATOM     37  N   UNL A   1      41.997  29.879  29.910  1.00  0.00    -0.248 NA
ATOM     38  C   UNL A   1      40.120  31.260  30.081  1.00  0.00     0.031 C 
ATOM     39  C   UNL A   1      39.444  26.642  28.183  1.00  0.00     0.029 A 
ATOM     40  N   UNL A   1      41.493  27.178  28.902  1.00  0.00    -0.354 N 
ATOM     41  C   UNL A   1      42.383  31.122  30.396  1.00  0.00     0.074 A 
ATOM     42  C   UNL A   1      41.195  31.949  30.433  1.00  0.00     0.031 C 
ATOM     43  C   UNL A   1      40.230  25.570  27.992  1.00  0.00     0.029 A 
ATOM     44  C   UNL A   1      41.587  25.892  28.424  1.00  0.00     0.049 A 
ATOM     45  H   UNL A   1      42.255  27.666  29.288  1.00  0.00     0.167 HD
ATOM     46  C   UNL A   1      43.612  31.537  30.787  1.00  0.00     0.031 A 
ATOM     47  C   UNL A   1      42.646  25.066  28.329  1.00  0.00     0.031 A 
ATOM     48  C   UNL A   1      44.785  30.708  30.785  1.00  0.00     0.049 A 
ATOM     49  C   UNL A   1      43.993  25.536  28.800  1.00  0.00     0.074 A 
ATOM     50  C   UNL A   1      46.061  31.020  31.222  1.00  0.00     0.029 A 
ATOM     51  N   UNL A   1      44.826  29.398  30.332  1.00  0.00    -0.354 N 
ATOM     52  N   UNL A   1      44.328  26.703  29.294  1.00  0.00    -0.248 NA
ATOM     53  C   UNL A   1      45.101  24.577  28.706  1.00  0.00     0.031 C 
ATOM     54  C   UNL A   1      46.880  29.905  31.009  1.00  0.00     0.029 A 
ATOM     55  C   UNL A   1      46.105  28.890  30.471  1.00  0.00     0.049 A 
ATOM     56  H   UNL A   1      44.057  28.903  29.966  1.00  0.00     0.167 HD
ATOM     57  C   UNL A   1      45.684  26.613  29.587  1.00  0.00     0.074 A 
ATOM     58  C   UNL A   1      46.103  25.274  29.224  1.00  0.00     0.031 C 
ATOM     59  C   UNL A   1      46.505  27.555  30.110  1.00  0.00     0.031 A 
BRANCH  46  60
ATOM     60  C   UNL A   1      43.742  32.963  31.248  1.00  0.00    -0.014 A 
ATOM     61  C   UNL A   1      43.591  33.301  32.604  1.00  0.00     0.010 A 
ATOM     62  C   UNL A   1      44.038  33.974  30.316  1.00  0.00     0.010 A 
ATOM     63  C   UNL A   1      43.687  34.633  33.014  1.00  0.00     0.020 A 
ATOM     64  C   UNL A   1      44.158  35.304  30.726  1.00  0.00     0.020 A 
ATOM     65  C   UNL A   1      43.962  35.628  32.071  1.00  0.00     0.054 A 
BRANCH  65  66
ATOM     66  S   UNL A   1      44.087  37.351  32.627  1.00  0.00     0.124 S 
ATOM     67  O   UNL A   1      43.040  37.415  33.642  1.00  0.00    -0.237 OA
ATOM     68  O   UNL A   1      45.456  37.430  33.131  1.00  0.00    -0.237 OA
ATOM     69  O   UNL A   1      43.830  38.123  31.413  1.00  0.00    -0.744 OA
ENDBRANCH  65  66
ENDBRANCH  46  60
BRANCH  47  70
ATOM     70  C   UNL A   1      42.468  23.699  27.775  1.00  0.00    -0.014 A 
ATOM     71  C   UNL A   1      42.611  23.472  26.395  1.00  0.00     0.010 A 
ATOM     72  C   UNL A   1      42.187  22.615  28.624  1.00  0.00     0.010 A 
ATOM     73  C   UNL A   1      42.466  22.185  25.872  1.00  0.00     0.020 A 
ATOM     74  C   UNL A   1      42.061  21.323  28.107  1.00  0.00     0.020 A 
ATOM     75  C   UNL A   1      42.193  21.117  26.731  1.00  0.00     0.054 A 
BRANCH  75  76
ATOM     76  S   UNL A   1      42.078  19.441  26.044  1.00  0.00     0.124 S 
ATOM     77  O   UNL A   1      42.590  18.628  27.141  1.00  0.00    -0.237 OA
ATOM     78  O   UNL A   1      40.651  19.306  25.768  1.00  0.00    -0.237 OA
ATOM     79  O   UNL A   1      42.929  19.504  24.857  1.00  0.00    -0.744 OA
ENDBRANCH  75  76
ENDBRANCH  47  70
BRANCH  59  80
ATOM     80  C   UNL A   1      47.936  27.165  30.350  1.00  0.00    -0.014 A 
ATOM     81  C   UNL A   1      48.930  27.437  29.394  1.00  0.00     0.010 A 
ATOM     82  C   UNL A   1      48.299  26.573  31.573  1.00  0.00     0.010 A 
ATOM     83  C   UNL A   1      50.262  27.104  29.649  1.00  0.00     0.020 A 
ATOM     84  C   UNL A   1      49.633  26.256  31.839  1.00  0.00     0.020 A 
ATOM     85  C   UNL A   1      50.606  26.515  30.870  1.00  0.00     0.054 A 
BRANCH  85  86
ATOM     86  S   UNL A   1      52.348  26.141  31.206  1.00  0.00     0.124 S 
ATOM     87  O   UNL A   1      52.747  27.273  32.036  1.00  0.00    -0.237 OA
ATOM     88  O   UNL A   1      52.278  24.852  31.891  1.00  0.00    -0.237 OA
ATOM     89  O   UNL A   1      52.953  26.098  29.875  1.00  0.00    -0.744 OA
ENDBRANCH  85  86
ENDBRANCH  59  80
ENDBRANCH  33  34
ENDBRANCH  25  28
ENDBRANCH   1  24
TORSDOF 14
ENDMDL
MODEL 3
REMARK VINA RESULT:     -11.9      3.220      9.747
REMARK SMILES O=C(NCCCNC(=O)c1ccc(-c2c3nc(c(-c4ccc(S(=O)(=O)[O-])cc4)c4ccc([nH]4)c(-c4ccc(S(=O)(=O)[O-])cc4)c4nc(c(-c5ccc(S(=O)(=O)[O-])cc5)c5ccc2[nH]5)C=C4)C=C3)cc1)C1=C([O-])N(c2ccc3c(c2)OCCO3)CC1
REMARK SMILES IDX 6 1 5 2 4 3 3 4 1 5 2 6 70 8 71 9 85 10 72 11 73 12 84 13
REMARK SMILES IDX 74 14 75 15 79 16 76 17 78 18 77 19 80 20 83 21 81 22 82 23
REMARK SMILES IDX 7 24 8 25 9 27 10 28 11 29 69 30 12 31 68 32 13 33 14 34
REMARK SMILES IDX 15 35 62 36 16 37 67 38 61 39 63 40 17 41 66 42 60 43 59 44
REMARK SMILES IDX 18 46 48 47 29 48 47 49 30 50 33 51 46 52 64 53 31 54 32 55
REMARK SMILES IDX 45 57 65 58 34 59 19 60 20 61 28 62 21 63 27 64 22 65 23 66
REMARK SMILES IDX 24 67 25 68 26 69 49 70 50 71 58 72 51 73 57 74 52 75 53 76
REMARK SMILES IDX 54 77 55 78 56 79 35 80 36 81 44 82 37 83 43 84 38 85 39 86
REMARK SMILES IDX 40 87 41 88 42 89
REMARK H PARENT 3 7 7 26 63 45 33 56
REMARK Flexibility Score: inf
ROOT
ATOM      1  C   UNL A   1      37.002  23.634  25.061  1.00  0.00     0.118 C 
ENDROOT
BRANCH   1   2
ATOM      2  C   UNL A   1      35.622  23.177  25.505  1.00  0.00     0.042 C 
BRANCH   2   3
ATOM      3  C   UNL A   1      34.584  24.286  25.589  1.00  0.00     0.118 C 
BRANCH   3   4
ATOM      4  N   UNL A   1      33.495  23.998  26.513  1.00  0.00    -0.352 N 
ATOM      5  O   UNL A   1      31.400  23.936  27.325  1.00  0.00    -0.270 OA
ATOM      6  C   UNL A   1      32.159  24.257  26.412  1.00  0.00     0.248 C 
ATOM      7  H   UNL A   1      33.767  23.544  27.343  1.00  0.00     0.163 HD
BRANCH   6   8
ATOM      8  C   UNL A   1      31.668  24.861  25.178  1.00  0.00     0.027 C 
ATOM      9  C   UNL A   1      31.419  26.161  24.959  1.00  0.00    -0.028 C 
ATOM     10  C   UNL A   1      31.289  24.070  23.960  1.00  0.00     0.064 C 
ATOM     11  O   UNL A   1      31.556  27.178  25.844  1.00  0.00    -0.860 OA
ATOM     12  N   UNL A   1      31.099  26.405  23.638  1.00  0.00    -0.354 N 
ATOM     13  C   UNL A   1      31.305  25.154  22.871  1.00  0.00     0.126 C 
BRANCH  12  14
ATOM     14  C   UNL A   1      29.999  27.151  23.166  1.00  0.00     0.044 A 
ATOM     15  C   UNL A   1      28.720  26.871  23.667  1.00  0.00     0.030 A 
ATOM     16  C   UNL A   1      30.210  28.334  22.441  1.00  0.00     0.076 A 
ATOM     17  C   UNL A   1      27.701  27.818  23.563  1.00  0.00     0.052 A 
ATOM     18  C   UNL A   1      29.223  29.311  22.412  1.00  0.00     0.163 A 
ATOM     19  C   UNL A   1      27.984  29.063  23.009  1.00  0.00     0.161 A 
ATOM     20  O   UNL A   1      29.594  30.529  21.904  1.00  0.00    -0.486 OA
ATOM     21  O   UNL A   1      27.040  30.049  23.166  1.00  0.00    -0.486 OA
ATOM     22  C   UNL A   1      28.583  31.534  22.050  1.00  0.00     0.271 C 
ATOM     23  C   UNL A   1      27.718  31.307  23.282  1.00  0.00     0.271 C 
ENDBRANCH  12  14
ENDBRANCH   6   8
ENDBRANCH   3   4
ENDBRANCH   2   3
ENDBRANCH   1   2
BRANCH   1  24
ATOM     24  N   UNL A   1      38.065  22.722  25.466  1.00  0.00    -0.352 N 
ATOM     25  C   UNL A   1      39.226  22.946  26.165  1.00  0.00     0.251 C 
ATOM     26  H   UNL A   1      37.928  21.787  25.191  1.00  0.00     0.163 HD
ATOM     27  O   UNL A   1      40.055  22.041  26.252  1.00  0.00    -0.269 OA
BRANCH  25  28
ATOM     28  C   UNL A   1      39.506  24.262  26.784  1.00  0.00     0.039 A 
ATOM     29  C   UNL A   1      39.056  24.505  28.085  1.00  0.00     0.014 A 
ATOM     30  C   UNL A   1      40.186  25.263  26.089  1.00  0.00     0.014 A 
ATOM     31  C   UNL A   1      39.367  25.712  28.718  1.00  0.00     0.010 A 
ATOM     32  C   UNL A   1      40.568  26.430  26.747  1.00  0.00     0.010 A 
ATOM     33  C   UNL A   1      40.168  26.665  28.070  1.00  0.00    -0.014 A 
BRANCH  33  34
ATOM     34  C   UNL A   1      40.610  27.909  28.751  1.00  0.00     0.031 A 
ATOM     35  C   UNL A   1      41.970  27.979  29.390  1.00  0.00     0.074 A 
ATOM     36  C   UNL A   1      39.752  28.941  28.880  1.00  0.00     0.049 A 
ATOM     37  N   UNL A   1      42.478  28.920  30.146  1.00  0.00    -0.248 NA
ATOM     38  C   UNL A   1      42.865  26.831  29.176  1.00  0.00     0.031 C 
ATOM     39  C   UNL A   1      38.388  28.987  28.345  1.00  0.00     0.029 A 
ATOM     40  N   UNL A   1      39.897  30.148  29.519  1.00  0.00    -0.354 N 
ATOM     41  C   UNL A   1      43.733  28.459  30.529  1.00  0.00     0.074 A 
ATOM     42  C   UNL A   1      43.897  27.146  29.944  1.00  0.00     0.031 C 
ATOM     43  C   UNL A   1      37.830  30.167  28.662  1.00  0.00     0.029 A 
ATOM     44  C   UNL A   1      38.776  30.943  29.456  1.00  0.00     0.049 A 
ATOM     45  H   UNL A   1      40.724  30.419  29.979  1.00  0.00     0.167 HD
ATOM     46  C   UNL A   1      44.668  29.077  31.289  1.00  0.00     0.031 A 
ATOM     47  C   UNL A   1      38.531  32.156  29.987  1.00  0.00     0.031 A 
ATOM     48  C   UNL A   1      44.521  30.395  31.842  1.00  0.00     0.049 A 
ATOM     49  C   UNL A   1      39.595  32.837  30.799  1.00  0.00     0.074 A 
ATOM     50  C   UNL A   1      45.440  31.130  32.573  1.00  0.00     0.029 A 
ATOM     51  N   UNL A   1      43.387  31.183  31.717  1.00  0.00    -0.354 N 
ATOM     52  N   UNL A   1      40.790  32.400  31.117  1.00  0.00    -0.248 NA
ATOM     53  C   UNL A   1      39.281  34.173  31.320  1.00  0.00     0.031 C 
ATOM     54  C   UNL A   1      44.850  32.353  32.912  1.00  0.00     0.029 A 
ATOM     55  C   UNL A   1      43.578  32.391  32.363  1.00  0.00     0.049 A 
ATOM     56  H   UNL A   1      42.567  30.920  31.238  1.00  0.00     0.167 HD
ATOM     57  C   UNL A   1      41.378  33.416  31.859  1.00  0.00     0.074 A 
ATOM     58  C   UNL A   1      40.411  34.493  31.935  1.00  0.00     0.031 C 
ATOM     59  C   UNL A   1      42.608  33.454  32.426  1.00  0.00     0.031 A 
BRANCH  46  60
ATOM     60  C   UNL A   1      45.937  28.319  31.569  1.00  0.00    -0.014 A 
ATOM     61  C   UNL A   1      46.011  27.399  32.629  1.00  0.00     0.010 A 
ATOM     62  C   UNL A   1      47.064  28.518  30.751  1.00  0.00     0.010 A 
ATOM     63  C   UNL A   1      47.204  26.722  32.895  1.00  0.00     0.020 A 
ATOM     64  C   UNL A   1      48.252  27.826  31.000  1.00  0.00     0.020 A 
ATOM     65  C   UNL A   1      48.320  26.947  32.084  1.00  0.00     0.054 A 
BRANCH  65  66
ATOM     66  S   UNL A   1      49.858  26.055  32.445  1.00  0.00     0.124 S 
ATOM     67  O   UNL A   1      49.825  24.986  31.450  1.00  0.00    -0.237 OA
ATOM     68  O   UNL A   1      50.883  27.075  32.236  1.00  0.00    -0.237 OA
ATOM     69  O   UNL A   1      49.689  25.624  33.831  1.00  0.00    -0.744 OA
ENDBRANCH  65  66
ENDBRANCH  46  60
BRANCH  47  70
ATOM     70  C   UNL A   1      37.218  32.811  29.753  1.00  0.00    -0.014 A 
ATOM     71  C   UNL A   1      36.221  32.772  30.743  1.00  0.00     0.010 A 
ATOM     72  C   UNL A   1      36.968  33.502  28.554  1.00  0.00     0.010 A 
ATOM     73  C   UNL A   1      34.993  33.405  30.536  1.00  0.00     0.020 A 
ATOM     74  C   UNL A   1      35.748  34.153  28.351  1.00  0.00     0.020 A 
ATOM     75  C   UNL A   1      34.764  34.093  29.341  1.00  0.00     0.054 A 
BRANCH  75  76
ATOM     76  S   UNL A   1      33.190  34.969  29.117  1.00  0.00     0.124 S 
ATOM     77  O   UNL A   1      32.544  34.172  28.080  1.00  0.00    -0.237 OA
ATOM     78  O   UNL A   1      32.588  34.889  30.445  1.00  0.00    -0.237 OA
ATOM     79  O   UNL A   1      33.605  36.311  28.712  1.00  0.00    -0.744 OA
ENDBRANCH  75  76
ENDBRANCH  47  70
BRANCH  59  80
ATOM     80  C   UNL A   1      42.994  34.710  33.155  1.00  0.00    -0.014 A 
ATOM     81  C   UNL A   1      42.792  34.832  34.540  1.00  0.00     0.010 A 
ATOM     82  C   UNL A   1      43.620  35.755  32.453  1.00  0.00     0.010 A 
ATOM     83  C   UNL A   1      43.193  35.990  35.211  1.00  0.00     0.020 A 
ATOM     84  C   UNL A   1      44.038  36.907  33.124  1.00  0.00     0.020 A 
ATOM     85  C   UNL A   1      43.813  37.022  34.498  1.00  0.00     0.054 A 
BRANCH  85  86
ATOM     86  S   UNL A   1      44.375  38.494  35.394  1.00  0.00     0.124 S 
ATOM     87  O   UNL A   1      45.824  38.406  35.243  1.00  0.00    -0.237 OA
ATOM     88  O   UNL A   1      43.732  39.584  34.665  1.00  0.00    -0.237 OA
ATOM     89  O   UNL A   1      43.875  38.282  36.751  1.00  0.00    -0.744 OA
ENDBRANCH  85  86
ENDBRANCH  59  80
ENDBRANCH  33  34
ENDBRANCH  25  28
ENDBRANCH   1  24
TORSDOF 14
ENDMDL
