MODEL 1
REMARK VINA RESULT:     -12.0      0.000      0.000
REMARK SMILES Cc1ccc2c(c1)C(=O)C[C@H](C(=O)NCCCNC(=O)c1ccc(-c3c4nc(c(-c5ccc(S(=O)(=O)[O-])cc5)c5ccc([nH]5)c(-c5ccc(S(=O)(=O)[O-])cc5)c5nc(c(-c6ccc(S(=O)(=O)[O-])cc6)c6ccc3[nH]6)C=C5)C=C4)cc1)C2
REMARK SMILES IDX 18 1 19 2 20 3 17 5 16 6 15 7 14 8 12 9 13 10 11 12 1 13
REMARK SMILES IDX 2 14 3 15 7 16 4 17 6 18 5 19 8 20 81 21 9 22 10 23 21 24
REMARK SMILES IDX 22 25 80 26 23 27 79 28 24 29 25 30 26 31 73 32 27 33 78 34
REMARK SMILES IDX 72 35 74 36 28 37 77 38 71 39 70 40 29 42 59 43 40 44 58 45
REMARK SMILES IDX 41 46 44 47 57 48 75 49 42 50 43 51 56 53 76 54 45 55 30 56
REMARK SMILES IDX 31 57 39 58 32 59 38 60 33 61 34 62 35 63 36 64 37 65 60 66
REMARK SMILES IDX 61 67 69 68 62 69 68 70 63 71 64 72 65 73 66 74 67 75 46 76
REMARK SMILES IDX 47 77 55 78 48 79 54 80 49 81 50 82 51 83 52 84 53 85
REMARK H PARENT 18 4 14 11 74 41 44 52
REMARK Flexibility Score: inf
ROOT
ATOM      1  N   UNL A   1      33.279  30.037  27.489  1.00  0.00    -0.352 N 
ATOM      2  C   UNL A   1      34.314  30.795  27.992  1.00  0.00     0.251 C 
ATOM      3  O   UNL A   1      34.118  31.983  28.245  1.00  0.00    -0.269 OA
ATOM      4  H   UNL A   1      32.480  30.553  27.236  1.00  0.00     0.163 HD
ENDROOT
BRANCH   1   5
ATOM      5  C   UNL A   1      33.171  28.596  27.266  1.00  0.00     0.118 C 
BRANCH   5   6
ATOM      6  C   UNL A   1      31.741  28.090  27.402  1.00  0.00     0.042 C 
BRANCH   6   7
ATOM      7  C   UNL A   1      31.322  27.169  26.263  1.00  0.00     0.117 C 
BRANCH   7   8
ATOM      8  N   UNL A   1      31.100  25.800  26.690  1.00  0.00    -0.356 N 
ATOM      9  C   UNL A   1      31.802  24.651  26.566  1.00  0.00     0.223 C 
ATOM     10  O   UNL A   1      31.351  23.685  27.200  1.00  0.00    -0.275 OA
ATOM     11  H   UNL A   1      30.253  25.683  27.176  1.00  0.00     0.163 HD
BRANCH   9  12
ATOM     12  C   UNL A   1      33.043  24.440  25.692  1.00  0.00     0.090 C 
ATOM     13  C   UNL A   1      32.387  18.291  23.721  1.00  0.00     0.044 C 
ATOM     14  C   UNL A   1      32.672  19.764  23.711  1.00  0.00    -0.050 A 
ATOM     15  C   UNL A   1      32.016  20.617  22.820  1.00  0.00     0.004 A 
ATOM     16  C   UNL A   1      33.504  20.316  24.691  1.00  0.00     0.015 A 
ATOM     17  C   UNL A   1      32.145  22.002  22.940  1.00  0.00     0.005 A 
ATOM     18  C   UNL A   1      33.593  21.705  24.847  1.00  0.00     0.021 A 
ATOM     19  C   UNL A   1      32.883  22.559  23.996  1.00  0.00    -0.036 A 
ATOM     20  C   UNL A   1      34.313  22.235  26.030  1.00  0.00     0.163 C 
ATOM     21  C   UNL A   1      32.824  24.038  24.238  1.00  0.00     0.050 C 
ATOM     22  O   UNL A   1      35.020  21.489  26.703  1.00  0.00    -0.294 OA
ATOM     23  C   UNL A   1      34.157  23.687  26.403  1.00  0.00     0.095 C 
ENDBRANCH   9  12
ENDBRANCH   7   8
ENDBRANCH   6   7
ENDBRANCH   5   6
ENDBRANCH   1   5
BRANCH   2  24
ATOM     24  C   UNL A   1      35.635  30.187  28.268  1.00  0.00     0.039 A 
ATOM     25  C   UNL A   1      35.921  29.618  29.508  1.00  0.00     0.014 A 
ATOM     26  C   UNL A   1      36.612  30.195  27.267  1.00  0.00     0.014 A 
ATOM     27  C   UNL A   1      37.228  29.261  29.819  1.00  0.00     0.010 A 
ATOM     28  C   UNL A   1      37.902  29.730  27.548  1.00  0.00     0.010 A 
ATOM     29  C   UNL A   1      38.237  29.315  28.846  1.00  0.00    -0.014 A 
BRANCH  29  30
ATOM     30  C   UNL A   1      39.634  28.954  29.207  1.00  0.00     0.031 A 
ATOM     31  C   UNL A   1      40.205  27.618  28.806  1.00  0.00     0.074 A 
ATOM     32  C   UNL A   1      40.410  29.853  29.849  1.00  0.00     0.049 A 
ATOM     33  N   UNL A   1      41.379  27.112  29.081  1.00  0.00    -0.248 NA
ATOM     34  C   UNL A   1      39.352  26.735  27.991  1.00  0.00     0.031 C 
ATOM     35  C   UNL A   1      39.985  31.198  30.245  1.00  0.00     0.029 A 
ATOM     36  N   UNL A   1      41.719  29.787  30.253  1.00  0.00    -0.354 N 
ATOM     37  C   UNL A   1      41.396  25.847  28.504  1.00  0.00     0.074 A 
ATOM     38  C   UNL A   1      40.106  25.650  27.879  1.00  0.00     0.031 C 
ATOM     39  C   UNL A   1      41.031  31.851  30.772  1.00  0.00     0.029 A 
ATOM     40  C   UNL A   1      42.172  30.945  30.841  1.00  0.00     0.049 A 
ATOM     41  H   UNL A   1      42.281  28.988  30.135  1.00  0.00     0.167 HD
ATOM     42  C   UNL A   1      42.399  24.939  28.488  1.00  0.00     0.031 A 
ATOM     43  C   UNL A   1      43.362  31.247  31.400  1.00  0.00     0.031 A 
ATOM     44  C   UNL A   1      43.691  25.161  29.083  1.00  0.00     0.049 A 
ATOM     45  C   UNL A   1      44.437  30.200  31.430  1.00  0.00     0.074 A 
ATOM     46  C   UNL A   1      44.777  24.302  29.112  1.00  0.00     0.029 A 
ATOM     47  N   UNL A   1      44.078  26.320  29.738  1.00  0.00    -0.354 N 
ATOM     48  N   UNL A   1      44.419  28.996  30.912  1.00  0.00    -0.248 NA
ATOM     49  C   UNL A   1      45.684  30.539  32.131  1.00  0.00     0.031 C 
ATOM     50  C   UNL A   1      45.798  24.919  29.836  1.00  0.00     0.029 A 
ATOM     51  C   UNL A   1      45.377  26.187  30.199  1.00  0.00     0.049 A 
ATOM     52  H   UNL A   1      43.513  27.117  29.857  1.00  0.00     0.167 HD
ATOM     53  C   UNL A   1      45.650  28.432  31.222  1.00  0.00     0.074 A 
ATOM     54  C   UNL A   1      46.397  29.433  31.954  1.00  0.00     0.031 C 
ATOM     55  C   UNL A   1      46.110  27.192  30.929  1.00  0.00     0.031 A 
BRANCH  42  56
ATOM     56  C   UNL A   1      42.160  23.609  27.819  1.00  0.00    -0.014 A 
ATOM     57  C   UNL A   1      41.694  22.522  28.583  1.00  0.00     0.010 A 
ATOM     58  C   UNL A   1      42.508  23.398  26.473  1.00  0.00     0.010 A 
ATOM     59  C   UNL A   1      41.611  21.242  28.025  1.00  0.00     0.020 A 
ATOM     60  C   UNL A   1      42.401  22.124  25.903  1.00  0.00     0.020 A 
ATOM     61  C   UNL A   1      41.976  21.050  26.690  1.00  0.00     0.054 A 
BRANCH  61  62
ATOM     62  S   UNL A   1      41.884  19.378  25.990  1.00  0.00     0.124 S 
ATOM     63  O   UNL A   1      42.787  19.473  24.847  1.00  0.00    -0.237 OA
ATOM     64  O   UNL A   1      42.349  18.543  27.095  1.00  0.00    -0.237 OA
ATOM     65  O   UNL A   1      40.470  19.224  25.659  1.00  0.00    -0.744 OA
ENDBRANCH  61  62
ENDBRANCH  42  56
BRANCH  43  66
ATOM     66  C   UNL A   1      43.566  32.604  31.978  1.00  0.00    -0.014 A 
ATOM     67  C   UNL A   1      43.036  32.924  33.243  1.00  0.00     0.010 A 
ATOM     68  C   UNL A   1      44.187  33.614  31.224  1.00  0.00     0.010 A 
ATOM     69  C   UNL A   1      43.056  34.240  33.711  1.00  0.00     0.020 A 
ATOM     70  C   UNL A   1      44.238  34.927  31.703  1.00  0.00     0.020 A 
ATOM     71  C   UNL A   1      43.641  35.237  32.928  1.00  0.00     0.054 A 
BRANCH  71  72
ATOM     72  S   UNL A   1      43.590  36.951  33.521  1.00  0.00     0.124 S 
ATOM     73  O   UNL A   1      43.528  37.698  32.267  1.00  0.00    -0.237 OA
ATOM     74  O   UNL A   1      42.373  36.976  34.328  1.00  0.00    -0.237 OA
ATOM     75  O   UNL A   1      44.836  37.090  34.270  1.00  0.00    -0.744 OA
ENDBRANCH  71  72
ENDBRANCH  43  66
BRANCH  55  76
ATOM     76  C   UNL A   1      47.489  26.814  31.396  1.00  0.00    -0.014 A 
ATOM     77  C   UNL A   1      48.590  27.003  30.539  1.00  0.00     0.010 A 
ATOM     78  C   UNL A   1      47.666  26.114  32.601  1.00  0.00     0.010 A 
ATOM     79  C   UNL A   1      49.833  26.449  30.854  1.00  0.00     0.020 A 
ATOM     80  C   UNL A   1      48.915  25.580  32.931  1.00  0.00     0.020 A 
ATOM     81  C   UNL A   1      49.981  25.725  32.040  1.00  0.00     0.054 A 
BRANCH  81  82
ATOM     82  S   UNL A   1      51.581  24.944  32.393  1.00  0.00     0.124 S 
ATOM     83  O   UNL A   1      52.461  25.601  31.432  1.00  0.00    -0.237 OA
ATOM     84  O   UNL A   1      51.805  25.295  33.793  1.00  0.00    -0.237 OA
ATOM     85  O   UNL A   1      51.332  23.526  32.146  1.00  0.00    -0.744 OA
ENDBRANCH  81  82
ENDBRANCH  55  76
ENDBRANCH  29  30
ENDBRANCH   2  24
TORSDOF 13
ENDMDL
MODEL 2
REMARK VINA RESULT:     -12.0      0.606      8.461
REMARK SMILES Cc1ccc2c(c1)C(=O)C[C@H](C(=O)NCCCNC(=O)c1ccc(-c3c4nc(c(-c5ccc(S(=O)(=O)[O-])cc5)c5ccc([nH]5)c(-c5ccc(S(=O)(=O)[O-])cc5)c5nc(c(-c6ccc(S(=O)(=O)[O-])cc6)c6ccc3[nH]6)C=C5)C=C4)cc1)C2
REMARK SMILES IDX 18 1 19 2 20 3 17 5 16 6 15 7 14 8 12 9 13 10 11 12 1 13
REMARK SMILES IDX 2 14 3 15 7 16 4 17 6 18 5 19 8 20 81 21 9 22 10 23 21 24
REMARK SMILES IDX 22 25 80 26 23 27 79 28 24 29 25 30 26 31 73 32 27 33 78 34
REMARK SMILES IDX 72 35 74 36 28 37 77 38 71 39 70 40 29 42 59 43 40 44 58 45
REMARK SMILES IDX 41 46 44 47 57 48 75 49 42 50 43 51 56 53 76 54 45 55 30 56
REMARK SMILES IDX 31 57 39 58 32 59 38 60 33 61 34 62 35 63 36 64 37 65 60 66
REMARK SMILES IDX 61 67 69 68 62 69 68 70 63 71 64 72 65 73 66 74 67 75 46 76
REMARK SMILES IDX 47 77 55 78 48 79 54 80 49 81 50 82 51 83 52 84 53 85
REMARK H PARENT 18 4 14 11 74 41 44 52
REMARK Flexibility Score: inf
ROOT
ATOM      1  N   UNL A   1      33.472  30.119  27.659  1.00  0.00    -0.352 N 
ATOM      2  C   UNL A   1      34.511  30.806  28.247  1.00  0.00     0.251 C 
ATOM      3  O   UNL A   1      34.314  31.946  28.664  1.00  0.00    -0.269 OA
ATOM      4  H   UNL A   1      32.666  30.659  27.493  1.00  0.00     0.163 HD
ENDROOT
BRANCH   1   5
ATOM      5  C   UNL A   1      33.366  28.721  27.241  1.00  0.00     0.118 C 
BRANCH   5   6
ATOM      6  C   UNL A   1      31.980  28.142  27.489  1.00  0.00     0.042 C 
BRANCH   6   7
ATOM      7  C   UNL A   1      31.484  27.268  26.343  1.00  0.00     0.117 C 
BRANCH   7   8
ATOM      8  N   UNL A   1      31.219  25.899  26.744  1.00  0.00    -0.356 N 
ATOM      9  C   UNL A   1      31.904  24.737  26.635  1.00  0.00     0.223 C 
ATOM     10  O   UNL A   1      31.410  23.774  27.238  1.00  0.00    -0.275 OA
ATOM     11  H   UNL A   1      30.351  25.793  27.192  1.00  0.00     0.163 HD
BRANCH   9  12
ATOM     12  C   UNL A   1      33.177  24.513  25.811  1.00  0.00     0.090 C 
ATOM     13  C   UNL A   1      32.251  18.592  23.320  1.00  0.00     0.044 C 
ATOM     14  C   UNL A   1      32.627  20.039  23.443  1.00  0.00    -0.050 A 
ATOM     15  C   UNL A   1      32.076  21.001  22.591  1.00  0.00     0.004 A 
ATOM     16  C   UNL A   1      33.436  20.457  24.505  1.00  0.00     0.015 A 
ATOM     17  C   UNL A   1      32.284  22.361  22.830  1.00  0.00     0.005 A 
ATOM     18  C   UNL A   1      33.603  21.822  24.777  1.00  0.00     0.021 A 
ATOM     19  C   UNL A   1      32.995  22.783  23.963  1.00  0.00    -0.036 A 
ATOM     20  C   UNL A   1      34.286  22.209  26.034  1.00  0.00     0.163 C 
ATOM     21  C   UNL A   1      33.015  24.241  24.321  1.00  0.00     0.050 C 
ATOM     22  O   UNL A   1      34.907  21.368  26.680  1.00  0.00    -0.294 OA
ATOM     23  C   UNL A   1      34.200  23.635  26.515  1.00  0.00     0.095 C 
ENDBRANCH   9  12
ENDBRANCH   7   8
ENDBRANCH   6   7
ENDBRANCH   5   6
ENDBRANCH   1   5
BRANCH   2  24
ATOM     24  C   UNL A   1      35.839  30.175  28.415  1.00  0.00     0.039 A 
ATOM     25  C   UNL A   1      36.197  29.559  29.613  1.00  0.00     0.014 A 
ATOM     26  C   UNL A   1      36.750  30.207  27.354  1.00  0.00     0.014 A 
ATOM     27  C   UNL A   1      37.516  29.177  29.827  1.00  0.00     0.010 A 
ATOM     28  C   UNL A   1      38.049  29.719  27.534  1.00  0.00     0.010 A 
ATOM     29  C   UNL A   1      38.461  29.254  28.793  1.00  0.00    -0.014 A 
BRANCH  29  30
ATOM     30  C   UNL A   1      39.874  28.866  29.050  1.00  0.00     0.031 A 
ATOM     31  C   UNL A   1      40.796  29.795  29.798  1.00  0.00     0.074 A 
ATOM     32  C   UNL A   1      40.314  27.652  28.658  1.00  0.00     0.049 A 
ATOM     33  N   UNL A   1      42.068  29.650  30.063  1.00  0.00    -0.248 NA
ATOM     34  C   UNL A   1      40.220  31.049  30.315  1.00  0.00     0.031 C 
ATOM     35  C   UNL A   1      39.501  26.645  27.971  1.00  0.00     0.029 A 
ATOM     36  N   UNL A   1      41.535  27.045  28.806  1.00  0.00    -0.354 N 
ATOM     37  C   UNL A   1      42.451  30.798  30.747  1.00  0.00     0.074 A 
ATOM     38  C   UNL A   1      41.282  31.645  30.840  1.00  0.00     0.031 C 
ATOM     39  C   UNL A   1      40.223  25.527  27.819  1.00  0.00     0.029 A 
ATOM     40  C   UNL A   1      41.577  25.764  28.308  1.00  0.00     0.049 A 
ATOM     41  H   UNL A   1      42.309  27.484  29.228  1.00  0.00     0.167 HD
ATOM     42  C   UNL A   1      43.663  31.111  31.261  1.00  0.00     0.031 A 
ATOM     43  C   UNL A   1      42.592  24.879  28.225  1.00  0.00     0.031 A 
ATOM     44  C   UNL A   1      44.810  30.245  31.194  1.00  0.00     0.049 A 
ATOM     45  C   UNL A   1      43.945  25.275  28.740  1.00  0.00     0.074 A 
ATOM     46  C   UNL A   1      46.082  30.471  31.692  1.00  0.00     0.029 A 
ATOM     47  N   UNL A   1      44.827  28.988  30.608  1.00  0.00    -0.354 N 
ATOM     48  N   UNL A   1      44.294  26.382  29.349  1.00  0.00    -0.248 NA
ATOM     49  C   UNL A   1      45.043  24.319  28.545  1.00  0.00     0.031 C 
ATOM     50  C   UNL A   1      46.881  29.378  31.356  1.00  0.00     0.029 A 
ATOM     51  C   UNL A   1      46.094  28.439  30.708  1.00  0.00     0.049 A 
ATOM     52  H   UNL A   1      44.053  28.552  30.184  1.00  0.00     0.167 HD
ATOM     53  C   UNL A   1      45.652  26.256  29.613  1.00  0.00     0.074 A 
ATOM     54  C   UNL A   1      46.058  24.958  29.116  1.00  0.00     0.031 C 
ATOM     55  C   UNL A   1      46.485  27.145  30.208  1.00  0.00     0.031 A 
BRANCH  42  56
ATOM     56  C   UNL A   1      43.838  32.447  31.937  1.00  0.00    -0.014 A 
ATOM     57  C   UNL A   1      43.552  32.573  33.311  1.00  0.00     0.010 A 
ATOM     58  C   UNL A   1      44.162  33.600  31.200  1.00  0.00     0.010 A 
ATOM     59  C   UNL A   1      43.556  33.827  33.928  1.00  0.00     0.020 A 
ATOM     60  C   UNL A   1      44.193  34.854  31.820  1.00  0.00     0.020 A 
ATOM     61  C   UNL A   1      43.867  34.962  33.175  1.00  0.00     0.054 A 
BRANCH  61  62
ATOM     62  S   UNL A   1      43.843  36.585  33.988  1.00  0.00     0.124 S 
ATOM     63  O   UNL A   1      45.039  36.528  34.823  1.00  0.00    -0.237 OA
ATOM     64  O   UNL A   1      43.904  37.509  32.858  1.00  0.00    -0.237 OA
ATOM     65  O   UNL A   1      42.574  36.586  34.712  1.00  0.00    -0.744 OA
ENDBRANCH  61  62
ENDBRANCH  42  56
BRANCH  43  66
ATOM     66  C   UNL A   1      42.340  23.545  27.615  1.00  0.00    -0.014 A 
ATOM     67  C   UNL A   1      41.793  22.502  28.388  1.00  0.00     0.010 A 
ATOM     68  C   UNL A   1      42.746  23.275  26.298  1.00  0.00     0.010 A 
ATOM     69  C   UNL A   1      41.727  21.202  27.884  1.00  0.00     0.020 A 
ATOM     70  C   UNL A   1      42.652  21.980  25.777  1.00  0.00     0.020 A 
ATOM     71  C   UNL A   1      42.175  20.946  26.586  1.00  0.00     0.054 A 
BRANCH  71  72
ATOM     72  S   UNL A   1      42.150  19.237  25.978  1.00  0.00     0.124 S 
ATOM     73  O   UNL A   1      43.033  19.320  24.818  1.00  0.00    -0.237 OA
ATOM     74  O   UNL A   1      42.675  18.483  27.114  1.00  0.00    -0.237 OA
ATOM     75  O   UNL A   1      40.740  19.003  25.676  1.00  0.00    -0.744 OA
ENDBRANCH  71  72
ENDBRANCH  43  66
BRANCH  55  76
ATOM     76  C   UNL A   1      47.934  26.772  30.363  1.00  0.00    -0.014 A 
ATOM     77  C   UNL A   1      48.368  26.143  31.546  1.00  0.00     0.010 A 
ATOM     78  C   UNL A   1      48.884  27.201  29.422  1.00  0.00     0.010 A 
ATOM     79  C   UNL A   1      49.732  26.001  31.811  1.00  0.00     0.020 A 
ATOM     80  C   UNL A   1      50.250  27.038  29.672  1.00  0.00     0.020 A 
ATOM     81  C   UNL A   1      50.664  26.467  30.879  1.00  0.00     0.054 A 
BRANCH  81  82
ATOM     82  S   UNL A   1      52.430  26.347  31.276  1.00  0.00     0.124 S 
ATOM     83  O   UNL A   1      52.476  25.152  32.112  1.00  0.00    -0.237 OA
ATOM     84  O   UNL A   1      53.046  26.217  29.958  1.00  0.00    -0.237 OA
ATOM     85  O   UNL A   1      52.713  27.604  31.965  1.00  0.00    -0.744 OA
ENDBRANCH  81  82
ENDBRANCH  55  76
ENDBRANCH  29  30
ENDBRANCH   2  24
TORSDOF 13
ENDMDL
MODEL 3
REMARK VINA RESULT:     -12.0      0.717      8.417
REMARK SMILES Cc1ccc2c(c1)C(=O)C[C@H](C(=O)NCCCNC(=O)c1ccc(-c3c4nc(c(-c5ccc(S(=O)(=O)[O-])cc5)c5ccc([nH]5)c(-c5ccc(S(=O)(=O)[O-])cc5)c5nc(c(-c6ccc(S(=O)(=O)[O-])cc6)c6ccc3[nH]6)C=C5)C=C4)cc1)C2
REMARK SMILES IDX 18 1 19 2 20 3 17 5 16 6 15 7 14 8 12 9 13 10 11 12 1 13
REMARK SMILES IDX 2 14 3 15 7 16 4 17 6 18 5 19 8 20 81 21 9 22 10 23 21 24
REMARK SMILES IDX 22 25 80 26 23 27 79 28 24 29 25 30 26 31 73 32 27 33 78 34
REMARK SMILES IDX 72 35 74 36 28 37 77 38 71 39 70 40 29 42 59 43 40 44 58 45
REMARK SMILES IDX 41 46 44 47 57 48 75 49 42 50 43 51 56 53 76 54 45 55 30 56
REMARK SMILES IDX 31 57 39 58 32 59 38 60 33 61 34 62 35 63 36 64 37 65 60 66
REMARK SMILES IDX 61 67 69 68 62 69 68 70 63 71 64 72 65 73 66 74 67 75 46 76
REMARK SMILES IDX 47 77 55 78 48 79 54 80 49 81 50 82 51 83 52 84 53 85
REMARK H PARENT 18 4 14 11 74 41 44 52
REMARK Flexibility Score: inf
ROOT
ATOM      1  N   UNL A   1      33.302  30.164  27.396  1.00  0.00    -0.352 N 
ATOM      2  C   UNL A   1      34.376  30.888  27.864  1.00  0.00     0.251 C 
ATOM      3  O   UNL A   1      34.256  32.102  28.022  1.00  0.00    -0.269 OA
ATOM      4  H   UNL A   1      32.543  30.710  27.088  1.00  0.00     0.163 HD
ENDROOT
BRANCH   1   5
ATOM      5  C   UNL A   1      33.101  28.720  27.280  1.00  0.00     0.118 C 
BRANCH   5   6
ATOM      6  C   UNL A   1      31.629  28.341  27.192  1.00  0.00     0.042 C 
BRANCH   6   7
ATOM      7  C   UNL A   1      31.339  27.323  26.097  1.00  0.00     0.117 C 
BRANCH   7   8
ATOM      8  N   UNL A   1      31.121  25.982  26.607  1.00  0.00    -0.356 N 
ATOM      9  C   UNL A   1      31.849  24.843  26.601  1.00  0.00     0.223 C 
ATOM     10  O   UNL A   1      31.385  23.914  27.278  1.00  0.00    -0.275 OA
ATOM     11  H   UNL A   1      30.252  25.880  27.056  1.00  0.00     0.163 HD
BRANCH   9  12
ATOM     12  C   UNL A   1      33.139  24.600  25.808  1.00  0.00     0.090 C 
ATOM     13  C   UNL A   1      32.334  18.560  23.572  1.00  0.00     0.044 C 
ATOM     14  C   UNL A   1      32.689  20.016  23.636  1.00  0.00    -0.050 A 
ATOM     15  C   UNL A   1      32.140  20.931  22.733  1.00  0.00     0.004 A 
ATOM     16  C   UNL A   1      33.474  20.493  24.691  1.00  0.00     0.015 A 
ATOM     17  C   UNL A   1      32.325  22.303  22.913  1.00  0.00     0.005 A 
ATOM     18  C   UNL A   1      33.618  21.871  24.904  1.00  0.00     0.021 A 
ATOM     19  C   UNL A   1      33.012  22.786  24.037  1.00  0.00    -0.036 A 
ATOM     20  C   UNL A   1      34.275  22.324  26.153  1.00  0.00     0.163 C 
ATOM     21  C   UNL A   1      33.005  24.258  24.329  1.00  0.00     0.050 C 
ATOM     22  O   UNL A   1      34.896  21.522  26.845  1.00  0.00    -0.294 OA
ATOM     23  C   UNL A   1      34.162  23.769  26.567  1.00  0.00     0.095 C 
ENDBRANCH   9  12
ENDBRANCH   7   8
ENDBRANCH   6   7
ENDBRANCH   5   6
ENDBRANCH   1   5
BRANCH   2  24
ATOM     24  C   UNL A   1      35.649  30.219  28.214  1.00  0.00     0.039 A 
ATOM     25  C   UNL A   1      35.835  29.635  29.467  1.00  0.00     0.014 A 
ATOM     26  C   UNL A   1      36.682  30.181  27.272  1.00  0.00     0.014 A 
ATOM     27  C   UNL A   1      37.103  29.216  29.852  1.00  0.00     0.010 A 
ATOM     28  C   UNL A   1      37.930  29.655  27.626  1.00  0.00     0.010 A 
ATOM     29  C   UNL A   1      38.168  29.223  28.940  1.00  0.00    -0.014 A 
BRANCH  29  30
ATOM     30  C   UNL A   1      39.523  28.797  29.381  1.00  0.00     0.031 A 
ATOM     31  C   UNL A   1      40.318  29.651  30.335  1.00  0.00     0.074 A 
ATOM     32  C   UNL A   1      40.017  27.612  28.965  1.00  0.00     0.049 A 
ATOM     33  N   UNL A   1      41.534  29.467  30.782  1.00  0.00    -0.248 NA
ATOM     34  C   UNL A   1      39.670  30.867  30.857  1.00  0.00     0.031 C 
ATOM     35  C   UNL A   1      39.320  26.675  28.081  1.00  0.00     0.029 A 
ATOM     36  N   UNL A   1      41.200  26.979  29.251  1.00  0.00    -0.354 N 
ATOM     37  C   UNL A   1      41.806  30.552  31.608  1.00  0.00     0.074 A 
ATOM     38  C   UNL A   1      40.638  31.404  31.587  1.00  0.00     0.031 C 
ATOM     39  C   UNL A   1      40.056  25.562  27.953  1.00  0.00     0.029 A 
ATOM     40  C   UNL A   1      41.318  25.741  28.664  1.00  0.00     0.049 A 
ATOM     41  H   UNL A   1      41.899  27.372  29.822  1.00  0.00     0.167 HD
ATOM     42  C   UNL A   1      42.924  30.807  32.327  1.00  0.00     0.031 A 
ATOM     43  C   UNL A   1      42.333  24.852  28.667  1.00  0.00     0.031 A 
ATOM     44  C   UNL A   1      44.067  29.933  32.369  1.00  0.00     0.049 A 
ATOM     45  C   UNL A   1      43.589  25.187  29.416  1.00  0.00     0.074 A 
ATOM     46  C   UNL A   1      45.246  30.101  33.075  1.00  0.00     0.029 A 
ATOM     47  N   UNL A   1      44.173  28.727  31.693  1.00  0.00    -0.354 N 
ATOM     48  N   UNL A   1      43.841  26.237  30.160  1.00  0.00    -0.248 NA
ATOM     49  C   UNL A   1      44.703  24.235  29.317  1.00  0.00     0.031 C 
ATOM     50  C   UNL A   1      46.087  29.027  32.779  1.00  0.00     0.029 A 
ATOM     51  C   UNL A   1      45.409  28.155  31.944  1.00  0.00     0.049 A 
ATOM     52  H   UNL A   1      43.474  28.336  31.120  1.00  0.00     0.167 HD
ATOM     53  C   UNL A   1      45.141  26.072  30.620  1.00  0.00     0.074 A 
ATOM     54  C   UNL A   1      45.618  24.812  30.088  1.00  0.00     0.031 C 
ATOM     55  C   UNL A   1      45.871  26.899  31.406  1.00  0.00     0.031 A 
BRANCH  42  56
ATOM     56  C   UNL A   1      42.993  32.082  33.128  1.00  0.00    -0.014 A 
ATOM     57  C   UNL A   1      42.586  32.077  34.477  1.00  0.00     0.010 A 
ATOM     58  C   UNL A   1      43.338  33.304  32.525  1.00  0.00     0.010 A 
ATOM     59  C   UNL A   1      42.492  33.271  35.197  1.00  0.00     0.020 A 
ATOM     60  C   UNL A   1      43.272  34.499  33.250  1.00  0.00     0.020 A 
ATOM     61  C   UNL A   1      42.826  34.477  34.575  1.00  0.00     0.054 A 
BRANCH  61  62
ATOM     62  S   UNL A   1      42.676  36.020  35.519  1.00  0.00     0.124 S 
ATOM     63  O   UNL A   1      41.375  36.520  35.085  1.00  0.00    -0.237 OA
ATOM     64  O   UNL A   1      42.746  35.557  36.902  1.00  0.00    -0.237 OA
ATOM     65  O   UNL A   1      43.827  36.805  35.077  1.00  0.00    -0.744 OA
ENDBRANCH  61  62
ENDBRANCH  42  56
BRANCH  43  66
ATOM     66  C   UNL A   1      42.177  23.574  27.919  1.00  0.00    -0.014 A 
ATOM     67  C   UNL A   1      41.474  22.497  28.493  1.00  0.00     0.010 A 
ATOM     68  C   UNL A   1      42.822  23.388  26.685  1.00  0.00     0.010 A 
ATOM     69  C   UNL A   1      41.482  21.239  27.886  1.00  0.00     0.020 A 
ATOM     70  C   UNL A   1      42.805  22.137  26.057  1.00  0.00     0.020 A 
ATOM     71  C   UNL A   1      42.165  21.063  26.681  1.00  0.00     0.054 A 
BRANCH  71  72
ATOM     72  S   UNL A   1      42.225  19.404  25.948  1.00  0.00     0.124 S 
ATOM     73  O   UNL A   1      43.131  19.609  24.821  1.00  0.00    -0.237 OA
ATOM     74  O   UNL A   1      42.752  18.589  27.039  1.00  0.00    -0.237 OA
ATOM     75  O   UNL A   1      40.833  19.139  25.591  1.00  0.00    -0.744 OA
ENDBRANCH  71  72
ENDBRANCH  43  66
BRANCH  55  76
ATOM     76  C   UNL A   1      47.278  26.495  31.753  1.00  0.00    -0.014 A 
ATOM     77  C   UNL A   1      48.323  26.765  30.849  1.00  0.00     0.010 A 
ATOM     78  C   UNL A   1      47.533  25.699  32.882  1.00  0.00     0.010 A 
ATOM     79  C   UNL A   1      49.585  26.198  31.037  1.00  0.00     0.020 A 
ATOM     80  C   UNL A   1      48.802  25.150  33.088  1.00  0.00     0.020 A 
ATOM     81  C   UNL A   1      49.810  25.378  32.147  1.00  0.00     0.054 A 
BRANCH  81  82
ATOM     82  S   UNL A   1      51.431  24.586  32.333  1.00  0.00     0.124 S 
ATOM     83  O   UNL A   1      51.761  24.884  33.723  1.00  0.00    -0.237 OA
ATOM     84  O   UNL A   1      51.137  23.184  32.043  1.00  0.00    -0.237 OA
ATOM     85  O   UNL A   1      52.259  25.259  31.335  1.00  0.00    -0.744 OA
ENDBRANCH  81  82
ENDBRANCH  55  76
ENDBRANCH  29  30
ENDBRANCH   2  24
TORSDOF 13
ENDMDL
