MODEL 1
REMARK VINA RESULT:     -12.1      0.000      0.000
REMARK SMILES Nc1cc(C(=O)NCCCNC(=O)c2ccc(-c3c4nc(c(-c5ccc(S(=O)(=O)[O-])cc5)c5ccc([nH]5)c(-c5ccc(S(=O)(=O)[O-])cc5)c5nc(c(-c6ccc(S(=O)(=O)[O-])cc6)c6ccc3[nH]6)C=C5)C=C4)cc2)ccc1N1CC2(CCOCC2)C1
REMARK SMILES IDX 10 1 9 2 8 3 7 4 5 5 6 6 4 8 2 9 3 10 76 11 75 12 74 13 1 14
REMARK SMILES IDX 77 17 78 18 85 19 79 20 80 21 84 22 81 23 83 24 82 25 11 26
REMARK SMILES IDX 12 27 13 29 14 30 15 31 73 32 16 33 72 34 17 35 18 36 19 37
REMARK SMILES IDX 66 38 20 39 71 40 65 41 67 42 21 43 70 44 64 45 63 46 22 48
REMARK SMILES IDX 52 49 33 50 51 51 34 52 37 53 50 54 68 55 35 56 36 57 49 59
REMARK SMILES IDX 69 60 38 61 23 62 24 63 32 64 25 65 31 66 26 67 27 68 28 69
REMARK SMILES IDX 29 70 30 71 53 72 54 73 62 74 55 75 61 76 56 77 57 78 58 79
REMARK SMILES IDX 59 80 60 81 39 82 40 83 48 84 41 85 47 86 42 87 43 88 44 89
REMARK SMILES IDX 45 90 46 91
REMARK H PARENT 7 7 1 15 1 16 11 28 67 47 37 58
REMARK Flexibility Score: inf
ROOT
ATOM      1  C   UNL A   1      33.630  28.327  27.195  1.00  0.00     0.118 C 
ENDROOT
BRANCH   1   2
ATOM      2  C   UNL A   1      34.079  27.919  25.791  1.00  0.00     0.042 C 
BRANCH   2   3
ATOM      3  C   UNL A   1      33.026  27.108  25.037  1.00  0.00     0.118 C 
BRANCH   3   4
ATOM      4  N   UNL A   1      33.346  27.031  23.627  1.00  0.00    -0.352 N 
ATOM      5  C   UNL A   1      33.662  25.997  22.789  1.00  0.00     0.251 C 
ATOM      6  O   UNL A   1      33.889  26.296  21.614  1.00  0.00    -0.269 OA
ATOM      7  H   UNL A   1      33.333  27.907  23.177  1.00  0.00     0.163 HD
BRANCH   5   8
ATOM      8  C   UNL A   1      33.694  24.558  23.188  1.00  0.00     0.041 A 
ATOM      9  C   UNL A   1      32.797  22.333  22.694  1.00  0.00     0.056 A 
ATOM     10  C   UNL A   1      32.886  23.701  22.422  1.00  0.00     0.041 A 
ATOM     11  C   UNL A   1      33.474  21.803  23.813  1.00  0.00     0.060 A 
ATOM     12  C   UNL A   1      34.299  22.646  24.562  1.00  0.00     0.029 A 
ATOM     13  C   UNL A   1      34.441  24.002  24.225  1.00  0.00     0.016 A 
BRANCH   9  14
ATOM     14  N   UNL A   1      31.884  21.568  21.965  1.00  0.00    -0.397 N 
ATOM     15  H   UNL A   1      32.048  21.379  21.012  1.00  0.00     0.156 HD
ATOM     16  H   UNL A   1      31.075  21.217  22.404  1.00  0.00     0.156 HD
ENDBRANCH   9  14
BRANCH  11  17
ATOM     17  N   UNL A   1      33.287  20.464  24.178  1.00  0.00    -0.369 N 
ATOM     18  C   UNL A   1      34.216  19.496  24.657  1.00  0.00     0.125 C 
ATOM     19  C   UNL A   1      32.147  19.752  24.653  1.00  0.00     0.125 C 
ATOM     20  C   UNL A   1      33.041  18.484  24.557  1.00  0.00     0.010 C 
ATOM     21  C   UNL A   1      32.907  17.466  25.685  1.00  0.00     0.039 C 
ATOM     22  C   UNL A   1      32.946  17.768  23.196  1.00  0.00     0.039 C 
ATOM     23  C   UNL A   1      33.962  16.380  25.493  1.00  0.00     0.161 C 
ATOM     24  C   UNL A   1      34.010  16.679  23.142  1.00  0.00     0.161 C 
ATOM     25  O   UNL A   1      33.818  15.753  24.215  1.00  0.00    -0.381 OA
ENDBRANCH  11  17
ENDBRANCH   5   8
ENDBRANCH   3   4
ENDBRANCH   2   3
ENDBRANCH   1   2
BRANCH   1  26
ATOM     26  N   UNL A   1      33.584  29.775  27.348  1.00  0.00    -0.352 N 
ATOM     27  C   UNL A   1      34.466  30.628  27.959  1.00  0.00     0.251 C 
ATOM     28  H   UNL A   1      32.794  30.209  26.948  1.00  0.00     0.163 HD
ATOM     29  O   UNL A   1      34.115  31.779  28.204  1.00  0.00    -0.269 OA
BRANCH  27  30
ATOM     30  C   UNL A   1      35.826  30.175  28.325  1.00  0.00     0.039 A 
ATOM     31  C   UNL A   1      36.829  30.199  27.351  1.00  0.00     0.014 A 
ATOM     32  C   UNL A   1      36.102  29.673  29.600  1.00  0.00     0.014 A 
ATOM     33  C   UNL A   1      38.117  29.764  27.668  1.00  0.00     0.010 A 
ATOM     34  C   UNL A   1      37.402  29.300  29.934  1.00  0.00     0.010 A 
ATOM     35  C   UNL A   1      38.421  29.334  28.970  1.00  0.00    -0.014 A 
BRANCH  35  36
ATOM     36  C   UNL A   1      39.796  28.913  29.341  1.00  0.00     0.031 A 
ATOM     37  C   UNL A   1      40.715  29.868  30.056  1.00  0.00     0.074 A 
ATOM     38  C   UNL A   1      40.238  27.693  28.979  1.00  0.00     0.049 A 
ATOM     39  N   UNL A   1      41.968  29.709  30.396  1.00  0.00    -0.248 NA
ATOM     40  C   UNL A   1      40.158  31.183  30.413  1.00  0.00     0.031 C 
ATOM     41  C   UNL A   1      39.455  26.689  28.255  1.00  0.00     0.029 A 
ATOM     42  N   UNL A   1      41.458  27.091  29.163  1.00  0.00    -0.354 N 
ATOM     43  C   UNL A   1      42.356  30.905  30.989  1.00  0.00     0.074 A 
ATOM     44  C   UNL A   1      41.218  31.796  30.923  1.00  0.00     0.031 C 
ATOM     45  C   UNL A   1      40.205  25.590  28.077  1.00  0.00     0.029 A 
ATOM     46  C   UNL A   1      41.532  25.823  28.637  1.00  0.00     0.049 A 
ATOM     47  H   UNL A   1      42.208  27.526  29.628  1.00  0.00     0.167 HD
ATOM     48  C   UNL A   1      43.545  31.227  31.552  1.00  0.00     0.031 A 
ATOM     49  C   UNL A   1      42.557  24.949  28.600  1.00  0.00     0.031 A 
ATOM     50  C   UNL A   1      44.670  30.332  31.627  1.00  0.00     0.049 A 
ATOM     51  C   UNL A   1      43.869  25.331  29.227  1.00  0.00     0.074 A 
ATOM     52  C   UNL A   1      45.902  30.546  32.220  1.00  0.00     0.029 A 
ATOM     53  N   UNL A   1      44.700  29.053  31.092  1.00  0.00    -0.354 N 
ATOM     54  N   UNL A   1      44.199  26.449  29.828  1.00  0.00    -0.248 NA
ATOM     55  C   UNL A   1      44.942  24.330  29.179  1.00  0.00     0.031 C 
ATOM     56  C   UNL A   1      46.692  29.412  32.006  1.00  0.00     0.029 A 
ATOM     57  C   UNL A   1      45.935  28.472  31.326  1.00  0.00     0.049 A 
ATOM     58  H   UNL A   1      43.954  28.621  30.617  1.00  0.00     0.167 HD
ATOM     59  C   UNL A   1      45.511  26.275  30.254  1.00  0.00     0.074 A 
ATOM     60  C   UNL A   1      45.909  24.941  29.852  1.00  0.00     0.031 C 
ATOM     61  C   UNL A   1      46.314  27.143  30.919  1.00  0.00     0.031 A 
BRANCH  48  62
ATOM     62  C   UNL A   1      43.690  32.611  32.129  1.00  0.00    -0.014 A 
ATOM     63  C   UNL A   1      44.066  33.699  31.320  1.00  0.00     0.010 A 
ATOM     64  C   UNL A   1      43.412  32.836  33.490  1.00  0.00     0.010 A 
ATOM     65  C   UNL A   1      44.206  34.977  31.868  1.00  0.00     0.020 A 
ATOM     66  C   UNL A   1      43.523  34.119  34.037  1.00  0.00     0.020 A 
ATOM     67  C   UNL A   1      43.937  35.177  33.226  1.00  0.00     0.054 A 
BRANCH  67  68
ATOM     68  S   UNL A   1      44.109  36.848  33.909  1.00  0.00     0.124 S 
ATOM     69  O   UNL A   1      44.501  36.570  35.289  1.00  0.00    -0.237 OA
ATOM     70  O   UNL A   1      45.150  37.434  33.068  1.00  0.00    -0.237 OA
ATOM     71  O   UNL A   1      42.779  37.430  33.745  1.00  0.00    -0.744 OA
ENDBRANCH  67  68
ENDBRANCH  48  62
BRANCH  49  72
ATOM     72  C   UNL A   1      42.371  23.616  27.963  1.00  0.00    -0.014 A 
ATOM     73  C   UNL A   1      42.907  23.355  26.691  1.00  0.00     0.010 A 
ATOM     74  C   UNL A   1      41.673  22.596  28.636  1.00  0.00     0.010 A 
ATOM     75  C   UNL A   1      42.738  22.102  26.095  1.00  0.00     0.020 A 
ATOM     76  C   UNL A   1      41.524  21.333  28.054  1.00  0.00     0.020 A 
ATOM     77  C   UNL A   1      42.049  21.098  26.781  1.00  0.00     0.054 A 
BRANCH  77  78
ATOM     78  S   UNL A   1      41.889  19.463  26.013  1.00  0.00     0.124 S 
ATOM     79  O   UNL A   1      40.458  19.393  25.741  1.00  0.00    -0.237 OA
ATOM     80  O   UNL A   1      42.753  19.578  24.840  1.00  0.00    -0.237 OA
ATOM     81  O   UNL A   1      42.377  18.551  27.046  1.00  0.00    -0.744 OA
ENDBRANCH  77  78
ENDBRANCH  49  72
BRANCH  61  82
ATOM     82  C   UNL A   1      47.693  26.665  31.284  1.00  0.00    -0.014 A 
ATOM     83  C   UNL A   1      47.932  25.982  32.490  1.00  0.00     0.010 A 
ATOM     84  C   UNL A   1      48.754  26.854  30.379  1.00  0.00     0.010 A 
ATOM     85  C   UNL A   1      49.216  25.524  32.797  1.00  0.00     0.020 A 
ATOM     86  C   UNL A   1      50.032  26.375  30.672  1.00  0.00     0.020 A 
ATOM     87  C   UNL A   1      50.258  25.724  31.886  1.00  0.00     0.054 A 
BRANCH  87  88
ATOM     88  S   UNL A   1      51.906  25.079  32.288  1.00  0.00     0.124 S 
ATOM     89  O   UNL A   1      52.718  25.628  31.207  1.00  0.00    -0.237 OA
ATOM     90  O   UNL A   1      52.157  25.643  33.613  1.00  0.00    -0.237 OA
ATOM     91  O   UNL A   1      51.725  23.629  32.259  1.00  0.00    -0.744 OA
ENDBRANCH  87  88
ENDBRANCH  61  82
ENDBRANCH  35  36
ENDBRANCH  27  30
ENDBRANCH   1  26
TORSDOF 15
ENDMDL
MODEL 2
REMARK VINA RESULT:     -11.7      2.298      2.904
REMARK SMILES Nc1cc(C(=O)NCCCNC(=O)c2ccc(-c3c4nc(c(-c5ccc(S(=O)(=O)[O-])cc5)c5ccc([nH]5)c(-c5ccc(S(=O)(=O)[O-])cc5)c5nc(c(-c6ccc(S(=O)(=O)[O-])cc6)c6ccc3[nH]6)C=C5)C=C4)cc2)ccc1N1CC2(CCOCC2)C1
REMARK SMILES IDX 10 1 9 2 8 3 7 4 5 5 6 6 4 8 2 9 3 10 76 11 75 12 74 13 1 14
REMARK SMILES IDX 77 17 78 18 85 19 79 20 80 21 84 22 81 23 83 24 82 25 11 26
REMARK SMILES IDX 12 27 13 29 14 30 15 31 73 32 16 33 72 34 17 35 18 36 19 37
REMARK SMILES IDX 66 38 20 39 71 40 65 41 67 42 21 43 70 44 64 45 63 46 22 48
REMARK SMILES IDX 52 49 33 50 51 51 34 52 37 53 50 54 68 55 35 56 36 57 49 59
REMARK SMILES IDX 69 60 38 61 23 62 24 63 32 64 25 65 31 66 26 67 27 68 28 69
REMARK SMILES IDX 29 70 30 71 53 72 54 73 62 74 55 75 61 76 56 77 57 78 58 79
REMARK SMILES IDX 59 80 60 81 39 82 40 83 48 84 41 85 47 86 42 87 43 88 44 89
REMARK SMILES IDX 45 90 46 91
REMARK H PARENT 7 7 1 15 1 16 11 28 67 47 37 58
REMARK Flexibility Score: inf
ROOT
ATOM      1  C   UNL A   1      34.174  28.741  25.816  1.00  0.00     0.118 C 
ENDROOT
BRANCH   1   2
ATOM      2  C   UNL A   1      33.213  27.650  26.291  1.00  0.00     0.042 C 
BRANCH   2   3
ATOM      3  C   UNL A   1      32.288  27.144  25.185  1.00  0.00     0.118 C 
BRANCH   3   4
ATOM      4  N   UNL A   1      32.960  27.156  23.902  1.00  0.00    -0.352 N 
ATOM      5  C   UNL A   1      33.563  26.188  23.147  1.00  0.00     0.251 C 
ATOM      6  O   UNL A   1      34.055  26.558  22.078  1.00  0.00    -0.269 OA
ATOM      7  H   UNL A   1      32.991  28.049  23.488  1.00  0.00     0.163 HD
BRANCH   5   8
ATOM      8  C   UNL A   1      33.608  24.739  23.501  1.00  0.00     0.041 A 
ATOM      9  C   UNL A   1      32.880  22.498  22.830  1.00  0.00     0.056 A 
ATOM     10  C   UNL A   1      32.941  23.878  22.614  1.00  0.00     0.041 A 
ATOM     11  C   UNL A   1      33.436  21.956  24.008  1.00  0.00     0.060 A 
ATOM     12  C   UNL A   1      34.124  22.804  24.880  1.00  0.00     0.029 A 
ATOM     13  C   UNL A   1      34.246  24.175  24.606  1.00  0.00     0.016 A 
BRANCH   9  14
ATOM     14  N   UNL A   1      32.099  21.724  21.969  1.00  0.00    -0.397 N 
ATOM     15  H   UNL A   1      31.882  22.055  21.068  1.00  0.00     0.156 HD
ATOM     16  H   UNL A   1      31.764  20.846  22.265  1.00  0.00     0.156 HD
ENDBRANCH   9  14
BRANCH  11  17
ATOM     17  N   UNL A   1      33.265  20.598  24.305  1.00  0.00    -0.369 N 
ATOM     18  C   UNL A   1      34.216  19.605  24.680  1.00  0.00     0.125 C 
ATOM     19  C   UNL A   1      32.149  19.858  24.796  1.00  0.00     0.125 C 
ATOM     20  C   UNL A   1      33.035  18.599  24.583  1.00  0.00     0.010 C 
ATOM     21  C   UNL A   1      32.956  17.519  25.656  1.00  0.00     0.039 C 
ATOM     22  C   UNL A   1      32.869  17.962  23.189  1.00  0.00     0.039 C 
ATOM     23  C   UNL A   1      33.998  16.446  25.349  1.00  0.00     0.161 C 
ATOM     24  C   UNL A   1      33.926  16.878  23.019  1.00  0.00     0.161 C 
ATOM     25  O   UNL A   1      33.788  15.893  24.045  1.00  0.00    -0.381 OA
ENDBRANCH  11  17
ENDBRANCH   5   8
ENDBRANCH   3   4
ENDBRANCH   2   3
ENDBRANCH   1   2
BRANCH   1  26
ATOM     26  N   UNL A   1      33.792  30.054  26.320  1.00  0.00    -0.352 N 
ATOM     27  C   UNL A   1      34.259  30.756  27.401  1.00  0.00     0.251 C 
ATOM     28  H   UNL A   1      33.089  30.508  25.800  1.00  0.00     0.163 HD
ATOM     29  O   UNL A   1      33.626  31.728  27.803  1.00  0.00    -0.269 OA
BRANCH  27  30
ATOM     30  C   UNL A   1      35.509  30.352  28.083  1.00  0.00     0.039 A 
ATOM     31  C   UNL A   1      36.733  30.754  27.539  1.00  0.00     0.014 A 
ATOM     32  C   UNL A   1      35.483  29.534  29.216  1.00  0.00     0.014 A 
ATOM     33  C   UNL A   1      37.926  30.374  28.157  1.00  0.00     0.010 A 
ATOM     34  C   UNL A   1      36.671  29.210  29.867  1.00  0.00     0.010 A 
ATOM     35  C   UNL A   1      37.905  29.620  29.340  1.00  0.00    -0.014 A 
BRANCH  35  36
ATOM     36  C   UNL A   1      39.160  29.247  30.040  1.00  0.00     0.031 A 
ATOM     37  C   UNL A   1      39.588  29.989  31.278  1.00  0.00     0.074 A 
ATOM     38  C   UNL A   1      39.947  28.283  29.524  1.00  0.00     0.049 A 
ATOM     39  N   UNL A   1      40.683  29.858  31.982  1.00  0.00    -0.248 NA
ATOM     40  C   UNL A   1      38.676  31.032  31.776  1.00  0.00     0.031 C 
ATOM     41  C   UNL A   1      39.659  27.513  28.311  1.00  0.00     0.029 A 
ATOM     42  N   UNL A   1      41.155  27.789  29.949  1.00  0.00    -0.354 N 
ATOM     43  C   UNL A   1      40.602  30.810  32.992  1.00  0.00     0.074 A 
ATOM     44  C   UNL A   1      39.371  31.541  32.784  1.00  0.00     0.031 C 
ATOM     45  C   UNL A   1      40.649  26.630  28.104  1.00  0.00     0.029 A 
ATOM     46  C   UNL A   1      41.661  26.797  29.143  1.00  0.00     0.049 A 
ATOM     47  H   UNL A   1      41.616  28.115  30.756  1.00  0.00     0.167 HD
ATOM     48  C   UNL A   1      41.465  31.043  34.010  1.00  0.00     0.031 A 
ATOM     49  C   UNL A   1      42.814  26.105  29.224  1.00  0.00     0.031 A 
ATOM     50  C   UNL A   1      42.682  30.304  34.219  1.00  0.00     0.049 A 
ATOM     51  C   UNL A   1      43.759  26.386  30.359  1.00  0.00     0.074 A 
ATOM     52  C   UNL A   1      43.600  30.431  35.248  1.00  0.00     0.029 A 
ATOM     53  N   UNL A   1      43.152  29.300  33.386  1.00  0.00    -0.354 N 
ATOM     54  N   UNL A   1      43.639  27.255  31.334  1.00  0.00    -0.248 NA
ATOM     55  C   UNL A   1      44.988  25.585  30.411  1.00  0.00     0.031 C 
ATOM     56  C   UNL A   1      44.646  29.533  35.013  1.00  0.00     0.029 A 
ATOM     57  C   UNL A   1      44.355  28.810  33.867  1.00  0.00     0.049 A 
ATOM     58  H   UNL A   1      42.697  28.982  32.573  1.00  0.00     0.167 HD
ATOM     59  C   UNL A   1      44.766  27.088  32.130  1.00  0.00     0.074 A 
ATOM     60  C   UNL A   1      45.548  26.026  31.530  1.00  0.00     0.031 C 
ATOM     61  C   UNL A   1      45.120  27.753  33.258  1.00  0.00     0.031 A 
BRANCH  48  62
ATOM     62  C   UNL A   1      41.123  32.150  34.973  1.00  0.00    -0.014 A 
ATOM     63  C   UNL A   1      40.380  31.892  36.140  1.00  0.00     0.010 A 
ATOM     64  C   UNL A   1      41.578  33.458  34.728  1.00  0.00     0.010 A 
ATOM     65  C   UNL A   1      40.061  32.929  37.021  1.00  0.00     0.020 A 
ATOM     66  C   UNL A   1      41.284  34.494  35.622  1.00  0.00     0.020 A 
ATOM     67  C   UNL A   1      40.511  34.225  36.753  1.00  0.00     0.054 A 
BRANCH  67  68
ATOM     68  S   UNL A   1      40.098  35.548  37.922  1.00  0.00     0.124 S 
ATOM     69  O   UNL A   1      39.885  36.684  37.027  1.00  0.00    -0.237 OA
ATOM     70  O   UNL A   1      38.899  35.035  38.579  1.00  0.00    -0.237 OA
ATOM     71  O   UNL A   1      41.280  35.642  38.775  1.00  0.00    -0.744 OA
ENDBRANCH  67  68
ENDBRANCH  48  62
BRANCH  49  72
ATOM     72  C   UNL A   1      43.126  25.063  28.208  1.00  0.00    -0.014 A 
ATOM     73  C   UNL A   1      43.869  25.388  27.060  1.00  0.00     0.010 A 
ATOM     74  C   UNL A   1      42.697  23.736  28.393  1.00  0.00     0.010 A 
ATOM     75  C   UNL A   1      44.167  24.409  26.108  1.00  0.00     0.020 A 
ATOM     76  C   UNL A   1      43.014  22.748  27.456  1.00  0.00     0.020 A 
ATOM     77  C   UNL A   1      43.739  23.094  26.313  1.00  0.00     0.054 A 
BRANCH  77  78
ATOM     78  S   UNL A   1      44.184  21.828  25.093  1.00  0.00     0.124 S 
ATOM     79  O   UNL A   1      43.179  20.800  25.340  1.00  0.00    -0.237 OA
ATOM     80  O   UNL A   1      44.057  22.549  23.828  1.00  0.00    -0.237 OA
ATOM     81  O   UNL A   1      45.553  21.468  25.459  1.00  0.00    -0.744 OA
ENDBRANCH  77  78
ENDBRANCH  49  72
BRANCH  61  82
ATOM     82  C   UNL A   1      46.394  27.329  33.937  1.00  0.00    -0.014 A 
ATOM     83  C   UNL A   1      47.618  27.956  33.645  1.00  0.00     0.010 A 
ATOM     84  C   UNL A   1      46.353  26.326  34.922  1.00  0.00     0.010 A 
ATOM     85  C   UNL A   1      48.785  27.564  34.308  1.00  0.00     0.020 A 
ATOM     86  C   UNL A   1      47.512  25.950  35.604  1.00  0.00     0.020 A 
ATOM     87  C   UNL A   1      48.724  26.562  35.282  1.00  0.00     0.054 A 
BRANCH  87  88
ATOM     88  S   UNL A   1      50.245  26.104  36.159  1.00  0.00     0.124 S 
ATOM     89  O   UNL A   1      49.737  25.226  37.208  1.00  0.00    -0.237 OA
ATOM     90  O   UNL A   1      51.033  25.449  35.117  1.00  0.00    -0.237 OA
ATOM     91  O   UNL A   1      50.777  27.385  36.621  1.00  0.00    -0.744 OA
ENDBRANCH  87  88
ENDBRANCH  61  82
ENDBRANCH  35  36
ENDBRANCH  27  30
ENDBRANCH   1  26
TORSDOF 15
ENDMDL
MODEL 3
REMARK VINA RESULT:     -11.6      3.144      9.886
REMARK SMILES Nc1cc(C(=O)NCCCNC(=O)c2ccc(-c3c4nc(c(-c5ccc(S(=O)(=O)[O-])cc5)c5ccc([nH]5)c(-c5ccc(S(=O)(=O)[O-])cc5)c5nc(c(-c6ccc(S(=O)(=O)[O-])cc6)c6ccc3[nH]6)C=C5)C=C4)cc2)ccc1N1CC2(CCOCC2)C1
REMARK SMILES IDX 10 1 9 2 8 3 7 4 5 5 6 6 4 8 2 9 3 10 76 11 75 12 74 13 1 14
REMARK SMILES IDX 77 17 78 18 85 19 79 20 80 21 84 22 81 23 83 24 82 25 11 26
REMARK SMILES IDX 12 27 13 29 14 30 15 31 73 32 16 33 72 34 17 35 18 36 19 37
REMARK SMILES IDX 66 38 20 39 71 40 65 41 67 42 21 43 70 44 64 45 63 46 22 48
REMARK SMILES IDX 52 49 33 50 51 51 34 52 37 53 50 54 68 55 35 56 36 57 49 59
REMARK SMILES IDX 69 60 38 61 23 62 24 63 32 64 25 65 31 66 26 67 27 68 28 69
REMARK SMILES IDX 29 70 30 71 53 72 54 73 62 74 55 75 61 76 56 77 57 78 58 79
REMARK SMILES IDX 59 80 60 81 39 82 40 83 48 84 41 85 47 86 42 87 43 88 44 89
REMARK SMILES IDX 45 90 46 91
REMARK H PARENT 7 7 1 15 1 16 11 28 67 47 37 58
REMARK Flexibility Score: inf
ROOT
ATOM      1  C   UNL A   1      36.733  23.897  25.305  1.00  0.00     0.118 C 
ENDROOT
BRANCH   1   2
ATOM      2  C   UNL A   1      35.748  23.406  24.244  1.00  0.00     0.042 C 
BRANCH   2   3
ATOM      3  C   UNL A   1      34.419  22.934  24.833  1.00  0.00     0.118 C 
BRANCH   3   4
ATOM      4  N   UNL A   1      33.645  22.208  23.847  1.00  0.00    -0.352 N 
ATOM      5  C   UNL A   1      32.532  22.515  23.114  1.00  0.00     0.251 C 
ATOM      6  O   UNL A   1      32.122  21.636  22.351  1.00  0.00    -0.269 OA
ATOM      7  H   UNL A   1      33.993  21.304  23.668  1.00  0.00     0.163 HD
BRANCH   5   8
ATOM      8  C   UNL A   1      31.834  23.834  23.137  1.00  0.00     0.041 A 
ATOM      9  C   UNL A   1      31.857  26.118  22.251  1.00  0.00     0.056 A 
ATOM     10  C   UNL A   1      32.390  24.827  22.313  1.00  0.00     0.041 A 
ATOM     11  C   UNL A   1      30.779  26.464  23.092  1.00  0.00     0.060 A 
ATOM     12  C   UNL A   1      30.205  25.473  23.894  1.00  0.00     0.029 A 
ATOM     13  C   UNL A   1      30.702  24.160  23.883  1.00  0.00     0.016 A 
BRANCH   9  14
ATOM     14  N   UNL A   1      32.535  27.082  21.501  1.00  0.00    -0.397 N 
ATOM     15  H   UNL A   1      33.000  26.825  20.672  1.00  0.00     0.156 HD
ATOM     16  H   UNL A   1      32.548  28.020  21.802  1.00  0.00     0.156 HD
ENDBRANCH   9  14
BRANCH  11  17
ATOM     17  N   UNL A   1      30.322  27.787  23.141  1.00  0.00    -0.369 N 
ATOM     18  C   UNL A   1      29.000  28.307  23.259  1.00  0.00     0.125 C 
ATOM     19  C   UNL A   1      30.944  29.000  23.558  1.00  0.00     0.125 C 
ATOM     20  C   UNL A   1      29.653  29.703  23.055  1.00  0.00     0.010 C 
ATOM     21  C   UNL A   1      29.120  30.847  23.909  1.00  0.00     0.039 C 
ATOM     22  C   UNL A   1      29.731  30.146  21.581  1.00  0.00     0.039 C 
ATOM     23  C   UNL A   1      27.779  31.303  23.339  1.00  0.00     0.161 C 
ATOM     24  C   UNL A   1      28.353  30.624  21.141  1.00  0.00     0.161 C 
ATOM     25  O   UNL A   1      27.920  31.704  21.972  1.00  0.00    -0.381 OA
ENDBRANCH  11  17
ENDBRANCH   5   8
ENDBRANCH   3   4
ENDBRANCH   2   3
ENDBRANCH   1   2
BRANCH   1  26
ATOM     26  N   UNL A   1      37.726  22.882  25.631  1.00  0.00    -0.352 N 
ATOM     27  C   UNL A   1      38.972  23.012  26.189  1.00  0.00     0.251 C 
ATOM     28  H   UNL A   1      37.460  21.958  25.417  1.00  0.00     0.163 HD
ATOM     29  O   UNL A   1      39.751  22.064  26.142  1.00  0.00    -0.269 OA
BRANCH  27  30
ATOM     30  C   UNL A   1      39.382  24.275  26.841  1.00  0.00     0.039 A 
ATOM     31  C   UNL A   1      38.982  24.513  28.160  1.00  0.00     0.014 A 
ATOM     32  C   UNL A   1      40.102  25.249  26.143  1.00  0.00     0.014 A 
ATOM     33  C   UNL A   1      39.345  25.704  28.792  1.00  0.00     0.010 A 
ATOM     34  C   UNL A   1      40.517  26.407  26.795  1.00  0.00     0.010 A 
ATOM     35  C   UNL A   1      40.137  26.651  28.123  1.00  0.00    -0.014 A 
BRANCH  35  36
ATOM     36  C   UNL A   1      40.574  27.902  28.794  1.00  0.00     0.031 A 
ATOM     37  C   UNL A   1      41.948  27.997  29.400  1.00  0.00     0.074 A 
ATOM     38  C   UNL A   1      39.710  28.929  28.911  1.00  0.00     0.049 A 
ATOM     39  N   UNL A   1      42.481  28.974  30.087  1.00  0.00    -0.248 NA
ATOM     40  C   UNL A   1      42.831  26.830  29.233  1.00  0.00     0.031 C 
ATOM     41  C   UNL A   1      38.340  28.947  28.395  1.00  0.00     0.029 A 
ATOM     42  N   UNL A   1      39.854  30.156  29.510  1.00  0.00    -0.354 N 
ATOM     43  C   UNL A   1      43.751  28.537  30.450  1.00  0.00     0.074 A 
ATOM     44  C   UNL A   1      43.891  27.188  29.944  1.00  0.00     0.031 C 
ATOM     45  C   UNL A   1      37.778  30.133  28.678  1.00  0.00     0.029 A 
ATOM     46  C   UNL A   1      38.730  30.944  29.431  1.00  0.00     0.049 A 
ATOM     47  H   UNL A   1      40.683  30.444  29.955  1.00  0.00     0.167 HD
ATOM     48  C   UNL A   1      44.716  29.202  31.127  1.00  0.00     0.031 A 
ATOM     49  C   UNL A   1      38.489  32.177  29.916  1.00  0.00     0.031 A 
ATOM     50  C   UNL A   1      44.576  30.548  31.617  1.00  0.00     0.049 A 
ATOM     51  C   UNL A   1      39.575  32.893  30.670  1.00  0.00     0.074 A 
ATOM     52  C   UNL A   1      45.513  31.327  32.273  1.00  0.00     0.029 A 
ATOM     53  N   UNL A   1      43.426  31.314  31.505  1.00  0.00    -0.354 N 
ATOM     54  N   UNL A   1      40.786  32.481  30.957  1.00  0.00    -0.248 NA
ATOM     55  C   UNL A   1      39.264  34.244  31.155  1.00  0.00     0.031 C 
ATOM     56  C   UNL A   1      44.916  32.550  32.595  1.00  0.00     0.029 A 
ATOM     57  C   UNL A   1      43.624  32.552  32.095  1.00  0.00     0.049 A 
ATOM     58  H   UNL A   1      42.592  31.022  31.071  1.00  0.00     0.167 HD
ATOM     59  C   UNL A   1      41.392  33.533  31.635  1.00  0.00     0.074 A 
ATOM     60  C   UNL A   1      40.418  34.603  31.703  1.00  0.00     0.031 C 
ATOM     61  C   UNL A   1      42.643  33.606  32.153  1.00  0.00     0.031 A 
BRANCH  48  62
ATOM     62  C   UNL A   1      46.012  28.477  31.382  1.00  0.00    -0.014 A 
ATOM     63  C   UNL A   1      47.093  28.587  30.488  1.00  0.00     0.010 A 
ATOM     64  C   UNL A   1      46.166  27.704  32.548  1.00  0.00     0.010 A 
ATOM     65  C   UNL A   1      48.287  27.902  30.731  1.00  0.00     0.020 A 
ATOM     66  C   UNL A   1      47.369  27.040  32.808  1.00  0.00     0.020 A 
ATOM     67  C   UNL A   1      48.416  27.128  31.888  1.00  0.00     0.054 A 
BRANCH  67  68
ATOM     68  S   UNL A   1      49.981  26.265  32.188  1.00  0.00     0.124 S 
ATOM     69  O   UNL A   1      49.662  24.905  31.756  1.00  0.00    -0.237 OA
ATOM     70  O   UNL A   1      50.918  26.990  31.333  1.00  0.00    -0.237 OA
ATOM     71  O   UNL A   1      50.199  26.426  33.623  1.00  0.00    -0.744 OA
ENDBRANCH  67  68
ENDBRANCH  48  62
BRANCH  49  72
ATOM     72  C   UNL A   1      37.166  32.820  29.683  1.00  0.00    -0.014 A 
ATOM     73  C   UNL A   1      36.164  32.761  30.665  1.00  0.00     0.010 A 
ATOM     74  C   UNL A   1      36.911  33.511  28.484  1.00  0.00     0.010 A 
ATOM     75  C   UNL A   1      34.923  33.368  30.449  1.00  0.00     0.020 A 
ATOM     76  C   UNL A   1      35.681  34.142  28.274  1.00  0.00     0.020 A 
ATOM     77  C   UNL A   1      34.691  34.057  29.256  1.00  0.00     0.054 A 
BRANCH  77  78
ATOM     78  S   UNL A   1      33.095  34.886  29.019  1.00  0.00     0.124 S 
ATOM     79  O   UNL A   1      32.524  34.835  30.361  1.00  0.00    -0.237 OA
ATOM     80  O   UNL A   1      33.492  36.211  28.549  1.00  0.00    -0.237 OA
ATOM     81  O   UNL A   1      32.424  34.056  28.020  1.00  0.00    -0.744 OA
ENDBRANCH  77  78
ENDBRANCH  49  72
BRANCH  61  82
ATOM     82  C   UNL A   1      43.043  34.899  32.810  1.00  0.00    -0.014 A 
ATOM     83  C   UNL A   1      42.861  35.102  34.189  1.00  0.00     0.010 A 
ATOM     84  C   UNL A   1      43.662  35.903  32.043  1.00  0.00     0.010 A 
ATOM     85  C   UNL A   1      43.264  36.301  34.784  1.00  0.00     0.020 A 
ATOM     86  C   UNL A   1      44.089  37.091  32.639  1.00  0.00     0.020 A 
ATOM     87  C   UNL A   1      43.875  37.289  34.004  1.00  0.00     0.054 A 
BRANCH  87  88
ATOM     88  S   UNL A   1      44.430  38.817  34.808  1.00  0.00     0.124 S 
ATOM     89  O   UNL A   1      44.182  38.526  36.217  1.00  0.00    -0.237 OA
ATOM     90  O   UNL A   1      45.837  38.893  34.419  1.00  0.00    -0.237 OA
ATOM     91  O   UNL A   1      43.572  39.847  34.224  1.00  0.00    -0.744 OA
ENDBRANCH  87  88
ENDBRANCH  61  82
ENDBRANCH  35  36
ENDBRANCH  27  30
ENDBRANCH   1  26
TORSDOF 15
ENDMDL
