MODEL 1
REMARK VINA RESULT:     -11.9      0.000      0.000
REMARK SMILES CNC(=O)[C@H](C)S(=O)(=O)c1cc(C(=O)NCCCNC(=O)c2ccc(-c3c4nc(c(-c5ccc(S(=O)(=O)[O-])cc5)c5ccc([nH]5)c(-c5ccc(S(=O)(=O)[O-])cc5)c5nc(c(-c6ccc(S(=O)(=O)[O-])cc6)c6ccc3[nH]6)C=C5)C=C4)cc2)c(C)cc1C
REMARK SMILES IDX 17 1 16 2 15 3 13 4 14 5 12 7 10 8 11 9 85 10 84 11 86 12
REMARK SMILES IDX 82 13 83 14 7 15 8 16 9 17 5 18 6 19 3 20 1 21 2 22 4 24
REMARK SMILES IDX 18 25 19 26 20 27 21 29 22 30 23 31 81 32 24 33 80 34 25 35
REMARK SMILES IDX 26 36 27 37 74 38 28 39 79 40 73 41 75 42 29 43 78 44 72 45
REMARK SMILES IDX 71 46 30 48 60 49 41 50 59 51 42 52 45 53 58 54 76 55 43 56
REMARK SMILES IDX 44 57 57 59 77 60 46 61 31 62 32 63 40 64 33 65 39 66 34 67
REMARK SMILES IDX 35 68 36 69 37 70 38 71 61 72 62 73 70 74 63 75 69 76 64 77
REMARK SMILES IDX 65 78 66 79 67 80 68 81 47 82 48 83 56 84 49 85 55 86 50 87
REMARK SMILES IDX 51 88 52 89 53 90 54 91
REMARK H PARENT 15 6 2 23 19 28 75 47 45 58
REMARK Flexibility Score: inf
ROOT
ATOM      1  C   UNL A   1      37.618  23.762  25.569  1.00  0.00     0.042 C 
ENDROOT
BRANCH   1   2
ATOM      2  C   UNL A   1      36.806  22.473  25.412  1.00  0.00     0.118 C 
BRANCH   2   3
ATOM      3  N   UNL A   1      35.883  22.325  26.523  1.00  0.00    -0.352 N 
ATOM      4  C   UNL A   1      34.622  22.798  26.780  1.00  0.00     0.251 C 
ATOM      5  O   UNL A   1      34.147  22.520  27.884  1.00  0.00    -0.269 OA
ATOM      6  H   UNL A   1      36.240  21.764  27.249  1.00  0.00     0.163 HD
BRANCH   4   7
ATOM      7  C   UNL A   1      33.749  23.515  25.800  1.00  0.00     0.044 A 
ATOM      8  C   UNL A   1      33.020  25.775  25.112  1.00  0.00     0.071 A 
ATOM      9  C   UNL A   1      33.722  24.915  25.980  1.00  0.00     0.034 A 
ATOM     10  C   UNL A   1      32.192  25.231  24.126  1.00  0.00    -0.032 A 
ATOM     11  C   UNL A   1      32.269  23.844  23.914  1.00  0.00     0.009 A 
ATOM     12  C   UNL A   1      31.280  25.976  23.193  1.00  0.00     0.046 C 
ATOM     13  C   UNL A   1      33.099  22.995  24.675  1.00  0.00    -0.038 A 
ATOM     14  C   UNL A   1      33.282  21.613  24.131  1.00  0.00     0.045 C 
BRANCH   8  15
ATOM     15  S   UNL A   1      33.274  27.532  25.344  1.00  0.00     0.190 S 
ATOM     16  O   UNL A   1      33.541  28.102  24.031  1.00  0.00    -0.223 OA
ATOM     17  O   UNL A   1      34.291  27.713  26.362  1.00  0.00    -0.223 OA
BRANCH  15  18
ATOM     18  C   UNL A   1      31.732  28.235  25.896  1.00  0.00     0.199 C 
ATOM     19  C   UNL A   1      31.483  27.977  27.384  1.00  0.00     0.036 C 
BRANCH  18  20
ATOM     20  C   UNL A   1      31.665  29.712  25.608  1.00  0.00     0.238 C 
ATOM     21  C   UNL A   1      30.277  29.483  23.488  1.00  0.00     0.142 C 
ATOM     22  N   UNL A   1      30.943  30.194  24.557  1.00  0.00    -0.358 N 
ATOM     23  H   UNL A   1      30.862  31.175  24.520  1.00  0.00     0.163 HD
ATOM     24  O   UNL A   1      32.219  30.541  26.333  1.00  0.00    -0.274 OA
ENDBRANCH  18  20
ENDBRANCH  15  18
ENDBRANCH   8  15
ENDBRANCH   4   7
ENDBRANCH   2   3
ENDBRANCH   1   2
BRANCH   1  25
ATOM     25  C   UNL A   1      38.634  23.733  26.705  1.00  0.00     0.118 C 
BRANCH  25  26
ATOM     26  N   UNL A   1      39.992  23.893  26.216  1.00  0.00    -0.352 N 
ATOM     27  C   UNL A   1      40.915  24.881  26.466  1.00  0.00     0.251 C 
ATOM     28  H   UNL A   1      40.301  23.182  25.610  1.00  0.00     0.163 HD
ATOM     29  O   UNL A   1      41.911  24.947  25.748  1.00  0.00    -0.269 OA
BRANCH  27  30
ATOM     30  C   UNL A   1      40.736  25.868  27.565  1.00  0.00     0.039 A 
ATOM     31  C   UNL A   1      41.664  26.909  27.683  1.00  0.00     0.014 A 
ATOM     32  C   UNL A   1      39.727  25.745  28.524  1.00  0.00     0.014 A 
ATOM     33  C   UNL A   1      41.560  27.834  28.727  1.00  0.00     0.010 A 
ATOM     34  C   UNL A   1      39.576  26.713  29.520  1.00  0.00     0.010 A 
ATOM     35  C   UNL A   1      40.503  27.758  29.647  1.00  0.00    -0.014 A 
BRANCH  35  36
ATOM     36  C   UNL A   1      40.376  28.742  30.757  1.00  0.00     0.031 A 
ATOM     37  C   UNL A   1      41.247  28.628  31.983  1.00  0.00     0.074 A 
ATOM     38  C   UNL A   1      39.448  29.717  30.688  1.00  0.00     0.049 A 
ATOM     39  N   UNL A   1      41.261  29.375  33.058  1.00  0.00    -0.248 NA
ATOM     40  C   UNL A   1      42.210  27.515  32.016  1.00  0.00     0.031 C 
ATOM     41  C   UNL A   1      38.507  29.913  29.583  1.00  0.00     0.029 A 
ATOM     42  N   UNL A   1      39.139  30.725  31.568  1.00  0.00    -0.354 N 
ATOM     43  C   UNL A   1      42.211  28.810  33.902  1.00  0.00     0.074 A 
ATOM     44  C   UNL A   1      42.723  27.634  33.232  1.00  0.00     0.031 C 
ATOM     45  C   UNL A   1      37.742  30.987  29.841  1.00  0.00     0.029 A 
ATOM     46  C   UNL A   1      38.118  31.539  31.139  1.00  0.00     0.049 A 
ATOM     47  H   UNL A   1      39.606  30.853  32.425  1.00  0.00     0.167 HD
ATOM     48  C   UNL A   1      42.634  29.236  35.117  1.00  0.00     0.031 A 
ATOM     49  C   UNL A   1      37.543  32.610  31.722  1.00  0.00     0.031 A 
ATOM     50  C   UNL A   1      42.146  30.418  35.776  1.00  0.00     0.049 A 
ATOM     51  C   UNL A   1      38.052  33.086  33.055  1.00  0.00     0.074 A 
ATOM     52  C   UNL A   1      42.565  30.971  36.974  1.00  0.00     0.029 A 
ATOM     53  N   UNL A   1      41.133  31.231  35.292  1.00  0.00    -0.354 N 
ATOM     54  N   UNL A   1      39.002  32.577  33.801  1.00  0.00    -0.248 NA
ATOM     55  C   UNL A   1      37.421  34.290  33.614  1.00  0.00     0.031 C 
ATOM     56  C   UNL A   1      41.775  32.098  37.235  1.00  0.00     0.029 A 
ATOM     57  C   UNL A   1      40.897  32.271  36.176  1.00  0.00     0.049 A 
ATOM     58  H   UNL A   1      40.651  31.090  34.445  1.00  0.00     0.167 HD
ATOM     59  C   UNL A   1      39.095  33.409  34.912  1.00  0.00     0.074 A 
ATOM     60  C   UNL A   1      38.117  34.463  34.730  1.00  0.00     0.031 C 
ATOM     61  C   UNL A   1      39.915  33.308  35.987  1.00  0.00     0.031 A 
BRANCH  48  62
ATOM     62  C   UNL A   1      43.681  28.408  35.818  1.00  0.00    -0.014 A 
ATOM     63  C   UNL A   1      43.320  27.367  36.692  1.00  0.00     0.010 A 
ATOM     64  C   UNL A   1      45.045  28.656  35.577  1.00  0.00     0.010 A 
ATOM     65  C   UNL A   1      44.302  26.623  37.351  1.00  0.00     0.020 A 
ATOM     66  C   UNL A   1      46.031  27.896  36.214  1.00  0.00     0.020 A 
ATOM     67  C   UNL A   1      45.652  26.897  37.113  1.00  0.00     0.054 A 
BRANCH  67  68
ATOM     68  S   UNL A   1      46.908  25.912  37.975  1.00  0.00     0.124 S 
ATOM     69  O   UNL A   1      48.144  26.565  37.552  1.00  0.00    -0.237 OA
ATOM     70  O   UNL A   1      46.552  26.093  39.380  1.00  0.00    -0.237 OA
ATOM     71  O   UNL A   1      46.706  24.562  37.454  1.00  0.00    -0.744 OA
ENDBRANCH  67  68
ENDBRANCH  48  62
BRANCH  49  72
ATOM     72  C   UNL A   1      36.433  33.318  31.029  1.00  0.00    -0.014 A 
ATOM     73  C   UNL A   1      35.170  33.428  31.636  1.00  0.00     0.010 A 
ATOM     74  C   UNL A   1      36.644  33.912  29.772  1.00  0.00     0.010 A 
ATOM     75  C   UNL A   1      34.134  34.114  30.995  1.00  0.00     0.020 A 
ATOM     76  C   UNL A   1      35.619  34.620  29.140  1.00  0.00     0.020 A 
ATOM     77  C   UNL A   1      34.366  34.710  29.752  1.00  0.00     0.054 A 
BRANCH  77  78
ATOM     78  S   UNL A   1      33.033  35.661  28.971  1.00  0.00     0.124 S 
ATOM     79  O   UNL A   1      33.776  36.678  28.235  1.00  0.00    -0.237 OA
ATOM     80  O   UNL A   1      32.360  34.653  28.154  1.00  0.00    -0.237 OA
ATOM     81  O   UNL A   1      32.254  36.151  30.106  1.00  0.00    -0.744 OA
ENDBRANCH  77  78
ENDBRANCH  49  72
BRANCH  61  82
ATOM     82  C   UNL A   1      39.805  34.376  37.041  1.00  0.00    -0.014 A 
ATOM     83  C   UNL A   1      39.039  34.170  38.202  1.00  0.00     0.010 A 
ATOM     84  C   UNL A   1      40.509  35.583  36.885  1.00  0.00     0.010 A 
ATOM     85  C   UNL A   1      38.952  35.171  39.175  1.00  0.00     0.020 A 
ATOM     86  C   UNL A   1      40.443  36.575  37.867  1.00  0.00     0.020 A 
ATOM     87  C   UNL A   1      39.650  36.369  38.998  1.00  0.00     0.054 A 
BRANCH  87  88
ATOM     88  S   UNL A   1      39.549  37.641  40.288  1.00  0.00     0.124 S 
ATOM     89  O   UNL A   1      38.878  36.923  41.368  1.00  0.00    -0.237 OA
ATOM     90  O   UNL A   1      40.951  37.970  40.529  1.00  0.00    -0.237 OA
ATOM     91  O   UNL A   1      38.764  38.704  39.664  1.00  0.00    -0.744 OA
ENDBRANCH  87  88
ENDBRANCH  61  82
ENDBRANCH  35  36
ENDBRANCH  27  30
ENDBRANCH  25  26
ENDBRANCH   1  25
TORSDOF 16
ENDMDL
MODEL 2
REMARK VINA RESULT:     -11.5      6.317     11.965
REMARK SMILES CNC(=O)[C@H](C)S(=O)(=O)c1cc(C(=O)NCCCNC(=O)c2ccc(-c3c4nc(c(-c5ccc(S(=O)(=O)[O-])cc5)c5ccc([nH]5)c(-c5ccc(S(=O)(=O)[O-])cc5)c5nc(c(-c6ccc(S(=O)(=O)[O-])cc6)c6ccc3[nH]6)C=C5)C=C4)cc2)c(C)cc1C
REMARK SMILES IDX 17 1 16 2 15 3 13 4 14 5 12 7 10 8 11 9 85 10 84 11 86 12
REMARK SMILES IDX 82 13 83 14 7 15 8 16 9 17 5 18 6 19 3 20 1 21 2 22 4 24
REMARK SMILES IDX 18 25 19 26 20 27 21 29 22 30 23 31 81 32 24 33 80 34 25 35
REMARK SMILES IDX 26 36 27 37 74 38 28 39 79 40 73 41 75 42 29 43 78 44 72 45
REMARK SMILES IDX 71 46 30 48 60 49 41 50 59 51 42 52 45 53 58 54 76 55 43 56
REMARK SMILES IDX 44 57 57 59 77 60 46 61 31 62 32 63 40 64 33 65 39 66 34 67
REMARK SMILES IDX 35 68 36 69 37 70 38 71 61 72 62 73 70 74 63 75 69 76 64 77
REMARK SMILES IDX 65 78 66 79 67 80 68 81 47 82 48 83 56 84 49 85 55 86 50 87
REMARK SMILES IDX 51 88 52 89 53 90 54 91
REMARK H PARENT 15 6 2 23 19 28 75 47 45 58
REMARK Flexibility Score: inf
ROOT
ATOM      1  C   UNL A   1      34.062  31.559  27.940  1.00  0.00     0.042 C 
ENDROOT
BRANCH   1   2
ATOM      2  C   UNL A   1      33.584  30.512  26.930  1.00  0.00     0.118 C 
BRANCH   2   3
ATOM      3  N   UNL A   1      32.743  29.529  27.588  1.00  0.00    -0.352 N 
ATOM      4  C   UNL A   1      32.083  28.406  27.162  1.00  0.00     0.251 C 
ATOM      5  O   UNL A   1      31.389  27.826  28.001  1.00  0.00    -0.269 OA
ATOM      6  H   UNL A   1      32.621  29.707  28.549  1.00  0.00     0.163 HD
BRANCH   4   7
ATOM      7  C   UNL A   1      32.224  27.776  25.813  1.00  0.00     0.044 A 
ATOM      8  C   UNL A   1      32.858  25.666  24.690  1.00  0.00     0.071 A 
ATOM      9  C   UNL A   1      32.725  26.456  25.849  1.00  0.00     0.034 A 
ATOM     10  C   UNL A   1      32.637  26.242  23.436  1.00  0.00    -0.032 A 
ATOM     11  C   UNL A   1      32.084  27.534  23.409  1.00  0.00     0.009 A 
ATOM     12  C   UNL A   1      32.844  25.601  22.094  1.00  0.00     0.046 C 
ATOM     13  C   UNL A   1      31.792  28.270  24.576  1.00  0.00    -0.038 A 
ATOM     14  C   UNL A   1      30.946  29.487  24.377  1.00  0.00     0.045 C 
BRANCH   8  15
ATOM     15  S   UNL A   1      33.288  23.946  24.937  1.00  0.00     0.190 S 
ATOM     16  O   UNL A   1      33.420  23.740  26.372  1.00  0.00    -0.223 OA
ATOM     17  O   UNL A   1      34.446  23.645  24.117  1.00  0.00    -0.223 OA
BRANCH  15  18
ATOM     18  C   UNL A   1      31.900  22.959  24.411  1.00  0.00     0.199 C 
ATOM     19  C   UNL A   1      32.149  22.294  23.056  1.00  0.00     0.036 C 
BRANCH  18  20
ATOM     20  C   UNL A   1      31.541  21.919  25.440  1.00  0.00     0.238 C 
ATOM     21  C   UNL A   1      30.099  23.466  26.855  1.00  0.00     0.142 C 
ATOM     22  N   UNL A   1      30.681  22.202  26.460  1.00  0.00    -0.358 N 
ATOM     23  H   UNL A   1      30.417  21.430  27.010  1.00  0.00     0.163 HD
ATOM     24  O   UNL A   1      31.971  20.766  25.376  1.00  0.00    -0.274 OA
ENDBRANCH  18  20
ENDBRANCH  15  18
ENDBRANCH   8  15
ENDBRANCH   4   7
ENDBRANCH   2   3
ENDBRANCH   1   2
BRANCH   1  25
ATOM     25  C   UNL A   1      35.469  31.322  28.476  1.00  0.00     0.118 C 
BRANCH  25  26
ATOM     26  N   UNL A   1      35.476  31.163  29.920  1.00  0.00    -0.352 N 
ATOM     27  C   UNL A   1      36.381  30.531  30.739  1.00  0.00     0.251 C 
ATOM     28  H   UNL A   1      34.711  31.572  30.385  1.00  0.00     0.163 HD
ATOM     29  O   UNL A   1      36.056  30.302  31.903  1.00  0.00    -0.269 OA
BRANCH  27  30
ATOM     30  C   UNL A   1      37.724  30.111  30.255  1.00  0.00     0.039 A 
ATOM     31  C   UNL A   1      38.676  29.708  31.200  1.00  0.00     0.014 A 
ATOM     32  C   UNL A   1      38.090  30.183  28.909  1.00  0.00     0.014 A 
ATOM     33  C   UNL A   1      39.966  29.348  30.794  1.00  0.00     0.010 A 
ATOM     34  C   UNL A   1      39.352  29.748  28.495  1.00  0.00     0.010 A 
ATOM     35  C   UNL A   1      40.312  29.345  29.434  1.00  0.00    -0.014 A 
BRANCH  35  36
ATOM     36  C   UNL A   1      41.679  28.955  28.989  1.00  0.00     0.031 A 
ATOM     37  C   UNL A   1      42.792  29.971  28.958  1.00  0.00     0.074 A 
ATOM     38  C   UNL A   1      41.914  27.695  28.570  1.00  0.00     0.049 A 
ATOM     39  N   UNL A   1      44.035  29.823  28.577  1.00  0.00    -0.248 NA
ATOM     40  C   UNL A   1      42.458  31.340  29.386  1.00  0.00     0.031 C 
ATOM     41  C   UNL A   1      40.917  26.625  28.501  1.00  0.00     0.029 A 
ATOM     42  N   UNL A   1      43.067  27.103  28.117  1.00  0.00    -0.354 N 
ATOM     43  C   UNL A   1      44.623  31.077  28.695  1.00  0.00     0.074 A 
ATOM     44  C   UNL A   1      43.590  31.985  29.145  1.00  0.00     0.031 C 
ATOM     45  C   UNL A   1      41.505  25.503  28.056  1.00  0.00     0.029 A 
ATOM     46  C   UNL A   1      42.913  25.779  27.781  1.00  0.00     0.049 A 
ATOM     47  H   UNL A   1      43.925  27.581  28.041  1.00  0.00     0.167 HD
ATOM     48  C   UNL A   1      45.909  31.442  28.469  1.00  0.00     0.031 A 
ATOM     49  C   UNL A   1      43.799  24.884  27.302  1.00  0.00     0.031 A 
ATOM     50  C   UNL A   1      46.945  30.538  28.048  1.00  0.00     0.049 A 
ATOM     51  C   UNL A   1      45.228  25.301  27.090  1.00  0.00     0.074 A 
ATOM     52  C   UNL A   1      48.292  30.798  27.861  1.00  0.00     0.029 A 
ATOM     53  N   UNL A   1      46.751  29.199  27.747  1.00  0.00    -0.354 N 
ATOM     54  N   UNL A   1      45.777  26.477  27.279  1.00  0.00    -0.248 NA
ATOM     55  C   UNL A   1      46.159  24.267  26.617  1.00  0.00     0.031 C 
ATOM     56  C   UNL A   1      48.906  29.624  27.409  1.00  0.00     0.029 A 
ATOM     57  C   UNL A   1      47.949  28.622  27.358  1.00  0.00     0.049 A 
ATOM     58  H   UNL A   1      45.889  28.726  27.802  1.00  0.00     0.167 HD
ATOM     59  C   UNL A   1      47.123  26.319  26.964  1.00  0.00     0.074 A 
ATOM     60  C   UNL A   1      47.306  24.931  26.590  1.00  0.00     0.031 C 
ATOM     61  C   UNL A   1      48.116  27.242  26.981  1.00  0.00     0.031 A 
BRANCH  48  62
ATOM     62  C   UNL A   1      46.265  32.893  28.671  1.00  0.00    -0.014 A 
ATOM     63  C   UNL A   1      46.157  33.822  27.620  1.00  0.00     0.010 A 
ATOM     64  C   UNL A   1      46.687  33.340  29.936  1.00  0.00     0.010 A 
ATOM     65  C   UNL A   1      46.511  35.159  27.817  1.00  0.00     0.020 A 
ATOM     66  C   UNL A   1      47.017  34.683  30.145  1.00  0.00     0.020 A 
ATOM     67  C   UNL A   1      46.947  35.579  29.077  1.00  0.00     0.054 A 
BRANCH  67  68
ATOM     68  S   UNL A   1      47.394  37.322  29.308  1.00  0.00     0.124 S 
ATOM     69  O   UNL A   1      46.278  38.006  28.659  1.00  0.00    -0.237 OA
ATOM     70  O   UNL A   1      47.449  37.451  30.762  1.00  0.00    -0.237 OA
ATOM     71  O   UNL A   1      48.680  37.443  28.627  1.00  0.00    -0.744 OA
ENDBRANCH  67  68
ENDBRANCH  48  62
BRANCH  49  72
ATOM     72  C   UNL A   1      43.358  23.493  27.013  1.00  0.00    -0.014 A 
ATOM     73  C   UNL A   1      43.214  23.051  25.686  1.00  0.00     0.010 A 
ATOM     74  C   UNL A   1      43.107  22.593  28.065  1.00  0.00     0.010 A 
ATOM     75  C   UNL A   1      42.823  21.737  25.416  1.00  0.00     0.020 A 
ATOM     76  C   UNL A   1      42.740  21.272  27.799  1.00  0.00     0.020 A 
ATOM     77  C   UNL A   1      42.592  20.853  26.474  1.00  0.00     0.054 A 
BRANCH  77  78
ATOM     78  S   UNL A   1      42.159  19.131  26.103  1.00  0.00     0.124 S 
ATOM     79  O   UNL A   1      43.063  18.822  25.000  1.00  0.00    -0.237 OA
ATOM     80  O   UNL A   1      42.444  18.452  27.365  1.00  0.00    -0.237 OA
ATOM     81  O   UNL A   1      40.742  19.204  25.751  1.00  0.00    -0.744 OA
ENDBRANCH  77  78
ENDBRANCH  49  72
BRANCH  61  82
ATOM     82  C   UNL A   1      49.496  26.776  26.603  1.00  0.00    -0.014 A 
ATOM     83  C   UNL A   1      50.384  26.281  27.574  1.00  0.00     0.010 A 
ATOM     84  C   UNL A   1      49.892  26.796  25.254  1.00  0.00     0.010 A 
ATOM     85  C   UNL A   1      51.661  25.846  27.205  1.00  0.00     0.020 A 
ATOM     86  C   UNL A   1      51.158  26.340  24.879  1.00  0.00     0.020 A 
ATOM     87  C   UNL A   1      52.041  25.884  25.860  1.00  0.00     0.054 A 
BRANCH  87  88
ATOM     88  S   UNL A   1      53.690  25.284  25.399  1.00  0.00     0.124 S 
ATOM     89  O   UNL A   1      54.217  26.408  24.631  1.00  0.00    -0.237 OA
ATOM     90  O   UNL A   1      54.326  25.056  26.694  1.00  0.00    -0.237 OA
ATOM     91  O   UNL A   1      53.415  24.075  24.626  1.00  0.00    -0.744 OA
ENDBRANCH  87  88
ENDBRANCH  61  82
ENDBRANCH  35  36
ENDBRANCH  27  30
ENDBRANCH  25  26
ENDBRANCH   1  25
TORSDOF 16
ENDMDL
MODEL 3
REMARK VINA RESULT:     -11.5      2.981      9.460
REMARK SMILES CNC(=O)[C@H](C)S(=O)(=O)c1cc(C(=O)NCCCNC(=O)c2ccc(-c3c4nc(c(-c5ccc(S(=O)(=O)[O-])cc5)c5ccc([nH]5)c(-c5ccc(S(=O)(=O)[O-])cc5)c5nc(c(-c6ccc(S(=O)(=O)[O-])cc6)c6ccc3[nH]6)C=C5)C=C4)cc2)c(C)cc1C
REMARK SMILES IDX 17 1 16 2 15 3 13 4 14 5 12 7 10 8 11 9 85 10 84 11 86 12
REMARK SMILES IDX 82 13 83 14 7 15 8 16 9 17 5 18 6 19 3 20 1 21 2 22 4 24
REMARK SMILES IDX 18 25 19 26 20 27 21 29 22 30 23 31 81 32 24 33 80 34 25 35
REMARK SMILES IDX 26 36 27 37 74 38 28 39 79 40 73 41 75 42 29 43 78 44 72 45
REMARK SMILES IDX 71 46 30 48 60 49 41 50 59 51 42 52 45 53 58 54 76 55 43 56
REMARK SMILES IDX 44 57 57 59 77 60 46 61 31 62 32 63 40 64 33 65 39 66 34 67
REMARK SMILES IDX 35 68 36 69 37 70 38 71 61 72 62 73 70 74 63 75 69 76 64 77
REMARK SMILES IDX 65 78 66 79 67 80 68 81 47 82 48 83 56 84 49 85 55 86 50 87
REMARK SMILES IDX 51 88 52 89 53 90 54 91
REMARK H PARENT 15 6 2 23 19 28 75 47 45 58
REMARK Flexibility Score: inf
ROOT
ATOM      1  C   UNL A   1      33.213  28.058  26.929  1.00  0.00     0.042 C 
ENDROOT
BRANCH   1   2
ATOM      2  C   UNL A   1      31.708  28.341  26.896  1.00  0.00     0.118 C 
BRANCH   2   3
ATOM      3  N   UNL A   1      30.964  27.101  27.021  1.00  0.00    -0.352 N 
ATOM      4  C   UNL A   1      30.595  26.121  26.137  1.00  0.00     0.251 C 
ATOM      5  O   UNL A   1      29.891  25.213  26.587  1.00  0.00    -0.269 OA
ATOM      6  H   UNL A   1      30.657  26.926  27.941  1.00  0.00     0.163 HD
BRANCH   4   7
ATOM      7  C   UNL A   1      31.066  26.008  24.722  1.00  0.00     0.044 A 
ATOM      8  C   UNL A   1      32.454  24.617  23.222  1.00  0.00     0.071 A 
ATOM      9  C   UNL A   1      31.959  24.937  24.501  1.00  0.00     0.034 A 
ATOM     10  C   UNL A   1      32.185  25.469  22.147  1.00  0.00    -0.032 A 
ATOM     11  C   UNL A   1      31.250  26.497  22.359  1.00  0.00     0.009 A 
ATOM     12  C   UNL A   1      32.720  25.362  20.748  1.00  0.00     0.046 C 
ATOM     13  C   UNL A   1      30.622  26.721  23.602  1.00  0.00    -0.038 A 
ATOM     14  C   UNL A   1      29.452  27.652  23.576  1.00  0.00     0.045 C 
BRANCH   8  15
ATOM     15  S   UNL A   1      33.391  23.098  23.081  1.00  0.00     0.190 S 
ATOM     16  O   UNL A   1      34.752  23.467  22.721  1.00  0.00    -0.223 OA
ATOM     17  O   UNL A   1      32.684  22.211  22.176  1.00  0.00    -0.223 OA
BRANCH  15  18
ATOM     18  C   UNL A   1      33.479  22.363  24.702  1.00  0.00     0.199 C 
ATOM     19  C   UNL A   1      32.294  21.434  24.977  1.00  0.00     0.036 C 
BRANCH  18  20
ATOM     20  C   UNL A   1      34.775  21.621  24.903  1.00  0.00     0.238 C 
ATOM     21  C   UNL A   1      36.015  23.580  25.950  1.00  0.00     0.142 C 
ATOM     22  N   UNL A   1      35.835  22.210  25.525  1.00  0.00    -0.358 N 
ATOM     23  H   UNL A   1      36.594  21.610  25.715  1.00  0.00     0.163 HD
ATOM     24  O   UNL A   1      34.912  20.447  24.554  1.00  0.00    -0.274 OA
ENDBRANCH  18  20
ENDBRANCH  15  18
ENDBRANCH   8  15
ENDBRANCH   4   7
ENDBRANCH   2   3
ENDBRANCH   1   2
BRANCH   1  25
ATOM     25  C   UNL A   1      34.067  29.105  26.224  1.00  0.00     0.118 C 
BRANCH  25  26
ATOM     26  N   UNL A   1      33.787  30.445  26.710  1.00  0.00    -0.352 N 
ATOM     27  C   UNL A   1      34.388  31.170  27.711  1.00  0.00     0.251 C 
ATOM     28  H   UNL A   1      33.050  30.907  26.249  1.00  0.00     0.163 HD
ATOM     29  O   UNL A   1      33.824  32.184  28.120  1.00  0.00    -0.269 OA
BRANCH  27  30
ATOM     30  C   UNL A   1      35.684  30.757  28.315  1.00  0.00     0.039 A 
ATOM     31  C   UNL A   1      35.680  29.722  29.258  1.00  0.00     0.014 A 
ATOM     32  C   UNL A   1      36.883  31.419  28.036  1.00  0.00     0.014 A 
ATOM     33  C   UNL A   1      36.869  29.332  29.884  1.00  0.00     0.010 A 
ATOM     34  C   UNL A   1      38.082  30.978  28.603  1.00  0.00     0.010 A 
ATOM     35  C   UNL A   1      38.087  29.943  29.549  1.00  0.00    -0.014 A 
BRANCH  35  36
ATOM     36  C   UNL A   1      39.360  29.530  30.202  1.00  0.00     0.031 A 
ATOM     37  C   UNL A   1      39.863  30.257  31.423  1.00  0.00     0.074 A 
ATOM     38  C   UNL A   1      40.091  28.527  29.675  1.00  0.00     0.049 A 
ATOM     39  N   UNL A   1      40.960  30.057  32.110  1.00  0.00    -0.248 NA
ATOM     40  C   UNL A   1      39.040  31.371  31.923  1.00  0.00     0.031 C 
ATOM     41  C   UNL A   1      39.746  27.772  28.468  1.00  0.00     0.029 A 
ATOM     42  N   UNL A   1      41.279  27.974  30.083  1.00  0.00    -0.354 N 
ATOM     43  C   UNL A   1      40.971  31.030  33.103  1.00  0.00     0.074 A 
ATOM     44  C   UNL A   1      39.793  31.847  32.905  1.00  0.00     0.031 C 
ATOM     45  C   UNL A   1      40.689  26.841  28.248  1.00  0.00     0.029 A 
ATOM     46  C   UNL A   1      41.717  26.950  29.278  1.00  0.00     0.049 A 
ATOM     47  H   UNL A   1      41.771  28.282  30.879  1.00  0.00     0.167 HD
ATOM     48  C   UNL A   1      41.868  31.221  34.101  1.00  0.00     0.031 A 
ATOM     49  C   UNL A   1      42.823  26.183  29.354  1.00  0.00     0.031 A 
ATOM     50  C   UNL A   1      43.027  30.396  34.317  1.00  0.00     0.049 A 
ATOM     51  C   UNL A   1      43.788  26.389  30.489  1.00  0.00     0.074 A 
ATOM     52  C   UNL A   1      43.954  30.466  35.342  1.00  0.00     0.029 A 
ATOM     53  N   UNL A   1      43.416  29.350  33.495  1.00  0.00    -0.354 N 
ATOM     54  N   UNL A   1      43.739  27.270  31.459  1.00  0.00    -0.248 NA
ATOM     55  C   UNL A   1      44.946  25.487  30.548  1.00  0.00     0.031 C 
ATOM     56  C   UNL A   1      44.929  29.486  35.117  1.00  0.00     0.029 A 
ATOM     57  C   UNL A   1      44.582  28.778  33.977  1.00  0.00     0.049 A 
ATOM     58  H   UNL A   1      42.936  29.057  32.687  1.00  0.00     0.167 HD
ATOM     59  C   UNL A   1      44.852  27.017  32.254  1.00  0.00     0.074 A 
ATOM     60  C   UNL A   1      45.543  25.890  31.661  1.00  0.00     0.031 C 
ATOM     61  C   UNL A   1      45.264  27.662  33.373  1.00  0.00     0.031 A 
BRANCH  48  62
ATOM     62  C   UNL A   1      41.630  32.378  35.037  1.00  0.00    -0.014 A 
ATOM     63  C   UNL A   1      42.193  33.643  34.789  1.00  0.00     0.010 A 
ATOM     64  C   UNL A   1      40.809  32.206  36.167  1.00  0.00     0.010 A 
ATOM     65  C   UNL A   1      41.980  34.700  35.678  1.00  0.00     0.020 A 
ATOM     66  C   UNL A   1      40.572  33.268  37.045  1.00  0.00     0.020 A 
ATOM     67  C   UNL A   1      41.177  34.503  36.805  1.00  0.00     0.054 A 
BRANCH  67  68
ATOM     68  S   UNL A   1      40.911  35.894  37.940  1.00  0.00     0.124 S 
ATOM     69  O   UNL A   1      40.533  35.206  39.172  1.00  0.00    -0.237 OA
ATOM     70  O   UNL A   1      42.217  36.547  37.961  1.00  0.00    -0.237 OA
ATOM     71  O   UNL A   1      39.845  36.662  37.302  1.00  0.00    -0.744 OA
ENDBRANCH  67  68
ENDBRANCH  48  62
BRANCH  49  72
ATOM     72  C   UNL A   1      43.060  25.130  28.330  1.00  0.00    -0.014 A 
ATOM     73  C   UNL A   1      43.793  25.419  27.166  1.00  0.00     0.010 A 
ATOM     74  C   UNL A   1      42.580  23.823  28.530  1.00  0.00     0.010 A 
ATOM     75  C   UNL A   1      44.036  24.423  26.217  1.00  0.00     0.020 A 
ATOM     76  C   UNL A   1      42.841  22.819  27.595  1.00  0.00     0.020 A 
ATOM     77  C   UNL A   1      43.562  23.127  26.439  1.00  0.00     0.054 A 
BRANCH  77  78
ATOM     78  S   UNL A   1      43.953  21.830  25.232  1.00  0.00     0.124 S 
ATOM     79  O   UNL A   1      42.930  20.830  25.518  1.00  0.00    -0.237 OA
ATOM     80  O   UNL A   1      43.815  22.530  23.957  1.00  0.00    -0.237 OA
ATOM     81  O   UNL A   1      45.320  21.445  25.576  1.00  0.00    -0.744 OA
ENDBRANCH  77  78
ENDBRANCH  49  72
BRANCH  61  82
ATOM     82  C   UNL A   1      46.511  27.152  34.042  1.00  0.00    -0.014 A 
ATOM     83  C   UNL A   1      46.448  26.140  35.018  1.00  0.00     0.010 A 
ATOM     84  C   UNL A   1      47.764  27.662  33.660  1.00  0.00     0.010 A 
ATOM     85  C   UNL A   1      47.617  25.673  35.625  1.00  0.00     0.020 A 
ATOM     86  C   UNL A   1      48.937  27.180  34.248  1.00  0.00     0.020 A 
ATOM     87  C   UNL A   1      48.854  26.200  35.240  1.00  0.00     0.054 A 
BRANCH  87  88
ATOM     88  S   UNL A   1      50.361  25.557  36.018  1.00  0.00     0.124 S 
ATOM     89  O   UNL A   1      50.082  25.764  37.436  1.00  0.00    -0.237 OA
ATOM     90  O   UNL A   1      50.383  24.164  35.579  1.00  0.00    -0.237 OA
ATOM     91  O   UNL A   1      51.422  26.395  35.463  1.00  0.00    -0.744 OA
ENDBRANCH  87  88
ENDBRANCH  61  82
ENDBRANCH  35  36
ENDBRANCH  27  30
ENDBRANCH  25  26
ENDBRANCH   1  25
TORSDOF 16
ENDMDL
