MODEL 1
REMARK VINA RESULT:     -11.9      0.000      0.000
REMARK SMILES O=C(Cn1ncc2ccccc2c1=O)N[C@@H]1C[NH2+][C@H](C(=O)NCCCNC(=O)c2ccc(-c3c4nc(c(-c5ccc(S(=O)(=O)[O-])cc5)c5ccc([nH]5)c(-c5ccc(S(=O)(=O)[O-])cc5)c5nc(c(-c6ccc(S(=O)(=O)[O-])cc6)c6ccc3[nH]6)C=C5)C=C4)cc2)C1
REMARK SMILES IDX 24 1 23 2 22 3 20 4 21 5 19 7 16 8 17 9 89 10 18 11 15 14
REMARK SMILES IDX 1 15 2 16 3 18 4 19 5 20 13 21 6 22 12 23 14 24 7 25 11 26
REMARK SMILES IDX 8 27 10 28 9 29 25 30 26 31 27 32 28 34 29 35 30 36 88 37
REMARK SMILES IDX 31 38 87 39 32 40 33 41 34 42 81 43 35 44 86 45 80 46 82 47
REMARK SMILES IDX 36 48 85 49 79 50 78 51 37 53 67 54 48 55 66 56 49 57 52 58
REMARK SMILES IDX 65 59 83 60 50 61 51 62 64 64 84 65 53 66 38 67 39 68 47 69
REMARK SMILES IDX 40 70 46 71 41 72 42 73 43 74 44 75 45 76 68 77 69 78 77 79
REMARK SMILES IDX 70 80 76 81 71 82 72 83 73 84 74 85 75 86 54 87 55 88 63 89
REMARK SMILES IDX 56 90 62 91 57 92 58 93 59 94 60 95 61 96
REMARK H PARENT 22 6 18 12 18 13 15 17 26 33 82 52 52 63
REMARK Flexibility Score: inf
ROOT
ATOM      1  C   UNL A   1      32.019  28.184  26.829  1.00  0.00     0.042 C 
ENDROOT
BRANCH   1   2
ATOM      2  C   UNL A   1      31.850  27.899  25.342  1.00  0.00     0.118 C 
BRANCH   2   3
ATOM      3  N   UNL A   1      31.105  28.945  24.664  1.00  0.00    -0.351 N 
ATOM      4  C   UNL A   1      30.310  28.882  23.553  1.00  0.00     0.278 C 
ATOM      5  O   UNL A   1      29.833  29.939  23.137  1.00  0.00    -0.268 OA
ATOM      6  H   UNL A   1      31.186  29.839  25.068  1.00  0.00     0.163 HD
BRANCH   4   7
ATOM      7  C   UNL A   1      30.082  27.518  22.876  1.00  0.00     0.274 C 
ATOM      8  C   UNL A   1      30.760  25.262  23.315  1.00  0.00     0.143 C 
ATOM      9  C   UNL A   1      31.882  26.013  22.605  1.00  0.00     0.286 C 
ATOM     10  C   UNL A   1      29.956  26.404  23.915  1.00  0.00     0.106 C 
ATOM     11  N   UNL A   1      31.219  27.166  21.979  1.00  0.00    -0.334 N 
ATOM     12  H   UNL A   1      30.876  26.919  21.051  1.00  0.00     0.347 HD
ATOM     13  H   UNL A   1      31.862  27.950  21.864  1.00  0.00     0.347 HD
BRANCH   8  14
ATOM     14  N   UNL A   1      31.230  24.324  24.306  1.00  0.00    -0.346 N 
ATOM     15  O   UNL A   1      31.553  22.583  22.849  1.00  0.00    -0.273 OA
ATOM     16  C   UNL A   1      31.627  23.039  23.988  1.00  0.00     0.242 C 
ATOM     17  H   UNL A   1      31.268  24.611  25.247  1.00  0.00     0.164 HD
BRANCH  16  18
ATOM     18  C   UNL A   1      32.251  22.277  25.165  1.00  0.00     0.248 C 
BRANCH  18  19
ATOM     19  N   UNL A   1      33.656  22.648  25.328  1.00  0.00    -0.220 N 
ATOM     20  N   UNL A   1      33.922  23.975  25.605  1.00  0.00    -0.177 NA
ATOM     21  C   UNL A   1      34.647  21.714  25.021  1.00  0.00     0.275 A 
ATOM     22  C   UNL A   1      35.160  24.337  25.732  1.00  0.00     0.142 A 
ATOM     23  C   UNL A   1      36.029  22.100  25.335  1.00  0.00     0.050 A 
ATOM     24  O   UNL A   1      34.422  20.600  24.548  1.00  0.00    -0.267 OA
ATOM     25  C   UNL A   1      36.292  23.420  25.660  1.00  0.00     0.007 A 
ATOM     26  C   UNL A   1      37.062  21.159  25.339  1.00  0.00     0.014 A 
ATOM     27  C   UNL A   1      37.589  23.842  25.952  1.00  0.00     0.010 A 
ATOM     28  C   UNL A   1      38.358  21.563  25.658  1.00  0.00     0.001 A 
ATOM     29  C   UNL A   1      38.624  22.904  25.951  1.00  0.00     0.001 A 
ENDBRANCH  18  19
ENDBRANCH  16  18
ENDBRANCH   8  14
ENDBRANCH   4   7
ENDBRANCH   2   3
ENDBRANCH   1   2
BRANCH   1  30
ATOM     30  C   UNL A   1      33.414  28.656  27.226  1.00  0.00     0.118 C 
BRANCH  30  31
ATOM     31  N   UNL A   1      33.456  30.048  27.660  1.00  0.00    -0.352 N 
ATOM     32  C   UNL A   1      34.467  30.769  28.256  1.00  0.00     0.251 C 
ATOM     33  H   UNL A   1      32.627  30.555  27.499  1.00  0.00     0.163 HD
ATOM     34  O   UNL A   1      34.236  31.908  28.655  1.00  0.00    -0.269 OA
BRANCH  32  35
ATOM     35  C   UNL A   1      35.808  30.172  28.458  1.00  0.00     0.039 A 
ATOM     36  C   UNL A   1      36.180  29.630  29.688  1.00  0.00     0.014 A 
ATOM     37  C   UNL A   1      36.716  30.156  27.394  1.00  0.00     0.014 A 
ATOM     38  C   UNL A   1      37.503  29.269  29.912  1.00  0.00     0.010 A 
ATOM     39  C   UNL A   1      38.022  29.688  27.593  1.00  0.00     0.010 A 
ATOM     40  C   UNL A   1      38.447  29.294  28.871  1.00  0.00    -0.014 A 
BRANCH  40  41
ATOM     41  C   UNL A   1      39.857  28.905  29.158  1.00  0.00     0.031 A 
ATOM     42  C   UNL A   1      40.382  27.544  28.768  1.00  0.00     0.074 A 
ATOM     43  C   UNL A   1      40.696  29.822  29.684  1.00  0.00     0.049 A 
ATOM     44  N   UNL A   1      41.606  27.088  28.846  1.00  0.00    -0.248 NA
ATOM     45  C   UNL A   1      39.420  26.572  28.223  1.00  0.00     0.031 C 
ATOM     46  C   UNL A   1      40.311  31.179  30.085  1.00  0.00     0.029 A 
ATOM     47  N   UNL A   1      42.048  29.780  29.921  1.00  0.00    -0.354 N 
ATOM     48  C   UNL A   1      41.564  25.785  28.360  1.00  0.00     0.074 A 
ATOM     49  C   UNL A   1      40.184  25.503  28.034  1.00  0.00     0.031 C 
ATOM     50  C   UNL A   1      41.410  31.865  30.424  1.00  0.00     0.029 A 
ATOM     51  C   UNL A   1      42.570  30.984  30.342  1.00  0.00     0.049 A 
ATOM     52  H   UNL A   1      42.591  28.969  29.802  1.00  0.00     0.167 HD
ATOM     53  C   UNL A   1      42.584  24.915  28.176  1.00  0.00     0.031 A 
ATOM     54  C   UNL A   1      43.837  31.348  30.624  1.00  0.00     0.031 A 
ATOM     55  C   UNL A   1      43.961  25.204  28.485  1.00  0.00     0.049 A 
ATOM     56  C   UNL A   1      44.939  30.337  30.471  1.00  0.00     0.074 A 
ATOM     57  C   UNL A   1      45.064  24.381  28.325  1.00  0.00     0.029 A 
ATOM     58  N   UNL A   1      44.431  26.403  28.999  1.00  0.00    -0.354 N 
ATOM     59  N   UNL A   1      44.874  29.114  30.000  1.00  0.00    -0.248 NA
ATOM     60  C   UNL A   1      46.286  30.753  30.883  1.00  0.00     0.031 C 
ATOM     61  C   UNL A   1      46.188  25.055  28.805  1.00  0.00     0.029 A 
ATOM     62  C   UNL A   1      45.802  26.330  29.188  1.00  0.00     0.049 A 
ATOM     63  H   UNL A   1      43.875  27.189  29.201  1.00  0.00     0.167 HD
ATOM     64  C   UNL A   1      46.174  28.623  30.043  1.00  0.00     0.074 A 
ATOM     65  C   UNL A   1      47.008  29.689  30.557  1.00  0.00     0.031 C 
ATOM     66  C   UNL A   1      46.630  27.395  29.696  1.00  0.00     0.031 A 
BRANCH  53  67
ATOM     67  C   UNL A   1      42.284  23.560  27.583  1.00  0.00    -0.014 A 
ATOM     68  C   UNL A   1      41.939  22.485  28.425  1.00  0.00     0.010 A 
ATOM     69  C   UNL A   1      42.512  23.310  26.218  1.00  0.00     0.010 A 
ATOM     70  C   UNL A   1      41.883  21.180  27.927  1.00  0.00     0.020 A 
ATOM     71  C   UNL A   1      42.428  22.010  25.709  1.00  0.00     0.020 A 
ATOM     72  C   UNL A   1      42.145  20.950  26.573  1.00  0.00     0.054 A 
BRANCH  72  73
ATOM     73  S   UNL A   1      42.149  19.242  25.962  1.00  0.00     0.124 S 
ATOM     74  O   UNL A   1      43.018  19.333  24.792  1.00  0.00    -0.237 OA
ATOM     75  O   UNL A   1      42.693  18.501  27.098  1.00  0.00    -0.237 OA
ATOM     76  O   UNL A   1      40.741  18.977  25.675  1.00  0.00    -0.744 OA
ENDBRANCH  72  73
ENDBRANCH  53  67
BRANCH  54  77
ATOM     77  C   UNL A   1      44.130  32.749  31.042  1.00  0.00    -0.014 A 
ATOM     78  C   UNL A   1      44.071  33.122  32.398  1.00  0.00     0.010 A 
ATOM     79  C   UNL A   1      44.424  33.731  30.080  1.00  0.00     0.010 A 
ATOM     80  C   UNL A   1      44.246  34.454  32.779  1.00  0.00     0.020 A 
ATOM     81  C   UNL A   1      44.640  35.060  30.460  1.00  0.00     0.020 A 
ATOM     82  C   UNL A   1      44.522  35.418  31.806  1.00  0.00     0.054 A 
BRANCH  82  83
ATOM     83  S   UNL A   1      44.724  37.144  32.322  1.00  0.00     0.124 S 
ATOM     84  O   UNL A   1      44.049  37.149  33.617  1.00  0.00    -0.237 OA
ATOM     85  O   UNL A   1      46.176  37.295  32.368  1.00  0.00    -0.237 OA
ATOM     86  O   UNL A   1      44.055  37.898  31.265  1.00  0.00    -0.744 OA
ENDBRANCH  82  83
ENDBRANCH  54  77
BRANCH  66  87
ATOM     87  C   UNL A   1      48.104  27.115  29.851  1.00  0.00    -0.014 A 
ATOM     88  C   UNL A   1      48.588  26.554  31.048  1.00  0.00     0.010 A 
ATOM     89  C   UNL A   1      49.021  27.509  28.861  1.00  0.00     0.010 A 
ATOM     90  C   UNL A   1      49.962  26.422  31.266  1.00  0.00     0.020 A 
ATOM     91  C   UNL A   1      50.395  27.345  29.060  1.00  0.00     0.020 A 
ATOM     92  C   UNL A   1      50.858  26.825  30.272  1.00  0.00     0.054 A 
BRANCH  92  93
ATOM     93  S   UNL A   1      52.638  26.662  30.579  1.00  0.00     0.124 S 
ATOM     94  O   UNL A   1      53.142  26.272  29.266  1.00  0.00    -0.237 OA
ATOM     95  O   UNL A   1      53.010  28.003  31.025  1.00  0.00    -0.237 OA
ATOM     96  O   UNL A   1      52.714  25.629  31.610  1.00  0.00    -0.744 OA
ENDBRANCH  92  93
ENDBRANCH  66  87
ENDBRANCH  40  41
ENDBRANCH  32  35
ENDBRANCH  30  31
ENDBRANCH   1  30
TORSDOF 16
ENDMDL
MODEL 2
REMARK VINA RESULT:     -11.7      2.754      9.410
REMARK SMILES O=C(Cn1ncc2ccccc2c1=O)N[C@@H]1C[NH2+][C@H](C(=O)NCCCNC(=O)c2ccc(-c3c4nc(c(-c5ccc(S(=O)(=O)[O-])cc5)c5ccc([nH]5)c(-c5ccc(S(=O)(=O)[O-])cc5)c5nc(c(-c6ccc(S(=O)(=O)[O-])cc6)c6ccc3[nH]6)C=C5)C=C4)cc2)C1
REMARK SMILES IDX 24 1 23 2 22 3 20 4 21 5 19 7 16 8 17 9 89 10 18 11 15 14
REMARK SMILES IDX 1 15 2 16 3 18 4 19 5 20 13 21 6 22 12 23 14 24 7 25 11 26
REMARK SMILES IDX 8 27 10 28 9 29 25 30 26 31 27 32 28 34 29 35 30 36 88 37
REMARK SMILES IDX 31 38 87 39 32 40 33 41 34 42 81 43 35 44 86 45 80 46 82 47
REMARK SMILES IDX 36 48 85 49 79 50 78 51 37 53 67 54 48 55 66 56 49 57 52 58
REMARK SMILES IDX 65 59 83 60 50 61 51 62 64 64 84 65 53 66 38 67 39 68 47 69
REMARK SMILES IDX 40 70 46 71 41 72 42 73 43 74 44 75 45 76 68 77 69 78 77 79
REMARK SMILES IDX 70 80 76 81 71 82 72 83 73 84 74 85 75 86 54 87 55 88 63 89
REMARK SMILES IDX 56 90 62 91 57 92 58 93 59 94 60 95 61 96
REMARK H PARENT 22 6 18 12 18 13 15 17 26 33 82 52 52 63
REMARK Flexibility Score: inf
ROOT
ATOM      1  C   UNL A   1      36.215  22.848  23.927  1.00  0.00     0.042 C 
ENDROOT
BRANCH   1   2
ATOM      2  C   UNL A   1      34.854  22.442  24.478  1.00  0.00     0.118 C 
BRANCH   2   3
ATOM      3  N   UNL A   1      34.741  21.006  24.657  1.00  0.00    -0.351 N 
ATOM      4  C   UNL A   1      33.635  20.201  24.644  1.00  0.00     0.278 C 
ATOM      5  O   UNL A   1      33.802  19.004  24.885  1.00  0.00    -0.268 OA
ATOM      6  H   UNL A   1      35.593  20.539  24.812  1.00  0.00     0.163 HD
BRANCH   4   7
ATOM      7  C   UNL A   1      32.258  20.831  24.360  1.00  0.00     0.274 C 
ATOM      8  C   UNL A   1      31.461  23.035  23.867  1.00  0.00     0.143 C 
ATOM      9  C   UNL A   1      31.661  22.879  25.372  1.00  0.00     0.286 C 
ATOM     10  C   UNL A   1      32.368  21.945  23.321  1.00  0.00     0.106 C 
ATOM     11  N   UNL A   1      31.676  21.427  25.596  1.00  0.00    -0.334 N 
ATOM     12  H   UNL A   1      30.729  21.080  25.745  1.00  0.00     0.347 HD
ATOM     13  H   UNL A   1      32.221  21.181  26.423  1.00  0.00     0.347 HD
BRANCH   8  14
ATOM     14  N   UNL A   1      31.798  24.348  23.373  1.00  0.00    -0.346 N 
ATOM     15  O   UNL A   1      29.788  25.321  23.894  1.00  0.00    -0.273 OA
ATOM     16  C   UNL A   1      30.930  25.421  23.452  1.00  0.00     0.242 C 
ATOM     17  H   UNL A   1      32.682  24.485  22.961  1.00  0.00     0.164 HD
BRANCH  16  18
ATOM     18  C   UNL A   1      31.559  26.755  23.025  1.00  0.00     0.248 C 
BRANCH  18  19
ATOM     19  N   UNL A   1      32.273  27.366  24.145  1.00  0.00    -0.220 N 
ATOM     20  N   UNL A   1      33.334  26.654  24.669  1.00  0.00    -0.177 NA
ATOM     21  C   UNL A   1      31.752  28.517  24.738  1.00  0.00     0.275 A 
ATOM     22  C   UNL A   1      33.973  27.161  25.677  1.00  0.00     0.142 A 
ATOM     23  C   UNL A   1      32.585  29.158  25.764  1.00  0.00     0.050 A 
ATOM     24  O   UNL A   1      30.677  29.028  24.425  1.00  0.00    -0.267 OA
ATOM     25  C   UNL A   1      33.678  28.466  26.258  1.00  0.00     0.007 A 
ATOM     26  C   UNL A   1      32.310  30.450  26.219  1.00  0.00     0.014 A 
ATOM     27  C   UNL A   1      34.493  29.023  27.244  1.00  0.00     0.010 A 
ATOM     28  C   UNL A   1      33.135  31.029  27.184  1.00  0.00     0.001 A 
ATOM     29  C   UNL A   1      34.217  30.313  27.705  1.00  0.00     0.001 A 
ENDBRANCH  18  19
ENDBRANCH  16  18
ENDBRANCH   8  14
ENDBRANCH   4   7
ENDBRANCH   2   3
ENDBRANCH   1   2
BRANCH   1  30
ATOM     30  C   UNL A   1      37.153  23.470  24.956  1.00  0.00     0.118 C 
BRANCH  30  31
ATOM     31  N   UNL A   1      38.242  22.588  25.361  1.00  0.00    -0.352 N 
ATOM     32  C   UNL A   1      39.371  22.844  26.106  1.00  0.00     0.251 C 
ATOM     33  H   UNL A   1      38.154  21.657  25.050  1.00  0.00     0.163 HD
ATOM     34  O   UNL A   1      40.226  21.969  26.220  1.00  0.00    -0.269 OA
BRANCH  32  35
ATOM     35  C   UNL A   1      39.581  24.169  26.735  1.00  0.00     0.039 A 
ATOM     36  C   UNL A   1      40.308  25.168  26.089  1.00  0.00     0.014 A 
ATOM     37  C   UNL A   1      39.040  24.419  28.001  1.00  0.00     0.014 A 
ATOM     38  C   UNL A   1      40.667  26.319  26.782  1.00  0.00     0.010 A 
ATOM     39  C   UNL A   1      39.312  25.628  28.655  1.00  0.00     0.010 A 
ATOM     40  C   UNL A   1      40.178  26.567  28.075  1.00  0.00    -0.014 A 
BRANCH  40  41
ATOM     41  C   UNL A   1      40.594  27.812  28.783  1.00  0.00     0.031 A 
ATOM     42  C   UNL A   1      39.641  28.973  28.937  1.00  0.00     0.074 A 
ATOM     43  C   UNL A   1      41.805  27.855  29.376  1.00  0.00     0.049 A 
ATOM     44  N   UNL A   1      39.806  30.080  29.616  1.00  0.00    -0.248 NA
ATOM     45  C   UNL A   1      38.343  28.887  28.249  1.00  0.00     0.031 C 
ATOM     46  C   UNL A   1      42.807  26.787  29.315  1.00  0.00     0.029 A 
ATOM     47  N   UNL A   1      42.381  28.799  30.190  1.00  0.00    -0.354 N 
ATOM     48  C   UNL A   1      38.639  30.817  29.440  1.00  0.00     0.074 A 
ATOM     49  C   UNL A   1      37.791  30.055  28.551  1.00  0.00     0.031 C 
ATOM     50  C   UNL A   1      43.825  27.092  30.131  1.00  0.00     0.029 A 
ATOM     51  C   UNL A   1      43.592  28.408  30.717  1.00  0.00     0.049 A 
ATOM     52  H   UNL A   1      41.968  29.672  30.378  1.00  0.00     0.167 HD
ATOM     53  C   UNL A   1      38.295  32.004  29.991  1.00  0.00     0.031 A 
ATOM     54  C   UNL A   1      44.423  29.026  31.579  1.00  0.00     0.031 A 
ATOM     55  C   UNL A   1      39.135  32.753  30.891  1.00  0.00     0.049 A 
ATOM     56  C   UNL A   1      44.040  30.375  32.122  1.00  0.00     0.074 A 
ATOM     57  C   UNL A   1      38.863  33.966  31.502  1.00  0.00     0.029 A 
ATOM     58  N   UNL A   1      40.394  32.364  31.322  1.00  0.00    -0.354 N 
ATOM     59  N   UNL A   1      42.927  31.046  31.948  1.00  0.00    -0.248 NA
ATOM     60  C   UNL A   1      45.023  31.049  32.981  1.00  0.00     0.031 C 
ATOM     61  C   UNL A   1      39.982  34.343  32.247  1.00  0.00     0.029 A 
ATOM     62  C   UNL A   1      40.921  33.327  32.168  1.00  0.00     0.049 A 
ATOM     63  H   UNL A   1      40.846  31.529  31.065  1.00  0.00     0.167 HD
ATOM     64  C   UNL A   1      43.069  32.213  32.690  1.00  0.00     0.074 A 
ATOM     65  C   UNL A   1      44.362  32.142  33.338  1.00  0.00     0.031 C 
ATOM     66  C   UNL A   1      42.207  33.252  32.814  1.00  0.00     0.031 A 
BRANCH  53  67
ATOM     67  C   UNL A   1      36.937  32.583  29.678  1.00  0.00    -0.014 A 
ATOM     68  C   UNL A   1      36.763  33.387  28.535  1.00  0.00     0.010 A 
ATOM     69  C   UNL A   1      35.883  32.475  30.602  1.00  0.00     0.010 A 
ATOM     70  C   UNL A   1      35.584  34.116  28.350  1.00  0.00     0.020 A 
ATOM     71  C   UNL A   1      34.690  33.179  30.406  1.00  0.00     0.020 A 
ATOM     72  C   UNL A   1      34.561  34.019  29.298  1.00  0.00     0.054 A 
BRANCH  72  73
ATOM     73  S   UNL A   1      33.073  35.035  29.084  1.00  0.00     0.124 S 
ATOM     74  O   UNL A   1      32.338  34.297  28.062  1.00  0.00    -0.237 OA
ATOM     75  O   UNL A   1      32.485  35.020  30.422  1.00  0.00    -0.237 OA
ATOM     76  O   UNL A   1      33.602  36.330  28.661  1.00  0.00    -0.744 OA
ENDBRANCH  72  73
ENDBRANCH  53  67
BRANCH  54  77
ATOM     77  C   UNL A   1      45.682  28.351  32.009  1.00  0.00    -0.014 A 
ATOM     78  C   UNL A   1      46.880  28.546  31.298  1.00  0.00     0.010 A 
ATOM     79  C   UNL A   1      45.678  27.472  33.106  1.00  0.00     0.010 A 
ATOM     80  C   UNL A   1      48.034  27.836  31.640  1.00  0.00     0.020 A 
ATOM     81  C   UNL A   1      46.841  26.790  33.478  1.00  0.00     0.020 A 
ATOM     82  C   UNL A   1      48.005  26.955  32.724  1.00  0.00     0.054 A 
BRANCH  82  83
ATOM     83  S   UNL A   1      49.509  26.029  33.134  1.00  0.00     0.124 S 
ATOM     84  O   UNL A   1      49.498  24.977  32.122  1.00  0.00    -0.237 OA
ATOM     85  O   UNL A   1      50.555  27.038  32.982  1.00  0.00    -0.237 OA
ATOM     86  O   UNL A   1      49.273  25.583  34.504  1.00  0.00    -0.744 OA
ENDBRANCH  82  83
ENDBRANCH  54  77
BRANCH  66  87
ATOM     87  C   UNL A   1      42.615  34.413  33.685  1.00  0.00    -0.014 A 
ATOM     88  C   UNL A   1      43.385  35.459  33.142  1.00  0.00     0.010 A 
ATOM     89  C   UNL A   1      42.335  34.416  35.063  1.00  0.00     0.010 A 
ATOM     90  C   UNL A   1      43.894  36.469  33.963  1.00  0.00     0.020 A 
ATOM     91  C   UNL A   1      42.812  35.443  35.882  1.00  0.00     0.020 A 
ATOM     92  C   UNL A   1      43.609  36.450  35.331  1.00  0.00     0.054 A 
BRANCH  92  93
ATOM     93  S   UNL A   1      44.293  37.758  36.385  1.00  0.00     0.124 S 
ATOM     94  O   UNL A   1      44.192  38.932  35.523  1.00  0.00    -0.237 OA
ATOM     95  O   UNL A   1      43.394  37.743  37.538  1.00  0.00    -0.237 OA
ATOM     96  O   UNL A   1      45.653  37.300  36.661  1.00  0.00    -0.744 OA
ENDBRANCH  92  93
ENDBRANCH  66  87
ENDBRANCH  40  41
ENDBRANCH  32  35
ENDBRANCH  30  31
ENDBRANCH   1  30
TORSDOF 16
ENDMDL
MODEL 3
REMARK VINA RESULT:     -11.2      4.351     10.722
REMARK SMILES O=C(Cn1ncc2ccccc2c1=O)N[C@@H]1C[NH2+][C@H](C(=O)NCCCNC(=O)c2ccc(-c3c4nc(c(-c5ccc(S(=O)(=O)[O-])cc5)c5ccc([nH]5)c(-c5ccc(S(=O)(=O)[O-])cc5)c5nc(c(-c6ccc(S(=O)(=O)[O-])cc6)c6ccc3[nH]6)C=C5)C=C4)cc2)C1
REMARK SMILES IDX 24 1 23 2 22 3 20 4 21 5 19 7 16 8 17 9 89 10 18 11 15 14
REMARK SMILES IDX 1 15 2 16 3 18 4 19 5 20 13 21 6 22 12 23 14 24 7 25 11 26
REMARK SMILES IDX 8 27 10 28 9 29 25 30 26 31 27 32 28 34 29 35 30 36 88 37
REMARK SMILES IDX 31 38 87 39 32 40 33 41 34 42 81 43 35 44 86 45 80 46 82 47
REMARK SMILES IDX 36 48 85 49 79 50 78 51 37 53 67 54 48 55 66 56 49 57 52 58
REMARK SMILES IDX 65 59 83 60 50 61 51 62 64 64 84 65 53 66 38 67 39 68 47 69
REMARK SMILES IDX 40 70 46 71 41 72 42 73 43 74 44 75 45 76 68 77 69 78 77 79
REMARK SMILES IDX 70 80 76 81 71 82 72 83 73 84 74 85 75 86 54 87 55 88 63 89
REMARK SMILES IDX 56 90 62 91 57 92 58 93 59 94 60 95 61 96
REMARK H PARENT 22 6 18 12 18 13 15 17 26 33 82 52 52 63
REMARK Flexibility Score: inf
ROOT
ATOM      1  C   UNL A   1      38.393  30.840  35.746  1.00  0.00     0.042 C 
ENDROOT
BRANCH   1   2
ATOM      2  C   UNL A   1      37.573  32.079  36.086  1.00  0.00     0.118 C 
BRANCH   2   3
ATOM      3  N   UNL A   1      37.979  33.235  35.308  1.00  0.00    -0.351 N 
ATOM      4  C   UNL A   1      37.237  34.069  34.518  1.00  0.00     0.278 C 
ATOM      5  O   UNL A   1      37.839  34.955  33.907  1.00  0.00    -0.268 OA
ATOM      6  H   UNL A   1      38.938  33.453  35.357  1.00  0.00     0.163 HD
BRANCH   4   7
ATOM      7  C   UNL A   1      35.718  33.842  34.413  1.00  0.00     0.274 C 
ATOM      8  C   UNL A   1      34.073  34.082  32.688  1.00  0.00     0.143 C 
ATOM      9  C   UNL A   1      34.352  35.437  33.332  1.00  0.00     0.286 C 
ATOM     10  C   UNL A   1      35.336  33.310  33.033  1.00  0.00     0.106 C 
ATOM     11  N   UNL A   1      34.969  35.113  34.626  1.00  0.00    -0.334 N 
ATOM     12  H   UNL A   1      34.252  34.987  35.340  1.00  0.00     0.347 HD
ATOM     13  H   UNL A   1      35.585  35.861  34.945  1.00  0.00     0.347 HD
BRANCH   8  14
ATOM     14  N   UNL A   1      33.828  34.156  31.268  1.00  0.00    -0.346 N 
ATOM     15  O   UNL A   1      33.466  36.420  31.208  1.00  0.00    -0.273 OA
ATOM     16  C   UNL A   1      33.568  35.347  30.617  1.00  0.00     0.242 C 
ATOM     17  H   UNL A   1      33.847  33.324  30.742  1.00  0.00     0.164 HD
BRANCH  16  18
ATOM     18  C   UNL A   1      33.511  35.215  29.089  1.00  0.00     0.248 C 
BRANCH  18  19
ATOM     19  N   UNL A   1      34.102  33.947  28.663  1.00  0.00    -0.220 N 
ATOM     20  N   UNL A   1      35.463  33.801  28.848  1.00  0.00    -0.177 NA
ATOM     21  C   UNL A   1      33.323  33.041  27.941  1.00  0.00     0.275 A 
ATOM     22  C   UNL A   1      36.018  32.695  28.460  1.00  0.00     0.142 A 
ATOM     23  C   UNL A   1      33.930  31.733  27.664  1.00  0.00     0.050 A 
ATOM     24  O   UNL A   1      32.172  33.265  27.569  1.00  0.00    -0.267 OA
ATOM     25  C   UNL A   1      35.286  31.569  27.892  1.00  0.00     0.007 A 
ATOM     26  C   UNL A   1      33.162  30.658  27.207  1.00  0.00     0.014 A 
ATOM     27  C   UNL A   1      35.915  30.351  27.631  1.00  0.00     0.010 A 
ATOM     28  C   UNL A   1      33.775  29.428  26.970  1.00  0.00     0.001 A 
ATOM     29  C   UNL A   1      35.150  29.277  27.169  1.00  0.00     0.001 A 
ENDBRANCH  18  19
ENDBRANCH  16  18
ENDBRANCH   8  14
ENDBRANCH   4   7
ENDBRANCH   2   3
ENDBRANCH   1   2
BRANCH   1  30
ATOM     30  C   UNL A   1      38.607  30.615  34.253  1.00  0.00     0.118 C 
BRANCH  30  31
ATOM     31  N   UNL A   1      37.367  30.411  33.512  1.00  0.00    -0.352 N 
ATOM     32  C   UNL A   1      37.158  30.005  32.213  1.00  0.00     0.251 C 
ATOM     33  H   UNL A   1      36.546  30.592  34.025  1.00  0.00     0.163 HD
ATOM     34  O   UNL A   1      36.018  30.024  31.754  1.00  0.00    -0.269 OA
BRANCH  32  35
ATOM     35  C   UNL A   1      38.293  29.589  31.356  1.00  0.00     0.039 A 
ATOM     36  C   UNL A   1      39.186  28.602  31.769  1.00  0.00     0.014 A 
ATOM     37  C   UNL A   1      38.469  30.200  30.109  1.00  0.00     0.014 A 
ATOM     38  C   UNL A   1      40.353  28.378  31.046  1.00  0.00     0.010 A 
ATOM     39  C   UNL A   1      39.591  29.893  29.329  1.00  0.00     0.010 A 
ATOM     40  C   UNL A   1      40.576  29.021  29.817  1.00  0.00    -0.014 A 
BRANCH  40  41
ATOM     41  C   UNL A   1      41.844  28.756  29.079  1.00  0.00     0.031 A 
ATOM     42  C   UNL A   1      42.957  29.775  29.056  1.00  0.00     0.074 A 
ATOM     43  C   UNL A   1      42.031  27.547  28.509  1.00  0.00     0.049 A 
ATOM     44  N   UNL A   1      44.161  29.660  28.556  1.00  0.00    -0.248 NA
ATOM     45  C   UNL A   1      42.693  31.088  29.668  1.00  0.00     0.031 C 
ATOM     46  C   UNL A   1      41.036  26.470  28.481  1.00  0.00     0.029 A 
ATOM     47  N   UNL A   1      43.129  26.995  27.897  1.00  0.00    -0.354 N 
ATOM     48  C   UNL A   1      44.796  30.874  28.795  1.00  0.00     0.074 A 
ATOM     49  C   UNL A   1      43.830  31.733  29.441  1.00  0.00     0.031 C 
ATOM     50  C   UNL A   1      41.598  25.365  27.973  1.00  0.00     0.029 A 
ATOM     51  C   UNL A   1      42.967  25.667  27.567  1.00  0.00     0.049 A 
ATOM     52  H   UNL A   1      43.953  27.500  27.711  1.00  0.00     0.167 HD
ATOM     53  C   UNL A   1      46.074  31.230  28.525  1.00  0.00     0.031 A 
ATOM     54  C   UNL A   1      43.818  24.783  27.008  1.00  0.00     0.031 A 
ATOM     55  C   UNL A   1      47.040  30.366  27.896  1.00  0.00     0.049 A 
ATOM     56  C   UNL A   1      45.211  25.231  26.662  1.00  0.00     0.074 A 
ATOM     57  C   UNL A   1      48.362  30.644  27.589  1.00  0.00     0.029 A 
ATOM     58  N   UNL A   1      46.804  29.061  27.492  1.00  0.00    -0.354 N 
ATOM     59  N   UNL A   1      45.790  26.383  26.906  1.00  0.00    -0.248 NA
ATOM     60  C   UNL A   1      46.067  24.261  25.967  1.00  0.00     0.031 C 
ATOM     61  C   UNL A   1      48.904  29.534  26.940  1.00  0.00     0.029 A 
ATOM     62  C   UNL A   1      47.947  28.533  26.915  1.00  0.00     0.049 A 
ATOM     63  H   UNL A   1      45.952  28.582  27.599  1.00  0.00     0.167 HD
ATOM     64  C   UNL A   1      47.085  26.267  26.411  1.00  0.00     0.074 A 
ATOM     65  C   UNL A   1      47.212  24.926  25.881  1.00  0.00     0.031 C 
ATOM     66  C   UNL A   1      48.072  27.195  26.391  1.00  0.00     0.031 A 
BRANCH  53  67
ATOM     67  C   UNL A   1      46.543  32.607  28.928  1.00  0.00    -0.014 A 
ATOM     68  C   UNL A   1      47.041  32.828  30.226  1.00  0.00     0.010 A 
ATOM     69  C   UNL A   1      46.330  33.711  28.083  1.00  0.00     0.010 A 
ATOM     70  C   UNL A   1      47.264  34.127  30.692  1.00  0.00     0.020 A 
ATOM     71  C   UNL A   1      46.579  35.011  28.534  1.00  0.00     0.020 A 
ATOM     72  C   UNL A   1      47.015  35.212  29.846  1.00  0.00     0.054 A 
BRANCH  72  73
ATOM     73  S   UNL A   1      47.230  36.893  30.495  1.00  0.00     0.124 S 
ATOM     74  O   UNL A   1      47.663  37.628  29.311  1.00  0.00    -0.237 OA
ATOM     75  O   UNL A   1      45.892  37.215  30.987  1.00  0.00    -0.237 OA
ATOM     76  O   UNL A   1      48.243  36.730  31.535  1.00  0.00    -0.744 OA
ENDBRANCH  72  73
ENDBRANCH  53  67
BRANCH  54  77
ATOM     77  C   UNL A   1      43.382  23.376  26.780  1.00  0.00    -0.014 A 
ATOM     78  C   UNL A   1      42.994  22.560  27.859  1.00  0.00     0.010 A 
ATOM     79  C   UNL A   1      43.398  22.828  25.486  1.00  0.00     0.010 A 
ATOM     80  C   UNL A   1      42.682  21.213  27.658  1.00  0.00     0.020 A 
ATOM     81  C   UNL A   1      43.048  21.490  25.274  1.00  0.00     0.020 A 
ATOM     82  C   UNL A   1      42.719  20.684  26.366  1.00  0.00     0.054 A 
BRANCH  82  83
ATOM     83  S   UNL A   1      42.332  18.928  26.133  1.00  0.00     0.124 S 
ATOM     84  O   UNL A   1      40.917  18.979  25.776  1.00  0.00    -0.237 OA
ATOM     85  O   UNL A   1      43.240  18.542  25.056  1.00  0.00    -0.237 OA
ATOM     86  O   UNL A   1      42.628  18.337  27.435  1.00  0.00    -0.744 OA
ENDBRANCH  82  83
ENDBRANCH  54  77
BRANCH  66  87
ATOM     87  C   UNL A   1      49.396  26.810  25.780  1.00  0.00    -0.014 A 
ATOM     88  C   UNL A   1      50.384  26.203  26.577  1.00  0.00     0.010 A 
ATOM     89  C   UNL A   1      49.704  27.149  24.450  1.00  0.00     0.010 A 
ATOM     90  C   UNL A   1      51.665  25.971  26.067  1.00  0.00     0.020 A 
ATOM     91  C   UNL A   1      50.972  26.886  23.926  1.00  0.00     0.020 A 
ATOM     92  C   UNL A   1      51.952  26.321  24.746  1.00  0.00     0.054 A 
BRANCH  92  93
ATOM     93  S   UNL A   1      53.624  26.029  24.106  1.00  0.00     0.124 S 
ATOM     94  O   UNL A   1      53.393  25.947  22.667  1.00  0.00    -0.237 OA
ATOM     95  O   UNL A   1      54.353  27.210  24.563  1.00  0.00    -0.237 OA
ATOM     96  O   UNL A   1      54.022  24.777  24.747  1.00  0.00    -0.744 OA
ENDBRANCH  92  93
ENDBRANCH  66  87
ENDBRANCH  40  41
ENDBRANCH  32  35
ENDBRANCH  30  31
ENDBRANCH   1  30
TORSDOF 16
ENDMDL
