MODEL 1
REMARK VINA RESULT:     -13.1      0.000      0.000
REMARK SMILES COc1cccc(-c2c(C(=O)NCCCNC(=O)c3ccc(-c4c5nc(c(-c6ccc(S(=O)(=O)[O-])cc6)c6ccc([nH]6)c(-c6ccc(S(=O)(=O)[O-])cc6)c6nc(c(-c7ccc(S(=O)(=O)[O-])cc7)c7ccc4[nH]7)C=C6)C=C5)cc3)nnn2-c2ccc(OC(F)(F)F)cc2)c1
REMARK SMILES IDX 14 1 13 2 12 3 10 4 11 5 9 7 8 8 81 9 79 10 80 11 7 12 3 13
REMARK SMILES IDX 4 14 93 15 5 16 6 17 2 18 1 19 82 20 83 21 92 22 84 23 91 24
REMARK SMILES IDX 85 25 86 26 87 27 88 28 89 29 90 30 15 31 16 32 17 33 18 35
REMARK SMILES IDX 19 36 20 37 78 38 21 39 77 40 22 41 23 42 24 43 71 44 25 45
REMARK SMILES IDX 76 46 70 47 72 48 26 49 75 50 69 51 68 52 27 54 57 55 38 56
REMARK SMILES IDX 56 57 39 58 42 59 55 60 73 61 40 62 41 63 54 65 74 66 43 67
REMARK SMILES IDX 28 68 29 69 37 70 30 71 36 72 31 73 32 74 33 75 34 76 35 77
REMARK SMILES IDX 58 78 59 79 67 80 60 81 66 82 61 83 62 84 63 85 64 86 65 87
REMARK SMILES IDX 44 88 45 89 53 90 46 91 52 92 47 93 48 94 49 95 50 96 51 97
REMARK H PARENT 12 6 16 34 72 53 42 64
REMARK Flexibility Score: inf
ROOT
ATOM      1  C   UNL A   1      37.156  22.939  24.686  1.00  0.00     0.042 C 
ENDROOT
BRANCH   1   2
ATOM      2  C   UNL A   1      35.707  23.341  24.425  1.00  0.00     0.118 C 
BRANCH   2   3
ATOM      3  N   UNL A   1      34.847  23.157  25.566  1.00  0.00    -0.351 N 
ATOM      4  C   UNL A   1      33.541  23.467  25.835  1.00  0.00     0.274 C 
ATOM      5  O   UNL A   1      33.124  22.958  26.881  1.00  0.00    -0.267 OA
ATOM      6  H   UNL A   1      35.299  22.710  26.318  1.00  0.00     0.163 HD
BRANCH   4   7
ATOM      7  C   UNL A   1      32.652  24.318  25.031  1.00  0.00     0.178 A 
ATOM      8  C   UNL A   1      32.252  25.657  24.990  1.00  0.00     0.108 A 
ATOM      9  N   UNL A   1      31.347  25.693  23.923  1.00  0.00    -0.212 N 
ATOM     10  N   UNL A   1      31.922  23.638  24.059  1.00  0.00    -0.124 NA
ATOM     11  N   UNL A   1      31.069  24.461  23.484  1.00  0.00    -0.061 NA
BRANCH   8  12
ATOM     12  C   UNL A   1      32.410  26.838  25.845  1.00  0.00     0.006 A 
ATOM     13  C   UNL A   1      33.852  28.615  26.696  1.00  0.00     0.119 A 
ATOM     14  C   UNL A   1      32.806  29.052  27.513  1.00  0.00     0.046 A 
ATOM     15  C   UNL A   1      33.653  27.508  25.868  1.00  0.00     0.056 A 
ATOM     16  C   UNL A   1      31.583  28.379  27.525  1.00  0.00     0.005 A 
ATOM     17  C   UNL A   1      31.396  27.255  26.718  1.00  0.00     0.011 A 
BRANCH  13  18
ATOM     18  O   UNL A   1      35.004  29.341  26.802  1.00  0.00    -0.497 OA
ATOM     19  C   UNL A   1      35.016  30.397  27.755  1.00  0.00     0.278 C 
ENDBRANCH  13  18
ENDBRANCH   8  12
BRANCH   9  20
ATOM     20  C   UNL A   1      30.683  26.819  23.388  1.00  0.00     0.067 A 
ATOM     21  C   UNL A   1      29.316  26.984  23.607  1.00  0.00     0.032 A 
ATOM     22  C   UNL A   1      31.414  27.797  22.707  1.00  0.00     0.032 A 
ATOM     23  C   UNL A   1      28.711  28.187  23.231  1.00  0.00     0.049 A 
ATOM     24  C   UNL A   1      30.797  28.980  22.312  1.00  0.00     0.049 A 
ATOM     25  C   UNL A   1      29.450  29.196  22.599  1.00  0.00     0.129 A 
BRANCH  25  26
ATOM     26  O   UNL A   1      28.747  30.333  22.321  1.00  0.00    -0.406 OA
BRANCH  26  27
ATOM     27  C   UNL A   1      28.530  31.238  23.392  1.00  0.00     0.573 C 
ATOM     28  F   UNL A   1      27.369  30.978  24.033  1.00  0.00    -0.132 F 
ATOM     29  F   UNL A   1      29.551  31.197  24.275  1.00  0.00    -0.132 F 
ATOM     30  F   UNL A   1      28.459  32.493  22.894  1.00  0.00    -0.132 F 
ENDBRANCH  26  27
ENDBRANCH  25  26
ENDBRANCH   9  20
ENDBRANCH   4   7
ENDBRANCH   2   3
ENDBRANCH   1   2
BRANCH   1  31
ATOM     31  C   UNL A   1      37.645  23.311  26.069  1.00  0.00     0.118 C 
BRANCH  31  32
ATOM     32  N   UNL A   1      38.689  22.383  26.553  1.00  0.00    -0.352 N 
ATOM     33  C   UNL A   1      40.023  22.631  26.835  1.00  0.00     0.251 C 
ATOM     34  H   UNL A   1      38.394  21.454  26.693  1.00  0.00     0.163 HD
ATOM     35  O   UNL A   1      40.839  21.716  26.906  1.00  0.00    -0.269 OA
BRANCH  33  36
ATOM     36  C   UNL A   1      40.426  24.028  27.053  1.00  0.00     0.039 A 
ATOM     37  C   UNL A   1      39.873  25.111  26.365  1.00  0.00     0.014 A 
ATOM     38  C   UNL A   1      41.266  24.223  28.132  1.00  0.00     0.014 A 
ATOM     39  C   UNL A   1      40.094  26.392  26.872  1.00  0.00     0.010 A 
ATOM     40  C   UNL A   1      41.160  25.401  28.801  1.00  0.00     0.010 A 
ATOM     41  C   UNL A   1      40.714  26.521  28.123  1.00  0.00    -0.014 A 
BRANCH  41  42
ATOM     42  C   UNL A   1      40.868  27.780  28.833  1.00  0.00     0.031 A 
ATOM     43  C   UNL A   1      41.990  28.622  28.363  1.00  0.00     0.074 A 
ATOM     44  C   UNL A   1      39.915  28.268  29.661  1.00  0.00     0.049 A 
ATOM     45  N   UNL A   1      43.158  28.729  28.900  1.00  0.00    -0.248 NA
ATOM     46  C   UNL A   1      41.873  29.278  27.051  1.00  0.00     0.031 C 
ATOM     47  C   UNL A   1      38.577  27.724  29.958  1.00  0.00     0.029 A 
ATOM     48  N   UNL A   1      39.897  29.447  30.330  1.00  0.00    -0.354 N 
ATOM     49  C   UNL A   1      43.822  29.691  28.152  1.00  0.00     0.074 A 
ATOM     50  C   UNL A   1      43.099  29.787  26.908  1.00  0.00     0.031 C 
ATOM     51  C   UNL A   1      37.811  28.675  30.535  1.00  0.00     0.029 A 
ATOM     52  C   UNL A   1      38.656  29.811  30.839  1.00  0.00     0.049 A 
ATOM     53  H   UNL A   1      40.702  30.002  30.447  1.00  0.00     0.167 HD
ATOM     54  C   UNL A   1      44.707  30.548  28.737  1.00  0.00     0.031 A 
ATOM     55  C   UNL A   1      38.346  30.971  31.470  1.00  0.00     0.031 A 
ATOM     56  C   UNL A   1      44.991  30.155  30.100  1.00  0.00     0.049 A 
ATOM     57  C   UNL A   1      39.626  31.528  31.973  1.00  0.00     0.074 A 
ATOM     58  C   UNL A   1      45.480  29.016  30.708  1.00  0.00     0.029 A 
ATOM     59  N   UNL A   1      44.344  30.866  31.089  1.00  0.00    -0.354 N 
ATOM     60  N   UNL A   1      40.352  30.937  32.884  1.00  0.00    -0.248 NA
ATOM     61  C   UNL A   1      40.336  32.480  31.135  1.00  0.00     0.031 C 
ATOM     62  C   UNL A   1      44.702  28.871  31.897  1.00  0.00     0.029 A 
ATOM     63  C   UNL A   1      43.843  29.968  31.997  1.00  0.00     0.049 A 
ATOM     64  H   UNL A   1      44.257  31.845  31.136  1.00  0.00     0.167 HD
ATOM     65  C   UNL A   1      41.662  31.097  32.454  1.00  0.00     0.074 A 
ATOM     66  C   UNL A   1      41.596  32.144  31.434  1.00  0.00     0.031 C 
ATOM     67  C   UNL A   1      42.623  30.171  32.756  1.00  0.00     0.031 A 
BRANCH  54  68
ATOM     68  C   UNL A   1      44.962  31.962  28.266  1.00  0.00    -0.014 A 
ATOM     69  C   UNL A   1      46.259  32.493  28.424  1.00  0.00     0.010 A 
ATOM     70  C   UNL A   1      43.937  32.871  27.937  1.00  0.00     0.010 A 
ATOM     71  C   UNL A   1      46.494  33.872  28.358  1.00  0.00     0.020 A 
ATOM     72  C   UNL A   1      44.169  34.242  27.824  1.00  0.00     0.020 A 
ATOM     73  C   UNL A   1      45.439  34.738  28.078  1.00  0.00     0.054 A 
BRANCH  73  74
ATOM     74  S   UNL A   1      45.725  36.523  28.120  1.00  0.00     0.124 S 
ATOM     75  O   UNL A   1      44.362  37.039  28.208  1.00  0.00    -0.237 OA
ATOM     76  O   UNL A   1      46.542  36.675  29.320  1.00  0.00    -0.237 OA
ATOM     77  O   UNL A   1      46.417  36.787  26.861  1.00  0.00    -0.744 OA
ENDBRANCH  73  74
ENDBRANCH  54  68
BRANCH  55  78
ATOM     78  C   UNL A   1      37.088  31.752  31.399  1.00  0.00    -0.014 A 
ATOM     79  C   UNL A   1      36.189  31.774  32.482  1.00  0.00     0.010 A 
ATOM     80  C   UNL A   1      36.911  32.713  30.382  1.00  0.00     0.010 A 
ATOM     81  C   UNL A   1      35.201  32.769  32.582  1.00  0.00     0.020 A 
ATOM     82  C   UNL A   1      35.925  33.705  30.473  1.00  0.00     0.020 A 
ATOM     83  C   UNL A   1      35.092  33.745  31.588  1.00  0.00     0.054 A 
BRANCH  83  84
ATOM     84  S   UNL A   1      33.949  35.139  31.827  1.00  0.00     0.124 S 
ATOM     85  O   UNL A   1      33.691  35.569  30.456  1.00  0.00    -0.237 OA
ATOM     86  O   UNL A   1      32.823  34.515  32.516  1.00  0.00    -0.237 OA
ATOM     87  O   UNL A   1      34.721  36.081  32.638  1.00  0.00    -0.744 OA
ENDBRANCH  83  84
ENDBRANCH  55  78
BRANCH  67  88
ATOM     88  C   UNL A   1      42.320  29.138  33.819  1.00  0.00    -0.014 A 
ATOM     89  C   UNL A   1      41.784  27.861  33.553  1.00  0.00     0.010 A 
ATOM     90  C   UNL A   1      42.742  29.424  35.130  1.00  0.00     0.010 A 
ATOM     91  C   UNL A   1      41.652  26.910  34.579  1.00  0.00     0.020 A 
ATOM     92  C   UNL A   1      42.630  28.476  36.150  1.00  0.00     0.020 A 
ATOM     93  C   UNL A   1      42.077  27.226  35.873  1.00  0.00     0.054 A 
BRANCH  93  94
ATOM     94  S   UNL A   1      41.943  25.984  37.191  1.00  0.00     0.124 S 
ATOM     95  O   UNL A   1      40.552  26.116  37.613  1.00  0.00    -0.237 OA
ATOM     96  O   UNL A   1      42.275  24.740  36.501  1.00  0.00    -0.237 OA
ATOM     97  O   UNL A   1      42.932  26.416  38.179  1.00  0.00    -0.744 OA
ENDBRANCH  93  94
ENDBRANCH  67  88
ENDBRANCH  41  42
ENDBRANCH  33  36
ENDBRANCH  31  32
ENDBRANCH   1  31
TORSDOF 18
ENDMDL
MODEL 2
REMARK VINA RESULT:     -12.8      3.956      9.673
REMARK SMILES COc1cccc(-c2c(C(=O)NCCCNC(=O)c3ccc(-c4c5nc(c(-c6ccc(S(=O)(=O)[O-])cc6)c6ccc([nH]6)c(-c6ccc(S(=O)(=O)[O-])cc6)c6nc(c(-c7ccc(S(=O)(=O)[O-])cc7)c7ccc4[nH]7)C=C6)C=C5)cc3)nnn2-c2ccc(OC(F)(F)F)cc2)c1
REMARK SMILES IDX 14 1 13 2 12 3 10 4 11 5 9 7 8 8 81 9 79 10 80 11 7 12 3 13
REMARK SMILES IDX 4 14 93 15 5 16 6 17 2 18 1 19 82 20 83 21 92 22 84 23 91 24
REMARK SMILES IDX 85 25 86 26 87 27 88 28 89 29 90 30 15 31 16 32 17 33 18 35
REMARK SMILES IDX 19 36 20 37 78 38 21 39 77 40 22 41 23 42 24 43 71 44 25 45
REMARK SMILES IDX 76 46 70 47 72 48 26 49 75 50 69 51 68 52 27 54 57 55 38 56
REMARK SMILES IDX 56 57 39 58 42 59 55 60 73 61 40 62 41 63 54 65 74 66 43 67
REMARK SMILES IDX 28 68 29 69 37 70 30 71 36 72 31 73 32 74 33 75 34 76 35 77
REMARK SMILES IDX 58 78 59 79 67 80 60 81 66 82 61 83 62 84 63 85 64 86 65 87
REMARK SMILES IDX 44 88 45 89 53 90 46 91 52 92 47 93 48 94 49 95 50 96 51 97
REMARK H PARENT 12 6 16 34 72 53 42 64
REMARK Flexibility Score: inf
ROOT
ATOM      1  C   UNL A   1      32.723  28.806  27.076  1.00  0.00     0.042 C 
ENDROOT
BRANCH   1   2
ATOM      2  C   UNL A   1      32.159  27.848  26.029  1.00  0.00     0.118 C 
BRANCH   2   3
ATOM      3  N   UNL A   1      32.878  27.876  24.781  1.00  0.00    -0.351 N 
ATOM      4  C   UNL A   1      33.043  26.983  23.756  1.00  0.00     0.274 C 
ATOM      5  O   UNL A   1      33.590  27.476  22.763  1.00  0.00    -0.267 OA
ATOM      6  H   UNL A   1      33.357  28.724  24.633  1.00  0.00     0.163 HD
BRANCH   4   7
ATOM      7  C   UNL A   1      32.655  25.565  23.748  1.00  0.00     0.178 A 
ATOM      8  C   UNL A   1      33.257  24.322  23.967  1.00  0.00     0.108 A 
ATOM      9  N   UNL A   1      32.212  23.415  23.753  1.00  0.00    -0.212 N 
ATOM     10  N   UNL A   1      31.341  25.326  23.354  1.00  0.00    -0.124 NA
ATOM     11  N   UNL A   1      31.132  24.029  23.258  1.00  0.00    -0.061 NA
BRANCH   8  12
ATOM     12  C   UNL A   1      34.622  23.823  24.153  1.00  0.00     0.006 A 
ATOM     13  C   UNL A   1      36.616  23.683  25.557  1.00  0.00     0.119 A 
ATOM     14  C   UNL A   1      37.261  22.967  24.545  1.00  0.00     0.046 A 
ATOM     15  C   UNL A   1      35.301  24.111  25.357  1.00  0.00     0.056 A 
ATOM     16  C   UNL A   1      36.613  22.703  23.336  1.00  0.00     0.005 A 
ATOM     17  C   UNL A   1      35.310  23.158  23.128  1.00  0.00     0.011 A 
BRANCH  13  18
ATOM     18  O   UNL A   1      37.370  23.900  26.675  1.00  0.00    -0.497 OA
ATOM     19  C   UNL A   1      38.779  23.975  26.498  1.00  0.00     0.278 C 
ENDBRANCH  13  18
ENDBRANCH   8  12
BRANCH   9  20
ATOM     20  C   UNL A   1      32.240  22.011  23.908  1.00  0.00     0.067 A 
ATOM     21  C   UNL A   1      32.152  21.190  22.784  1.00  0.00     0.032 A 
ATOM     22  C   UNL A   1      32.430  21.456  25.176  1.00  0.00     0.032 A 
ATOM     23  C   UNL A   1      32.362  19.816  22.931  1.00  0.00     0.049 A 
ATOM     24  C   UNL A   1      32.612  20.083  25.317  1.00  0.00     0.049 A 
ATOM     25  C   UNL A   1      32.611  19.259  24.192  1.00  0.00     0.129 A 
BRANCH  25  26
ATOM     26  O   UNL A   1      32.838  17.912  24.190  1.00  0.00    -0.406 OA
BRANCH  26  27
ATOM     27  C   UNL A   1      34.187  17.484  24.094  1.00  0.00     0.573 C 
ATOM     28  F   UNL A   1      35.047  18.513  24.252  1.00  0.00    -0.132 F 
ATOM     29  F   UNL A   1      34.457  16.527  25.009  1.00  0.00    -0.132 F 
ATOM     30  F   UNL A   1      34.390  16.955  22.867  1.00  0.00    -0.132 F 
ENDBRANCH  26  27
ENDBRANCH  25  26
ENDBRANCH   9  20
ENDBRANCH   4   7
ENDBRANCH   2   3
ENDBRANCH   1   2
BRANCH   1  31
ATOM     31  C   UNL A   1      34.064  29.393  26.694  1.00  0.00     0.118 C 
BRANCH  31  32
ATOM     32  N   UNL A   1      34.100  30.858  26.893  1.00  0.00    -0.352 N 
ATOM     33  C   UNL A   1      34.755  31.596  27.867  1.00  0.00     0.251 C 
ATOM     34  H   UNL A   1      33.585  31.385  26.241  1.00  0.00     0.163 HD
ATOM     35  O   UNL A   1      34.433  32.756  28.108  1.00  0.00    -0.269 OA
BRANCH  33  36
ATOM     36  C   UNL A   1      35.852  30.943  28.596  1.00  0.00     0.039 A 
ATOM     37  C   UNL A   1      35.842  29.597  28.970  1.00  0.00     0.014 A 
ATOM     38  C   UNL A   1      36.994  31.710  28.725  1.00  0.00     0.014 A 
ATOM     39  C   UNL A   1      37.048  29.017  29.363  1.00  0.00     0.010 A 
ATOM     40  C   UNL A   1      38.185  31.058  28.746  1.00  0.00     0.010 A 
ATOM     41  C   UNL A   1      38.230  29.755  29.209  1.00  0.00    -0.014 A 
BRANCH  41  42
ATOM     42  C   UNL A   1      39.563  29.221  29.434  1.00  0.00     0.031 A 
ATOM     43  C   UNL A   1      39.892  28.957  30.853  1.00  0.00     0.074 A 
ATOM     44  C   UNL A   1      40.336  28.748  28.429  1.00  0.00     0.049 A 
ATOM     45  N   UNL A   1      40.581  29.708  31.642  1.00  0.00    -0.248 NA
ATOM     46  C   UNL A   1      39.232  27.827  31.526  1.00  0.00     0.031 C 
ATOM     47  C   UNL A   1      40.011  28.607  26.998  1.00  0.00     0.029 A 
ATOM     48  N   UNL A   1      41.559  28.168  28.501  1.00  0.00    -0.354 N 
ATOM     49  C   UNL A   1      40.683  28.999  32.831  1.00  0.00     0.074 A 
ATOM     50  C   UNL A   1      39.638  28.007  32.786  1.00  0.00     0.031 C 
ATOM     51  C   UNL A   1      40.895  27.775  26.405  1.00  0.00     0.029 A 
ATOM     52  C   UNL A   1      41.958  27.500  27.349  1.00  0.00     0.049 A 
ATOM     53  H   UNL A   1      42.122  28.218  29.307  1.00  0.00     0.167 HD
ATOM     54  C   UNL A   1      41.807  29.075  33.601  1.00  0.00     0.031 A 
ATOM     55  C   UNL A   1      43.088  26.769  27.186  1.00  0.00     0.031 A 
ATOM     56  C   UNL A   1      42.692  30.118  33.129  1.00  0.00     0.049 A 
ATOM     57  C   UNL A   1      44.039  27.230  28.228  1.00  0.00     0.074 A 
ATOM     58  C   UNL A   1      42.577  31.478  32.918  1.00  0.00     0.029 A 
ATOM     59  N   UNL A   1      43.778  29.709  32.383  1.00  0.00    -0.354 N 
ATOM     60  N   UNL A   1      44.529  28.440  28.261  1.00  0.00    -0.248 NA
ATOM     61  C   UNL A   1      44.071  26.512  29.491  1.00  0.00     0.031 C 
ATOM     62  C   UNL A   1      43.287  31.722  31.703  1.00  0.00     0.029 A 
ATOM     63  C   UNL A   1      43.868  30.523  31.284  1.00  0.00     0.049 A 
ATOM     64  H   UNL A   1      44.382  28.962  32.602  1.00  0.00     0.167 HD
ATOM     65  C   UNL A   1      44.516  28.792  29.604  1.00  0.00     0.074 A 
ATOM     66  C   UNL A   1      44.327  27.530  30.320  1.00  0.00     0.031 C 
ATOM     67  C   UNL A   1      44.370  30.096  29.992  1.00  0.00     0.031 A 
BRANCH  54  68
ATOM     68  C   UNL A   1      42.323  27.950  34.468  1.00  0.00    -0.014 A 
ATOM     69  C   UNL A   1      42.667  28.243  35.804  1.00  0.00     0.010 A 
ATOM     70  C   UNL A   1      42.741  26.703  33.962  1.00  0.00     0.010 A 
ATOM     71  C   UNL A   1      43.474  27.379  36.554  1.00  0.00     0.020 A 
ATOM     72  C   UNL A   1      43.506  25.814  34.717  1.00  0.00     0.020 A 
ATOM     73  C   UNL A   1      43.903  26.177  35.995  1.00  0.00     0.054 A 
BRANCH  73  74
ATOM     74  S   UNL A   1      45.046  25.128  36.923  1.00  0.00     0.124 S 
ATOM     75  O   UNL A   1      44.235  24.755  38.078  1.00  0.00    -0.237 OA
ATOM     76  O   UNL A   1      45.325  24.058  35.968  1.00  0.00    -0.237 OA
ATOM     77  O   UNL A   1      46.171  26.016  37.205  1.00  0.00    -0.744 OA
ENDBRANCH  73  74
ENDBRANCH  54  68
BRANCH  55  78
ATOM     78  C   UNL A   1      43.276  25.525  26.402  1.00  0.00    -0.014 A 
ATOM     79  C   UNL A   1      44.397  25.360  25.566  1.00  0.00     0.010 A 
ATOM     80  C   UNL A   1      42.509  24.380  26.701  1.00  0.00     0.010 A 
ATOM     81  C   UNL A   1      44.781  24.086  25.112  1.00  0.00     0.020 A 
ATOM     82  C   UNL A   1      42.882  23.108  26.248  1.00  0.00     0.020 A 
ATOM     83  C   UNL A   1      44.034  22.963  25.479  1.00  0.00     0.054 A 
BRANCH  83  84
ATOM     84  S   UNL A   1      44.650  21.304  25.057  1.00  0.00     0.124 S 
ATOM     85  O   UNL A   1      43.706  20.435  25.751  1.00  0.00    -0.237 OA
ATOM     86  O   UNL A   1      44.564  21.293  23.599  1.00  0.00    -0.237 OA
ATOM     87  O   UNL A   1      46.011  21.297  25.593  1.00  0.00    -0.744 OA
ENDBRANCH  83  84
ENDBRANCH  55  78
BRANCH  67  88
ATOM     88  C   UNL A   1      44.537  31.181  28.949  1.00  0.00    -0.014 A 
ATOM     89  C   UNL A   1      45.626  32.074  28.903  1.00  0.00     0.010 A 
ATOM     90  C   UNL A   1      43.621  31.190  27.882  1.00  0.00     0.010 A 
ATOM     91  C   UNL A   1      45.776  32.969  27.830  1.00  0.00     0.020 A 
ATOM     92  C   UNL A   1      43.775  32.065  26.804  1.00  0.00     0.020 A 
ATOM     93  C   UNL A   1      44.846  32.957  26.785  1.00  0.00     0.054 A 
BRANCH  93  94
ATOM     94  S   UNL A   1      45.061  34.085  25.379  1.00  0.00     0.124 S 
ATOM     95  O   UNL A   1      44.315  35.267  25.802  1.00  0.00    -0.237 OA
ATOM     96  O   UNL A   1      46.512  34.248  25.311  1.00  0.00    -0.237 OA
ATOM     97  O   UNL A   1      44.475  33.355  24.254  1.00  0.00    -0.744 OA
ENDBRANCH  93  94
ENDBRANCH  67  88
ENDBRANCH  41  42
ENDBRANCH  33  36
ENDBRANCH  31  32
ENDBRANCH   1  31
TORSDOF 18
ENDMDL
MODEL 3
REMARK VINA RESULT:     -12.3      1.710      2.866
REMARK SMILES COc1cccc(-c2c(C(=O)NCCCNC(=O)c3ccc(-c4c5nc(c(-c6ccc(S(=O)(=O)[O-])cc6)c6ccc([nH]6)c(-c6ccc(S(=O)(=O)[O-])cc6)c6nc(c(-c7ccc(S(=O)(=O)[O-])cc7)c7ccc4[nH]7)C=C6)C=C5)cc3)nnn2-c2ccc(OC(F)(F)F)cc2)c1
REMARK SMILES IDX 14 1 13 2 12 3 10 4 11 5 9 7 8 8 81 9 79 10 80 11 7 12 3 13
REMARK SMILES IDX 4 14 93 15 5 16 6 17 2 18 1 19 82 20 83 21 92 22 84 23 91 24
REMARK SMILES IDX 85 25 86 26 87 27 88 28 89 29 90 30 15 31 16 32 17 33 18 35
REMARK SMILES IDX 19 36 20 37 78 38 21 39 77 40 22 41 23 42 24 43 71 44 25 45
REMARK SMILES IDX 76 46 70 47 72 48 26 49 75 50 69 51 68 52 27 54 57 55 38 56
REMARK SMILES IDX 56 57 39 58 42 59 55 60 73 61 40 62 41 63 54 65 74 66 43 67
REMARK SMILES IDX 28 68 29 69 37 70 30 71 36 72 31 73 32 74 33 75 34 76 35 77
REMARK SMILES IDX 58 78 59 79 67 80 60 81 66 82 61 83 62 84 63 85 64 86 65 87
REMARK SMILES IDX 44 88 45 89 53 90 46 91 52 92 47 93 48 94 49 95 50 96 51 97
REMARK H PARENT 12 6 16 34 72 53 42 64
REMARK Flexibility Score: inf
ROOT
ATOM      1  C   UNL A   1      37.157  21.668  24.503  1.00  0.00     0.042 C 
ENDROOT
BRANCH   1   2
ATOM      2  C   UNL A   1      37.045  20.268  25.103  1.00  0.00     0.118 C 
BRANCH   2   3
ATOM      3  N   UNL A   1      35.709  19.733  25.058  1.00  0.00    -0.351 N 
ATOM      4  C   UNL A   1      34.458  20.282  25.159  1.00  0.00     0.274 C 
ATOM      5  O   UNL A   1      33.553  19.490  24.872  1.00  0.00    -0.267 OA
ATOM      6  H   UNL A   1      35.690  18.757  24.928  1.00  0.00     0.163 HD
BRANCH   4   7
ATOM      7  C   UNL A   1      34.126  21.654  25.569  1.00  0.00     0.178 A 
ATOM      8  C   UNL A   1      33.665  22.833  24.974  1.00  0.00     0.108 A 
ATOM      9  N   UNL A   1      33.614  23.736  26.042  1.00  0.00    -0.212 N 
ATOM     10  N   UNL A   1      34.387  21.940  26.906  1.00  0.00    -0.124 NA
ATOM     11  N   UNL A   1      34.178  23.219  27.139  1.00  0.00    -0.061 NA
BRANCH   8  12
ATOM     12  C   UNL A   1      33.443  23.315  23.607  1.00  0.00     0.006 A 
ATOM     13  C   UNL A   1      33.526  25.160  22.009  1.00  0.00     0.119 A 
ATOM     14  C   UNL A   1      32.971  24.324  21.037  1.00  0.00     0.046 A 
ATOM     15  C   UNL A   1      33.757  24.655  23.291  1.00  0.00     0.056 A 
ATOM     16  C   UNL A   1      32.624  23.007  21.345  1.00  0.00     0.005 A 
ATOM     17  C   UNL A   1      32.829  22.514  22.635  1.00  0.00     0.011 A 
BRANCH  13  18
ATOM     18  O   UNL A   1      33.790  26.433  21.589  1.00  0.00    -0.497 OA
ATOM     19  C   UNL A   1      33.729  27.462  22.569  1.00  0.00     0.278 C 
ENDBRANCH  13  18
ENDBRANCH   8  12
BRANCH   9  20
ATOM     20  C   UNL A   1      33.150  25.069  26.027  1.00  0.00     0.067 A 
ATOM     21  C   UNL A   1      31.778  25.324  26.030  1.00  0.00     0.032 A 
ATOM     22  C   UNL A   1      34.065  26.124  26.085  1.00  0.00     0.032 A 
ATOM     23  C   UNL A   1      31.335  26.639  26.198  1.00  0.00     0.049 A 
ATOM     24  C   UNL A   1      33.614  27.433  26.226  1.00  0.00     0.049 A 
ATOM     25  C   UNL A   1      32.247  27.696  26.315  1.00  0.00     0.129 A 
BRANCH  25  26
ATOM     26  O   UNL A   1      31.681  28.923  26.515  1.00  0.00    -0.406 OA
BRANCH  26  27
ATOM     27  C   UNL A   1      31.552  29.767  25.383  1.00  0.00     0.573 C 
ATOM     28  F   UNL A   1      31.139  31.005  25.733  1.00  0.00    -0.132 F 
ATOM     29  F   UNL A   1      32.719  29.856  24.709  1.00  0.00    -0.132 F 
ATOM     30  F   UNL A   1      30.628  29.240  24.549  1.00  0.00    -0.132 F 
ENDBRANCH  26  27
ENDBRANCH  25  26
ENDBRANCH   9  20
ENDBRANCH   4   7
ENDBRANCH   2   3
ENDBRANCH   1   2
BRANCH   1  31
ATOM     31  C   UNL A   1      38.092  22.578  25.269  1.00  0.00     0.118 C 
BRANCH  31  32
ATOM     32  N   UNL A   1      38.808  21.855  26.342  1.00  0.00    -0.352 N 
ATOM     33  C   UNL A   1      39.843  22.291  27.156  1.00  0.00     0.251 C 
ATOM     34  H   UNL A   1      38.508  20.932  26.501  1.00  0.00     0.163 HD
ATOM     35  O   UNL A   1      40.553  21.493  27.762  1.00  0.00    -0.269 OA
BRANCH  33  36
ATOM     36  C   UNL A   1      40.056  23.740  27.272  1.00  0.00     0.039 A 
ATOM     37  C   UNL A   1      39.066  24.693  27.018  1.00  0.00     0.014 A 
ATOM     38  C   UNL A   1      41.263  24.101  27.838  1.00  0.00     0.014 A 
ATOM     39  C   UNL A   1      39.281  25.997  27.464  1.00  0.00     0.010 A 
ATOM     40  C   UNL A   1      41.292  25.244  28.571  1.00  0.00     0.010 A 
ATOM     41  C   UNL A   1      40.393  26.253  28.279  1.00  0.00    -0.014 A 
BRANCH  41  42
ATOM     42  C   UNL A   1      40.651  27.525  28.934  1.00  0.00     0.031 A 
ATOM     43  C   UNL A   1      41.681  28.360  28.278  1.00  0.00     0.074 A 
ATOM     44  C   UNL A   1      39.838  28.028  29.892  1.00  0.00     0.049 A 
ATOM     45  N   UNL A   1      42.918  28.478  28.622  1.00  0.00    -0.248 NA
ATOM     46  C   UNL A   1      41.355  28.992  26.989  1.00  0.00     0.031 C 
ATOM     47  C   UNL A   1      38.566  27.487  30.407  1.00  0.00     0.029 A 
ATOM     48  N   UNL A   1      39.921  29.219  30.535  1.00  0.00    -0.354 N 
ATOM     49  C   UNL A   1      43.452  29.428  27.761  1.00  0.00     0.074 A 
ATOM     50  C   UNL A   1      42.542  29.500  26.645  1.00  0.00     0.031 C 
ATOM     51  C   UNL A   1      37.897  28.448  31.080  1.00  0.00     0.029 A 
ATOM     52  C   UNL A   1      38.774  29.590  31.227  1.00  0.00     0.049 A 
ATOM     53  H   UNL A   1      40.731  29.776  30.514  1.00  0.00     0.167 HD
ATOM     54  C   UNL A   1      44.415  30.297  28.183  1.00  0.00     0.031 A 
ATOM     55  C   UNL A   1      38.563  30.761  31.877  1.00  0.00     0.031 A 
ATOM     56  C   UNL A   1      44.911  29.929  29.492  1.00  0.00     0.049 A 
ATOM     57  C   UNL A   1      39.904  31.329  32.163  1.00  0.00     0.074 A 
ATOM     58  C   UNL A   1      45.495  28.802  30.035  1.00  0.00     0.029 A 
ATOM     59  N   UNL A   1      44.426  30.657  30.557  1.00  0.00    -0.354 N 
ATOM     60  N   UNL A   1      40.766  30.756  32.958  1.00  0.00    -0.248 NA
ATOM     61  C   UNL A   1      40.468  32.266  31.206  1.00  0.00     0.031 C 
ATOM     62  C   UNL A   1      44.915  28.679  31.334  1.00  0.00     0.029 A 
ATOM     63  C   UNL A   1      44.078  29.776  31.549  1.00  0.00     0.049 A 
ATOM     64  H   UNL A   1      44.343  31.637  30.599  1.00  0.00     0.167 HD
ATOM     65  C   UNL A   1      41.991  30.909  32.324  1.00  0.00     0.074 A 
ATOM     66  C   UNL A   1      41.761  31.937  31.308  1.00  0.00     0.031 C 
ATOM     67  C   UNL A   1      42.992  29.991  32.487  1.00  0.00     0.031 A 
BRANCH  54  68
ATOM     68  C   UNL A   1      44.586  31.702  27.653  1.00  0.00    -0.014 A 
ATOM     69  C   UNL A   1      45.770  32.009  26.950  1.00  0.00     0.010 A 
ATOM     70  C   UNL A   1      43.779  32.788  28.046  1.00  0.00     0.010 A 
ATOM     71  C   UNL A   1      46.172  33.335  26.746  1.00  0.00     0.020 A 
ATOM     72  C   UNL A   1      44.147  34.112  27.807  1.00  0.00     0.020 A 
ATOM     73  C   UNL A   1      45.364  34.377  27.195  1.00  0.00     0.054 A 
BRANCH  73  74
ATOM     74  S   UNL A   1      45.949  36.080  27.040  1.00  0.00     0.124 S 
ATOM     75  O   UNL A   1      46.793  36.213  28.224  1.00  0.00    -0.237 OA
ATOM     76  O   UNL A   1      46.650  36.050  25.760  1.00  0.00    -0.237 OA
ATOM     77  O   UNL A   1      44.718  36.866  27.055  1.00  0.00    -0.744 OA
ENDBRANCH  73  74
ENDBRANCH  54  68
BRANCH  55  78
ATOM     78  C   UNL A   1      37.305  31.538  31.992  1.00  0.00    -0.014 A 
ATOM     79  C   UNL A   1      36.904  32.085  33.225  1.00  0.00     0.010 A 
ATOM     80  C   UNL A   1      36.650  31.995  30.829  1.00  0.00     0.010 A 
ATOM     81  C   UNL A   1      35.939  33.106  33.284  1.00  0.00     0.020 A 
ATOM     82  C   UNL A   1      35.685  33.009  30.881  1.00  0.00     0.020 A 
ATOM     83  C   UNL A   1      35.354  33.580  32.107  1.00  0.00     0.054 A 
BRANCH  83  84
ATOM     84  S   UNL A   1      34.263  35.034  32.175  1.00  0.00     0.124 S 
ATOM     85  O   UNL A   1      35.044  35.974  32.972  1.00  0.00    -0.237 OA
ATOM     86  O   UNL A   1      34.103  35.379  30.765  1.00  0.00    -0.237 OA
ATOM     87  O   UNL A   1      33.054  34.525  32.824  1.00  0.00    -0.744 OA
ENDBRANCH  83  84
ENDBRANCH  55  78
BRANCH  67  88
ATOM     88  C   UNL A   1      42.865  28.977  33.603  1.00  0.00    -0.014 A 
ATOM     89  C   UNL A   1      43.520  29.082  34.847  1.00  0.00     0.010 A 
ATOM     90  C   UNL A   1      41.917  27.952  33.434  1.00  0.00     0.010 A 
ATOM     91  C   UNL A   1      43.250  28.168  35.880  1.00  0.00     0.020 A 
ATOM     92  C   UNL A   1      41.632  27.052  34.463  1.00  0.00     0.020 A 
ATOM     93  C   UNL A   1      42.305  27.158  35.679  1.00  0.00     0.054 A 
BRANCH  93  94
ATOM     94  S   UNL A   1      41.927  26.001  37.027  1.00  0.00     0.124 S 
ATOM     95  O   UNL A   1      42.924  26.350  38.035  1.00  0.00    -0.237 OA
ATOM     96  O   UNL A   1      40.546  26.336  37.366  1.00  0.00    -0.237 OA
ATOM     97  O   UNL A   1      42.102  24.683  36.415  1.00  0.00    -0.744 OA
ENDBRANCH  93  94
ENDBRANCH  67  88
ENDBRANCH  41  42
ENDBRANCH  33  36
ENDBRANCH  31  32
ENDBRANCH   1  31
TORSDOF 18
ENDMDL
