MODEL 1
REMARK VINA RESULT:     -10.6      0.000      0.000
REMARK SMILES CC[C@@H](C)S(=O)(=O)c1cc(C(=O)NCCCNC(=O)c2ccc(-c3c4nc(c(-c5ccc(S(=O)(=O)[O-])cc5)c5ccc([nH]5)c(-c5ccc(S(=O)(=O)[O-])cc5)c5nc(c(-c6ccc(S(=O)(=O)[O-])cc6)c6ccc3[nH]6)C=C5)C=C4)cc2)c(C)cc1C
REMARK SMILES IDX 15 1 14 2 13 3 11 4 12 5 10 7 8 8 9 9 83 10 82 11 84 12
REMARK SMILES IDX 80 13 81 14 5 15 6 16 7 17 3 18 4 19 2 20 1 21 16 22 17 23
REMARK SMILES IDX 18 24 19 26 20 27 21 28 79 29 22 30 78 31 23 32 24 33 25 34
REMARK SMILES IDX 72 35 26 36 77 37 71 38 73 39 27 40 76 41 70 42 69 43 28 45
REMARK SMILES IDX 58 46 39 47 57 48 40 49 43 50 56 51 74 52 41 53 42 54 55 56
REMARK SMILES IDX 75 57 44 58 29 59 30 60 38 61 31 62 37 63 32 64 33 65 34 66
REMARK SMILES IDX 35 67 36 68 59 69 60 70 68 71 61 72 67 73 62 74 63 75 64 76
REMARK SMILES IDX 65 77 66 78 45 79 46 80 54 81 47 82 53 83 48 84 49 85 50 86
REMARK SMILES IDX 51 87 52 88
REMARK H PARENT 13 6 17 25 73 44 43 55
REMARK Flexibility Score: inf
ROOT
ATOM      1  C   UNL A   1      33.246  28.028  27.026  1.00  0.00     0.042 C 
ENDROOT
BRANCH   1   2
ATOM      2  C   UNL A   1      31.741  28.277  26.941  1.00  0.00     0.118 C 
BRANCH   2   3
ATOM      3  N   UNL A   1      31.032  27.019  26.958  1.00  0.00    -0.352 N 
ATOM      4  C   UNL A   1      30.675  26.098  26.015  1.00  0.00     0.251 C 
ATOM      5  O   UNL A   1      30.017  25.151  26.459  1.00  0.00    -0.269 OA
ATOM      6  H   UNL A   1      30.736  26.766  27.862  1.00  0.00     0.163 HD
BRANCH   4   7
ATOM      7  C   UNL A   1      31.085  26.059  24.564  1.00  0.00     0.044 A 
ATOM      8  C   UNL A   1      32.470  24.708  22.999  1.00  0.00     0.071 A 
ATOM      9  C   UNL A   1      31.949  24.974  24.280  1.00  0.00     0.034 A 
ATOM     10  C   UNL A   1      32.187  25.576  21.945  1.00  0.00    -0.032 A 
ATOM     11  C   UNL A   1      31.294  26.627  22.210  1.00  0.00     0.009 A 
ATOM     12  C   UNL A   1      32.650  25.461  20.523  1.00  0.00     0.046 C 
ATOM     13  C   UNL A   1      30.682  26.839  23.469  1.00  0.00    -0.038 A 
ATOM     14  C   UNL A   1      29.555  27.823  23.436  1.00  0.00     0.045 C 
BRANCH   8  15
ATOM     15  S   UNL A   1      33.383  23.174  22.833  1.00  0.00     0.181 S 
ATOM     16  O   UNL A   1      34.768  23.474  22.535  1.00  0.00    -0.223 OA
ATOM     17  O   UNL A   1      32.639  22.342  21.901  1.00  0.00    -0.223 OA
BRANCH  15  18
ATOM     18  C   UNL A   1      33.324  22.396  24.458  1.00  0.00     0.110 C 
ATOM     19  C   UNL A   1      34.689  21.857  24.888  1.00  0.00     0.025 C 
BRANCH  18  20
ATOM     20  C   UNL A   1      32.218  21.333  24.531  1.00  0.00     0.016 C 
ATOM     21  C   UNL A   1      32.740  19.908  24.422  1.00  0.00     0.005 C 
ENDBRANCH  18  20
ENDBRANCH  15  18
ENDBRANCH   8  15
ENDBRANCH   4   7
ENDBRANCH   2   3
ENDBRANCH   1   2
BRANCH   1  22
ATOM     22  C   UNL A   1      34.087  29.008  26.223  1.00  0.00     0.118 C 
BRANCH  22  23
ATOM     23  N   UNL A   1      33.832  30.383  26.616  1.00  0.00    -0.352 N 
ATOM     24  C   UNL A   1      34.408  31.137  27.608  1.00  0.00     0.251 C 
ATOM     25  H   UNL A   1      33.142  30.845  26.088  1.00  0.00     0.163 HD
ATOM     26  O   UNL A   1      33.869  32.190  27.941  1.00  0.00    -0.269 OA
BRANCH  24  27
ATOM     27  C   UNL A   1      35.651  30.693  28.285  1.00  0.00     0.039 A 
ATOM     28  C   UNL A   1      36.858  31.312  27.943  1.00  0.00     0.014 A 
ATOM     29  C   UNL A   1      35.651  29.646  29.210  1.00  0.00     0.014 A 
ATOM     30  C   UNL A   1      38.048  30.909  28.557  1.00  0.00     0.010 A 
ATOM     31  C   UNL A   1      36.820  29.311  29.892  1.00  0.00     0.010 A 
ATOM     32  C   UNL A   1      38.036  29.923  29.558  1.00  0.00    -0.014 A 
BRANCH  32  33
ATOM     33  C   UNL A   1      39.286  29.507  30.246  1.00  0.00     0.031 A 
ATOM     34  C   UNL A   1      39.739  30.224  31.491  1.00  0.00     0.074 A 
ATOM     35  C   UNL A   1      40.036  28.516  29.723  1.00  0.00     0.049 A 
ATOM     36  N   UNL A   1      40.819  30.033  32.205  1.00  0.00    -0.248 NA
ATOM     37  C   UNL A   1      38.883  31.316  31.985  1.00  0.00     0.031 C 
ATOM     38  C   UNL A   1      39.723  27.771  28.502  1.00  0.00     0.029 A 
ATOM     39  N   UNL A   1      41.219  27.968  30.152  1.00  0.00    -0.354 N 
ATOM     40  C   UNL A   1      40.780  30.987  33.216  1.00  0.00     0.074 A 
ATOM     41  C   UNL A   1      39.599  31.791  32.993  1.00  0.00     0.031 C 
ATOM     42  C   UNL A   1      40.673  26.843  28.297  1.00  0.00     0.029 A 
ATOM     43  C   UNL A   1      41.684  26.958  29.342  1.00  0.00     0.049 A 
ATOM     44  H   UNL A   1      41.691  28.268  30.963  1.00  0.00     0.167 HD
ATOM     45  C   UNL A   1      41.638  31.167  34.248  1.00  0.00     0.031 A 
ATOM     46  C   UNL A   1      42.805  26.213  29.423  1.00  0.00     0.031 A 
ATOM     47  C   UNL A   1      42.808  30.358  34.470  1.00  0.00     0.049 A 
ATOM     48  C   UNL A   1      43.751  26.440  30.571  1.00  0.00     0.074 A 
ATOM     49  C   UNL A   1      43.710  30.421  35.517  1.00  0.00     0.029 A 
ATOM     50  N   UNL A   1      43.241  29.344  33.628  1.00  0.00    -0.354 N 
ATOM     51  N   UNL A   1      43.657  27.302  31.556  1.00  0.00    -0.248 NA
ATOM     52  C   UNL A   1      44.944  25.586  30.626  1.00  0.00     0.031 C 
ATOM     53  C   UNL A   1      44.724  29.488  35.275  1.00  0.00     0.029 A 
ATOM     54  C   UNL A   1      44.415  28.795  34.116  1.00  0.00     0.049 A 
ATOM     55  H   UNL A   1      42.782  29.058  32.806  1.00  0.00     0.167 HD
ATOM     56  C   UNL A   1      44.767  27.074  32.363  1.00  0.00     0.074 A 
ATOM     57  C   UNL A   1      45.505  25.983  31.759  1.00  0.00     0.031 C 
ATOM     58  C   UNL A   1      45.139  27.710  33.502  1.00  0.00     0.031 A 
BRANCH  45  59
ATOM     59  C   UNL A   1      41.351  32.291  35.213  1.00  0.00    -0.014 A 
ATOM     60  C   UNL A   1      40.616  32.072  36.393  1.00  0.00     0.010 A 
ATOM     61  C   UNL A   1      41.864  33.576  34.959  1.00  0.00     0.010 A 
ATOM     62  C   UNL A   1      40.363  33.124  37.277  1.00  0.00     0.020 A 
ATOM     63  C   UNL A   1      41.641  34.624  35.857  1.00  0.00     0.020 A 
ATOM     64  C   UNL A   1      40.878  34.394  37.004  1.00  0.00     0.054 A 
BRANCH  64  65
ATOM     65  S   UNL A   1      40.557  35.733  38.184  1.00  0.00     0.124 S 
ATOM     66  O   UNL A   1      39.872  36.715  37.348  1.00  0.00    -0.237 OA
ATOM     67  O   UNL A   1      39.726  35.078  39.191  1.00  0.00    -0.237 OA
ATOM     68  O   UNL A   1      41.889  36.124  38.638  1.00  0.00    -0.744 OA
ENDBRANCH  64  65
ENDBRANCH  45  59
BRANCH  46  69
ATOM     69  C   UNL A   1      43.084  25.177  28.390  1.00  0.00    -0.014 A 
ATOM     70  C   UNL A   1      42.663  23.848  28.573  1.00  0.00     0.010 A 
ATOM     71  C   UNL A   1      43.758  25.520  27.204  1.00  0.00     0.010 A 
ATOM     72  C   UNL A   1      42.925  22.879  27.599  1.00  0.00     0.020 A 
ATOM     73  C   UNL A   1      43.994  24.563  26.214  1.00  0.00     0.020 A 
ATOM     74  C   UNL A   1      43.585  23.246  26.422  1.00  0.00     0.054 A 
BRANCH  74  75
ATOM     75  S   UNL A   1      43.863  21.984  25.148  1.00  0.00     0.124 S 
ATOM     76  O   UNL A   1      42.895  20.957  25.521  1.00  0.00    -0.237 OA
ATOM     77  O   UNL A   1      43.572  22.712  23.916  1.00  0.00    -0.237 OA
ATOM     78  O   UNL A   1      45.266  21.618  25.330  1.00  0.00    -0.744 OA
ENDBRANCH  74  75
ENDBRANCH  46  69
BRANCH  58  79
ATOM     79  C   UNL A   1      46.384  27.220  34.195  1.00  0.00    -0.014 A 
ATOM     80  C   UNL A   1      46.337  26.183  35.143  1.00  0.00     0.010 A 
ATOM     81  C   UNL A   1      47.631  27.775  33.846  1.00  0.00     0.010 A 
ATOM     82  C   UNL A   1      47.511  25.733  35.755  1.00  0.00     0.020 A 
ATOM     83  C   UNL A   1      48.808  27.303  34.431  1.00  0.00     0.020 A 
ATOM     84  C   UNL A   1      48.739  26.295  35.393  1.00  0.00     0.054 A 
BRANCH  84  85
ATOM     85  S   UNL A   1      50.250  25.661  36.170  1.00  0.00     0.124 S 
ATOM     86  O   UNL A   1      49.773  24.438  36.811  1.00  0.00    -0.237 OA
ATOM     87  O   UNL A   1      51.139  25.466  35.028  1.00  0.00    -0.237 OA
ATOM     88  O   UNL A   1      50.646  26.730  37.084  1.00  0.00    -0.744 OA
ENDBRANCH  84  85
ENDBRANCH  58  79
ENDBRANCH  32  33
ENDBRANCH  24  27
ENDBRANCH  22  23
ENDBRANCH   1  22
TORSDOF 16
ENDMDL
MODEL 2
REMARK VINA RESULT:     -10.5      5.414     10.531
REMARK SMILES CC[C@@H](C)S(=O)(=O)c1cc(C(=O)NCCCNC(=O)c2ccc(-c3c4nc(c(-c5ccc(S(=O)(=O)[O-])cc5)c5ccc([nH]5)c(-c5ccc(S(=O)(=O)[O-])cc5)c5nc(c(-c6ccc(S(=O)(=O)[O-])cc6)c6ccc3[nH]6)C=C5)C=C4)cc2)c(C)cc1C
REMARK SMILES IDX 15 1 14 2 13 3 11 4 12 5 10 7 8 8 9 9 83 10 82 11 84 12
REMARK SMILES IDX 80 13 81 14 5 15 6 16 7 17 3 18 4 19 2 20 1 21 16 22 17 23
REMARK SMILES IDX 18 24 19 26 20 27 21 28 79 29 22 30 78 31 23 32 24 33 25 34
REMARK SMILES IDX 72 35 26 36 77 37 71 38 73 39 27 40 76 41 70 42 69 43 28 45
REMARK SMILES IDX 58 46 39 47 57 48 40 49 43 50 56 51 74 52 41 53 42 54 55 56
REMARK SMILES IDX 75 57 44 58 29 59 30 60 38 61 31 62 37 63 32 64 33 65 34 66
REMARK SMILES IDX 35 67 36 68 59 69 60 70 68 71 61 72 67 73 62 74 63 75 64 76
REMARK SMILES IDX 65 77 66 78 45 79 46 80 54 81 47 82 53 83 48 84 49 85 50 86
REMARK SMILES IDX 51 87 52 88
REMARK H PARENT 13 6 17 25 73 44 43 55
REMARK Flexibility Score: inf
ROOT
ATOM      1  C   UNL A   1      38.120  19.805  25.007  1.00  0.00     0.042 C 
ENDROOT
BRANCH   1   2
ATOM      2  C   UNL A   1      37.021  20.796  24.629  1.00  0.00     0.118 C 
BRANCH   2   3
ATOM      3  N   UNL A   1      35.838  20.544  25.418  1.00  0.00    -0.352 N 
ATOM      4  C   UNL A   1      34.860  21.322  25.968  1.00  0.00     0.251 C 
ATOM      5  O   UNL A   1      34.024  20.692  26.625  1.00  0.00    -0.269 OA
ATOM      6  H   UNL A   1      35.705  19.586  25.603  1.00  0.00     0.163 HD
BRANCH   4   7
ATOM      7  C   UNL A   1      34.637  22.800  25.768  1.00  0.00     0.044 A 
ATOM      8  C   UNL A   1      32.784  24.445  25.538  1.00  0.00     0.071 A 
ATOM      9  C   UNL A   1      33.262  23.132  25.711  1.00  0.00     0.034 A 
ATOM     10  C   UNL A   1      33.689  25.489  25.349  1.00  0.00    -0.032 A 
ATOM     11  C   UNL A   1      35.054  25.174  25.451  1.00  0.00     0.009 A 
ATOM     12  C   UNL A   1      33.373  26.942  25.147  1.00  0.00     0.046 C 
ATOM     13  C   UNL A   1      35.540  23.874  25.731  1.00  0.00    -0.038 A 
ATOM     14  C   UNL A   1      36.994  23.835  26.084  1.00  0.00     0.045 C 
BRANCH   8  15
ATOM     15  S   UNL A   1      31.010  24.656  25.690  1.00  0.00     0.181 S 
ATOM     16  O   UNL A   1      30.737  25.818  26.508  1.00  0.00    -0.223 OA
ATOM     17  O   UNL A   1      30.470  23.372  26.108  1.00  0.00    -0.223 OA
BRANCH  15  18
ATOM     18  C   UNL A   1      30.418  25.001  24.022  1.00  0.00     0.110 C 
ATOM     19  C   UNL A   1      31.410  24.542  22.953  1.00  0.00     0.025 C 
BRANCH  18  20
ATOM     20  C   UNL A   1      30.015  26.474  23.864  1.00  0.00     0.016 C 
ATOM     21  C   UNL A   1      28.509  26.694  23.875  1.00  0.00     0.005 C 
ENDBRANCH  18  20
ENDBRANCH  15  18
ENDBRANCH   8  15
ENDBRANCH   4   7
ENDBRANCH   2   3
ENDBRANCH   1   2
BRANCH   1  22
ATOM     22  C   UNL A   1      39.205  20.389  25.899  1.00  0.00     0.118 C 
BRANCH  22  23
ATOM     23  N   UNL A   1      40.289  19.447  26.114  1.00  0.00    -0.352 N 
ATOM     24  C   UNL A   1      41.635  19.673  26.264  1.00  0.00     0.251 C 
ATOM     25  H   UNL A   1      40.017  18.502  26.161  1.00  0.00     0.163 HD
ATOM     26  O   UNL A   1      42.409  18.722  26.178  1.00  0.00    -0.269 OA
BRANCH  24  27
ATOM     27  C   UNL A   1      42.162  21.037  26.513  1.00  0.00     0.039 A 
ATOM     28  C   UNL A   1      42.444  21.858  25.416  1.00  0.00     0.014 A 
ATOM     29  C   UNL A   1      42.428  21.498  27.805  1.00  0.00     0.014 A 
ATOM     30  C   UNL A   1      42.950  23.145  25.619  1.00  0.00     0.010 A 
ATOM     31  C   UNL A   1      42.840  22.813  28.010  1.00  0.00     0.010 A 
ATOM     32  C   UNL A   1      43.127  23.645  26.919  1.00  0.00    -0.014 A 
BRANCH  32  33
ATOM     33  C   UNL A   1      43.631  25.024  27.155  1.00  0.00     0.031 A 
ATOM     34  C   UNL A   1      45.081  25.351  26.913  1.00  0.00     0.074 A 
ATOM     35  C   UNL A   1      42.794  25.967  27.632  1.00  0.00     0.049 A 
ATOM     36  N   UNL A   1      45.713  26.481  27.101  1.00  0.00    -0.248 NA
ATOM     37  C   UNL A   1      45.941  24.261  26.421  1.00  0.00     0.031 C 
ATOM     38  C   UNL A   1      41.377  25.763  27.942  1.00  0.00     0.029 A 
ATOM     39  N   UNL A   1      43.015  27.285  27.943  1.00  0.00    -0.354 N 
ATOM     40  C   UNL A   1      47.041  26.234  26.769  1.00  0.00     0.074 A 
ATOM     41  C   UNL A   1      47.135  24.834  26.419  1.00  0.00     0.031 C 
ATOM     42  C   UNL A   1      40.849  26.922  28.370  1.00  0.00     0.029 A 
ATOM     43  C   UNL A   1      41.896  27.936  28.410  1.00  0.00     0.049 A 
ATOM     44  H   UNL A   1      43.890  27.724  27.843  1.00  0.00     0.167 HD
ATOM     45  C   UNL A   1      48.085  27.097  26.738  1.00  0.00     0.031 A 
ATOM     46  C   UNL A   1      41.732  29.206  28.832  1.00  0.00     0.031 A 
ATOM     47  C   UNL A   1      47.982  28.491  27.079  1.00  0.00     0.049 A 
ATOM     48  C   UNL A   1      42.909  30.143  28.803  1.00  0.00     0.074 A 
ATOM     49  C   UNL A   1      48.966  29.463  27.026  1.00  0.00     0.029 A 
ATOM     50  N   UNL A   1      46.832  29.112  27.543  1.00  0.00    -0.354 N 
ATOM     51  N   UNL A   1      44.140  29.906  28.417  1.00  0.00    -0.248 NA
ATOM     52  C   UNL A   1      42.670  31.521  29.251  1.00  0.00     0.031 C 
ATOM     53  C   UNL A   1      48.427  30.656  27.518  1.00  0.00     0.029 A 
ATOM     54  C   UNL A   1      47.089  30.446  27.809  1.00  0.00     0.049 A 
ATOM     55  H   UNL A   1      45.961  28.668  27.665  1.00  0.00     0.167 HD
ATOM     56  C   UNL A   1      44.817  31.113  28.551  1.00  0.00     0.074 A 
ATOM     57  C   UNL A   1      43.853  32.080  29.036  1.00  0.00     0.031 C 
ATOM     58  C   UNL A   1      46.118  31.396  28.294  1.00  0.00     0.031 A 
BRANCH  45  59
ATOM     59  C   UNL A   1      49.433  26.555  26.332  1.00  0.00    -0.014 A 
ATOM     60  C   UNL A   1      49.870  26.610  24.996  1.00  0.00     0.010 A 
ATOM     61  C   UNL A   1      50.294  26.025  27.310  1.00  0.00     0.010 A 
ATOM     62  C   UNL A   1      51.125  26.108  24.639  1.00  0.00     0.020 A 
ATOM     63  C   UNL A   1      51.563  25.551  26.962  1.00  0.00     0.020 A 
ATOM     64  C   UNL A   1      51.963  25.581  25.625  1.00  0.00     0.054 A 
BRANCH  64  65
ATOM     65  S   UNL A   1      53.596  24.962  25.135  1.00  0.00     0.124 S 
ATOM     66  O   UNL A   1      53.354  23.526  25.024  1.00  0.00    -0.237 OA
ATOM     67  O   UNL A   1      53.835  25.657  23.873  1.00  0.00    -0.237 OA
ATOM     68  O   UNL A   1      54.466  25.362  26.239  1.00  0.00    -0.744 OA
ENDBRANCH  64  65
ENDBRANCH  45  59
BRANCH  46  69
ATOM     69  C   UNL A   1      40.397  29.663  29.309  1.00  0.00    -0.014 A 
ATOM     70  C   UNL A   1      40.120  29.763  30.684  1.00  0.00     0.010 A 
ATOM     71  C   UNL A   1      39.398  30.022  28.385  1.00  0.00     0.010 A 
ATOM     72  C   UNL A   1      38.866  30.195  31.127  1.00  0.00     0.020 A 
ATOM     73  C   UNL A   1      38.154  30.485  28.823  1.00  0.00     0.020 A 
ATOM     74  C   UNL A   1      37.892  30.559  30.191  1.00  0.00     0.054 A 
BRANCH  74  75
ATOM     75  S   UNL A   1      36.293  31.171  30.790  1.00  0.00     0.124 S 
ATOM     76  O   UNL A   1      35.509  31.227  29.560  1.00  0.00    -0.237 OA
ATOM     77  O   UNL A   1      35.899  30.140  31.747  1.00  0.00    -0.237 OA
ATOM     78  O   UNL A   1      36.623  32.466  31.382  1.00  0.00    -0.744 OA
ENDBRANCH  74  75
ENDBRANCH  46  69
BRANCH  58  79
ATOM     79  C   UNL A   1      46.573  32.818  28.497  1.00  0.00    -0.014 A 
ATOM     80  C   UNL A   1      47.132  33.243  29.715  1.00  0.00     0.010 A 
ATOM     81  C   UNL A   1      46.490  33.728  27.426  1.00  0.00     0.010 A 
ATOM     82  C   UNL A   1      47.567  34.563  29.869  1.00  0.00     0.020 A 
ATOM     83  C   UNL A   1      46.955  35.038  27.566  1.00  0.00     0.020 A 
ATOM     84  C   UNL A   1      47.478  35.451  28.792  1.00  0.00     0.054 A 
BRANCH  84  85
ATOM     85  S   UNL A   1      48.090  37.144  29.006  1.00  0.00     0.124 S 
ATOM     86  O   UNL A   1      48.779  37.380  27.740  1.00  0.00    -0.237 OA
ATOM     87  O   UNL A   1      46.860  37.906  29.204  1.00  0.00    -0.237 OA
ATOM     88  O   UNL A   1      48.956  37.055  30.180  1.00  0.00    -0.744 OA
ENDBRANCH  84  85
ENDBRANCH  58  79
ENDBRANCH  32  33
ENDBRANCH  24  27
ENDBRANCH  22  23
ENDBRANCH   1  22
TORSDOF 16
ENDMDL
MODEL 3
REMARK VINA RESULT:     -10.5      3.454      9.292
REMARK SMILES CC[C@@H](C)S(=O)(=O)c1cc(C(=O)NCCCNC(=O)c2ccc(-c3c4nc(c(-c5ccc(S(=O)(=O)[O-])cc5)c5ccc([nH]5)c(-c5ccc(S(=O)(=O)[O-])cc5)c5nc(c(-c6ccc(S(=O)(=O)[O-])cc6)c6ccc3[nH]6)C=C5)C=C4)cc2)c(C)cc1C
REMARK SMILES IDX 15 1 14 2 13 3 11 4 12 5 10 7 8 8 9 9 83 10 82 11 84 12
REMARK SMILES IDX 80 13 81 14 5 15 6 16 7 17 3 18 4 19 2 20 1 21 16 22 17 23
REMARK SMILES IDX 18 24 19 26 20 27 21 28 79 29 22 30 78 31 23 32 24 33 25 34
REMARK SMILES IDX 72 35 26 36 77 37 71 38 73 39 27 40 76 41 70 42 69 43 28 45
REMARK SMILES IDX 58 46 39 47 57 48 40 49 43 50 56 51 74 52 41 53 42 54 55 56
REMARK SMILES IDX 75 57 44 58 29 59 30 60 38 61 31 62 37 63 32 64 33 65 34 66
REMARK SMILES IDX 35 67 36 68 59 69 60 70 68 71 61 72 67 73 62 74 63 75 64 76
REMARK SMILES IDX 65 77 66 78 45 79 46 80 54 81 47 82 53 83 48 84 49 85 50 86
REMARK SMILES IDX 51 87 52 88
REMARK H PARENT 13 6 17 25 73 44 43 55
REMARK Flexibility Score: inf
ROOT
ATOM      1  C   UNL A   1      35.888  23.447  24.174  1.00  0.00     0.042 C 
ENDROOT
BRANCH   1   2
ATOM      2  C   UNL A   1      34.848  22.342  24.353  1.00  0.00     0.118 C 
BRANCH   2   3
ATOM      3  N   UNL A   1      34.073  22.583  25.548  1.00  0.00    -0.352 N 
ATOM      4  C   UNL A   1      33.078  23.451  25.896  1.00  0.00     0.251 C 
ATOM      5  O   UNL A   1      32.707  23.348  27.071  1.00  0.00    -0.269 OA
ATOM      6  H   UNL A   1      34.320  21.978  26.284  1.00  0.00     0.163 HD
BRANCH   4   7
ATOM      7  C   UNL A   1      32.334  24.406  24.998  1.00  0.00     0.044 A 
ATOM      8  C   UNL A   1      32.136  26.844  24.537  1.00  0.00     0.071 A 
ATOM      9  C   UNL A   1      32.682  25.756  25.245  1.00  0.00     0.034 A 
ATOM     10  C   UNL A   1      31.152  26.616  23.576  1.00  0.00    -0.032 A 
ATOM     11  C   UNL A   1      30.835  25.278  23.294  1.00  0.00     0.009 A 
ATOM     12  C   UNL A   1      30.454  27.640  22.729  1.00  0.00     0.046 C 
ATOM     13  C   UNL A   1      31.458  24.174  23.926  1.00  0.00    -0.038 A 
ATOM     14  C   UNL A   1      31.180  22.862  23.264  1.00  0.00     0.045 C 
BRANCH   8  15
ATOM     15  S   UNL A   1      32.865  28.444  24.884  1.00  0.00     0.181 S 
ATOM     16  O   UNL A   1      31.846  29.466  24.770  1.00  0.00    -0.223 OA
ATOM     17  O   UNL A   1      34.052  28.554  24.051  1.00  0.00    -0.223 OA
BRANCH  15  18
ATOM     18  C   UNL A   1      33.389  28.376  26.608  1.00  0.00     0.110 C 
ATOM     19  C   UNL A   1      32.226  28.610  27.572  1.00  0.00     0.025 C 
BRANCH  18  20
ATOM     20  C   UNL A   1      34.576  29.313  26.871  1.00  0.00     0.016 C 
ATOM     21  C   UNL A   1      34.169  30.651  27.470  1.00  0.00     0.005 C 
ENDBRANCH  18  20
ENDBRANCH  15  18
ENDBRANCH   8  15
ENDBRANCH   4   7
ENDBRANCH   2   3
ENDBRANCH   1   2
BRANCH   1  22
ATOM     22  C   UNL A   1      36.666  23.781  25.437  1.00  0.00     0.118 C 
BRANCH  22  23
ATOM     23  N   UNL A   1      37.694  22.793  25.713  1.00  0.00    -0.352 N 
ATOM     24  C   UNL A   1      38.963  22.957  26.209  1.00  0.00     0.251 C 
ATOM     25  H   UNL A   1      37.440  21.862  25.515  1.00  0.00     0.163 HD
ATOM     26  O   UNL A   1      39.758  22.023  26.124  1.00  0.00    -0.269 OA
BRANCH  24  27
ATOM     27  C   UNL A   1      39.386  24.237  26.828  1.00  0.00     0.039 A 
ATOM     28  C   UNL A   1      39.015  24.498  28.151  1.00  0.00     0.014 A 
ATOM     29  C   UNL A   1      40.096  25.202  26.108  1.00  0.00     0.014 A 
ATOM     30  C   UNL A   1      39.391  25.700  28.758  1.00  0.00     0.010 A 
ATOM     31  C   UNL A   1      40.552  26.356  26.743  1.00  0.00     0.010 A 
ATOM     32  C   UNL A   1      40.187  26.628  28.068  1.00  0.00    -0.014 A 
BRANCH  32  33
ATOM     33  C   UNL A   1      40.625  27.896  28.709  1.00  0.00     0.031 A 
ATOM     34  C   UNL A   1      42.013  28.014  29.281  1.00  0.00     0.074 A 
ATOM     35  C   UNL A   1      39.757  28.922  28.819  1.00  0.00     0.049 A 
ATOM     36  N   UNL A   1      42.561  29.020  29.913  1.00  0.00    -0.248 NA
ATOM     37  C   UNL A   1      42.894  26.841  29.150  1.00  0.00     0.031 C 
ATOM     38  C   UNL A   1      38.374  28.916  28.339  1.00  0.00     0.029 A 
ATOM     39  N   UNL A   1      39.910  30.169  29.373  1.00  0.00    -0.354 N 
ATOM     40  C   UNL A   1      43.837  28.597  30.269  1.00  0.00     0.074 A 
ATOM     41  C   UNL A   1      43.964  27.225  29.830  1.00  0.00     0.031 C 
ATOM     42  C   UNL A   1      37.815  30.111  28.592  1.00  0.00     0.029 A 
ATOM     43  C   UNL A   1      38.781  30.950  29.292  1.00  0.00     0.049 A 
ATOM     44  H   UNL A   1      40.748  30.475  29.790  1.00  0.00     0.167 HD
ATOM     45  C   UNL A   1      44.822  29.291  30.887  1.00  0.00     0.031 A 
ATOM     46  C   UNL A   1      38.544  32.200  29.740  1.00  0.00     0.031 A 
ATOM     47  C   UNL A   1      44.692  30.660  31.314  1.00  0.00     0.049 A 
ATOM     48  C   UNL A   1      39.649  32.947  30.436  1.00  0.00     0.074 A 
ATOM     49  C   UNL A   1      45.649  31.472  31.897  1.00  0.00     0.029 A 
ATOM     50  N   UNL A   1      43.534  31.416  31.210  1.00  0.00    -0.354 N 
ATOM     51  N   UNL A   1      40.872  32.551  30.699  1.00  0.00    -0.248 NA
ATOM     52  C   UNL A   1      39.346  34.312  30.883  1.00  0.00     0.031 C 
ATOM     53  C   UNL A   1      45.050  32.699  32.204  1.00  0.00     0.029 A 
ATOM     54  C   UNL A   1      43.743  32.676  31.746  1.00  0.00     0.049 A 
ATOM     55  H   UNL A   1      42.689  31.103  30.813  1.00  0.00     0.167 HD
ATOM     56  C   UNL A   1      41.492  33.630  31.318  1.00  0.00     0.074 A 
ATOM     57  C   UNL A   1      40.515  34.699  31.373  1.00  0.00     0.031 C 
ATOM     58  C   UNL A   1      42.758  33.728  31.796  1.00  0.00     0.031 A 
BRANCH  45  59
ATOM     59  C   UNL A   1      46.125  28.579  31.150  1.00  0.00    -0.014 A 
ATOM     60  C   UNL A   1      46.314  27.805  32.310  1.00  0.00     0.010 A 
ATOM     61  C   UNL A   1      47.161  28.646  30.200  1.00  0.00     0.010 A 
ATOM     62  C   UNL A   1      47.527  27.148  32.535  1.00  0.00     0.020 A 
ATOM     63  C   UNL A   1      48.364  27.963  30.406  1.00  0.00     0.020 A 
ATOM     64  C   UNL A   1      48.545  27.231  31.581  1.00  0.00     0.054 A 
BRANCH  64  65
ATOM     65  S   UNL A   1      50.097  26.345  31.888  1.00  0.00     0.124 S 
ATOM     66  O   UNL A   1      50.181  26.380  33.346  1.00  0.00    -0.237 OA
ATOM     67  O   UNL A   1      49.835  25.031  31.306  1.00  0.00    -0.237 OA
ATOM     68  O   UNL A   1      51.099  27.145  31.188  1.00  0.00    -0.744 OA
ENDBRANCH  64  65
ENDBRANCH  45  59
BRANCH  46  69
ATOM     69  C   UNL A   1      37.207  32.822  29.532  1.00  0.00    -0.014 A 
ATOM     70  C   UNL A   1      36.227  32.773  30.539  1.00  0.00     0.010 A 
ATOM     71  C   UNL A   1      36.913  33.487  28.327  1.00  0.00     0.010 A 
ATOM     72  C   UNL A   1      34.974  33.361  30.340  1.00  0.00     0.020 A 
ATOM     73  C   UNL A   1      35.673  34.104  28.136  1.00  0.00     0.020 A 
ATOM     74  C   UNL A   1      34.708  34.028  29.140  1.00  0.00     0.054 A 
BRANCH  74  75
ATOM     75  S   UNL A   1      33.096  34.833  28.928  1.00  0.00     0.124 S 
ATOM     76  O   UNL A   1      33.479  36.166  28.472  1.00  0.00    -0.237 OA
ATOM     77  O   UNL A   1      32.449  33.983  27.931  1.00  0.00    -0.237 OA
ATOM     78  O   UNL A   1      32.505  34.773  30.264  1.00  0.00    -0.744 OA
ENDBRANCH  74  75
ENDBRANCH  46  69
BRANCH  58  79
ATOM     79  C   UNL A   1      43.176  35.048  32.390  1.00  0.00    -0.014 A 
ATOM     80  C   UNL A   1      44.175  35.838  31.794  1.00  0.00     0.010 A 
ATOM     81  C   UNL A   1      42.515  35.529  33.536  1.00  0.00     0.010 A 
ATOM     82  C   UNL A   1      44.529  37.069  32.354  1.00  0.00     0.020 A 
ATOM     83  C   UNL A   1      42.841  36.774  34.077  1.00  0.00     0.020 A 
ATOM     84  C   UNL A   1      43.857  37.530  33.491  1.00  0.00     0.054 A 
BRANCH  84  85
ATOM     85  S   UNL A   1      44.305  39.151  34.169  1.00  0.00     0.124 S 
ATOM     86  O   UNL A   1      45.375  39.573  33.269  1.00  0.00    -0.237 OA
ATOM     87  O   UNL A   1      43.056  39.901  34.056  1.00  0.00    -0.237 OA
ATOM     88  O   UNL A   1      44.723  38.852  35.537  1.00  0.00    -0.744 OA
ENDBRANCH  84  85
ENDBRANCH  58  79
ENDBRANCH  32  33
ENDBRANCH  24  27
ENDBRANCH  22  23
ENDBRANCH   1  22
TORSDOF 16
ENDMDL
