MODEL 1
REMARK VINA RESULT:     -12.0      0.000      0.000
REMARK SMILES O=C(NCCCNC(=O)c1ccc([C@H]2CCCN(C(=O)c3ccc4[nH]ccc4c3)C2)cc1)c1ccc(-c2c3nc(c(-c4ccc(S(=O)(=O)[O-])cc4)c4ccc([nH]4)c(-c4ccc(S(=O)(=O)[O-])cc4)c4nc(c(-c5ccc(S(=O)(=O)[O-])cc5)c5ccc2[nH]5)C=C4)C=C3)cc1
REMARK SMILES IDX 5 1 4 2 3 3 1 4 2 5 33 7 34 8 92 9 35 10 91 11 36 12 37 13
REMARK SMILES IDX 38 14 85 15 39 16 90 17 84 18 86 19 40 20 89 21 83 22 82 23
REMARK SMILES IDX 41 25 71 26 52 27 70 28 53 29 56 30 69 31 87 32 54 33 55 34
REMARK SMILES IDX 68 36 88 37 57 38 42 39 43 40 51 41 44 42 50 43 45 44 46 45
REMARK SMILES IDX 47 46 48 47 49 48 72 49 73 50 81 51 74 52 80 53 75 54 76 55
REMARK SMILES IDX 77 56 78 57 79 58 58 59 59 60 67 61 60 62 66 63 61 64 62 65
REMARK SMILES IDX 63 66 64 67 65 68 6 69 7 70 8 71 9 73 10 74 11 75 32 76
REMARK SMILES IDX 12 77 31 78 13 79 14 80 15 81 30 82 16 83 18 84 17 85 19 86
REMARK SMILES IDX 20 87 21 88 22 89 29 90 23 91 28 92 24 93 27 94 25 95 26 96
REMARK H PARENT 3 6 86 24 56 35 7 72 25 97
REMARK Flexibility Score: inf
ROOT
ATOM      1  C   UNL A   1      41.253  21.965  26.568  1.00  0.00     0.042 C 
ENDROOT
BRANCH   1   2
ATOM      2  C   UNL A   1      41.926  23.262  26.990  1.00  0.00     0.118 C 
BRANCH   2   3
ATOM      3  N   UNL A   1      42.201  24.148  25.868  1.00  0.00    -0.352 N 
ATOM      4  O   UNL A   1      42.211  26.051  24.672  1.00  0.00    -0.269 OA
ATOM      5  C   UNL A   1      42.104  25.515  25.771  1.00  0.00     0.251 C 
ATOM      6  H   UNL A   1      42.505  23.696  25.049  1.00  0.00     0.163 HD
BRANCH   5   7
ATOM      7  C   UNL A   1      41.846  26.336  26.975  1.00  0.00     0.039 A 
ATOM      8  C   UNL A   1      42.579  27.498  27.229  1.00  0.00     0.014 A 
ATOM      9  C   UNL A   1      40.830  25.947  27.851  1.00  0.00     0.014 A 
ATOM     10  C   UNL A   1      42.406  28.180  28.430  1.00  0.00     0.010 A 
ATOM     11  C   UNL A   1      40.595  26.687  29.013  1.00  0.00     0.010 A 
ATOM     12  C   UNL A   1      41.405  27.790  29.329  1.00  0.00    -0.014 A 
BRANCH  12  13
ATOM     13  C   UNL A   1      41.174  28.564  30.574  1.00  0.00     0.031 A 
ATOM     14  C   UNL A   1      40.062  29.573  30.657  1.00  0.00     0.074 A 
ATOM     15  C   UNL A   1      41.991  28.373  31.626  1.00  0.00     0.049 A 
ATOM     16  N   UNL A   1      39.763  30.391  31.633  1.00  0.00    -0.248 NA
ATOM     17  C   UNL A   1      39.175  29.683  29.489  1.00  0.00     0.031 C 
ATOM     18  C   UNL A   1      43.100  27.414  31.670  1.00  0.00     0.029 A 
ATOM     19  N   UNL A   1      42.025  28.975  32.858  1.00  0.00    -0.354 N 
ATOM     20  C   UNL A   1      38.674  31.133  31.190  1.00  0.00     0.074 A 
ATOM     21  C   UNL A   1      38.382  30.684  29.845  1.00  0.00     0.031 C 
ATOM     22  C   UNL A   1      43.692  27.482  32.871  1.00  0.00     0.029 A 
ATOM     23  C   UNL A   1      43.055  28.535  33.655  1.00  0.00     0.049 A 
ATOM     24  H   UNL A   1      41.374  29.657  33.143  1.00  0.00     0.167 HD
ATOM     25  C   UNL A   1      37.984  32.100  31.843  1.00  0.00     0.031 A 
ATOM     26  C   UNL A   1      43.470  28.953  34.866  1.00  0.00     0.031 A 
ATOM     27  C   UNL A   1      38.298  32.552  33.175  1.00  0.00     0.049 A 
ATOM     28  C   UNL A   1      42.728  30.062  35.550  1.00  0.00     0.074 A 
ATOM     29  C   UNL A   1      37.645  33.506  33.935  1.00  0.00     0.029 A 
ATOM     30  N   UNL A   1      39.360  32.090  33.941  1.00  0.00    -0.354 N 
ATOM     31  N   UNL A   1      41.683  30.735  35.127  1.00  0.00    -0.248 NA
ATOM     32  C   UNL A   1      43.211  30.467  36.876  1.00  0.00     0.031 C 
ATOM     33  C   UNL A   1      38.351  33.670  35.132  1.00  0.00     0.029 A 
ATOM     34  C   UNL A   1      39.397  32.760  35.152  1.00  0.00     0.049 A 
ATOM     35  H   UNL A   1      39.994  31.389  33.662  1.00  0.00     0.167 HD
ATOM     36  C   UNL A   1      41.363  31.620  36.150  1.00  0.00     0.074 A 
ATOM     37  C   UNL A   1      42.324  31.396  37.212  1.00  0.00     0.031 C 
ATOM     38  C   UNL A   1      40.356  32.526  36.205  1.00  0.00     0.031 A 
BRANCH  25  39
ATOM     39  C   UNL A   1      36.854  32.771  31.102  1.00  0.00    -0.014 A 
ATOM     40  C   UNL A   1      35.513  32.402  31.315  1.00  0.00     0.010 A 
ATOM     41  C   UNL A   1      37.138  33.798  30.183  1.00  0.00     0.010 A 
ATOM     42  C   UNL A   1      34.487  33.000  30.577  1.00  0.00     0.020 A 
ATOM     43  C   UNL A   1      36.113  34.423  29.468  1.00  0.00     0.020 A 
ATOM     44  C   UNL A   1      34.796  34.001  29.650  1.00  0.00     0.054 A 
BRANCH  44  45
ATOM     45  S   UNL A   1      33.447  34.742  28.689  1.00  0.00     0.124 S 
ATOM     46  O   UNL A   1      33.077  33.644  27.798  1.00  0.00    -0.237 OA
ATOM     47  O   UNL A   1      32.465  35.073  29.716  1.00  0.00    -0.237 OA
ATOM     48  O   UNL A   1      34.075  35.889  28.036  1.00  0.00    -0.744 OA
ENDBRANCH  44  45
ENDBRANCH  25  39
BRANCH  26  49
ATOM     49  C   UNL A   1      44.661  28.311  35.485  1.00  0.00    -0.014 A 
ATOM     50  C   UNL A   1      44.522  27.167  36.290  1.00  0.00     0.010 A 
ATOM     51  C   UNL A   1      45.951  28.804  35.212  1.00  0.00     0.010 A 
ATOM     52  C   UNL A   1      45.651  26.527  36.808  1.00  0.00     0.020 A 
ATOM     53  C   UNL A   1      47.083  28.148  35.701  1.00  0.00     0.020 A 
ATOM     54  C   UNL A   1      46.925  27.015  36.501  1.00  0.00     0.054 A 
BRANCH  54  55
ATOM     55  S   UNL A   1      48.376  26.114  37.113  1.00  0.00     0.124 S 
ATOM     56  O   UNL A   1      48.298  26.353  38.550  1.00  0.00    -0.237 OA
ATOM     57  O   UNL A   1      48.098  24.745  36.682  1.00  0.00    -0.237 OA
ATOM     58  O   UNL A   1      49.494  26.759  36.428  1.00  0.00    -0.744 OA
ENDBRANCH  54  55
ENDBRANCH  26  49
BRANCH  38  59
ATOM     59  C   UNL A   1      40.193  33.315  37.477  1.00  0.00    -0.014 A 
ATOM     60  C   UNL A   1      39.408  32.845  38.543  1.00  0.00     0.010 A 
ATOM     61  C   UNL A   1      40.916  34.514  37.635  1.00  0.00     0.010 A 
ATOM     62  C   UNL A   1      39.338  33.566  39.740  1.00  0.00     0.020 A 
ATOM     63  C   UNL A   1      40.872  35.221  38.838  1.00  0.00     0.020 A 
ATOM     64  C   UNL A   1      40.076  34.745  39.882  1.00  0.00     0.054 A 
BRANCH  64  65
ATOM     65  S   UNL A   1      40.031  35.619  41.471  1.00  0.00     0.124 S 
ATOM     66  O   UNL A   1      41.157  36.542  41.344  1.00  0.00    -0.237 OA
ATOM     67  O   UNL A   1      38.708  36.236  41.458  1.00  0.00    -0.237 OA
ATOM     68  O   UNL A   1      40.207  34.556  42.458  1.00  0.00    -0.744 OA
ENDBRANCH  64  65
ENDBRANCH  38  59
ENDBRANCH  12  13
ENDBRANCH   5   7
ENDBRANCH   2   3
ENDBRANCH   1   2
BRANCH   1  69
ATOM     69  C   UNL A   1      39.738  22.049  26.472  1.00  0.00     0.118 C 
BRANCH  69  70
ATOM     70  N   UNL A   1      39.153  20.918  25.762  1.00  0.00    -0.352 N 
ATOM     71  C   UNL A   1      37.919  20.789  25.172  1.00  0.00     0.251 C 
ATOM     72  H   UNL A   1      39.731  20.124  25.695  1.00  0.00     0.163 HD
ATOM     73  O   UNL A   1      37.539  19.696  24.768  1.00  0.00    -0.269 OA
BRANCH  71  74
ATOM     74  C   UNL A   1      37.038  21.967  25.046  1.00  0.00     0.039 A 
ATOM     75  C   UNL A   1      36.891  22.573  23.801  1.00  0.00     0.014 A 
ATOM     76  C   UNL A   1      36.362  22.478  26.153  1.00  0.00     0.014 A 
ATOM     77  C   UNL A   1      35.975  23.616  23.645  1.00  0.00     0.005 A 
ATOM     78  C   UNL A   1      35.423  23.494  25.987  1.00  0.00     0.005 A 
ATOM     79  C   UNL A   1      35.176  24.047  24.721  1.00  0.00    -0.043 A 
BRANCH  79  80
ATOM     80  C   UNL A   1      34.081  25.085  24.481  1.00  0.00     0.039 C 
ATOM     81  C   UNL A   1      33.747  25.192  22.970  1.00  0.00     0.012 C 
ATOM     82  C   UNL A   1      32.774  24.823  25.266  1.00  0.00     0.128 C 
ATOM     83  C   UNL A   1      32.614  26.183  22.693  1.00  0.00     0.022 C 
ATOM     84  N   UNL A   1      31.748  25.806  24.942  1.00  0.00    -0.338 N 
ATOM     85  C   UNL A   1      31.381  25.866  23.529  1.00  0.00     0.120 C 
BRANCH  84  86
ATOM     86  C   UNL A   1      31.289  26.650  25.943  1.00  0.00     0.253 C 
ATOM     87  O   UNL A   1      30.307  26.424  26.646  1.00  0.00    -0.269 OA
BRANCH  86  88
ATOM     88  C   UNL A   1      32.044  27.880  26.221  1.00  0.00     0.040 A 
ATOM     89  C   UNL A   1      31.559  29.083  25.704  1.00  0.00     0.016 A 
ATOM     90  C   UNL A   1      33.239  27.813  26.951  1.00  0.00     0.024 A 
ATOM     91  C   UNL A   1      32.233  30.279  25.954  1.00  0.00     0.027 A 
ATOM     92  C   UNL A   1      33.947  29.008  27.176  1.00  0.00     0.000 A 
ATOM     93  C   UNL A   1      33.419  30.209  26.695  1.00  0.00     0.045 A 
ATOM     94  C   UNL A   1      35.184  29.317  27.805  1.00  0.00     0.028 A 
ATOM     95  N   UNL A   1      34.277  31.211  27.088  1.00  0.00    -0.361 N 
ATOM     96  C   UNL A   1      35.370  30.678  27.718  1.00  0.00     0.083 A 
ATOM     97  H   UNL A   1      34.127  32.172  26.939  1.00  0.00     0.166 HD
ENDBRANCH  86  88
ENDBRANCH  84  86
ENDBRANCH  79  80
ENDBRANCH  71  74
ENDBRANCH  69  70
ENDBRANCH   1  69
TORSDOF 16
ENDMDL
MODEL 2
REMARK VINA RESULT:     -11.8      2.560      9.710
REMARK SMILES O=C(NCCCNC(=O)c1ccc([C@H]2CCCN(C(=O)c3ccc4[nH]ccc4c3)C2)cc1)c1ccc(-c2c3nc(c(-c4ccc(S(=O)(=O)[O-])cc4)c4ccc([nH]4)c(-c4ccc(S(=O)(=O)[O-])cc4)c4nc(c(-c5ccc(S(=O)(=O)[O-])cc5)c5ccc2[nH]5)C=C4)C=C3)cc1
REMARK SMILES IDX 5 1 4 2 3 3 1 4 2 5 33 7 34 8 92 9 35 10 91 11 36 12 37 13
REMARK SMILES IDX 38 14 85 15 39 16 90 17 84 18 86 19 40 20 89 21 83 22 82 23
REMARK SMILES IDX 41 25 71 26 52 27 70 28 53 29 56 30 69 31 87 32 54 33 55 34
REMARK SMILES IDX 68 36 88 37 57 38 42 39 43 40 51 41 44 42 50 43 45 44 46 45
REMARK SMILES IDX 47 46 48 47 49 48 72 49 73 50 81 51 74 52 80 53 75 54 76 55
REMARK SMILES IDX 77 56 78 57 79 58 58 59 59 60 67 61 60 62 66 63 61 64 62 65
REMARK SMILES IDX 63 66 64 67 65 68 6 69 7 70 8 71 9 73 10 74 11 75 32 76
REMARK SMILES IDX 12 77 31 78 13 79 14 80 15 81 30 82 16 83 18 84 17 85 19 86
REMARK SMILES IDX 20 87 21 88 22 89 29 90 23 91 28 92 24 93 27 94 25 95 26 96
REMARK H PARENT 3 6 86 24 56 35 7 72 25 97
REMARK Flexibility Score: inf
ROOT
ATOM      1  C   UNL A   1      33.910  35.496  28.694  1.00  0.00     0.042 C 
ENDROOT
BRANCH   1   2
ATOM      2  C   UNL A   1      32.920  34.853  29.653  1.00  0.00     0.118 C 
BRANCH   2   3
ATOM      3  N   UNL A   1      32.466  35.766  30.693  1.00  0.00    -0.352 N 
ATOM      4  O   UNL A   1      32.227  36.613  32.761  1.00  0.00    -0.269 OA
ATOM      5  C   UNL A   1      32.869  35.896  32.000  1.00  0.00     0.251 C 
ATOM      6  H   UNL A   1      31.758  36.390  30.414  1.00  0.00     0.163 HD
BRANCH   5   7
ATOM      7  C   UNL A   1      34.052  35.159  32.496  1.00  0.00     0.039 A 
ATOM      8  C   UNL A   1      35.347  35.625  32.258  1.00  0.00     0.014 A 
ATOM      9  C   UNL A   1      33.856  33.993  33.240  1.00  0.00     0.014 A 
ATOM     10  C   UNL A   1      36.443  34.848  32.623  1.00  0.00     0.010 A 
ATOM     11  C   UNL A   1      34.960  33.262  33.686  1.00  0.00     0.010 A 
ATOM     12  C   UNL A   1      36.263  33.666  33.352  1.00  0.00    -0.014 A 
BRANCH  12  13
ATOM     13  C   UNL A   1      37.437  32.878  33.804  1.00  0.00     0.031 A 
ATOM     14  C   UNL A   1      38.170  33.246  35.065  1.00  0.00     0.074 A 
ATOM     15  C   UNL A   1      37.860  31.842  33.055  1.00  0.00     0.049 A 
ATOM     16  N   UNL A   1      39.257  32.720  35.569  1.00  0.00    -0.248 NA
ATOM     17  C   UNL A   1      37.613  34.351  35.859  1.00  0.00     0.031 C 
ATOM     18  C   UNL A   1      37.225  31.382  31.817  1.00  0.00     0.029 A 
ATOM     19  N   UNL A   1      38.923  30.991  33.219  1.00  0.00    -0.354 N 
ATOM     20  C   UNL A   1      39.533  33.447  36.722  1.00  0.00     0.074 A 
ATOM     21  C   UNL A   1      38.511  34.467  36.828  1.00  0.00     0.031 C 
ATOM     22  C   UNL A   1      37.901  30.325  31.344  1.00  0.00     0.029 A 
ATOM     23  C   UNL A   1      39.055  30.077  32.202  1.00  0.00     0.049 A 
ATOM     24  H   UNL A   1      39.533  31.032  33.991  1.00  0.00     0.167 HD
ATOM     25  C   UNL A   1      40.546  33.279  37.607  1.00  0.00     0.031 A 
ATOM     26  C   UNL A   1      40.013  29.163  31.959  1.00  0.00     0.031 A 
ATOM     27  C   UNL A   1      41.567  32.272  37.480  1.00  0.00     0.049 A 
ATOM     28  C   UNL A   1      41.156  29.030  32.921  1.00  0.00     0.074 A 
ATOM     29  C   UNL A   1      42.620  32.002  38.336  1.00  0.00     0.029 A 
ATOM     30  N   UNL A   1      41.672  31.376  36.425  1.00  0.00    -0.354 N 
ATOM     31  N   UNL A   1      41.387  29.707  34.021  1.00  0.00    -0.248 NA
ATOM     32  C   UNL A   1      42.164  28.006  32.619  1.00  0.00     0.031 C 
ATOM     33  C   UNL A   1      43.399  30.990  37.765  1.00  0.00     0.029 A 
ATOM     34  C   UNL A   1      42.787  30.573  36.594  1.00  0.00     0.049 A 
ATOM     35  H   UNL A   1      41.045  31.321  35.667  1.00  0.00     0.167 HD
ATOM     36  C   UNL A   1      42.549  29.170  34.560  1.00  0.00     0.074 A 
ATOM     37  C   UNL A   1      42.973  28.109  33.666  1.00  0.00     0.031 C 
ATOM     38  C   UNL A   1      43.198  29.517  35.699  1.00  0.00     0.031 A 
BRANCH  25  39
ATOM     39  C   UNL A   1      40.624  34.244  38.765  1.00  0.00    -0.014 A 
ATOM     40  C   UNL A   1      41.329  35.458  38.666  1.00  0.00     0.010 A 
ATOM     41  C   UNL A   1      39.968  33.936  39.972  1.00  0.00     0.010 A 
ATOM     42  C   UNL A   1      41.433  36.311  39.768  1.00  0.00     0.020 A 
ATOM     43  C   UNL A   1      40.040  34.802  41.067  1.00  0.00     0.020 A 
ATOM     44  C   UNL A   1      40.795  35.971  40.966  1.00  0.00     0.054 A 
BRANCH  44  45
ATOM     45  S   UNL A   1      40.967  37.084  42.388  1.00  0.00     0.124 S 
ATOM     46  O   UNL A   1      41.393  36.162  43.440  1.00  0.00    -0.237 OA
ATOM     47  O   UNL A   1      41.981  38.031  41.935  1.00  0.00    -0.237 OA
ATOM     48  O   UNL A   1      39.627  37.643  42.558  1.00  0.00    -0.744 OA
ENDBRANCH  44  45
ENDBRANCH  25  39
BRANCH  26  49
ATOM     49  C   UNL A   1      39.919  28.321  30.736  1.00  0.00    -0.014 A 
ATOM     50  C   UNL A   1      40.713  28.599  29.610  1.00  0.00     0.010 A 
ATOM     51  C   UNL A   1      39.081  27.189  30.720  1.00  0.00     0.010 A 
ATOM     52  C   UNL A   1      40.672  27.760  28.493  1.00  0.00     0.020 A 
ATOM     53  C   UNL A   1      39.062  26.331  29.618  1.00  0.00     0.020 A 
ATOM     54  C   UNL A   1      39.856  26.626  28.508  1.00  0.00     0.054 A 
BRANCH  54  55
ATOM     55  S   UNL A   1      39.889  25.507  27.081  1.00  0.00     0.124 S 
ATOM     56  O   UNL A   1      38.469  25.262  26.854  1.00  0.00    -0.237 OA
ATOM     57  O   UNL A   1      40.563  26.314  26.067  1.00  0.00    -0.237 OA
ATOM     58  O   UNL A   1      40.654  24.359  27.563  1.00  0.00    -0.744 OA
ENDBRANCH  54  55
ENDBRANCH  26  49
BRANCH  38  59
ATOM     59  C   UNL A   1      44.409  28.711  36.089  1.00  0.00    -0.014 A 
ATOM     60  C   UNL A   1      45.708  29.107  35.726  1.00  0.00     0.010 A 
ATOM     61  C   UNL A   1      44.242  27.579  36.910  1.00  0.00     0.010 A 
ATOM     62  C   UNL A   1      46.817  28.378  36.168  1.00  0.00     0.020 A 
ATOM     63  C   UNL A   1      45.348  26.867  37.377  1.00  0.00     0.020 A 
ATOM     64  C   UNL A   1      46.629  27.268  36.996  1.00  0.00     0.054 A 
BRANCH  64  65
ATOM     65  S   UNL A   1      48.087  26.387  37.620  1.00  0.00     0.124 S 
ATOM     66  O   UNL A   1      49.068  26.636  36.567  1.00  0.00    -0.237 OA
ATOM     67  O   UNL A   1      48.346  27.057  38.892  1.00  0.00    -0.237 OA
ATOM     68  O   UNL A   1      47.635  25.002  37.734  1.00  0.00    -0.744 OA
ENDBRANCH  64  65
ENDBRANCH  38  59
ENDBRANCH  12  13
ENDBRANCH   5   7
ENDBRANCH   2   3
ENDBRANCH   1   2
BRANCH   1  69
ATOM     69  C   UNL A   1      34.589  34.518  27.747  1.00  0.00     0.118 C 
BRANCH  69  70
ATOM     70  N   UNL A   1      35.962  34.217  28.134  1.00  0.00    -0.352 N 
ATOM     71  C   UNL A   1      36.566  33.007  28.372  1.00  0.00     0.251 C 
ATOM     72  H   UNL A   1      36.545  35.003  28.242  1.00  0.00     0.163 HD
ATOM     73  O   UNL A   1      37.691  32.964  28.856  1.00  0.00    -0.269 OA
BRANCH  71  74
ATOM     74  C   UNL A   1      35.849  31.754  28.064  1.00  0.00     0.039 A 
ATOM     75  C   UNL A   1      34.475  31.798  27.837  1.00  0.00     0.014 A 
ATOM     76  C   UNL A   1      36.525  30.536  28.007  1.00  0.00     0.014 A 
ATOM     77  C   UNL A   1      33.806  30.640  27.434  1.00  0.00     0.005 A 
ATOM     78  C   UNL A   1      35.862  29.391  27.571  1.00  0.00     0.005 A 
ATOM     79  C   UNL A   1      34.502  29.433  27.229  1.00  0.00    -0.043 A 
BRANCH  79  80
ATOM     80  C   UNL A   1      33.767  28.227  26.646  1.00  0.00     0.039 C 
ATOM     81  C   UNL A   1      32.347  28.101  27.256  1.00  0.00     0.012 C 
ATOM     82  C   UNL A   1      33.651  28.238  25.103  1.00  0.00     0.128 C 
ATOM     83  C   UNL A   1      31.557  26.935  26.656  1.00  0.00     0.022 C 
ATOM     84  N   UNL A   1      32.883  27.100  24.615  1.00  0.00    -0.338 N 
ATOM     85  C   UNL A   1      31.520  27.012  25.135  1.00  0.00     0.120 C 
BRANCH  84  86
ATOM     86  C   UNL A   1      33.513  26.164  23.807  1.00  0.00     0.253 C 
ATOM     87  O   UNL A   1      33.805  26.350  22.628  1.00  0.00    -0.269 OA
BRANCH  86  88
ATOM     88  C   UNL A   1      33.900  24.876  24.399  1.00  0.00     0.040 A 
ATOM     89  C   UNL A   1      34.884  24.875  25.389  1.00  0.00     0.016 A 
ATOM     90  C   UNL A   1      33.313  23.691  23.934  1.00  0.00     0.024 A 
ATOM     91  C   UNL A   1      35.275  23.678  25.992  1.00  0.00     0.027 A 
ATOM     92  C   UNL A   1      33.727  22.476  24.508  1.00  0.00     0.000 A 
ATOM     93  C   UNL A   1      34.675  22.499  25.534  1.00  0.00     0.045 A 
ATOM     94  C   UNL A   1      33.408  21.111  24.265  1.00  0.00     0.028 A 
ATOM     95  N   UNL A   1      34.862  21.197  25.939  1.00  0.00    -0.361 N 
ATOM     96  C   UNL A   1      34.137  20.346  25.148  1.00  0.00     0.083 A 
ATOM     97  H   UNL A   1      35.434  20.916  26.689  1.00  0.00     0.166 HD
ENDBRANCH  86  88
ENDBRANCH  84  86
ENDBRANCH  79  80
ENDBRANCH  71  74
ENDBRANCH  69  70
ENDBRANCH   1  69
TORSDOF 16
ENDMDL
MODEL 3
REMARK VINA RESULT:     -11.7      4.043     10.366
REMARK SMILES O=C(NCCCNC(=O)c1ccc([C@H]2CCCN(C(=O)c3ccc4[nH]ccc4c3)C2)cc1)c1ccc(-c2c3nc(c(-c4ccc(S(=O)(=O)[O-])cc4)c4ccc([nH]4)c(-c4ccc(S(=O)(=O)[O-])cc4)c4nc(c(-c5ccc(S(=O)(=O)[O-])cc5)c5ccc2[nH]5)C=C4)C=C3)cc1
REMARK SMILES IDX 5 1 4 2 3 3 1 4 2 5 33 7 34 8 92 9 35 10 91 11 36 12 37 13
REMARK SMILES IDX 38 14 85 15 39 16 90 17 84 18 86 19 40 20 89 21 83 22 82 23
REMARK SMILES IDX 41 25 71 26 52 27 70 28 53 29 56 30 69 31 87 32 54 33 55 34
REMARK SMILES IDX 68 36 88 37 57 38 42 39 43 40 51 41 44 42 50 43 45 44 46 45
REMARK SMILES IDX 47 46 48 47 49 48 72 49 73 50 81 51 74 52 80 53 75 54 76 55
REMARK SMILES IDX 77 56 78 57 79 58 58 59 59 60 67 61 60 62 66 63 61 64 62 65
REMARK SMILES IDX 63 66 64 67 65 68 6 69 7 70 8 71 9 73 10 74 11 75 32 76
REMARK SMILES IDX 12 77 31 78 13 79 14 80 15 81 30 82 16 83 18 84 17 85 19 86
REMARK SMILES IDX 20 87 21 88 22 89 29 90 23 91 28 92 24 93 27 94 25 95 26 96
REMARK H PARENT 3 6 86 24 56 35 7 72 25 97
REMARK Flexibility Score: inf
ROOT
ATOM      1  C   UNL A   1      41.095  20.140  26.208  1.00  0.00     0.042 C 
ENDROOT
BRANCH   1   2
ATOM      2  C   UNL A   1      40.577  21.495  26.664  1.00  0.00     0.118 C 
BRANCH   2   3
ATOM      3  N   UNL A   1      39.369  21.905  25.961  1.00  0.00    -0.352 N 
ATOM      4  O   UNL A   1      37.554  23.143  25.487  1.00  0.00    -0.269 OA
ATOM      5  C   UNL A   1      38.650  23.073  26.036  1.00  0.00     0.251 C 
ATOM      6  H   UNL A   1      39.011  21.238  25.332  1.00  0.00     0.163 HD
BRANCH   5   7
ATOM      7  C   UNL A   1      39.177  24.231  26.792  1.00  0.00     0.039 A 
ATOM      8  C   UNL A   1      38.802  24.460  28.118  1.00  0.00     0.014 A 
ATOM      9  C   UNL A   1      40.087  25.087  26.166  1.00  0.00     0.014 A 
ATOM     10  C   UNL A   1      39.209  25.624  28.763  1.00  0.00     0.010 A 
ATOM     11  C   UNL A   1      40.568  26.207  26.849  1.00  0.00     0.010 A 
ATOM     12  C   UNL A   1      40.106  26.503  28.142  1.00  0.00    -0.014 A 
BRANCH  12  13
ATOM     13  C   UNL A   1      40.596  27.705  28.862  1.00  0.00     0.031 A 
ATOM     14  C   UNL A   1      41.960  27.718  29.498  1.00  0.00     0.074 A 
ATOM     15  C   UNL A   1      39.794  28.781  28.963  1.00  0.00     0.049 A 
ATOM     16  N   UNL A   1      42.519  28.648  30.228  1.00  0.00    -0.248 NA
ATOM     17  C   UNL A   1      42.800  26.529  29.293  1.00  0.00     0.031 C 
ATOM     18  C   UNL A   1      38.454  28.893  28.380  1.00  0.00     0.029 A 
ATOM     19  N   UNL A   1      39.981  29.983  29.597  1.00  0.00    -0.354 N 
ATOM     20  C   UNL A   1      43.763  28.147  30.595  1.00  0.00     0.074 A 
ATOM     21  C   UNL A   1      43.865  26.820  30.027  1.00  0.00     0.031 C 
ATOM     22  C   UNL A   1      37.949  30.101  28.668  1.00  0.00     0.029 A 
ATOM     23  C   UNL A   1      38.894  30.821  29.515  1.00  0.00     0.049 A 
ATOM     24  H   UNL A   1      40.813  30.223  30.066  1.00  0.00     0.167 HD
ATOM     25  C   UNL A   1      44.729  28.740  31.340  1.00  0.00     0.031 A 
ATOM     26  C   UNL A   1      38.661  32.018  30.085  1.00  0.00     0.031 A 
ATOM     27  C   UNL A   1      44.607  30.054  31.916  1.00  0.00     0.049 A 
ATOM     28  C   UNL A   1      39.721  32.634  30.950  1.00  0.00     0.074 A 
ATOM     29  C   UNL A   1      45.537  30.755  32.664  1.00  0.00     0.029 A 
ATOM     30  N   UNL A   1      43.482  30.863  31.822  1.00  0.00    -0.354 N 
ATOM     31  N   UNL A   1      40.903  32.159  31.265  1.00  0.00    -0.248 NA
ATOM     32  C   UNL A   1      39.423  33.948  31.533  1.00  0.00     0.031 C 
ATOM     33  C   UNL A   1      44.951  31.957  33.077  1.00  0.00     0.029 A 
ATOM     34  C   UNL A   1      43.685  32.041  32.520  1.00  0.00     0.049 A 
ATOM     35  H   UNL A   1      42.661  30.631  31.330  1.00  0.00     0.167 HD
ATOM     36  C   UNL A   1      41.504  33.131  32.055  1.00  0.00     0.074 A 
ATOM     37  C   UNL A   1      40.555  34.222  32.169  1.00  0.00     0.031 C 
ATOM     38  C   UNL A   1      42.734  33.123  32.624  1.00  0.00     0.031 A 
BRANCH  25  39
ATOM     39  C   UNL A   1      45.981  27.945  31.614  1.00  0.00    -0.014 A 
ATOM     40  C   UNL A   1      47.155  28.136  30.862  1.00  0.00     0.010 A 
ATOM     41  C   UNL A   1      45.989  26.997  32.655  1.00  0.00     0.010 A 
ATOM     42  C   UNL A   1      48.286  27.351  31.099  1.00  0.00     0.020 A 
ATOM     43  C   UNL A   1      47.129  26.233  32.919  1.00  0.00     0.020 A 
ATOM     44  C   UNL A   1      48.262  26.396  32.121  1.00  0.00     0.054 A 
BRANCH  44  45
ATOM     45  S   UNL A   1      49.736  25.373  32.391  1.00  0.00     0.124 S 
ATOM     46  O   UNL A   1      50.115  25.027  31.022  1.00  0.00    -0.237 OA
ATOM     47  O   UNL A   1      50.641  26.289  33.079  1.00  0.00    -0.237 OA
ATOM     48  O   UNL A   1      49.245  24.261  33.200  1.00  0.00    -0.744 OA
ENDBRANCH  44  45
ENDBRANCH  25  39
BRANCH  26  49
ATOM     49  C   UNL A   1      37.355  32.691  29.850  1.00  0.00    -0.014 A 
ATOM     50  C   UNL A   1      36.340  32.644  30.821  1.00  0.00     0.010 A 
ATOM     51  C   UNL A   1      37.149  33.445  28.679  1.00  0.00     0.010 A 
ATOM     52  C   UNL A   1      35.143  33.339  30.625  1.00  0.00     0.020 A 
ATOM     53  C   UNL A   1      35.967  34.166  28.495  1.00  0.00     0.020 A 
ATOM     54  C   UNL A   1      34.969  34.105  29.468  1.00  0.00     0.054 A 
BRANCH  54  55
ATOM     55  S   UNL A   1      33.443  35.068  29.281  1.00  0.00     0.124 S 
ATOM     56  O   UNL A   1      33.951  36.352  28.810  1.00  0.00    -0.237 OA
ATOM     57  O   UNL A   1      32.697  34.284  28.299  1.00  0.00    -0.237 OA
ATOM     58  O   UNL A   1      32.873  35.073  30.626  1.00  0.00    -0.744 OA
ENDBRANCH  54  55
ENDBRANCH  26  49
BRANCH  38  59
ATOM     59  C   UNL A   1      43.165  34.353  33.379  1.00  0.00    -0.014 A 
ATOM     60  C   UNL A   1      43.645  35.496  32.717  1.00  0.00     0.010 A 
ATOM     61  C   UNL A   1      43.002  34.387  34.777  1.00  0.00     0.010 A 
ATOM     62  C   UNL A   1      43.966  36.648  33.443  1.00  0.00     0.020 A 
ATOM     63  C   UNL A   1      43.293  35.545  35.502  1.00  0.00     0.020 A 
ATOM     64  C   UNL A   1      43.780  36.667  34.829  1.00  0.00     0.054 A 
BRANCH  64  65
ATOM     65  S   UNL A   1      44.128  38.199  35.736  1.00  0.00     0.124 S 
ATOM     66  O   UNL A   1      43.447  39.199  34.919  1.00  0.00    -0.237 OA
ATOM     67  O   UNL A   1      43.528  37.939  37.042  1.00  0.00    -0.237 OA
ATOM     68  O   UNL A   1      45.587  38.282  35.733  1.00  0.00    -0.744 OA
ENDBRANCH  64  65
ENDBRANCH  38  59
ENDBRANCH  12  13
ENDBRANCH   5   7
ENDBRANCH   2   3
ENDBRANCH   1   2
BRANCH   1  69
ATOM     69  C   UNL A   1      42.554  19.881  26.550  1.00  0.00     0.118 C 
BRANCH  69  70
ATOM     70  N   UNL A   1      43.405  19.793  25.370  1.00  0.00    -0.352 N 
ATOM     71  C   UNL A   1      44.107  20.774  24.713  1.00  0.00     0.251 C 
ATOM     72  H   UNL A   1      43.488  18.891  24.983  1.00  0.00     0.163 HD
ATOM     73  O   UNL A   1      44.633  20.537  23.631  1.00  0.00    -0.269 OA
BRANCH  71  74
ATOM     74  C   UNL A   1      44.209  22.124  25.301  1.00  0.00     0.039 A 
ATOM     75  C   UNL A   1      45.098  22.341  26.351  1.00  0.00     0.014 A 
ATOM     76  C   UNL A   1      43.426  23.174  24.824  1.00  0.00     0.014 A 
ATOM     77  C   UNL A   1      45.286  23.636  26.840  1.00  0.00     0.005 A 
ATOM     78  C   UNL A   1      43.642  24.470  25.289  1.00  0.00     0.005 A 
ATOM     79  C   UNL A   1      44.610  24.732  26.270  1.00  0.00    -0.043 A 
BRANCH  79  80
ATOM     80  C   UNL A   1      44.951  26.149  26.726  1.00  0.00     0.039 C 
ATOM     81  C   UNL A   1      46.481  26.312  26.922  1.00  0.00     0.012 C 
ATOM     82  C   UNL A   1      44.446  27.262  25.777  1.00  0.00     0.128 C 
ATOM     83  C   UNL A   1      46.868  27.736  27.327  1.00  0.00     0.022 C 
ATOM     84  N   UNL A   1      44.860  28.583  26.231  1.00  0.00    -0.338 N 
ATOM     85  C   UNL A   1      46.305  28.764  26.354  1.00  0.00     0.120 C 
BRANCH  84  86
ATOM     86  C   UNL A   1      43.886  29.501  26.599  1.00  0.00     0.253 C 
ATOM     87  O   UNL A   1      42.677  29.283  26.563  1.00  0.00    -0.269 OA
BRANCH  86  88
ATOM     88  C   UNL A   1      44.317  30.811  27.109  1.00  0.00     0.040 A 
ATOM     89  C   UNL A   1      44.797  30.883  28.417  1.00  0.00     0.016 A 
ATOM     90  C   UNL A   1      44.197  31.947  26.297  1.00  0.00     0.024 A 
ATOM     91  C   UNL A   1      45.232  32.102  28.941  1.00  0.00     0.027 A 
ATOM     92  C   UNL A   1      44.597  33.187  26.828  1.00  0.00     0.000 A 
ATOM     93  C   UNL A   1      45.123  33.232  28.121  1.00  0.00     0.045 A 
ATOM     94  C   UNL A   1      44.573  34.523  26.340  1.00  0.00     0.028 A 
ATOM     95  N   UNL A   1      45.470  34.541  28.369  1.00  0.00    -0.361 N 
ATOM     96  C   UNL A   1      45.098  35.336  27.318  1.00  0.00     0.083 A 
ATOM     97  H   UNL A   1      45.920  34.860  29.184  1.00  0.00     0.166 HD
ENDBRANCH  86  88
ENDBRANCH  84  86
ENDBRANCH  79  80
ENDBRANCH  71  74
ENDBRANCH  69  70
ENDBRANCH   1  69
TORSDOF 16
ENDMDL
