MODEL 1
REMARK VINA RESULT:     -11.3      0.000      0.000
REMARK SMILES Cc1cc(C)c2c(O[C@@H](C)C(=O)NCCCNC(=O)c3ccc(-c4c5nc(c(-c6ccc(S(=O)(=O)[O-])cc6)c6ccc([nH]6)c(-c6ccc(S(=O)(=O)[O-])cc6)c6nc(c(-c7ccc(S(=O)(=O)[O-])cc7)c7ccc4[nH]7)C=C6)C=C5)cc3)nsc2n1
REMARK SMILES IDX 15 1 14 2 13 3 11 4 12 5 9 7 10 8 8 9 7 10 1 11 2 12 3 13
REMARK SMILES IDX 83 14 4 15 82 16 5 17 6 18 81 19 80 20 16 21 17 22 18 23
REMARK SMILES IDX 19 25 20 26 21 27 79 28 22 29 78 30 23 31 24 32 25 33 72 34
REMARK SMILES IDX 26 35 77 36 71 37 73 38 27 39 76 40 70 41 69 42 28 44 58 45
REMARK SMILES IDX 39 46 57 47 40 48 43 49 56 50 74 51 41 52 42 53 55 55 75 56
REMARK SMILES IDX 44 57 29 58 30 59 38 60 31 61 37 62 32 63 33 64 34 65 35 66
REMARK SMILES IDX 36 67 59 68 60 69 68 70 61 71 67 72 62 73 63 74 64 75 65 76
REMARK SMILES IDX 66 77 45 78 46 79 54 80 47 81 53 82 48 83 49 84 50 85 51 86
REMARK SMILES IDX 52 87
REMARK H PARENT 13 6 17 24 73 43 43 54
REMARK Flexibility Score: inf
ROOT
ATOM      1  C   UNL A   1      41.095  21.158  26.377  1.00  0.00     0.042 C 
ENDROOT
BRANCH   1   2
ATOM      2  C   UNL A   1      39.657  21.446  26.366  1.00  0.00     0.118 C 
BRANCH   2   3
ATOM      3  N   UNL A   1      39.070  22.556  25.749  1.00  0.00    -0.353 N 
ATOM      4  C   UNL A   1      37.710  22.549  25.466  1.00  0.00     0.260 C 
ATOM      5  O   UNL A   1      37.174  23.657  25.387  1.00  0.00    -0.271 OA
ATOM      6  H   UNL A   1      39.619  23.340  25.517  1.00  0.00     0.163 HD
BRANCH   4   7
ATOM      7  C   UNL A   1      36.823  21.148  25.294  1.00  0.00     0.260 C 
ATOM      8  C   UNL A   1      37.438  19.764  24.998  1.00  0.00     0.064 C 
BRANCH   7   9
ATOM      9  O   UNL A   1      35.528  21.149  24.718  1.00  0.00    -0.463 OA
BRANCH   9  10
ATOM     10  C   UNL A   1      34.426  21.493  25.460  1.00  0.00     0.235 A 
ATOM     11  C   UNL A   1      30.284  25.351  25.530  1.00  0.00     0.067 C 
ATOM     12  C   UNL A   1      31.129  24.116  25.436  1.00  0.00     0.039 A 
ATOM     13  C   UNL A   1      31.463  23.711  24.163  1.00  0.00     0.027 A 
ATOM     14  N   UNL A   1      31.646  23.582  26.552  1.00  0.00    -0.240 NA
ATOM     15  C   UNL A   1      32.404  22.703  23.912  1.00  0.00    -0.034 A 
ATOM     16  C   UNL A   1      32.612  22.657  26.347  1.00  0.00     0.147 A 
ATOM     17  C   UNL A   1      32.735  22.719  22.387  1.00  0.00     0.045 C 
ATOM     18  C   UNL A   1      33.086  22.153  25.118  1.00  0.00     0.078 A 
ATOM     19  S   UNL A   1      33.618  22.192  27.652  1.00  0.00    -0.012 S 
ATOM     20  N   UNL A   1      34.770  21.452  26.747  1.00  0.00    -0.153 NA
ENDBRANCH   9  10
ENDBRANCH   7   9
ENDBRANCH   4   7
ENDBRANCH   2   3
ENDBRANCH   1   2
BRANCH   1  21
ATOM     21  C   UNL A   1      41.489  21.651  27.679  1.00  0.00     0.118 C 
BRANCH  21  22
ATOM     22  N   UNL A   1      42.794  22.381  27.816  1.00  0.00    -0.352 N 
ATOM     23  C   UNL A   1      42.916  23.779  27.795  1.00  0.00     0.251 C 
ATOM     24  H   UNL A   1      43.614  21.846  27.929  1.00  0.00     0.163 HD
ATOM     25  O   UNL A   1      43.925  24.387  28.120  1.00  0.00    -0.269 OA
BRANCH  23  26
ATOM     26  C   UNL A   1      41.658  24.480  27.624  1.00  0.00     0.039 A 
ATOM     27  C   UNL A   1      41.131  25.080  26.513  1.00  0.00     0.014 A 
ATOM     28  C   UNL A   1      41.484  25.233  28.755  1.00  0.00     0.014 A 
ATOM     29  C   UNL A   1      40.696  26.453  26.787  1.00  0.00     0.010 A 
ATOM     30  C   UNL A   1      40.435  25.991  28.835  1.00  0.00     0.010 A 
ATOM     31  C   UNL A   1      40.921  27.014  28.133  1.00  0.00    -0.014 A 
BRANCH  31  32
ATOM     32  C   UNL A   1      40.624  28.314  29.151  1.00  0.00     0.031 A 
ATOM     33  C   UNL A   1      41.847  29.234  28.226  1.00  0.00     0.074 A 
ATOM     34  C   UNL A   1      39.604  28.633  30.336  1.00  0.00     0.049 A 
ATOM     35  N   UNL A   1      43.135  28.958  28.326  1.00  0.00    -0.248 NA
ATOM     36  C   UNL A   1      41.815  29.831  26.715  1.00  0.00     0.031 C 
ATOM     37  C   UNL A   1      38.323  28.017  31.187  1.00  0.00     0.029 A 
ATOM     38  N   UNL A   1      39.556  29.702  31.301  1.00  0.00    -0.354 N 
ATOM     39  C   UNL A   1      43.769  30.021  27.670  1.00  0.00     0.074 A 
ATOM     40  C   UNL A   1      43.050  30.320  26.507  1.00  0.00     0.031 C 
ATOM     41  C   UNL A   1      37.469  28.818  31.971  1.00  0.00     0.029 A 
ATOM     42  C   UNL A   1      38.336  30.108  32.050  1.00  0.00     0.049 A 
ATOM     43  H   UNL A   1      40.388  30.197  31.478  1.00  0.00     0.167 HD
ATOM     44  C   UNL A   1      44.426  30.941  28.401  1.00  0.00     0.031 A 
ATOM     45  C   UNL A   1      38.167  31.340  32.791  1.00  0.00     0.031 A 
ATOM     46  C   UNL A   1      44.547  30.418  29.728  1.00  0.00     0.049 A 
ATOM     47  C   UNL A   1      39.555  31.914  32.788  1.00  0.00     0.074 A 
ATOM     48  C   UNL A   1      45.134  29.273  30.233  1.00  0.00     0.029 A 
ATOM     49  N   UNL A   1      43.404  30.630  30.444  1.00  0.00    -0.354 N 
ATOM     50  N   UNL A   1      40.537  31.320  33.416  1.00  0.00    -0.248 NA
ATOM     51  C   UNL A   1      39.861  32.585  31.522  1.00  0.00     0.031 C 
ATOM     52  C   UNL A   1      44.244  28.762  31.222  1.00  0.00     0.029 A 
ATOM     53  C   UNL A   1      43.236  29.697  31.415  1.00  0.00     0.049 A 
ATOM     54  H   UNL A   1      42.779  31.371  30.276  1.00  0.00     0.167 HD
ATOM     55  C   UNL A   1      41.462  31.063  32.415  1.00  0.00     0.074 A 
ATOM     56  C   UNL A   1      41.007  31.937  31.251  1.00  0.00     0.031 C 
ATOM     57  C   UNL A   1      42.191  29.872  32.380  1.00  0.00     0.031 A 
BRANCH  44  58
ATOM     58  C   UNL A   1      44.493  32.396  28.071  1.00  0.00    -0.014 A 
ATOM     59  C   UNL A   1      43.616  33.162  28.834  1.00  0.00     0.010 A 
ATOM     60  C   UNL A   1      45.222  33.039  27.031  1.00  0.00     0.010 A 
ATOM     61  C   UNL A   1      43.479  34.520  28.618  1.00  0.00     0.020 A 
ATOM     62  C   UNL A   1      45.101  34.424  26.816  1.00  0.00     0.020 A 
ATOM     63  C   UNL A   1      44.224  35.148  27.620  1.00  0.00     0.054 A 
BRANCH  63  64
ATOM     64  S   UNL A   1      43.992  36.930  27.443  1.00  0.00     0.124 S 
ATOM     65  O   UNL A   1      42.878  36.999  26.501  1.00  0.00    -0.237 OA
ATOM     66  O   UNL A   1      43.680  37.325  28.816  1.00  0.00    -0.237 OA
ATOM     67  O   UNL A   1      45.277  37.403  26.939  1.00  0.00    -0.744 OA
ENDBRANCH  63  64
ENDBRANCH  44  58
BRANCH  45  68
ATOM     68  C   UNL A   1      36.967  32.411  32.882  1.00  0.00    -0.014 A 
ATOM     69  C   UNL A   1      36.933  33.805  33.280  1.00  0.00     0.010 A 
ATOM     70  C   UNL A   1      35.847  32.035  32.125  1.00  0.00     0.010 A 
ATOM     71  C   UNL A   1      35.864  34.714  32.885  1.00  0.00     0.020 A 
ATOM     72  C   UNL A   1      34.818  32.921  31.706  1.00  0.00     0.020 A 
ATOM     73  C   UNL A   1      34.830  34.264  32.064  1.00  0.00     0.054 A 
BRANCH  73  74
ATOM     74  S   UNL A   1      33.542  35.411  31.409  1.00  0.00     0.124 S 
ATOM     75  O   UNL A   1      33.594  35.171  29.969  1.00  0.00    -0.237 OA
ATOM     76  O   UNL A   1      32.325  34.954  32.075  1.00  0.00    -0.237 OA
ATOM     77  O   UNL A   1      34.011  36.732  31.826  1.00  0.00    -0.744 OA
ENDBRANCH  73  74
ENDBRANCH  45  68
BRANCH  57  78
ATOM     78  C   UNL A   1      42.113  28.769  33.472  1.00  0.00    -0.014 A 
ATOM     79  C   UNL A   1      41.382  27.541  33.511  1.00  0.00     0.010 A 
ATOM     80  C   UNL A   1      43.049  28.941  34.493  1.00  0.00     0.010 A 
ATOM     81  C   UNL A   1      41.418  26.684  34.642  1.00  0.00     0.020 A 
ATOM     82  C   UNL A   1      43.147  28.068  35.580  1.00  0.00     0.020 A 
ATOM     83  C   UNL A   1      42.288  26.980  35.687  1.00  0.00     0.054 A 
BRANCH  83  84
ATOM     84  S   UNL A   1      42.303  25.953  37.184  1.00  0.00     0.124 S 
ATOM     85  O   UNL A   1      43.206  26.691  38.063  1.00  0.00    -0.237 OA
ATOM     86  O   UNL A   1      40.900  25.950  37.590  1.00  0.00    -0.237 OA
ATOM     87  O   UNL A   1      42.812  24.666  36.713  1.00  0.00    -0.744 OA
ENDBRANCH  83  84
ENDBRANCH  57  78
ENDBRANCH  31  32
ENDBRANCH  23  26
ENDBRANCH  21  22
ENDBRANCH   1  21
TORSDOF 15
ENDMDL
MODEL 2
REMARK VINA RESULT:     -11.0      3.516     10.166
REMARK SMILES Cc1cc(C)c2c(O[C@@H](C)C(=O)NCCCNC(=O)c3ccc(-c4c5nc(c(-c6ccc(S(=O)(=O)[O-])cc6)c6ccc([nH]6)c(-c6ccc(S(=O)(=O)[O-])cc6)c6nc(c(-c7ccc(S(=O)(=O)[O-])cc7)c7ccc4[nH]7)C=C6)C=C5)cc3)nsc2n1
REMARK SMILES IDX 15 1 14 2 13 3 11 4 12 5 9 7 10 8 8 9 7 10 1 11 2 12 3 13
REMARK SMILES IDX 83 14 4 15 82 16 5 17 6 18 81 19 80 20 16 21 17 22 18 23
REMARK SMILES IDX 19 25 20 26 21 27 79 28 22 29 78 30 23 31 24 32 25 33 72 34
REMARK SMILES IDX 26 35 77 36 71 37 73 38 27 39 76 40 70 41 69 42 28 44 58 45
REMARK SMILES IDX 39 46 57 47 40 48 43 49 56 50 74 51 41 52 42 53 55 55 75 56
REMARK SMILES IDX 44 57 29 58 30 59 38 60 31 61 37 62 32 63 33 64 34 65 35 66
REMARK SMILES IDX 36 67 59 68 60 69 68 70 61 71 67 72 62 73 63 74 64 75 65 76
REMARK SMILES IDX 66 77 45 78 46 79 54 80 47 81 53 82 48 83 49 84 50 85 51 86
REMARK SMILES IDX 52 87
REMARK H PARENT 13 6 17 24 73 43 43 54
REMARK Flexibility Score: inf
ROOT
ATOM      1  C   UNL A   1      35.347  29.613  27.108  1.00  0.00     0.042 C 
ENDROOT
BRANCH   1   2
ATOM      2  C   UNL A   1      34.087  28.922  26.818  1.00  0.00     0.118 C 
BRANCH   2   3
ATOM      3  N   UNL A   1      32.962  28.932  27.649  1.00  0.00    -0.353 N 
ATOM      4  C   UNL A   1      31.820  28.235  27.274  1.00  0.00     0.260 C 
ATOM      5  O   UNL A   1      31.083  27.879  28.196  1.00  0.00    -0.271 OA
ATOM      6  H   UNL A   1      32.979  29.431  28.498  1.00  0.00     0.163 HD
BRANCH   4   7
ATOM      7  C   UNL A   1      31.472  27.843  25.691  1.00  0.00     0.260 C 
ATOM      8  C   UNL A   1      31.320  28.878  24.556  1.00  0.00     0.064 C 
BRANCH   7   9
ATOM      9  O   UNL A   1      30.636  26.749  25.359  1.00  0.00    -0.463 OA
BRANCH   9  10
ATOM     10  C   UNL A   1      31.067  25.456  25.524  1.00  0.00     0.235 A 
ATOM     11  C   UNL A   1      32.132  20.821  22.454  1.00  0.00     0.067 C 
ATOM     12  C   UNL A   1      32.186  22.051  23.310  1.00  0.00     0.039 A 
ATOM     13  C   UNL A   1      32.551  23.213  22.669  1.00  0.00     0.027 A 
ATOM     14  N   UNL A   1      31.726  22.001  24.569  1.00  0.00    -0.240 NA
ATOM     15  C   UNL A   1      32.457  24.474  23.276  1.00  0.00    -0.034 A 
ATOM     16  C   UNL A   1      31.552  23.206  25.159  1.00  0.00     0.147 A 
ATOM     17  C   UNL A   1      32.673  25.559  22.174  1.00  0.00     0.045 C 
ATOM     18  C   UNL A   1      31.850  24.482  24.637  1.00  0.00     0.078 A 
ATOM     19  S   UNL A   1      30.617  23.310  26.590  1.00  0.00    -0.012 S 
ATOM     20  N   UNL A   1      30.417  24.938  26.566  1.00  0.00    -0.153 NA
ENDBRANCH   9  10
ENDBRANCH   7   9
ENDBRANCH   4   7
ENDBRANCH   2   3
ENDBRANCH   1   2
BRANCH   1  21
ATOM     21  C   UNL A   1      34.895  30.746  27.886  1.00  0.00     0.118 C 
BRANCH  21  22
ATOM     22  N   UNL A   1      35.672  32.029  27.823  1.00  0.00    -0.352 N 
ATOM     23  C   UNL A   1      36.843  32.273  28.557  1.00  0.00     0.251 C 
ATOM     24  H   UNL A   1      35.340  32.742  27.231  1.00  0.00     0.163 HD
ATOM     25  O   UNL A   1      37.599  33.212  28.356  1.00  0.00    -0.269 OA
BRANCH  23  26
ATOM     26  C   UNL A   1      37.254  31.167  29.401  1.00  0.00     0.039 A 
ATOM     27  C   UNL A   1      37.579  31.150  30.730  1.00  0.00     0.014 A 
ATOM     28  C   UNL A   1      38.107  30.406  28.646  1.00  0.00     0.014 A 
ATOM     29  C   UNL A   1      38.864  30.488  30.971  1.00  0.00     0.010 A 
ATOM     30  C   UNL A   1      38.649  29.363  29.192  1.00  0.00     0.010 A 
ATOM     31  C   UNL A   1      39.640  30.001  29.814  1.00  0.00    -0.014 A 
BRANCH  31  32
ATOM     32  C   UNL A   1      40.985  29.123  29.328  1.00  0.00     0.031 A 
ATOM     33  C   UNL A   1      41.235  28.682  31.043  1.00  0.00     0.074 A 
ATOM     34  C   UNL A   1      41.662  28.741  27.935  1.00  0.00     0.049 A 
ATOM     35  N   UNL A   1      41.658  29.569  31.926  1.00  0.00    -0.248 NA
ATOM     36  C   UNL A   1      40.390  27.702  32.026  1.00  0.00     0.031 C 
ATOM     37  C   UNL A   1      41.494  28.884  26.293  1.00  0.00     0.029 A 
ATOM     38  N   UNL A   1      42.940  28.156  27.616  1.00  0.00    -0.354 N 
ATOM     39  C   UNL A   1      41.962  28.808  33.062  1.00  0.00     0.074 A 
ATOM     40  C   UNL A   1      40.963  27.844  33.235  1.00  0.00     0.031 C 
ATOM     41  C   UNL A   1      42.184  28.064  25.379  1.00  0.00     0.029 A 
ATOM     42  C   UNL A   1      43.256  27.466  26.336  1.00  0.00     0.049 A 
ATOM     43  H   UNL A   1      43.653  28.217  28.292  1.00  0.00     0.167 HD
ATOM     44  C   UNL A   1      43.253  28.614  33.391  1.00  0.00     0.031 A 
ATOM     45  C   UNL A   1      44.403  26.618  26.091  1.00  0.00     0.031 A 
ATOM     46  C   UNL A   1      44.030  29.519  32.600  1.00  0.00     0.049 A 
ATOM     47  C   UNL A   1      45.234  26.831  27.324  1.00  0.00     0.074 A 
ATOM     48  C   UNL A   1      44.035  30.897  32.486  1.00  0.00     0.029 A 
ATOM     49  N   UNL A   1      44.249  29.015  31.351  1.00  0.00    -0.354 N 
ATOM     50  N   UNL A   1      45.773  27.993  27.587  1.00  0.00    -0.248 NA
ATOM     51  C   UNL A   1      44.744  26.034  28.451  1.00  0.00     0.031 C 
ATOM     52  C   UNL A   1      44.176  31.190  31.099  1.00  0.00     0.029 A 
ATOM     53  C   UNL A   1      44.430  29.998  30.434  1.00  0.00     0.049 A 
ATOM     54  H   UNL A   1      44.274  28.053  31.142  1.00  0.00     0.167 HD
ATOM     55  C   UNL A   1      45.231  28.337  28.818  1.00  0.00     0.074 A 
ATOM     56  C   UNL A   1      44.634  27.035  29.341  1.00  0.00     0.031 C 
ATOM     57  C   UNL A   1      44.855  29.650  29.110  1.00  0.00     0.031 A 
BRANCH  44  58
ATOM     58  C   UNL A   1      43.795  27.361  33.996  1.00  0.00    -0.014 A 
ATOM     59  C   UNL A   1      44.002  26.356  33.055  1.00  0.00     0.010 A 
ATOM     60  C   UNL A   1      43.995  27.051  35.371  1.00  0.00     0.010 A 
ATOM     61  C   UNL A   1      44.427  25.096  33.437  1.00  0.00     0.020 A 
ATOM     62  C   UNL A   1      44.443  25.777  35.765  1.00  0.00     0.020 A 
ATOM     63  C   UNL A   1      44.654  24.813  34.783  1.00  0.00     0.054 A 
BRANCH  63  64
ATOM     64  S   UNL A   1      45.236  23.148  35.168  1.00  0.00     0.124 S 
ATOM     65  O   UNL A   1      46.403  23.025  34.300  1.00  0.00    -0.237 OA
ATOM     66  O   UNL A   1      45.525  23.260  36.597  1.00  0.00    -0.237 OA
ATOM     67  O   UNL A   1      44.103  22.292  34.830  1.00  0.00    -0.744 OA
ENDBRANCH  63  64
ENDBRANCH  44  58
BRANCH  45  68
ATOM     68  C   UNL A   1      44.577  25.189  25.367  1.00  0.00    -0.014 A 
ATOM     69  C   UNL A   1      45.751  24.412  25.014  1.00  0.00     0.010 A 
ATOM     70  C   UNL A   1      43.405  24.419  25.398  1.00  0.00     0.010 A 
ATOM     71  C   UNL A   1      45.703  22.976  24.770  1.00  0.00     0.020 A 
ATOM     72  C   UNL A   1      43.354  23.014  25.195  1.00  0.00     0.020 A 
ATOM     73  C   UNL A   1      44.499  22.283  24.901  1.00  0.00     0.054 A 
BRANCH  73  74
ATOM     74  S   UNL A   1      44.417  20.446  24.757  1.00  0.00     0.124 S 
ATOM     75  O   UNL A   1      44.488  20.228  23.315  1.00  0.00    -0.237 OA
ATOM     76  O   UNL A   1      45.584  20.004  25.515  1.00  0.00    -0.237 OA
ATOM     77  O   UNL A   1      43.129  20.109  25.363  1.00  0.00    -0.744 OA
ENDBRANCH  73  74
ENDBRANCH  45  68
BRANCH  57  78
ATOM     78  C   UNL A   1      45.073  30.854  28.152  1.00  0.00    -0.014 A 
ATOM     79  C   UNL A   1      46.271  31.510  27.730  1.00  0.00     0.010 A 
ATOM     80  C   UNL A   1      43.914  31.228  27.469  1.00  0.00     0.010 A 
ATOM     81  C   UNL A   1      46.244  32.638  26.868  1.00  0.00     0.020 A 
ATOM     82  C   UNL A   1      43.883  32.292  26.563  1.00  0.00     0.020 A 
ATOM     83  C   UNL A   1      45.031  33.037  26.315  1.00  0.00     0.054 A 
BRANCH  83  84
ATOM     84  S   UNL A   1      44.943  34.522  25.275  1.00  0.00     0.124 S 
ATOM     85  O   UNL A   1      43.707  35.153  25.729  1.00  0.00    -0.237 OA
ATOM     86  O   UNL A   1      46.172  35.233  25.619  1.00  0.00    -0.237 OA
ATOM     87  O   UNL A   1      44.901  33.987  23.915  1.00  0.00    -0.744 OA
ENDBRANCH  83  84
ENDBRANCH  57  78
ENDBRANCH  31  32
ENDBRANCH  23  26
ENDBRANCH  21  22
ENDBRANCH   1  21
TORSDOF 15
ENDMDL
MODEL 3
REMARK VINA RESULT:     -11.0      5.861     13.407
REMARK SMILES Cc1cc(C)c2c(O[C@@H](C)C(=O)NCCCNC(=O)c3ccc(-c4c5nc(c(-c6ccc(S(=O)(=O)[O-])cc6)c6ccc([nH]6)c(-c6ccc(S(=O)(=O)[O-])cc6)c6nc(c(-c7ccc(S(=O)(=O)[O-])cc7)c7ccc4[nH]7)C=C6)C=C5)cc3)nsc2n1
REMARK SMILES IDX 15 1 14 2 13 3 11 4 12 5 9 7 10 8 8 9 7 10 1 11 2 12 3 13
REMARK SMILES IDX 83 14 4 15 82 16 5 17 6 18 81 19 80 20 16 21 17 22 18 23
REMARK SMILES IDX 19 25 20 26 21 27 79 28 22 29 78 30 23 31 24 32 25 33 72 34
REMARK SMILES IDX 26 35 77 36 71 37 73 38 27 39 76 40 70 41 69 42 28 44 58 45
REMARK SMILES IDX 39 46 57 47 40 48 43 49 56 50 74 51 41 52 42 53 55 55 75 56
REMARK SMILES IDX 44 57 29 58 30 59 38 60 31 61 37 62 32 63 33 64 34 65 35 66
REMARK SMILES IDX 36 67 59 68 60 69 68 70 61 71 67 72 62 73 63 74 64 75 65 76
REMARK SMILES IDX 66 77 45 78 46 79 54 80 47 81 53 82 48 83 49 84 50 85 51 86
REMARK SMILES IDX 52 87
REMARK H PARENT 13 6 17 24 73 43 43 54
REMARK Flexibility Score: inf
ROOT
ATOM      1  C   UNL A   1      42.386  37.172  26.787  1.00  0.00     0.042 C 
ENDROOT
BRANCH   1   2
ATOM      2  C   UNL A   1      42.530  38.630  26.731  1.00  0.00     0.118 C 
BRANCH   2   3
ATOM      3  N   UNL A   1      41.533  39.544  27.089  1.00  0.00    -0.353 N 
ATOM      4  C   UNL A   1      41.321  40.675  26.310  1.00  0.00     0.260 C 
ATOM      5  O   UNL A   1      40.189  41.160  26.368  1.00  0.00    -0.271 OA
ATOM      6  H   UNL A   1      40.983  39.386  27.890  1.00  0.00     0.163 HD
BRANCH   4   7
ATOM      7  C   UNL A   1      42.488  41.323  25.310  1.00  0.00     0.260 C 
ATOM      8  C   UNL A   1      43.981  41.442  25.684  1.00  0.00     0.064 C 
BRANCH   7   9
ATOM      9  O   UNL A   1      42.203  42.393  24.426  1.00  0.00    -0.463 OA
BRANCH   9  10
ATOM     10  C   UNL A   1      42.887  42.534  23.245  1.00  0.00     0.235 A 
ATOM     11  C   UNL A   1      45.611  46.504  20.267  1.00  0.00     0.067 C 
ATOM     12  C   UNL A   1      45.200  45.323  21.094  1.00  0.00     0.039 A 
ATOM     13  C   UNL A   1      45.397  45.442  22.452  1.00  0.00     0.027 A 
ATOM     14  N   UNL A   1      44.526  44.315  20.520  1.00  0.00    -0.240 NA
ATOM     15  C   UNL A   1      44.887  44.518  23.374  1.00  0.00    -0.034 A 
ATOM     16  C   UNL A   1      43.956  43.445  21.386  1.00  0.00     0.147 A 
ATOM     17  C   UNL A   1      45.052  45.121  24.805  1.00  0.00     0.045 C 
ATOM     18  C   UNL A   1      44.039  43.438  22.793  1.00  0.00     0.078 A 
ATOM     19  S   UNL A   1      42.760  42.361  20.817  1.00  0.00    -0.012 S 
ATOM     20  N   UNL A   1      42.187  41.923  22.290  1.00  0.00    -0.153 NA
ENDBRANCH   9  10
ENDBRANCH   7   9
ENDBRANCH   4   7
ENDBRANCH   2   3
ENDBRANCH   1   2
BRANCH   1  21
ATOM     21  C   UNL A   1      43.765  36.738  26.863  1.00  0.00     0.118 C 
BRANCH  21  22
ATOM     22  N   UNL A   1      44.081  35.282  26.674  1.00  0.00    -0.352 N 
ATOM     23  C   UNL A   1      44.226  34.369  27.729  1.00  0.00     0.251 C 
ATOM     24  H   UNL A   1      44.193  34.949  25.754  1.00  0.00     0.163 HD
ATOM     25  O   UNL A   1      44.265  33.156  27.590  1.00  0.00    -0.269 OA
BRANCH  23  26
ATOM     26  C   UNL A   1      44.045  34.951  29.045  1.00  0.00     0.039 A 
ATOM     27  C   UNL A   1      44.965  35.215  30.024  1.00  0.00     0.014 A 
ATOM     28  C   UNL A   1      42.891  34.409  29.548  1.00  0.00     0.014 A 
ATOM     29  C   UNL A   1      44.556  34.668  31.321  1.00  0.00     0.010 A 
ATOM     30  C   UNL A   1      42.522  34.745  30.744  1.00  0.00     0.010 A 
ATOM     31  C   UNL A   1      43.305  33.890  31.402  1.00  0.00    -0.014 A 
BRANCH  31  32
ATOM     32  C   UNL A   1      42.215  33.135  32.430  1.00  0.00     0.031 A 
ATOM     33  C   UNL A   1      43.129  31.618  32.178  1.00  0.00     0.074 A 
ATOM     34  C   UNL A   1      40.988  33.596  33.339  1.00  0.00     0.049 A 
ATOM     35  N   UNL A   1      43.080  30.970  31.027  1.00  0.00    -0.248 NA
ATOM     36  C   UNL A   1      44.608  31.168  32.679  1.00  0.00     0.031 C 
ATOM     37  C   UNL A   1      40.131  34.922  33.841  1.00  0.00     0.029 A 
ATOM     38  N   UNL A   1      39.970  32.846  34.032  1.00  0.00    -0.354 N 
ATOM     39  C   UNL A   1      43.702  29.744  31.295  1.00  0.00     0.074 A 
ATOM     40  C   UNL A   1      44.827  29.978  32.092  1.00  0.00     0.031 C 
ATOM     41  C   UNL A   1      39.285  34.905  34.967  1.00  0.00     0.029 A 
ATOM     42  C   UNL A   1      39.167  33.366  35.171  1.00  0.00     0.049 A 
ATOM     43  H   UNL A   1      39.793  31.925  33.729  1.00  0.00     0.167 HD
ATOM     44  C   UNL A   1      42.946  28.633  31.375  1.00  0.00     0.031 A 
ATOM     45  C   UNL A   1      38.363  32.572  36.074  1.00  0.00     0.031 A 
ATOM     46  C   UNL A   1      41.650  28.966  30.866  1.00  0.00     0.049 A 
ATOM     47  C   UNL A   1      38.377  31.220  35.419  1.00  0.00     0.074 A 
ATOM     48  C   UNL A   1      41.218  29.440  29.641  1.00  0.00     0.029 A 
ATOM     49  N   UNL A   1      40.892  29.580  31.821  1.00  0.00    -0.354 N 
ATOM     50  N   UNL A   1      37.808  31.022  34.259  1.00  0.00    -0.248 NA
ATOM     51  C   UNL A   1      39.617  30.494  35.705  1.00  0.00     0.031 C 
ATOM     52  C   UNL A   1      40.231  30.430  29.913  1.00  0.00     0.029 A 
ATOM     53  C   UNL A   1      39.963  30.405  31.275  1.00  0.00     0.049 A 
ATOM     54  H   UNL A   1      41.005  29.439  32.789  1.00  0.00     0.167 HD
ATOM     55  C   UNL A   1      38.847  30.581  33.451  1.00  0.00     0.074 A 
ATOM     56  C   UNL A   1      39.953  30.212  34.434  1.00  0.00     0.031 C 
ATOM     57  C   UNL A   1      38.961  30.986  32.119  1.00  0.00     0.031 A 
BRANCH  44  58
ATOM     58  C   UNL A   1      43.206  27.495  32.308  1.00  0.00    -0.014 A 
ATOM     59  C   UNL A   1      42.486  27.598  33.495  1.00  0.00     0.010 A 
ATOM     60  C   UNL A   1      44.153  26.440  32.181  1.00  0.00     0.010 A 
ATOM     61  C   UNL A   1      42.654  26.679  34.514  1.00  0.00     0.020 A 
ATOM     62  C   UNL A   1      44.317  25.492  33.207  1.00  0.00     0.020 A 
ATOM     63  C   UNL A   1      43.558  25.628  34.367  1.00  0.00     0.054 A 
BRANCH  63  64
ATOM     64  S   UNL A   1      43.677  24.469  35.745  1.00  0.00     0.124 S 
ATOM     65  O   UNL A   1      42.861  23.353  35.276  1.00  0.00    -0.237 OA
ATOM     66  O   UNL A   1      45.117  24.217  35.794  1.00  0.00    -0.237 OA
ATOM     67  O   UNL A   1      43.141  25.214  36.879  1.00  0.00    -0.744 OA
ENDBRANCH  63  64
ENDBRANCH  44  58
BRANCH  45  68
ATOM     68  C   UNL A   1      38.185  32.572  37.676  1.00  0.00    -0.014 A 
ATOM     69  C   UNL A   1      38.456  33.578  38.686  1.00  0.00     0.010 A 
ATOM     70  C   UNL A   1      37.307  31.574  38.124  1.00  0.00     0.010 A 
ATOM     71  C   UNL A   1      37.833  33.561  40.004  1.00  0.00     0.020 A 
ATOM     72  C   UNL A   1      36.669  31.569  39.393  1.00  0.00     0.020 A 
ATOM     73  C   UNL A   1      36.910  32.567  40.329  1.00  0.00     0.054 A 
BRANCH  73  74
ATOM     74  S   UNL A   1      35.978  32.592  41.922  1.00  0.00     0.124 S 
ATOM     75  O   UNL A   1      34.730  31.917  41.580  1.00  0.00    -0.237 OA
ATOM     76  O   UNL A   1      36.858  31.860  42.829  1.00  0.00    -0.237 OA
ATOM     77  O   UNL A   1      35.840  34.018  42.219  1.00  0.00    -0.744 OA
ENDBRANCH  73  74
ENDBRANCH  45  68
BRANCH  57  78
ATOM     78  C   UNL A   1      37.922  31.881  31.387  1.00  0.00    -0.014 A 
ATOM     79  C   UNL A   1      37.993  33.246  30.971  1.00  0.00     0.010 A 
ATOM     80  C   UNL A   1      36.820  31.167  30.915  1.00  0.00     0.010 A 
ATOM     81  C   UNL A   1      36.896  33.896  30.345  1.00  0.00     0.020 A 
ATOM     82  C   UNL A   1      35.763  31.777  30.234  1.00  0.00     0.020 A 
ATOM     83  C   UNL A   1      35.771  33.150  30.009  1.00  0.00     0.054 A 
BRANCH  83  84
ATOM     84  S   UNL A   1      34.318  33.960  29.283  1.00  0.00     0.124 S 
ATOM     85  O   UNL A   1      33.756  32.906  28.443  1.00  0.00    -0.237 OA
ATOM     86  O   UNL A   1      33.524  34.316  30.456  1.00  0.00    -0.237 OA
ATOM     87  O   UNL A   1      34.885  35.094  28.555  1.00  0.00    -0.744 OA
ENDBRANCH  83  84
ENDBRANCH  57  78
ENDBRANCH  31  32
ENDBRANCH  23  26
ENDBRANCH  21  22
ENDBRANCH   1  21
TORSDOF 15
ENDMDL
