MODEL 1
REMARK VINA RESULT:     -12.1      0.000      0.000
REMARK SMILES CN(C(=O)N1Cc2nc[nH]c2C[C@@H]1C(=O)NCCCNC(=O)c1ccc(-c2c3nc(c(-c4ccc(S(=O)(=O)[O-])cc4)c4ccc([nH]4)c(-c4ccc(S(=O)(=O)[O-])cc4)c4nc(c(-c5ccc(S(=O)(=O)[O-])cc5)c5ccc2[nH]5)C=C4)C=C3)cc1)C1CC1
REMARK SMILES IDX 18 1 17 2 16 3 14 4 15 5 13 7 5 8 6 9 7 10 12 11 8 12 11 13
REMARK SMILES IDX 9 14 10 15 3 17 4 18 2 19 1 20 83 21 84 22 85 23 19 24 20 25
REMARK SMILES IDX 21 26 22 28 23 29 24 30 82 31 25 32 81 33 26 34 27 35 28 36
REMARK SMILES IDX 75 37 29 38 80 39 74 40 76 41 30 42 79 43 73 44 72 45 31 47
REMARK SMILES IDX 61 48 42 49 60 50 43 51 46 52 59 53 77 54 44 55 45 56 58 58
REMARK SMILES IDX 78 59 47 60 32 61 33 62 41 63 34 64 40 65 35 66 36 67 37 68
REMARK SMILES IDX 38 69 39 70 62 71 63 72 71 73 64 74 70 75 65 76 66 77 67 78
REMARK SMILES IDX 68 79 69 80 48 81 49 82 57 83 50 84 56 85 51 86 52 87 53 88
REMARK SMILES IDX 54 89 55 90
REMARK H PARENT 16 6 10 16 20 27 76 46 46 57
REMARK Flexibility Score: inf
ROOT
ATOM      1  C   UNL A   1      36.219  22.909  24.912  1.00  0.00     0.042 C 
ENDROOT
BRANCH   1   2
ATOM      2  C   UNL A   1      35.324  24.088  24.554  1.00  0.00     0.117 C 
BRANCH   2   3
ATOM      3  N   UNL A   1      34.775  24.001  23.212  1.00  0.00    -0.354 N 
ATOM      4  C   UNL A   1      33.807  24.765  22.636  1.00  0.00     0.243 C 
ATOM      5  O   UNL A   1      33.480  24.497  21.475  1.00  0.00    -0.273 OA
ATOM      6  H   UNL A   1      35.153  23.293  22.643  1.00  0.00     0.163 HD
BRANCH   4   7
ATOM      7  C   UNL A   1      33.014  25.811  23.435  1.00  0.00     0.182 C 
ATOM      8  N   UNL A   1      31.638  25.452  23.950  1.00  0.00    -0.306 N 
ATOM      9  C   UNL A   1      30.836  26.565  24.520  1.00  0.00     0.180 C 
ATOM     10  C   UNL A   1      30.953  27.785  23.687  1.00  0.00     0.081 A 
ATOM     11  C   UNL A   1      33.052  27.067  22.481  1.00  0.00     0.091 C 
ATOM     12  N   UNL A   1      30.084  28.846  23.701  1.00  0.00    -0.240 NA
ATOM     13  C   UNL A   1      31.961  28.006  22.789  1.00  0.00     0.042 A 
ATOM     14  C   UNL A   1      30.545  29.677  22.790  1.00  0.00     0.197 A 
ATOM     15  N   UNL A   1      31.687  29.204  22.199  1.00  0.00    -0.348 N 
ATOM     16  H   UNL A   1      32.207  29.644  21.488  1.00  0.00     0.167 HD
BRANCH   8  17
ATOM     17  C   UNL A   1      31.100  24.199  24.211  1.00  0.00     0.321 C 
ATOM     18  O   UNL A   1      30.248  23.731  23.445  1.00  0.00    -0.248 OA
BRANCH  17  19
ATOM     19  N   UNL A   1      31.533  23.446  25.288  1.00  0.00    -0.325 N 
ATOM     20  C   UNL A   1      31.387  23.867  26.681  1.00  0.00     0.149 C 
BRANCH  19  21
ATOM     21  C   UNL A   1      31.666  21.999  25.136  1.00  0.00     0.086 C 
ATOM     22  C   UNL A   1      32.510  21.326  24.084  1.00  0.00     0.027 C 
ATOM     23  C   UNL A   1      32.959  21.315  25.513  1.00  0.00     0.027 C 
ENDBRANCH  19  21
ENDBRANCH  17  19
ENDBRANCH   8  17
ENDBRANCH   4   7
ENDBRANCH   2   3
ENDBRANCH   1   2
BRANCH   1  24
ATOM     24  C   UNL A   1      37.160  23.205  26.070  1.00  0.00     0.118 C 
BRANCH  24  25
ATOM     25  N   UNL A   1      38.129  22.138  26.317  1.00  0.00    -0.352 N 
ATOM     26  C   UNL A   1      39.494  22.271  26.513  1.00  0.00     0.251 C 
ATOM     27  H   UNL A   1      37.770  21.221  26.348  1.00  0.00     0.163 HD
ATOM     28  O   UNL A   1      40.248  21.327  26.372  1.00  0.00    -0.269 OA
BRANCH  26  29
ATOM     29  C   UNL A   1      40.008  23.603  26.883  1.00  0.00     0.039 A 
ATOM     30  C   UNL A   1      39.300  24.760  26.549  1.00  0.00     0.014 A 
ATOM     31  C   UNL A   1      41.167  23.666  27.654  1.00  0.00     0.014 A 
ATOM     32  C   UNL A   1      39.702  25.974  27.100  1.00  0.00     0.010 A 
ATOM     33  C   UNL A   1      41.488  24.842  28.293  1.00  0.00     0.010 A 
ATOM     34  C   UNL A   1      40.772  26.005  28.007  1.00  0.00    -0.014 A 
BRANCH  34  35
ATOM     35  C   UNL A   1      41.050  27.214  28.782  1.00  0.00     0.031 A 
ATOM     36  C   UNL A   1      42.239  27.996  28.336  1.00  0.00     0.074 A 
ATOM     37  C   UNL A   1      40.183  27.736  29.676  1.00  0.00     0.049 A 
ATOM     38  N   UNL A   1      43.342  28.180  28.981  1.00  0.00    -0.248 NA
ATOM     39  C   UNL A   1      42.259  28.535  26.966  1.00  0.00     0.031 C 
ATOM     40  C   UNL A   1      38.840  27.254  30.015  1.00  0.00     0.029 A 
ATOM     41  N   UNL A   1      40.267  28.903  30.373  1.00  0.00    -0.354 N 
ATOM     42  C   UNL A   1      44.114  29.036  28.200  1.00  0.00     0.074 A 
ATOM     43  C   UNL A   1      43.481  29.068  26.904  1.00  0.00     0.031 C 
ATOM     44  C   UNL A   1      38.152  28.240  30.629  1.00  0.00     0.029 A 
ATOM     45  C   UNL A   1      39.051  29.355  30.872  1.00  0.00     0.049 A 
ATOM     46  H   UNL A   1      41.115  29.384  30.511  1.00  0.00     0.167 HD
ATOM     47  C   UNL A   1      45.074  29.836  28.749  1.00  0.00     0.031 A 
ATOM     48  C   UNL A   1      38.785  30.573  31.407  1.00  0.00     0.031 A 
ATOM     49  C   UNL A   1      45.339  29.478  30.120  1.00  0.00     0.049 A 
ATOM     50  C   UNL A   1      40.081  31.147  31.845  1.00  0.00     0.074 A 
ATOM     51  C   UNL A   1      45.749  28.327  30.763  1.00  0.00     0.029 A 
ATOM     52  N   UNL A   1      44.782  30.281  31.090  1.00  0.00    -0.354 N 
ATOM     53  N   UNL A   1      40.782  30.646  32.823  1.00  0.00    -0.248 NA
ATOM     54  C   UNL A   1      40.824  31.987  30.918  1.00  0.00     0.031 C 
ATOM     55  C   UNL A   1      44.980  28.289  31.962  1.00  0.00     0.029 A 
ATOM     56  C   UNL A   1      44.214  29.456  32.025  1.00  0.00     0.049 A 
ATOM     57  H   UNL A   1      44.791  31.265  31.110  1.00  0.00     0.167 HD
ATOM     58  C   UNL A   1      42.096  30.712  32.383  1.00  0.00     0.074 A 
ATOM     59  C   UNL A   1      42.072  31.654  31.265  1.00  0.00     0.031 C 
ATOM     60  C   UNL A   1      43.019  29.781  32.773  1.00  0.00     0.031 A 
BRANCH  47  61
ATOM     61  C   UNL A   1      45.484  31.185  28.204  1.00  0.00    -0.014 A 
ATOM     62  C   UNL A   1      44.489  32.171  28.021  1.00  0.00     0.010 A 
ATOM     63  C   UNL A   1      46.734  31.422  27.600  1.00  0.00     0.010 A 
ATOM     64  C   UNL A   1      44.706  33.283  27.195  1.00  0.00     0.020 A 
ATOM     65  C   UNL A   1      46.975  32.551  26.814  1.00  0.00     0.020 A 
ATOM     66  C   UNL A   1      45.946  33.453  26.582  1.00  0.00     0.054 A 
BRANCH  66  67
ATOM     67  S   UNL A   1      46.179  34.818  25.418  1.00  0.00     0.124 S 
ATOM     68  O   UNL A   1      47.597  34.695  25.093  1.00  0.00    -0.237 OA
ATOM     69  O   UNL A   1      45.249  34.473  24.347  1.00  0.00    -0.237 OA
ATOM     70  O   UNL A   1      45.814  35.998  26.198  1.00  0.00    -0.744 OA
ENDBRANCH  66  67
ENDBRANCH  47  61
BRANCH  48  71
ATOM     71  C   UNL A   1      37.526  31.360  31.330  1.00  0.00    -0.014 A 
ATOM     72  C   UNL A   1      36.568  31.297  32.359  1.00  0.00     0.010 A 
ATOM     73  C   UNL A   1      37.387  32.387  30.375  1.00  0.00     0.010 A 
ATOM     74  C   UNL A   1      35.564  32.275  32.477  1.00  0.00     0.020 A 
ATOM     75  C   UNL A   1      36.381  33.356  30.475  1.00  0.00     0.020 A 
ATOM     76  C   UNL A   1      35.495  33.315  31.546  1.00  0.00     0.054 A 
BRANCH  76  77
ATOM     77  S   UNL A   1      34.349  34.698  31.827  1.00  0.00     0.124 S 
ATOM     78  O   UNL A   1      34.029  35.120  30.467  1.00  0.00    -0.237 OA
ATOM     79  O   UNL A   1      33.260  34.064  32.567  1.00  0.00    -0.237 OA
ATOM     80  O   UNL A   1      35.143  35.650  32.602  1.00  0.00    -0.744 OA
ENDBRANCH  76  77
ENDBRANCH  48  71
BRANCH  60  81
ATOM     81  C   UNL A   1      42.670  28.849  33.912  1.00  0.00    -0.014 A 
ATOM     82  C   UNL A   1      41.877  27.693  33.766  1.00  0.00     0.010 A 
ATOM     83  C   UNL A   1      43.302  29.071  35.149  1.00  0.00     0.010 A 
ATOM     84  C   UNL A   1      41.691  26.809  34.839  1.00  0.00     0.020 A 
ATOM     85  C   UNL A   1      43.140  28.184  36.213  1.00  0.00     0.020 A 
ATOM     86  C   UNL A   1      42.324  27.063  36.059  1.00  0.00     0.054 A 
BRANCH  86  87
ATOM     87  S   UNL A   1      42.109  25.902  37.436  1.00  0.00     0.124 S 
ATOM     88  O   UNL A   1      42.992  26.455  38.457  1.00  0.00    -0.237 OA
ATOM     89  O   UNL A   1      40.679  25.997  37.722  1.00  0.00    -0.237 OA
ATOM     90  O   UNL A   1      42.536  24.619  36.880  1.00  0.00    -0.744 OA
ENDBRANCH  86  87
ENDBRANCH  60  81
ENDBRANCH  34  35
ENDBRANCH  26  29
ENDBRANCH  24  25
ENDBRANCH   1  24
TORSDOF 16
ENDMDL
MODEL 2
REMARK VINA RESULT:     -12.1      1.767      2.459
REMARK SMILES CN(C(=O)N1Cc2nc[nH]c2C[C@@H]1C(=O)NCCCNC(=O)c1ccc(-c2c3nc(c(-c4ccc(S(=O)(=O)[O-])cc4)c4ccc([nH]4)c(-c4ccc(S(=O)(=O)[O-])cc4)c4nc(c(-c5ccc(S(=O)(=O)[O-])cc5)c5ccc2[nH]5)C=C4)C=C3)cc1)C1CC1
REMARK SMILES IDX 18 1 17 2 16 3 14 4 15 5 13 7 5 8 6 9 7 10 12 11 8 12 11 13
REMARK SMILES IDX 9 14 10 15 3 17 4 18 2 19 1 20 83 21 84 22 85 23 19 24 20 25
REMARK SMILES IDX 21 26 22 28 23 29 24 30 82 31 25 32 81 33 26 34 27 35 28 36
REMARK SMILES IDX 75 37 29 38 80 39 74 40 76 41 30 42 79 43 73 44 72 45 31 47
REMARK SMILES IDX 61 48 42 49 60 50 43 51 46 52 59 53 77 54 44 55 45 56 58 58
REMARK SMILES IDX 78 59 47 60 32 61 33 62 41 63 34 64 40 65 35 66 36 67 37 68
REMARK SMILES IDX 38 69 39 70 62 71 63 72 71 73 64 74 70 75 65 76 66 77 67 78
REMARK SMILES IDX 68 79 69 80 48 81 49 82 57 83 50 84 56 85 51 86 52 87 53 88
REMARK SMILES IDX 54 89 55 90
REMARK H PARENT 16 6 10 16 20 27 76 46 46 57
REMARK Flexibility Score: inf
ROOT
ATOM      1  C   UNL A   1      38.463  21.498  25.582  1.00  0.00     0.042 C 
ENDROOT
BRANCH   1   2
ATOM      2  C   UNL A   1      37.404  22.593  25.604  1.00  0.00     0.117 C 
BRANCH   2   3
ATOM      3  N   UNL A   1      36.785  22.815  24.310  1.00  0.00    -0.354 N 
ATOM      4  C   UNL A   1      35.636  23.486  24.017  1.00  0.00     0.243 C 
ATOM      5  O   UNL A   1      35.285  23.533  22.833  1.00  0.00    -0.273 OA
ATOM      6  H   UNL A   1      37.258  22.427  23.539  1.00  0.00     0.163 HD
BRANCH   4   7
ATOM      7  C   UNL A   1      34.706  24.019  25.117  1.00  0.00     0.182 C 
ATOM      8  N   UNL A   1      33.670  23.093  25.716  1.00  0.00    -0.306 N 
ATOM      9  C   UNL A   1      32.662  23.720  26.608  1.00  0.00     0.180 C 
ATOM     10  C   UNL A   1      32.180  25.003  26.048  1.00  0.00     0.081 A 
ATOM     11  C   UNL A   1      34.115  25.325  24.457  1.00  0.00     0.091 C 
ATOM     12  N   UNL A   1      31.018  25.641  26.400  1.00  0.00    -0.240 NA
ATOM     13  C   UNL A   1      32.849  25.723  25.095  1.00  0.00     0.042 A 
ATOM     14  C   UNL A   1      30.971  26.712  25.635  1.00  0.00     0.197 A 
ATOM     15  N   UNL A   1      32.066  26.802  24.816  1.00  0.00    -0.348 N 
ATOM     16  H   UNL A   1      32.249  27.508  24.154  1.00  0.00     0.167 HD
BRANCH   8  17
ATOM     17  C   UNL A   1      33.664  21.705  25.770  1.00  0.00     0.321 C 
ATOM     18  O   UNL A   1      34.174  21.132  26.741  1.00  0.00    -0.248 OA
BRANCH  17  19
ATOM     19  N   UNL A   1      33.056  20.955  24.780  1.00  0.00    -0.325 N 
ATOM     20  C   UNL A   1      32.460  21.534  23.576  1.00  0.00     0.149 C 
BRANCH  19  21
ATOM     21  C   UNL A   1      33.436  19.554  24.614  1.00  0.00     0.086 C 
ATOM     22  C   UNL A   1      32.786  18.403  25.339  1.00  0.00     0.027 C 
ATOM     23  C   UNL A   1      32.522  18.604  23.878  1.00  0.00     0.027 C 
ENDBRANCH  19  21
ENDBRANCH  17  19
ENDBRANCH   8  17
ENDBRANCH   4   7
ENDBRANCH   2   3
ENDBRANCH   1   2
BRANCH   1  24
ATOM     24  C   UNL A   1      39.633  21.781  26.511  1.00  0.00     0.118 C 
BRANCH  24  25
ATOM     25  N   UNL A   1      40.817  20.976  26.214  1.00  0.00    -0.352 N 
ATOM     26  C   UNL A   1      42.118  21.423  26.048  1.00  0.00     0.251 C 
ATOM     27  H   UNL A   1      40.674  20.006  26.122  1.00  0.00     0.163 HD
ATOM     28  O   UNL A   1      42.951  20.745  25.480  1.00  0.00    -0.269 OA
BRANCH  26  29
ATOM     29  C   UNL A   1      42.455  22.761  26.570  1.00  0.00     0.039 A 
ATOM     30  C   UNL A   1      42.284  23.900  25.780  1.00  0.00     0.014 A 
ATOM     31  C   UNL A   1      42.859  22.861  27.900  1.00  0.00     0.014 A 
ATOM     32  C   UNL A   1      42.406  25.153  26.376  1.00  0.00     0.010 A 
ATOM     33  C   UNL A   1      42.858  24.093  28.513  1.00  0.00     0.010 A 
ATOM     34  C   UNL A   1      42.651  25.246  27.754  1.00  0.00    -0.014 A 
BRANCH  34  35
ATOM     35  C   UNL A   1      42.536  26.533  28.440  1.00  0.00     0.031 A 
ATOM     36  C   UNL A   1      43.646  27.494  28.180  1.00  0.00     0.074 A 
ATOM     37  C   UNL A   1      41.412  26.939  29.069  1.00  0.00     0.049 A 
ATOM     38  N   UNL A   1      44.525  27.922  29.023  1.00  0.00    -0.248 NA
ATOM     39  C   UNL A   1      43.889  27.938  26.797  1.00  0.00     0.031 C 
ATOM     40  C   UNL A   1      40.128  26.237  29.161  1.00  0.00     0.029 A 
ATOM     41  N   UNL A   1      41.137  28.143  29.643  1.00  0.00    -0.354 N 
ATOM     42  C   UNL A   1      45.300  28.856  28.341  1.00  0.00     0.074 A 
ATOM     43  C   UNL A   1      44.985  28.686  26.943  1.00  0.00     0.031 C 
ATOM     44  C   UNL A   1      39.162  27.113  29.508  1.00  0.00     0.029 A 
ATOM     45  C   UNL A   1      39.780  28.390  29.820  1.00  0.00     0.049 A 
ATOM     46  H   UNL A   1      41.837  28.782  29.908  1.00  0.00     0.167 HD
ATOM     47  C   UNL A   1      45.960  29.855  28.995  1.00  0.00     0.031 A 
ATOM     48  C   UNL A   1      39.197  29.569  30.155  1.00  0.00     0.031 A 
ATOM     49  C   UNL A   1      45.960  29.642  30.422  1.00  0.00     0.049 A 
ATOM     50  C   UNL A   1      40.243  30.402  30.799  1.00  0.00     0.074 A 
ATOM     51  C   UNL A   1      46.400  28.631  31.254  1.00  0.00     0.029 A 
ATOM     52  N   UNL A   1      45.069  30.386  31.161  1.00  0.00    -0.354 N 
ATOM     53  N   UNL A   1      40.776  30.105  31.950  1.00  0.00    -0.248 NA
ATOM     54  C   UNL A   1      41.026  31.306  29.970  1.00  0.00     0.031 C 
ATOM     55  C   UNL A   1      45.394  28.526  32.258  1.00  0.00     0.029 A 
ATOM     56  C   UNL A   1      44.449  29.530  32.034  1.00  0.00     0.049 A 
ATOM     57  H   UNL A   1      44.907  31.354  31.079  1.00  0.00     0.167 HD
ATOM     58  C   UNL A   1      42.125  30.387  31.797  1.00  0.00     0.074 A 
ATOM     59  C   UNL A   1      42.199  31.235  30.608  1.00  0.00     0.031 C 
ATOM     60  C   UNL A   1      43.077  29.673  32.471  1.00  0.00     0.031 A 
BRANCH  47  61
ATOM     61  C   UNL A   1      46.251  31.220  28.414  1.00  0.00    -0.014 A 
ATOM     62  C   UNL A   1      45.175  32.114  28.216  1.00  0.00     0.010 A 
ATOM     63  C   UNL A   1      47.471  31.546  27.792  1.00  0.00     0.010 A 
ATOM     64  C   UNL A   1      45.290  33.218  27.361  1.00  0.00     0.020 A 
ATOM     65  C   UNL A   1      47.610  32.671  26.975  1.00  0.00     0.020 A 
ATOM     66  C   UNL A   1      46.507  33.477  26.731  1.00  0.00     0.054 A 
BRANCH  66  67
ATOM     67  S   UNL A   1      46.615  34.826  25.532  1.00  0.00     0.124 S 
ATOM     68  O   UNL A   1      46.425  35.998  26.381  1.00  0.00    -0.237 OA
ATOM     69  O   UNL A   1      47.958  34.648  24.986  1.00  0.00    -0.237 OA
ATOM     70  O   UNL A   1      45.526  34.543  24.600  1.00  0.00    -0.744 OA
ENDBRANCH  66  67
ENDBRANCH  47  61
BRANCH  48  71
ATOM     71  C   UNL A   1      37.876  30.099  29.731  1.00  0.00    -0.014 A 
ATOM     72  C   UNL A   1      36.924  30.520  30.678  1.00  0.00     0.010 A 
ATOM     73  C   UNL A   1      37.650  30.449  28.383  1.00  0.00     0.010 A 
ATOM     74  C   UNL A   1      35.839  31.333  30.305  1.00  0.00     0.020 A 
ATOM     75  C   UNL A   1      36.565  31.246  28.000  1.00  0.00     0.020 A 
ATOM     76  C   UNL A   1      35.683  31.713  28.969  1.00  0.00     0.054 A 
BRANCH  76  77
ATOM     77  S   UNL A   1      34.421  32.944  28.526  1.00  0.00     0.124 S 
ATOM     78  O   UNL A   1      33.389  32.124  27.901  1.00  0.00    -0.237 OA
ATOM     79  O   UNL A   1      34.072  33.523  29.822  1.00  0.00    -0.237 OA
ATOM     80  O   UNL A   1      35.127  33.850  27.622  1.00  0.00    -0.744 OA
ENDBRANCH  76  77
ENDBRANCH  48  71
BRANCH  60  81
ATOM     81  C   UNL A   1      42.639  28.767  33.599  1.00  0.00    -0.014 A 
ATOM     82  C   UNL A   1      42.010  27.520  33.407  1.00  0.00     0.010 A 
ATOM     83  C   UNL A   1      43.021  29.125  34.904  1.00  0.00     0.010 A 
ATOM     84  C   UNL A   1      41.738  26.677  34.494  1.00  0.00     0.020 A 
ATOM     85  C   UNL A   1      42.774  28.281  35.988  1.00  0.00     0.020 A 
ATOM     86  C   UNL A   1      42.120  27.066  35.780  1.00  0.00     0.054 A 
BRANCH  86  87
ATOM     87  S   UNL A   1      41.796  25.960  37.182  1.00  0.00     0.124 S 
ATOM     88  O   UNL A   1      41.982  24.638  36.591  1.00  0.00    -0.237 OA
ATOM     89  O   UNL A   1      42.810  26.362  38.155  1.00  0.00    -0.237 OA
ATOM     90  O   UNL A   1      40.422  26.278  37.566  1.00  0.00    -0.744 OA
ENDBRANCH  86  87
ENDBRANCH  60  81
ENDBRANCH  34  35
ENDBRANCH  26  29
ENDBRANCH  24  25
ENDBRANCH   1  24
TORSDOF 16
ENDMDL
MODEL 3
REMARK VINA RESULT:     -12.0      1.937      3.591
REMARK SMILES CN(C(=O)N1Cc2nc[nH]c2C[C@@H]1C(=O)NCCCNC(=O)c1ccc(-c2c3nc(c(-c4ccc(S(=O)(=O)[O-])cc4)c4ccc([nH]4)c(-c4ccc(S(=O)(=O)[O-])cc4)c4nc(c(-c5ccc(S(=O)(=O)[O-])cc5)c5ccc2[nH]5)C=C4)C=C3)cc1)C1CC1
REMARK SMILES IDX 18 1 17 2 16 3 14 4 15 5 13 7 5 8 6 9 7 10 12 11 8 12 11 13
REMARK SMILES IDX 9 14 10 15 3 17 4 18 2 19 1 20 83 21 84 22 85 23 19 24 20 25
REMARK SMILES IDX 21 26 22 28 23 29 24 30 82 31 25 32 81 33 26 34 27 35 28 36
REMARK SMILES IDX 75 37 29 38 80 39 74 40 76 41 30 42 79 43 73 44 72 45 31 47
REMARK SMILES IDX 61 48 42 49 60 50 43 51 46 52 59 53 77 54 44 55 45 56 58 58
REMARK SMILES IDX 78 59 47 60 32 61 33 62 41 63 34 64 40 65 35 66 36 67 37 68
REMARK SMILES IDX 38 69 39 70 62 71 63 72 71 73 64 74 70 75 65 76 66 77 67 78
REMARK SMILES IDX 68 79 69 80 48 81 49 82 57 83 50 84 56 85 51 86 52 87 53 88
REMARK SMILES IDX 54 89 55 90
REMARK H PARENT 16 6 10 16 20 27 76 46 46 57
REMARK Flexibility Score: inf
ROOT
ATOM      1  C   UNL A   1      38.246  21.532  25.481  1.00  0.00     0.042 C 
ENDROOT
BRANCH   1   2
ATOM      2  C   UNL A   1      37.147  22.586  25.457  1.00  0.00     0.117 C 
BRANCH   2   3
ATOM      3  N   UNL A   1      36.137  22.381  26.480  1.00  0.00    -0.354 N 
ATOM      4  C   UNL A   1      34.946  21.727  26.383  1.00  0.00     0.243 C 
ATOM      5  O   UNL A   1      34.228  21.692  27.388  1.00  0.00    -0.273 OA
ATOM      6  H   UNL A   1      36.340  22.766  27.362  1.00  0.00     0.163 HD
BRANCH   4   7
ATOM      7  C   UNL A   1      34.416  21.201  25.041  1.00  0.00     0.182 C 
ATOM      8  N   UNL A   1      33.025  21.594  24.595  1.00  0.00    -0.306 N 
ATOM      9  C   UNL A   1      32.487  20.884  23.407  1.00  0.00     0.180 C 
ATOM     10  C   UNL A   1      32.795  19.436  23.469  1.00  0.00     0.081 A 
ATOM     11  C   UNL A   1      34.647  19.645  25.172  1.00  0.00     0.091 C 
ATOM     12  N   UNL A   1      32.152  18.453  22.761  1.00  0.00    -0.240 NA
ATOM     13  C   UNL A   1      33.778  18.894  24.251  1.00  0.00     0.042 A 
ATOM     14  C   UNL A   1      32.717  17.328  23.147  1.00  0.00     0.197 A 
ATOM     15  N   UNL A   1      33.713  17.546  24.063  1.00  0.00    -0.348 N 
ATOM     16  H   UNL A   1      34.271  16.862  24.499  1.00  0.00     0.167 HD
BRANCH   8  17
ATOM     17  C   UNL A   1      32.267  22.698  24.964  1.00  0.00     0.321 C 
ATOM     18  O   UNL A   1      31.127  22.530  25.414  1.00  0.00    -0.248 OA
BRANCH  17  19
ATOM     19  N   UNL A   1      32.783  23.979  24.879  1.00  0.00    -0.325 N 
ATOM     20  C   UNL A   1      33.125  24.792  26.046  1.00  0.00     0.149 C 
BRANCH  19  21
ATOM     21  C   UNL A   1      33.500  24.378  23.671  1.00  0.00     0.086 C 
ATOM     22  C   UNL A   1      32.901  24.386  22.287  1.00  0.00     0.027 C 
ATOM     23  C   UNL A   1      33.165  25.684  22.989  1.00  0.00     0.027 C 
ENDBRANCH  19  21
ENDBRANCH  17  19
ENDBRANCH   8  17
ENDBRANCH   4   7
ENDBRANCH   2   3
ENDBRANCH   1   2
BRANCH   1  24
ATOM     24  C   UNL A   1      39.401  21.896  26.401  1.00  0.00     0.118 C 
BRANCH  24  25
ATOM     25  N   UNL A   1      40.583  21.058  26.208  1.00  0.00    -0.352 N 
ATOM     26  C   UNL A   1      41.901  21.474  26.103  1.00  0.00     0.251 C 
ATOM     27  H   UNL A   1      40.425  20.088  26.146  1.00  0.00     0.163 HD
ATOM     28  O   UNL A   1      42.752  20.758  25.612  1.00  0.00    -0.269 OA
BRANCH  26  29
ATOM     29  C   UNL A   1      42.235  22.825  26.592  1.00  0.00     0.039 A 
ATOM     30  C   UNL A   1      41.962  23.953  25.815  1.00  0.00     0.014 A 
ATOM     31  C   UNL A   1      42.742  22.946  27.884  1.00  0.00     0.014 A 
ATOM     32  C   UNL A   1      42.090  25.213  26.395  1.00  0.00     0.010 A 
ATOM     33  C   UNL A   1      42.750  24.181  28.491  1.00  0.00     0.010 A 
ATOM     34  C   UNL A   1      42.444  25.321  27.749  1.00  0.00    -0.014 A 
BRANCH  34  35
ATOM     35  C   UNL A   1      42.342  26.608  28.438  1.00  0.00     0.031 A 
ATOM     36  C   UNL A   1      43.451  27.566  28.163  1.00  0.00     0.074 A 
ATOM     37  C   UNL A   1      41.229  27.016  29.084  1.00  0.00     0.049 A 
ATOM     38  N   UNL A   1      44.343  27.991  28.994  1.00  0.00    -0.248 NA
ATOM     39  C   UNL A   1      43.675  28.012  26.777  1.00  0.00     0.031 C 
ATOM     40  C   UNL A   1      39.944  26.317  29.194  1.00  0.00     0.029 A 
ATOM     41  N   UNL A   1      40.965  28.220  29.663  1.00  0.00    -0.354 N 
ATOM     42  C   UNL A   1      45.110  28.924  28.301  1.00  0.00     0.074 A 
ATOM     43  C   UNL A   1      44.775  28.757  26.908  1.00  0.00     0.031 C 
ATOM     44  C   UNL A   1      38.985  27.195  29.555  1.00  0.00     0.029 A 
ATOM     45  C   UNL A   1      39.611  28.470  29.861  1.00  0.00     0.049 A 
ATOM     46  H   UNL A   1      41.670  28.857  29.919  1.00  0.00     0.167 HD
ATOM     47  C   UNL A   1      45.782  29.920  28.948  1.00  0.00     0.031 A 
ATOM     48  C   UNL A   1      39.037  29.650  30.206  1.00  0.00     0.031 A 
ATOM     49  C   UNL A   1      45.803  29.705  30.374  1.00  0.00     0.049 A 
ATOM     50  C   UNL A   1      40.094  30.480  30.835  1.00  0.00     0.074 A 
ATOM     51  C   UNL A   1      46.252  28.692  31.198  1.00  0.00     0.029 A 
ATOM     52  N   UNL A   1      44.925  30.450  31.127  1.00  0.00    -0.354 N 
ATOM     53  N   UNL A   1      40.643  30.179  31.978  1.00  0.00    -0.248 NA
ATOM     54  C   UNL A   1      40.867  31.382  29.996  1.00  0.00     0.031 C 
ATOM     55  C   UNL A   1      45.261  28.588  32.217  1.00  0.00     0.029 A 
ATOM     56  C   UNL A   1      44.315  29.595  32.008  1.00  0.00     0.049 A 
ATOM     57  H   UNL A   1      44.764  31.419  31.049  1.00  0.00     0.167 HD
ATOM     58  C   UNL A   1      41.990  30.458  31.806  1.00  0.00     0.074 A 
ATOM     59  C   UNL A   1      42.050  31.308  30.617  1.00  0.00     0.031 C 
ATOM     60  C   UNL A   1      42.950  29.740  32.465  1.00  0.00     0.031 A 
BRANCH  47  61
ATOM     61  C   UNL A   1      46.068  31.285  28.364  1.00  0.00    -0.014 A 
ATOM     62  C   UNL A   1      44.998  32.195  28.216  1.00  0.00     0.010 A 
ATOM     63  C   UNL A   1      47.267  31.599  27.696  1.00  0.00     0.010 A 
ATOM     64  C   UNL A   1      45.094  33.303  27.364  1.00  0.00     0.020 A 
ATOM     65  C   UNL A   1      47.389  32.727  26.881  1.00  0.00     0.020 A 
ATOM     66  C   UNL A   1      46.288  33.550  26.688  1.00  0.00     0.054 A 
BRANCH  66  67
ATOM     67  S   UNL A   1      46.367  34.907  25.494  1.00  0.00     0.124 S 
ATOM     68  O   UNL A   1      47.734  34.789  24.997  1.00  0.00    -0.237 OA
ATOM     69  O   UNL A   1      45.314  34.547  24.548  1.00  0.00    -0.237 OA
ATOM     70  O   UNL A   1      46.093  36.091  26.304  1.00  0.00    -0.744 OA
ENDBRANCH  66  67
ENDBRANCH  47  61
BRANCH  48  71
ATOM     71  C   UNL A   1      37.711  30.184  29.801  1.00  0.00    -0.014 A 
ATOM     72  C   UNL A   1      36.863  30.807  30.736  1.00  0.00     0.010 A 
ATOM     73  C   UNL A   1      37.389  30.328  28.436  1.00  0.00     0.010 A 
ATOM     74  C   UNL A   1      35.790  31.615  30.318  1.00  0.00     0.020 A 
ATOM     75  C   UNL A   1      36.314  31.118  28.011  1.00  0.00     0.020 A 
ATOM     76  C   UNL A   1      35.540  31.785  28.953  1.00  0.00     0.054 A 
BRANCH  76  77
ATOM     77  S   UNL A   1      34.304  33.004  28.412  1.00  0.00     0.124 S 
ATOM     78  O   UNL A   1      33.369  32.184  27.650  1.00  0.00    -0.237 OA
ATOM     79  O   UNL A   1      33.800  33.531  29.678  1.00  0.00    -0.237 OA
ATOM     80  O   UNL A   1      35.084  33.955  27.621  1.00  0.00    -0.744 OA
ENDBRANCH  76  77
ENDBRANCH  48  71
BRANCH  60  81
ATOM     81  C   UNL A   1      42.526  28.834  33.598  1.00  0.00    -0.014 A 
ATOM     82  C   UNL A   1      41.899  27.585  33.413  1.00  0.00     0.010 A 
ATOM     83  C   UNL A   1      42.920  29.195  34.899  1.00  0.00     0.010 A 
ATOM     84  C   UNL A   1      41.640  26.742  34.504  1.00  0.00     0.020 A 
ATOM     85  C   UNL A   1      42.686  28.350  35.986  1.00  0.00     0.020 A 
ATOM     86  C   UNL A   1      42.034  27.133  35.786  1.00  0.00     0.054 A 
BRANCH  86  87
ATOM     87  S   UNL A   1      41.728  26.028  37.191  1.00  0.00     0.124 S 
ATOM     88  O   UNL A   1      40.403  26.446  37.639  1.00  0.00    -0.237 OA
ATOM     89  O   UNL A   1      41.797  24.701  36.583  1.00  0.00    -0.237 OA
ATOM     90  O   UNL A   1      42.817  26.331  38.118  1.00  0.00    -0.744 OA
ENDBRANCH  86  87
ENDBRANCH  60  81
ENDBRANCH  34  35
ENDBRANCH  26  29
ENDBRANCH  24  25
ENDBRANCH   1  24
TORSDOF 16
ENDMDL
