MODEL 1
REMARK VINA RESULT:     -11.8      0.000      0.000
REMARK SMILES CCCCOC(=O)[C@@H]1[C@H]2c3ccccc3[C@H](c3ccccc32)[C@@H]1C(=O)NCCCNC(=O)c1ccc(-c2c3nc(c(-c4ccc(S(=O)(=O)[O-])cc4)c4ccc([nH]4)c(-c4ccc(S(=O)(=O)[O-])cc4)c4nc(c(-c5ccc(S(=O)(=O)[O-])cc5)c5ccc2[nH]5)C=C4)C=C3)cc1
REMARK SMILES IDX 27 1 26 2 24 3 25 4 23 6 8 7 9 8 22 9 10 10 16 11 21 12
REMARK SMILES IDX 17 13 15 14 11 15 20 16 18 17 14 18 12 19 19 20 13 21 6 22
REMARK SMILES IDX 7 23 5 24 4 25 3 26 2 27 1 28 28 29 29 30 30 31 31 32 32 34
REMARK SMILES IDX 33 35 34 36 92 37 35 38 91 39 36 40 37 41 38 42 85 43 39 44
REMARK SMILES IDX 90 45 84 46 86 47 40 48 89 49 83 50 82 51 41 53 71 54 52 55
REMARK SMILES IDX 70 56 53 57 56 58 69 59 87 60 54 61 55 62 68 64 88 65 57 66
REMARK SMILES IDX 42 67 43 68 51 69 44 70 50 71 45 72 46 73 47 74 48 75 49 76
REMARK SMILES IDX 72 77 73 78 81 79 74 80 80 81 75 82 76 83 77 84 78 85 79 86
REMARK SMILES IDX 58 87 59 88 67 89 60 90 66 91 61 92 62 93 63 94 64 95 65 96
REMARK H PARENT 26 5 30 33 86 52 56 63
REMARK Flexibility Score: inf
ROOT
ATOM      1  C   UNL A   1      33.953  25.339  25.138  1.00  0.00     0.117 C 
ENDROOT
BRANCH   1   2
ATOM      2  N   UNL A   1      33.841  26.359  26.164  1.00  0.00    -0.356 N 
ATOM      3  C   UNL A   1      32.872  27.249  26.480  1.00  0.00     0.224 C 
ATOM      4  O   UNL A   1      33.114  27.970  27.458  1.00  0.00    -0.275 OA
ATOM      5  H   UNL A   1      34.631  26.415  26.749  1.00  0.00     0.163 HD
BRANCH   3   6
ATOM      6  C   UNL A   1      31.554  27.446  25.734  1.00  0.00     0.105 C 
ATOM      7  C   UNL A   1      30.537  26.265  25.580  1.00  0.00     0.124 C 
ATOM      8  C   UNL A   1      30.061  26.193  24.092  1.00  0.00     0.065 C 
ATOM      9  C   UNL A   1      31.280  26.133  23.165  1.00  0.00    -0.036 A 
ATOM     10  C   UNL A   1      29.416  27.557  23.798  1.00  0.00    -0.036 A 
ATOM     11  C   UNL A   1      31.723  28.224  24.387  1.00  0.00     0.063 C 
ATOM     12  C   UNL A   1      31.523  25.162  22.204  1.00  0.00     0.004 A 
ATOM     13  C   UNL A   1      32.152  27.248  23.299  1.00  0.00    -0.036 A 
ATOM     14  C   UNL A   1      30.309  28.655  23.971  1.00  0.00    -0.036 A 
ATOM     15  C   UNL A   1      28.156  27.752  23.253  1.00  0.00     0.004 A 
ATOM     16  C   UNL A   1      32.613  25.327  21.346  1.00  0.00     0.000 A 
ATOM     17  C   UNL A   1      33.205  27.434  22.412  1.00  0.00     0.004 A 
ATOM     18  C   UNL A   1      29.933  29.939  23.608  1.00  0.00     0.004 A 
ATOM     19  C   UNL A   1      27.785  29.046  22.882  1.00  0.00     0.000 A 
ATOM     20  C   UNL A   1      33.432  26.464  21.435  1.00  0.00     0.000 A 
ATOM     21  C   UNL A   1      28.663  30.128  23.062  1.00  0.00     0.000 A 
BRANCH   7  22
ATOM     22  C   UNL A   1      30.971  24.914  26.101  1.00  0.00     0.310 C 
ATOM     23  O   UNL A   1      31.400  24.722  27.233  1.00  0.00    -0.252 OA
BRANCH  22  24
ATOM     24  O   UNL A   1      30.834  23.943  25.155  1.00  0.00    -0.465 OA
BRANCH  24  25
ATOM     25  C   UNL A   1      30.806  22.582  25.627  1.00  0.00     0.233 C 
BRANCH  25  26
ATOM     26  C   UNL A   1      31.989  21.752  25.139  1.00  0.00     0.041 C 
BRANCH  26  27
ATOM     27  C   UNL A   1      32.434  22.063  23.710  1.00  0.00     0.000 C 
ATOM     28  C   UNL A   1      32.053  20.989  22.699  1.00  0.00     0.004 C 
ENDBRANCH  26  27
ENDBRANCH  25  26
ENDBRANCH  24  25
ENDBRANCH  22  24
ENDBRANCH   7  22
ENDBRANCH   3   6
ENDBRANCH   1   2
BRANCH   1  29
ATOM     29  C   UNL A   1      34.804  24.169  25.580  1.00  0.00     0.042 C 
BRANCH  29  30
ATOM     30  C   UNL A   1      36.274  24.449  25.345  1.00  0.00     0.118 C 
BRANCH  30  31
ATOM     31  N   UNL A   1      37.098  23.261  25.574  1.00  0.00    -0.352 N 
ATOM     32  C   UNL A   1      38.359  23.116  26.110  1.00  0.00     0.251 C 
ATOM     33  H   UNL A   1      36.676  22.416  25.295  1.00  0.00     0.163 HD
ATOM     34  O   UNL A   1      38.941  22.040  25.983  1.00  0.00    -0.269 OA
BRANCH  32  35
ATOM     35  C   UNL A   1      39.034  24.241  26.798  1.00  0.00     0.039 A 
ATOM     36  C   UNL A   1      38.888  24.429  28.166  1.00  0.00     0.014 A 
ATOM     37  C   UNL A   1      39.837  25.129  26.073  1.00  0.00     0.014 A 
ATOM     38  C   UNL A   1      39.282  25.624  28.749  1.00  0.00     0.010 A 
ATOM     39  C   UNL A   1      40.397  26.246  26.710  1.00  0.00     0.010 A 
ATOM     40  C   UNL A   1      40.069  26.542  28.041  1.00  0.00    -0.014 A 
BRANCH  40  41
ATOM     41  C   UNL A   1      40.535  27.778  28.733  1.00  0.00     0.031 A 
ATOM     42  C   UNL A   1      41.985  27.955  29.105  1.00  0.00     0.074 A 
ATOM     43  C   UNL A   1      39.658  28.784  28.946  1.00  0.00     0.049 A 
ATOM     44  N   UNL A   1      42.561  28.973  29.693  1.00  0.00    -0.248 NA
ATOM     45  C   UNL A   1      42.913  26.855  28.786  1.00  0.00     0.031 C 
ATOM     46  C   UNL A   1      38.233  28.749  28.597  1.00  0.00     0.029 A 
ATOM     47  N   UNL A   1      39.833  30.049  29.452  1.00  0.00    -0.354 N 
ATOM     48  C   UNL A   1      43.902  28.630  29.830  1.00  0.00     0.074 A 
ATOM     49  C   UNL A   1      44.052  27.294  29.305  1.00  0.00     0.031 C 
ATOM     50  C   UNL A   1      37.697  29.960  28.795  1.00  0.00     0.029 A 
ATOM     51  C   UNL A   1      38.699  30.829  29.397  1.00  0.00     0.049 A 
ATOM     52  H   UNL A   1      40.690  30.367  29.822  1.00  0.00     0.167 HD
ATOM     53  C   UNL A   1      44.918  29.372  30.331  1.00  0.00     0.031 A 
ATOM     54  C   UNL A   1      38.475  32.098  29.793  1.00  0.00     0.031 A 
ATOM     55  C   UNL A   1      44.763  30.717  30.825  1.00  0.00     0.049 A 
ATOM     56  C   UNL A   1      39.606  32.873  30.407  1.00  0.00     0.074 A 
ATOM     57  C   UNL A   1      45.733  31.546  31.360  1.00  0.00     0.029 A 
ATOM     58  N   UNL A   1      43.578  31.437  30.826  1.00  0.00    -0.354 N 
ATOM     59  N   UNL A   1      40.859  32.514  30.554  1.00  0.00    -0.248 NA
ATOM     60  C   UNL A   1      39.298  34.217  30.910  1.00  0.00     0.031 C 
ATOM     61  C   UNL A   1      45.123  32.739  31.747  1.00  0.00     0.029 A 
ATOM     62  C   UNL A   1      43.790  32.692  31.371  1.00  0.00     0.049 A 
ATOM     63  H   UNL A   1      42.713  31.105  30.491  1.00  0.00     0.167 HD
ATOM     64  C   UNL A   1      41.496  33.601  31.139  1.00  0.00     0.074 A 
ATOM     65  C   UNL A   1      40.495  34.635  31.303  1.00  0.00     0.031 C 
ATOM     66  C   UNL A   1      42.793  33.726  31.509  1.00  0.00     0.031 A 
BRANCH  53  67
ATOM     67  C   UNL A   1      46.304  28.775  30.364  1.00  0.00    -0.014 A 
ATOM     68  C   UNL A   1      47.138  28.881  29.234  1.00  0.00     0.010 A 
ATOM     69  C   UNL A   1      46.723  27.983  31.447  1.00  0.00     0.010 A 
ATOM     70  C   UNL A   1      48.336  28.165  29.163  1.00  0.00     0.020 A 
ATOM     71  C   UNL A   1      47.939  27.292  31.395  1.00  0.00     0.020 A 
ATOM     72  C   UNL A   1      48.722  27.363  30.240  1.00  0.00     0.054 A 
BRANCH  72  73
ATOM     73  S   UNL A   1      50.245  26.388  30.101  1.00  0.00     0.124 S 
ATOM     74  O   UNL A   1      51.200  27.199  30.849  1.00  0.00    -0.237 OA
ATOM     75  O   UNL A   1      49.868  25.121  30.725  1.00  0.00    -0.237 OA
ATOM     76  O   UNL A   1      50.479  26.318  28.661  1.00  0.00    -0.744 OA
ENDBRANCH  72  73
ENDBRANCH  53  67
BRANCH  54  77
ATOM     77  C   UNL A   1      37.127  32.707  29.595  1.00  0.00    -0.014 A 
ATOM     78  C   UNL A   1      36.756  33.243  28.345  1.00  0.00     0.010 A 
ATOM     79  C   UNL A   1      36.230  32.818  30.672  1.00  0.00     0.010 A 
ATOM     80  C   UNL A   1      35.552  33.932  28.194  1.00  0.00     0.020 A 
ATOM     81  C   UNL A   1      35.002  33.471  30.514  1.00  0.00     0.020 A 
ATOM     82  C   UNL A   1      34.686  34.051  29.283  1.00  0.00     0.054 A 
BRANCH  82  83
ATOM     83  S   UNL A   1      33.145  34.984  29.070  1.00  0.00     0.124 S 
ATOM     84  O   UNL A   1      33.644  36.286  28.633  1.00  0.00    -0.237 OA
ATOM     85  O   UNL A   1      32.440  34.207  28.055  1.00  0.00    -0.237 OA
ATOM     86  O   UNL A   1      32.544  34.961  30.401  1.00  0.00    -0.744 OA
ENDBRANCH  82  83
ENDBRANCH  54  77
BRANCH  66  87
ATOM     87  C   UNL A   1      43.245  35.035  32.103  1.00  0.00    -0.014 A 
ATOM     88  C   UNL A   1      43.057  35.271  33.478  1.00  0.00     0.010 A 
ATOM     89  C   UNL A   1      43.718  36.079  31.288  1.00  0.00     0.010 A 
ATOM     90  C   UNL A   1      43.286  36.537  34.020  1.00  0.00     0.020 A 
ATOM     91  C   UNL A   1      43.985  37.337  31.834  1.00  0.00     0.020 A 
ATOM     92  C   UNL A   1      43.737  37.566  33.190  1.00  0.00     0.054 A 
BRANCH  92  93
ATOM     93  S   UNL A   1      43.981  39.216  33.902  1.00  0.00     0.124 S 
ATOM     94  O   UNL A   1      42.772  39.914  33.478  1.00  0.00    -0.237 OA
ATOM     95  O   UNL A   1      44.078  38.936  35.333  1.00  0.00    -0.237 OA
ATOM     96  O   UNL A   1      45.220  39.678  33.280  1.00  0.00    -0.744 OA
ENDBRANCH  92  93
ENDBRANCH  66  87
ENDBRANCH  40  41
ENDBRANCH  32  35
ENDBRANCH  30  31
ENDBRANCH  29  30
ENDBRANCH   1  29
TORSDOF 18
ENDMDL
MODEL 2
REMARK VINA RESULT:     -11.6      3.534      9.299
REMARK SMILES CCCCOC(=O)[C@@H]1[C@H]2c3ccccc3[C@H](c3ccccc32)[C@@H]1C(=O)NCCCNC(=O)c1ccc(-c2c3nc(c(-c4ccc(S(=O)(=O)[O-])cc4)c4ccc([nH]4)c(-c4ccc(S(=O)(=O)[O-])cc4)c4nc(c(-c5ccc(S(=O)(=O)[O-])cc5)c5ccc2[nH]5)C=C4)C=C3)cc1
REMARK SMILES IDX 27 1 26 2 24 3 25 4 23 6 8 7 9 8 22 9 10 10 16 11 21 12
REMARK SMILES IDX 17 13 15 14 11 15 20 16 18 17 14 18 12 19 19 20 13 21 6 22
REMARK SMILES IDX 7 23 5 24 4 25 3 26 2 27 1 28 28 29 29 30 30 31 31 32 32 34
REMARK SMILES IDX 33 35 34 36 92 37 35 38 91 39 36 40 37 41 38 42 85 43 39 44
REMARK SMILES IDX 90 45 84 46 86 47 40 48 89 49 83 50 82 51 41 53 71 54 52 55
REMARK SMILES IDX 70 56 53 57 56 58 69 59 87 60 54 61 55 62 68 64 88 65 57 66
REMARK SMILES IDX 42 67 43 68 51 69 44 70 50 71 45 72 46 73 47 74 48 75 49 76
REMARK SMILES IDX 72 77 73 78 81 79 74 80 80 81 75 82 76 83 77 84 78 85 79 86
REMARK SMILES IDX 58 87 59 88 67 89 60 90 66 91 61 92 62 93 63 94 64 95 65 96
REMARK H PARENT 26 5 30 33 86 52 56 63
REMARK Flexibility Score: inf
ROOT
ATOM      1  C   UNL A   1      33.170  30.678  27.248  1.00  0.00     0.117 C 
ENDROOT
BRANCH   1   2
ATOM      2  N   UNL A   1      33.837  29.773  26.332  1.00  0.00    -0.356 N 
ATOM      3  C   UNL A   1      33.406  29.036  25.282  1.00  0.00     0.224 C 
ATOM      4  O   UNL A   1      34.280  28.378  24.702  1.00  0.00    -0.275 OA
ATOM      5  H   UNL A   1      34.800  29.673  26.512  1.00  0.00     0.163 HD
BRANCH   3   6
ATOM      6  C   UNL A   1      31.964  28.934  24.787  1.00  0.00     0.105 C 
ATOM      7  C   UNL A   1      30.953  27.949  25.463  1.00  0.00     0.124 C 
ATOM      8  C   UNL A   1      30.196  27.152  24.351  1.00  0.00     0.065 C 
ATOM      9  C   UNL A   1      31.211  26.502  23.404  1.00  0.00    -0.036 A 
ATOM     10  C   UNL A   1      29.488  28.213  23.493  1.00  0.00    -0.036 A 
ATOM     11  C   UNL A   1      31.856  28.871  23.227  1.00  0.00     0.063 C 
ATOM     12  C   UNL A   1      31.273  25.153  23.083  1.00  0.00     0.004 A 
ATOM     13  C   UNL A   1      32.076  27.435  22.771  1.00  0.00    -0.036 A 
ATOM     14  C   UNL A   1      30.382  29.149  22.897  1.00  0.00    -0.036 A 
ATOM     15  C   UNL A   1      28.142  28.209  23.156  1.00  0.00     0.004 A 
ATOM     16  C   UNL A   1      32.171  24.742  22.095  1.00  0.00     0.000 A 
ATOM     17  C   UNL A   1      32.933  27.029  21.755  1.00  0.00     0.004 A 
ATOM     18  C   UNL A   1      29.925  30.081  21.978  1.00  0.00     0.004 A 
ATOM     19  C   UNL A   1      27.689  29.145  22.223  1.00  0.00     0.000 A 
ATOM     20  C   UNL A   1      32.976  25.675  21.422  1.00  0.00     0.000 A 
ATOM     21  C   UNL A   1      28.571  30.073  21.644  1.00  0.00     0.000 A 
BRANCH   7  22
ATOM     22  C   UNL A   1      31.499  27.038  26.540  1.00  0.00     0.310 C 
ATOM     23  O   UNL A   1      31.879  27.427  27.638  1.00  0.00    -0.252 OA
BRANCH  22  24
ATOM     24  O   UNL A   1      31.524  25.739  26.132  1.00  0.00    -0.465 OA
BRANCH  24  25
ATOM     25  C   UNL A   1      32.652  24.950  26.560  1.00  0.00     0.233 C 
BRANCH  25  26
ATOM     26  C   UNL A   1      33.913  25.212  25.743  1.00  0.00     0.041 C 
BRANCH  26  27
ATOM     27  C   UNL A   1      34.377  24.026  24.897  1.00  0.00     0.000 C 
ATOM     28  C   UNL A   1      35.891  23.909  24.780  1.00  0.00     0.004 C 
ENDBRANCH  26  27
ENDBRANCH  25  26
ENDBRANCH  24  25
ENDBRANCH  22  24
ENDBRANCH   7  22
ENDBRANCH   3   6
ENDBRANCH   1   2
BRANCH   1  29
ATOM     29  C   UNL A   1      34.054  31.833  27.663  1.00  0.00     0.042 C 
BRANCH  29  30
ATOM     30  C   UNL A   1      35.395  31.337  28.162  1.00  0.00     0.118 C 
BRANCH  30  31
ATOM     31  N   UNL A   1      35.333  30.913  29.562  1.00  0.00    -0.352 N 
ATOM     32  C   UNL A   1      36.263  30.297  30.371  1.00  0.00     0.251 C 
ATOM     33  H   UNL A   1      34.473  31.102  30.004  1.00  0.00     0.163 HD
ATOM     34  O   UNL A   1      35.898  29.825  31.446  1.00  0.00    -0.269 OA
BRANCH  32  35
ATOM     35  C   UNL A   1      37.676  30.161  29.948  1.00  0.00     0.039 A 
ATOM     36  C   UNL A   1      38.022  30.187  28.604  1.00  0.00     0.014 A 
ATOM     37  C   UNL A   1      38.686  30.013  30.906  1.00  0.00     0.014 A 
ATOM     38  C   UNL A   1      39.286  29.782  28.204  1.00  0.00     0.010 A 
ATOM     39  C   UNL A   1      40.009  29.791  30.499  1.00  0.00     0.010 A 
ATOM     40  C   UNL A   1      40.312  29.606  29.142  1.00  0.00    -0.014 A 
BRANCH  40  41
ATOM     41  C   UNL A   1      41.677  29.247  28.660  1.00  0.00     0.031 A 
ATOM     42  C   UNL A   1      42.820  30.223  28.779  1.00  0.00     0.074 A 
ATOM     43  C   UNL A   1      41.905  27.998  28.195  1.00  0.00     0.049 A 
ATOM     44  N   UNL A   1      44.071  30.065  28.428  1.00  0.00    -0.248 NA
ATOM     45  C   UNL A   1      42.532  31.547  29.360  1.00  0.00     0.031 C 
ATOM     46  C   UNL A   1      40.887  26.948  28.066  1.00  0.00     0.029 A 
ATOM     47  N   UNL A   1      43.062  27.375  27.796  1.00  0.00    -0.354 N 
ATOM     48  C   UNL A   1      44.708  31.265  28.723  1.00  0.00     0.074 A 
ATOM     49  C   UNL A   1      43.702  32.160  29.244  1.00  0.00     0.031 C 
ATOM     50  C   UNL A   1      41.479  25.795  27.727  1.00  0.00     0.029 A 
ATOM     51  C   UNL A   1      42.897  26.040  27.498  1.00  0.00     0.049 A 
ATOM     52  H   UNL A   1      43.928  27.839  27.728  1.00  0.00     0.167 HD
ATOM     53  C   UNL A   1      46.018  31.583  28.591  1.00  0.00     0.031 A 
ATOM     54  C   UNL A   1      43.775  25.110  27.073  1.00  0.00     0.031 A 
ATOM     55  C   UNL A   1      47.020  30.672  28.098  1.00  0.00     0.049 A 
ATOM     56  C   UNL A   1      45.209  25.511  26.872  1.00  0.00     0.074 A 
ATOM     57  C   UNL A   1      48.372  30.907  27.920  1.00  0.00     0.029 A 
ATOM     58  N   UNL A   1      46.791  29.356  27.728  1.00  0.00    -0.354 N 
ATOM     59  N   UNL A   1      45.781  26.663  27.129  1.00  0.00    -0.248 NA
ATOM     60  C   UNL A   1      46.115  24.496  26.321  1.00  0.00     0.031 C 
ATOM     61  C   UNL A   1      48.947  29.757  27.379  1.00  0.00     0.029 A 
ATOM     62  C   UNL A   1      47.974  28.773  27.304  1.00  0.00     0.049 A 
ATOM     63  H   UNL A   1      45.917  28.902  27.761  1.00  0.00     0.167 HD
ATOM     64  C   UNL A   1      47.120  26.501  26.801  1.00  0.00     0.074 A 
ATOM     65  C   UNL A   1      47.277  25.136  26.343  1.00  0.00     0.031 C 
ATOM     66  C   UNL A   1      48.127  27.406  26.871  1.00  0.00     0.031 A 
BRANCH  53  67
ATOM     67  C   UNL A   1      46.473  32.965  28.995  1.00  0.00    -0.014 A 
ATOM     68  C   UNL A   1      46.770  33.235  30.345  1.00  0.00     0.010 A 
ATOM     69  C   UNL A   1      46.461  34.028  28.074  1.00  0.00     0.010 A 
ATOM     70  C   UNL A   1      46.992  34.546  30.776  1.00  0.00     0.020 A 
ATOM     71  C   UNL A   1      46.717  35.337  28.496  1.00  0.00     0.020 A 
ATOM     72  C   UNL A   1      46.950  35.591  29.850  1.00  0.00     0.054 A 
BRANCH  72  73
ATOM     73  S   UNL A   1      47.171  37.292  30.440  1.00  0.00     0.124 S 
ATOM     74  O   UNL A   1      46.605  38.074  29.346  1.00  0.00    -0.237 OA
ATOM     75  O   UNL A   1      46.403  37.298  31.684  1.00  0.00    -0.237 OA
ATOM     76  O   UNL A   1      48.618  37.411  30.611  1.00  0.00    -0.744 OA
ENDBRANCH  72  73
ENDBRANCH  53  67
BRANCH  54  77
ATOM     77  C   UNL A   1      43.315  23.710  26.838  1.00  0.00    -0.014 A 
ATOM     78  C   UNL A   1      43.283  22.776  27.893  1.00  0.00     0.010 A 
ATOM     79  C   UNL A   1      42.972  23.281  25.544  1.00  0.00     0.010 A 
ATOM     80  C   UNL A   1      42.982  21.435  27.649  1.00  0.00     0.020 A 
ATOM     81  C   UNL A   1      42.628  21.946  25.302  1.00  0.00     0.020 A 
ATOM     82  C   UNL A   1      42.666  21.026  26.352  1.00  0.00     0.054 A 
BRANCH  82  83
ATOM     83  S   UNL A   1      42.318  19.271  26.055  1.00  0.00     0.124 S 
ATOM     84  O   UNL A   1      40.914  19.308  25.655  1.00  0.00    -0.237 OA
ATOM     85  O   UNL A   1      43.265  18.934  24.996  1.00  0.00    -0.237 OA
ATOM     86  O   UNL A   1      42.583  18.646  27.348  1.00  0.00    -0.744 OA
ENDBRANCH  82  83
ENDBRANCH  54  77
BRANCH  66  87
ATOM     87  C   UNL A   1      49.513  26.965  26.479  1.00  0.00    -0.014 A 
ATOM     88  C   UNL A   1      49.907  27.043  25.130  1.00  0.00     0.010 A 
ATOM     89  C   UNL A   1      50.369  26.345  27.407  1.00  0.00     0.010 A 
ATOM     90  C   UNL A   1      51.106  26.468  24.705  1.00  0.00     0.020 A 
ATOM     91  C   UNL A   1      51.588  25.802  26.993  1.00  0.00     0.020 A 
ATOM     92  C   UNL A   1      51.934  25.840  25.639  1.00  0.00     0.054 A 
BRANCH  92  93
ATOM     93  S   UNL A   1      53.463  25.056  25.059  1.00  0.00     0.124 S 
ATOM     94  O   UNL A   1      53.160  23.638  25.220  1.00  0.00    -0.237 OA
ATOM     95  O   UNL A   1      53.562  25.528  23.680  1.00  0.00    -0.237 OA
ATOM     96  O   UNL A   1      54.482  25.583  25.964  1.00  0.00    -0.744 OA
ENDBRANCH  92  93
ENDBRANCH  66  87
ENDBRANCH  40  41
ENDBRANCH  32  35
ENDBRANCH  30  31
ENDBRANCH  29  30
ENDBRANCH   1  29
TORSDOF 18
ENDMDL
MODEL 3
REMARK VINA RESULT:     -11.6      3.593      8.768
REMARK SMILES CCCCOC(=O)[C@@H]1[C@H]2c3ccccc3[C@H](c3ccccc32)[C@@H]1C(=O)NCCCNC(=O)c1ccc(-c2c3nc(c(-c4ccc(S(=O)(=O)[O-])cc4)c4ccc([nH]4)c(-c4ccc(S(=O)(=O)[O-])cc4)c4nc(c(-c5ccc(S(=O)(=O)[O-])cc5)c5ccc2[nH]5)C=C4)C=C3)cc1
REMARK SMILES IDX 27 1 26 2 24 3 25 4 23 6 8 7 9 8 22 9 10 10 16 11 21 12
REMARK SMILES IDX 17 13 15 14 11 15 20 16 18 17 14 18 12 19 19 20 13 21 6 22
REMARK SMILES IDX 7 23 5 24 4 25 3 26 2 27 1 28 28 29 29 30 30 31 31 32 32 34
REMARK SMILES IDX 33 35 34 36 92 37 35 38 91 39 36 40 37 41 38 42 85 43 39 44
REMARK SMILES IDX 90 45 84 46 86 47 40 48 89 49 83 50 82 51 41 53 71 54 52 55
REMARK SMILES IDX 70 56 53 57 56 58 69 59 87 60 54 61 55 62 68 64 88 65 57 66
REMARK SMILES IDX 42 67 43 68 51 69 44 70 50 71 45 72 46 73 47 74 48 75 49 76
REMARK SMILES IDX 72 77 73 78 81 79 74 80 80 81 75 82 76 83 77 84 78 85 79 86
REMARK SMILES IDX 58 87 59 88 67 89 60 90 66 91 61 92 62 93 63 94 64 95 65 96
REMARK H PARENT 26 5 30 33 86 52 56 63
REMARK Flexibility Score: inf
ROOT
ATOM      1  C   UNL A   1      33.229  30.618  27.206  1.00  0.00     0.117 C 
ENDROOT
BRANCH   1   2
ATOM      2  N   UNL A   1      33.862  29.696  26.282  1.00  0.00    -0.356 N 
ATOM      3  C   UNL A   1      33.394  28.949  25.255  1.00  0.00     0.224 C 
ATOM      4  O   UNL A   1      34.246  28.279  24.657  1.00  0.00    -0.275 OA
ATOM      5  H   UNL A   1      34.830  29.593  26.432  1.00  0.00     0.163 HD
BRANCH   3   6
ATOM      6  C   UNL A   1      31.937  28.850  24.807  1.00  0.00     0.105 C 
ATOM      7  C   UNL A   1      30.961  27.824  25.475  1.00  0.00     0.124 C 
ATOM      8  C   UNL A   1      30.174  27.066  24.357  1.00  0.00     0.065 C 
ATOM      9  C   UNL A   1      31.162  26.469  23.349  1.00  0.00    -0.036 A 
ATOM     10  C   UNL A   1      29.424  28.153  23.571  1.00  0.00    -0.036 A 
ATOM     11  C   UNL A   1      31.774  28.852  23.250  1.00  0.00     0.063 C 
ATOM     12  C   UNL A   1      31.229  25.136  22.968  1.00  0.00     0.004 A 
ATOM     13  C   UNL A   1      31.994  27.439  22.725  1.00  0.00    -0.036 A 
ATOM     14  C   UNL A   1      30.287  29.125  22.985  1.00  0.00    -0.036 A 
ATOM     15  C   UNL A   1      28.068  28.146  23.281  1.00  0.00     0.004 A 
ATOM     16  C   UNL A   1      32.095  24.779  21.932  1.00  0.00     0.000 A 
ATOM     17  C   UNL A   1      32.818  27.087  21.664  1.00  0.00     0.004 A 
ATOM     18  C   UNL A   1      29.787  30.089  22.122  1.00  0.00     0.004 A 
ATOM     19  C   UNL A   1      27.571  29.115  22.406  1.00  0.00     0.000 A 
ATOM     20  C   UNL A   1      32.866  25.749  21.272  1.00  0.00     0.000 A 
ATOM     21  C   UNL A   1      28.421  30.077  21.836  1.00  0.00     0.000 A 
BRANCH   7  22
ATOM     22  C   UNL A   1      31.556  26.876  26.492  1.00  0.00     0.310 C 
ATOM     23  O   UNL A   1      32.480  27.166  27.241  1.00  0.00    -0.252 OA
BRANCH  22  24
ATOM     24  O   UNL A   1      30.942  25.660  26.463  1.00  0.00    -0.465 OA
BRANCH  24  25
ATOM     25  C   UNL A   1      31.796  24.503  26.560  1.00  0.00     0.233 C 
BRANCH  25  26
ATOM     26  C   UNL A   1      31.175  23.245  25.962  1.00  0.00     0.041 C 
BRANCH  26  27
ATOM     27  C   UNL A   1      32.085  22.489  24.995  1.00  0.00     0.000 C 
ATOM     28  C   UNL A   1      32.271  21.018  25.348  1.00  0.00     0.004 C 
ENDBRANCH  26  27
ENDBRANCH  25  26
ENDBRANCH  24  25
ENDBRANCH  22  24
ENDBRANCH   7  22
ENDBRANCH   3   6
ENDBRANCH   1   2
BRANCH   1  29
ATOM     29  C   UNL A   1      34.169  31.712  27.663  1.00  0.00     0.042 C 
BRANCH  29  30
ATOM     30  C   UNL A   1      35.451  31.127  28.219  1.00  0.00     0.118 C 
BRANCH  30  31
ATOM     31  N   UNL A   1      35.446  31.094  29.683  1.00  0.00    -0.352 N 
ATOM     32  C   UNL A   1      36.297  30.494  30.585  1.00  0.00     0.251 C 
ATOM     33  H   UNL A   1      34.701  31.589  30.096  1.00  0.00     0.163 HD
ATOM     34  O   UNL A   1      35.953  30.408  31.762  1.00  0.00    -0.269 OA
BRANCH  32  35
ATOM     35  C   UNL A   1      37.592  29.921  30.152  1.00  0.00     0.039 A 
ATOM     36  C   UNL A   1      38.429  29.286  31.060  1.00  0.00     0.014 A 
ATOM     37  C   UNL A   1      37.987  30.006  28.811  1.00  0.00     0.014 A 
ATOM     38  C   UNL A   1      39.743  29.008  30.716  1.00  0.00     0.010 A 
ATOM     39  C   UNL A   1      39.253  29.546  28.423  1.00  0.00     0.010 A 
ATOM     40  C   UNL A   1      40.172  29.103  29.386  1.00  0.00    -0.014 A 
BRANCH  40  41
ATOM     41  C   UNL A   1      41.573  28.718  29.050  1.00  0.00     0.031 A 
ATOM     42  C   UNL A   1      41.895  27.332  28.551  1.00  0.00     0.074 A 
ATOM     43  C   UNL A   1      42.547  29.654  29.110  1.00  0.00     0.049 A 
ATOM     44  N   UNL A   1      43.054  26.838  28.196  1.00  0.00    -0.248 NA
ATOM     45  C   UNL A   1      40.783  26.371  28.436  1.00  0.00     0.031 C 
ATOM     46  C   UNL A   1      42.355  31.043  29.542  1.00  0.00     0.029 A 
ATOM     47  N   UNL A   1      43.874  29.607  28.760  1.00  0.00    -0.354 N 
ATOM     48  C   UNL A   1      42.815  25.515  27.839  1.00  0.00     0.074 A 
ATOM     49  C   UNL A   1      41.410  25.265  28.058  1.00  0.00     0.031 C 
ATOM     50  C   UNL A   1      43.482  31.735  29.329  1.00  0.00     0.029 A 
ATOM     51  C   UNL A   1      44.516  30.822  28.859  1.00  0.00     0.049 A 
ATOM     52  H   UNL A   1      44.325  28.781  28.467  1.00  0.00     0.167 HD
ATOM     53  C   UNL A   1      43.687  24.599  27.354  1.00  0.00     0.031 A 
ATOM     54  C   UNL A   1      45.795  31.172  28.615  1.00  0.00     0.031 A 
ATOM     55  C   UNL A   1      45.081  24.868  27.111  1.00  0.00     0.049 A 
ATOM     56  C   UNL A   1      46.754  30.118  28.142  1.00  0.00     0.074 A 
ATOM     57  C   UNL A   1      46.045  24.001  26.627  1.00  0.00     0.029 A 
ATOM     58  N   UNL A   1      45.706  26.090  27.306  1.00  0.00    -0.354 N 
ATOM     59  N   UNL A   1      46.510  28.865  27.842  1.00  0.00    -0.248 NA
ATOM     60  C   UNL A   1      48.157  30.518  27.977  1.00  0.00     0.031 C 
ATOM     61  C   UNL A   1      47.265  24.677  26.596  1.00  0.00     0.029 A 
ATOM     62  C   UNL A   1      47.047  25.993  26.972  1.00  0.00     0.049 A 
ATOM     63  H   UNL A   1      45.264  26.907  27.634  1.00  0.00     0.167 HD
ATOM     64  C   UNL A   1      47.723  28.335  27.422  1.00  0.00     0.074 A 
ATOM     65  C   UNL A   1      48.695  29.406  27.491  1.00  0.00     0.031 C 
ATOM     66  C   UNL A   1      48.004  27.071  27.020  1.00  0.00     0.031 A 
BRANCH  53  67
ATOM     67  C   UNL A   1      43.178  23.216  27.028  1.00  0.00    -0.014 A 
ATOM     68  C   UNL A   1      42.893  22.313  28.070  1.00  0.00     0.010 A 
ATOM     69  C   UNL A   1      43.127  22.760  25.699  1.00  0.00     0.010 A 
ATOM     70  C   UNL A   1      42.622  20.970  27.795  1.00  0.00     0.020 A 
ATOM     71  C   UNL A   1      42.821  21.424  25.417  1.00  0.00     0.020 A 
ATOM     72  C   UNL A   1      42.601  20.531  26.469  1.00  0.00     0.054 A 
BRANCH  72  73
ATOM     73  S   UNL A   1      42.315  18.771  26.135  1.00  0.00     0.124 S 
ATOM     74  O   UNL A   1      42.574  18.164  27.437  1.00  0.00    -0.237 OA
ATOM     75  O   UNL A   1      40.921  18.754  25.696  1.00  0.00    -0.237 OA
ATOM     76  O   UNL A   1      43.291  18.456  25.094  1.00  0.00    -0.744 OA
ENDBRANCH  72  73
ENDBRANCH  53  67
BRANCH  54  77
ATOM     77  C   UNL A   1      46.220  32.591  28.797  1.00  0.00    -0.014 A 
ATOM     78  C   UNL A   1      46.649  33.059  30.055  1.00  0.00     0.010 A 
ATOM     79  C   UNL A   1      46.133  33.503  27.730  1.00  0.00     0.010 A 
ATOM     80  C   UNL A   1      46.918  34.413  30.259  1.00  0.00     0.020 A 
ATOM     81  C   UNL A   1      46.443  34.854  27.919  1.00  0.00     0.020 A 
ATOM     82  C   UNL A   1      46.804  35.305  29.190  1.00  0.00     0.054 A 
BRANCH  82  83
ATOM     83  S   UNL A   1      47.120  37.066  29.491  1.00  0.00     0.124 S 
ATOM     84  O   UNL A   1      47.479  37.067  30.907  1.00  0.00    -0.237 OA
ATOM     85  O   UNL A   1      48.212  37.355  28.566  1.00  0.00    -0.237 OA
ATOM     86  O   UNL A   1      45.846  37.703  29.169  1.00  0.00    -0.744 OA
ENDBRANCH  82  83
ENDBRANCH  54  77
BRANCH  66  87
ATOM     87  C   UNL A   1      49.411  26.756  26.582  1.00  0.00    -0.014 A 
ATOM     88  C   UNL A   1      49.803  27.042  25.261  1.00  0.00     0.010 A 
ATOM     89  C   UNL A   1      50.293  26.052  27.420  1.00  0.00     0.010 A 
ATOM     90  C   UNL A   1      51.029  26.590  24.770  1.00  0.00     0.020 A 
ATOM     91  C   UNL A   1      51.538  25.631  26.944  1.00  0.00     0.020 A 
ATOM     92  C   UNL A   1      51.884  25.876  25.613  1.00  0.00     0.054 A 
BRANCH  92  93
ATOM     93  S   UNL A   1      53.449  25.255  24.941  1.00  0.00     0.124 S 
ATOM     94  O   UNL A   1      53.328  25.584  23.525  1.00  0.00    -0.237 OA
ATOM     95  O   UNL A   1      54.445  26.023  25.685  1.00  0.00    -0.237 OA
ATOM     96  O   UNL A   1      53.414  23.827  25.255  1.00  0.00    -0.744 OA
ENDBRANCH  92  93
ENDBRANCH  66  87
ENDBRANCH  40  41
ENDBRANCH  32  35
ENDBRANCH  30  31
ENDBRANCH  29  30
ENDBRANCH   1  29
TORSDOF 18
ENDMDL
