MODEL 1
REMARK VINA RESULT:     -12.0      0.000      0.000
REMARK SMILES CN(C)c1c(Cl)cccc1NS(=O)(=O)c1ccc(F)c(C(=O)NCCCNC(=O)c2ccc(-c3c4nc(c(-c5ccc(S(=O)(=O)[O-])cc5)c5ccc([nH]5)c(-c5ccc(S(=O)(=O)[O-])cc5)c5nc(c(-c6ccc(S(=O)(=O)[O-])cc6)c6ccc3[nH]6)C=C5)C=C4)cc2)c1
REMARK SMILES IDX 24 1 23 2 21 3 22 4 20 6 15 7 16 8 90 9 17 10 18 11 19 12
REMARK SMILES IDX 12 13 13 14 14 15 11 16 10 18 4 19 5 20 6 21 7 22 9 23 8 24
REMARK SMILES IDX 2 25 1 26 3 27 25 28 26 29 27 30 28 31 29 33 30 34 31 35
REMARK SMILES IDX 89 36 32 37 88 38 33 39 34 40 35 41 82 42 36 43 87 44 81 45
REMARK SMILES IDX 83 46 37 47 86 48 80 49 79 50 38 52 68 53 49 54 67 55 50 56
REMARK SMILES IDX 53 57 66 58 84 59 51 60 52 61 65 63 85 64 54 65 39 66 40 67
REMARK SMILES IDX 48 68 41 69 47 70 42 71 43 72 44 73 45 74 46 75 69 76 70 77
REMARK SMILES IDX 78 78 71 79 77 80 72 81 73 82 74 83 75 84 76 85 55 86 56 87
REMARK SMILES IDX 64 88 57 89 63 90 58 91 59 92 60 93 61 94 62 95
REMARK H PARENT 23 5 11 17 27 32 83 51 53 62
REMARK Flexibility Score: inf
ROOT
ATOM      1  C   UNL A   1      37.892  23.727  26.015  1.00  0.00     0.118 C 
ENDROOT
BRANCH   1   2
ATOM      2  N   UNL A   1      37.643  23.526  24.600  1.00  0.00    -0.352 N 
ATOM      3  C   UNL A   1      36.645  22.913  23.894  1.00  0.00     0.254 C 
ATOM      4  O   UNL A   1      36.779  22.907  22.667  1.00  0.00    -0.269 OA
ATOM      5  H   UNL A   1      38.342  23.913  24.026  1.00  0.00     0.163 HD
BRANCH   3   6
ATOM      6  C   UNL A   1      35.399  22.326  24.466  1.00  0.00     0.076 A 
ATOM      7  C   UNL A   1      33.040  22.742  24.978  1.00  0.00     0.088 A 
ATOM      8  C   UNL A   1      32.919  21.481  25.558  1.00  0.00     0.025 A 
ATOM      9  C   UNL A   1      34.277  23.179  24.483  1.00  0.00     0.039 A 
ATOM     10  C   UNL A   1      34.002  20.610  25.490  1.00  0.00     0.041 A 
ATOM     11  C   UNL A   1      35.207  21.017  24.906  1.00  0.00     0.136 A 
ATOM     12  F   UNL A   1      36.117  20.057  24.716  1.00  0.00    -0.206 F 
BRANCH   7  13
ATOM     13  S   UNL A   1      31.596  23.703  24.562  1.00  0.00     0.261 S 
ATOM     14  O   UNL A   1      30.732  23.716  25.720  1.00  0.00    -0.201 OA
ATOM     15  O   UNL A   1      31.136  23.215  23.277  1.00  0.00    -0.201 OA
BRANCH  13  16
ATOM     16  N   UNL A   1      32.139  25.249  24.317  1.00  0.00    -0.277 N 
ATOM     17  H   UNL A   1      32.658  25.394  23.493  1.00  0.00     0.180 HD
BRANCH  16  18
ATOM     18  C   UNL A   1      31.952  26.400  25.147  1.00  0.00     0.074 A 
ATOM     19  C   UNL A   1      31.231  27.473  24.542  1.00  0.00     0.080 A 
ATOM     20  C   UNL A   1      31.355  28.747  25.141  1.00  0.00     0.066 A 
ATOM     21  Cl  UNL A   1      30.592  30.177  24.536  1.00  0.00    -0.082 Cl
ATOM     22  C   UNL A   1      32.101  28.918  26.316  1.00  0.00     0.023 A 
ATOM     23  C   UNL A   1      32.591  26.564  26.379  1.00  0.00     0.029 A 
ATOM     24  C   UNL A   1      32.682  27.827  26.953  1.00  0.00     0.004 A 
BRANCH  19  25
ATOM     25  N   UNL A   1      30.402  27.149  23.442  1.00  0.00    -0.375 N 
ATOM     26  C   UNL A   1      30.461  27.885  22.189  1.00  0.00     0.143 C 
ATOM     27  C   UNL A   1      29.071  26.686  23.863  1.00  0.00     0.143 C 
ENDBRANCH  19  25
ENDBRANCH  16  18
ENDBRANCH  13  16
ENDBRANCH   7  13
ENDBRANCH   3   6
ENDBRANCH   1   2
BRANCH   1  28
ATOM     28  C   UNL A   1      38.937  22.732  26.529  1.00  0.00     0.042 C 
BRANCH  28  29
ATOM     29  C   UNL A   1      40.167  23.413  27.130  1.00  0.00     0.118 C 
BRANCH  29  30
ATOM     30  N   UNL A   1      40.933  24.113  26.110  1.00  0.00    -0.352 N 
ATOM     31  C   UNL A   1      41.337  25.423  26.055  1.00  0.00     0.251 C 
ATOM     32  H   UNL A   1      41.204  23.562  25.341  1.00  0.00     0.163 HD
ATOM     33  O   UNL A   1      41.785  25.860  24.998  1.00  0.00    -0.269 OA
BRANCH  31  34
ATOM     34  C   UNL A   1      41.234  26.313  27.235  1.00  0.00     0.039 A 
ATOM     35  C   UNL A   1      40.168  26.117  28.120  1.00  0.00     0.014 A 
ATOM     36  C   UNL A   1      42.112  27.383  27.432  1.00  0.00     0.014 A 
ATOM     37  C   UNL A   1      39.997  26.972  29.212  1.00  0.00     0.010 A 
ATOM     38  C   UNL A   1      41.964  28.213  28.547  1.00  0.00     0.010 A 
ATOM     39  C   UNL A   1      40.900  28.021  29.440  1.00  0.00    -0.014 A 
BRANCH  39  40
ATOM     40  C   UNL A   1      40.726  28.923  30.607  1.00  0.00     0.031 A 
ATOM     41  C   UNL A   1      41.586  28.767  31.830  1.00  0.00     0.074 A 
ATOM     42  C   UNL A   1      39.769  29.870  30.575  1.00  0.00     0.049 A 
ATOM     43  N   UNL A   1      41.575  29.463  32.939  1.00  0.00    -0.248 NA
ATOM     44  C   UNL A   1      42.573  27.676  31.815  1.00  0.00     0.031 C 
ATOM     45  C   UNL A   1      38.840  30.097  29.465  1.00  0.00     0.029 A 
ATOM     46  N   UNL A   1      39.417  30.816  31.504  1.00  0.00    -0.354 N 
ATOM     47  C   UNL A   1      42.538  28.886  33.760  1.00  0.00     0.074 A 
ATOM     48  C   UNL A   1      43.092  27.765  33.032  1.00  0.00     0.031 C 
ATOM     49  C   UNL A   1      38.037  31.129  29.771  1.00  0.00     0.029 A 
ATOM     50  C   UNL A   1      38.380  31.623  31.102  1.00  0.00     0.049 A 
ATOM     51  H   UNL A   1      39.865  30.908  32.376  1.00  0.00     0.167 HD
ATOM     52  C   UNL A   1      42.931  29.261  35.002  1.00  0.00     0.031 A 
ATOM     53  C   UNL A   1      37.775  32.648  31.730  1.00  0.00     0.031 A 
ATOM     54  C   UNL A   1      42.393  30.385  35.722  1.00  0.00     0.049 A 
ATOM     55  C   UNL A   1      38.256  33.072  33.087  1.00  0.00     0.074 A 
ATOM     56  C   UNL A   1      42.768  30.874  36.961  1.00  0.00     0.029 A 
ATOM     57  N   UNL A   1      41.366  31.196  35.265  1.00  0.00    -0.354 N 
ATOM     58  N   UNL A   1      39.209  32.550  33.821  1.00  0.00    -0.248 NA
ATOM     59  C   UNL A   1      37.592  34.234  33.693  1.00  0.00     0.031 C 
ATOM     60  C   UNL A   1      41.947  31.968  37.266  1.00  0.00     0.029 A 
ATOM     61  C   UNL A   1      41.084  32.176  36.202  1.00  0.00     0.049 A 
ATOM     62  H   UNL A   1      40.904  31.091  34.402  1.00  0.00     0.167 HD
ATOM     63  C   UNL A   1      39.268  33.328  34.972  1.00  0.00     0.074 A 
ATOM     64  C   UNL A   1      38.265  34.365  34.828  1.00  0.00     0.031 C 
ATOM     65  C   UNL A   1      40.078  33.195  36.050  1.00  0.00     0.031 A 
BRANCH  52  66
ATOM     66  C   UNL A   1      43.998  28.431  35.663  1.00  0.00    -0.014 A 
ATOM     67  C   UNL A   1      45.360  28.725  35.477  1.00  0.00     0.010 A 
ATOM     68  C   UNL A   1      43.634  27.355  36.492  1.00  0.00     0.010 A 
ATOM     69  C   UNL A   1      46.343  27.929  36.073  1.00  0.00     0.020 A 
ATOM     70  C   UNL A   1      44.613  26.569  37.106  1.00  0.00     0.020 A 
ATOM     71  C   UNL A   1      45.962  26.848  36.875  1.00  0.00     0.054 A 
BRANCH  71  72
ATOM     72  S   UNL A   1      47.251  25.826  37.640  1.00  0.00     0.124 S 
ATOM     73  O   UNL A   1      46.770  25.717  39.015  1.00  0.00    -0.237 OA
ATOM     74  O   UNL A   1      47.197  24.593  36.857  1.00  0.00    -0.237 OA
ATOM     75  O   UNL A   1      48.466  26.617  37.465  1.00  0.00    -0.744 OA
ENDBRANCH  71  72
ENDBRANCH  52  66
BRANCH  53  76
ATOM     76  C   UNL A   1      36.661  33.365  31.057  1.00  0.00    -0.014 A 
ATOM     77  C   UNL A   1      36.877  34.025  29.836  1.00  0.00     0.010 A 
ATOM     78  C   UNL A   1      35.371  33.354  31.617  1.00  0.00     0.010 A 
ATOM     79  C   UNL A   1      35.820  34.669  29.186  1.00  0.00     0.020 A 
ATOM     80  C   UNL A   1      34.309  33.983  30.961  1.00  0.00     0.020 A 
ATOM     81  C   UNL A   1      34.543  34.642  29.751  1.00  0.00     0.054 A 
BRANCH  81  82
ATOM     82  S   UNL A   1      33.165  35.413  28.857  1.00  0.00     0.124 S 
ATOM     83  O   UNL A   1      32.312  35.871  29.948  1.00  0.00    -0.237 OA
ATOM     84  O   UNL A   1      33.828  36.463  28.087  1.00  0.00    -0.237 OA
ATOM     85  O   UNL A   1      32.626  34.315  28.056  1.00  0.00    -0.744 OA
ENDBRANCH  81  82
ENDBRANCH  53  76
BRANCH  65  86
ATOM     86  C   UNL A   1      39.920  34.206  37.150  1.00  0.00    -0.014 A 
ATOM     87  C   UNL A   1      40.490  35.486  37.041  1.00  0.00     0.010 A 
ATOM     88  C   UNL A   1      39.175  33.879  38.297  1.00  0.00     0.010 A 
ATOM     89  C   UNL A   1      40.346  36.413  38.076  1.00  0.00     0.020 A 
ATOM     90  C   UNL A   1      39.014  34.809  39.326  1.00  0.00     0.020 A 
ATOM     91  C   UNL A   1      39.617  36.065  39.217  1.00  0.00     0.054 A 
BRANCH  91  92
ATOM     92  S   UNL A   1      39.419  37.287  40.543  1.00  0.00     0.124 S 
ATOM     93  O   UNL A   1      40.803  37.531  40.938  1.00  0.00    -0.237 OA
ATOM     94  O   UNL A   1      38.752  38.398  39.868  1.00  0.00    -0.237 OA
ATOM     95  O   UNL A   1      38.601  36.590  41.533  1.00  0.00    -0.744 OA
ENDBRANCH  91  92
ENDBRANCH  65  86
ENDBRANCH  39  40
ENDBRANCH  31  34
ENDBRANCH  29  30
ENDBRANCH  28  29
ENDBRANCH   1  28
TORSDOF 17
ENDMDL
MODEL 2
REMARK VINA RESULT:     -12.0      5.951     10.517
REMARK SMILES CN(C)c1c(Cl)cccc1NS(=O)(=O)c1ccc(F)c(C(=O)NCCCNC(=O)c2ccc(-c3c4nc(c(-c5ccc(S(=O)(=O)[O-])cc5)c5ccc([nH]5)c(-c5ccc(S(=O)(=O)[O-])cc5)c5nc(c(-c6ccc(S(=O)(=O)[O-])cc6)c6ccc3[nH]6)C=C5)C=C4)cc2)c1
REMARK SMILES IDX 24 1 23 2 21 3 22 4 20 6 15 7 16 8 90 9 17 10 18 11 19 12
REMARK SMILES IDX 12 13 13 14 14 15 11 16 10 18 4 19 5 20 6 21 7 22 9 23 8 24
REMARK SMILES IDX 2 25 1 26 3 27 25 28 26 29 27 30 28 31 29 33 30 34 31 35
REMARK SMILES IDX 89 36 32 37 88 38 33 39 34 40 35 41 82 42 36 43 87 44 81 45
REMARK SMILES IDX 83 46 37 47 86 48 80 49 79 50 38 52 68 53 49 54 67 55 50 56
REMARK SMILES IDX 53 57 66 58 84 59 51 60 52 61 65 63 85 64 54 65 39 66 40 67
REMARK SMILES IDX 48 68 41 69 47 70 42 71 43 72 44 73 45 74 46 75 69 76 70 77
REMARK SMILES IDX 78 78 71 79 77 80 72 81 73 82 74 83 75 84 76 85 55 86 56 87
REMARK SMILES IDX 64 88 57 89 63 90 58 91 59 92 60 93 61 94 62 95
REMARK H PARENT 23 5 11 17 27 32 83 51 53 62
REMARK Flexibility Score: inf
ROOT
ATOM      1  C   UNL A   1      37.053  20.698  24.617  1.00  0.00     0.118 C 
ENDROOT
BRANCH   1   2
ATOM      2  N   UNL A   1      36.174  20.951  25.743  1.00  0.00    -0.352 N 
ATOM      3  C   UNL A   1      34.851  21.278  25.854  1.00  0.00     0.254 C 
ATOM      4  O   UNL A   1      34.435  21.451  27.003  1.00  0.00    -0.269 OA
ATOM      5  H   UNL A   1      36.628  20.870  26.613  1.00  0.00     0.163 HD
BRANCH   3   6
ATOM      6  C   UNL A   1      33.873  21.372  24.732  1.00  0.00     0.076 A 
ATOM      7  C   UNL A   1      32.861  22.866  23.077  1.00  0.00     0.088 A 
ATOM      8  C   UNL A   1      32.032  21.841  22.623  1.00  0.00     0.025 A 
ATOM      9  C   UNL A   1      33.735  22.648  24.151  1.00  0.00     0.039 A 
ATOM     10  C   UNL A   1      32.205  20.564  23.148  1.00  0.00     0.041 A 
ATOM     11  C   UNL A   1      33.149  20.330  24.155  1.00  0.00     0.136 A 
ATOM     12  F   UNL A   1      33.375  19.048  24.457  1.00  0.00    -0.206 F 
BRANCH   7  13
ATOM     13  S   UNL A   1      33.070  24.362  22.129  1.00  0.00     0.261 S 
ATOM     14  O   UNL A   1      33.131  23.991  20.734  1.00  0.00    -0.201 OA
ATOM     15  O   UNL A   1      34.141  25.103  22.765  1.00  0.00    -0.201 OA
BRANCH  13  16
ATOM     16  N   UNL A   1      31.684  25.239  22.361  1.00  0.00    -0.277 N 
ATOM     17  H   UNL A   1      31.167  25.444  21.549  1.00  0.00     0.180 HD
BRANCH  16  18
ATOM     18  C   UNL A   1      31.141  25.738  23.589  1.00  0.00     0.074 A 
ATOM     19  C   UNL A   1      31.432  27.107  23.868  1.00  0.00     0.080 A 
ATOM     20  C   UNL A   1      31.274  27.536  25.205  1.00  0.00     0.066 A 
ATOM     21  Cl  UNL A   1      31.613  29.142  25.753  1.00  0.00    -0.082 Cl
ATOM     22  C   UNL A   1      30.786  26.660  26.187  1.00  0.00     0.023 A 
ATOM     23  C   UNL A   1      30.545  24.915  24.548  1.00  0.00     0.029 A 
ATOM     24  C   UNL A   1      30.386  25.371  25.853  1.00  0.00     0.004 A 
BRANCH  19  25
ATOM     25  N   UNL A   1      31.784  27.926  22.769  1.00  0.00    -0.375 N 
ATOM     26  C   UNL A   1      33.105  28.522  22.643  1.00  0.00     0.143 C 
ATOM     27  C   UNL A   1      30.655  28.741  22.297  1.00  0.00     0.143 C 
ENDBRANCH  19  25
ENDBRANCH  16  18
ENDBRANCH  13  16
ENDBRANCH   7  13
ENDBRANCH   3   6
ENDBRANCH   1   2
BRANCH   1  28
ATOM     28  C   UNL A   1      38.160  19.712  25.003  1.00  0.00     0.042 C 
BRANCH  28  29
ATOM     29  C   UNL A   1      39.271  20.355  25.833  1.00  0.00     0.118 C 
BRANCH  29  30
ATOM     30  N   UNL A   1      40.329  19.400  26.128  1.00  0.00    -0.352 N 
ATOM     31  C   UNL A   1      41.657  19.612  26.398  1.00  0.00     0.251 C 
ATOM     32  H   UNL A   1      40.049  18.457  26.136  1.00  0.00     0.163 HD
ATOM     33  O   UNL A   1      42.421  18.649  26.400  1.00  0.00    -0.269 OA
BRANCH  31  34
ATOM     34  C   UNL A   1      42.182  20.969  26.673  1.00  0.00     0.039 A 
ATOM     35  C   UNL A   1      42.488  21.793  25.585  1.00  0.00     0.014 A 
ATOM     36  C   UNL A   1      42.458  21.405  27.973  1.00  0.00     0.014 A 
ATOM     37  C   UNL A   1      43.043  23.058  25.797  1.00  0.00     0.010 A 
ATOM     38  C   UNL A   1      42.975  22.685  28.186  1.00  0.00     0.010 A 
ATOM     39  C   UNL A   1      43.282  23.519  27.100  1.00  0.00    -0.014 A 
BRANCH  39  40
ATOM     40  C   UNL A   1      43.861  24.867  27.328  1.00  0.00     0.031 A 
ATOM     41  C   UNL A   1      43.002  25.995  27.826  1.00  0.00     0.074 A 
ATOM     42  C   UNL A   1      45.163  25.083  27.055  1.00  0.00     0.049 A 
ATOM     43  N   UNL A   1      43.337  27.234  28.082  1.00  0.00    -0.248 NA
ATOM     44  C   UNL A   1      41.578  25.699  28.050  1.00  0.00     0.031 C 
ATOM     45  C   UNL A   1      46.094  24.084  26.526  1.00  0.00     0.029 A 
ATOM     46  N   UNL A   1      45.925  26.216  27.184  1.00  0.00    -0.354 N 
ATOM     47  C   UNL A   1      42.166  27.871  28.479  1.00  0.00     0.074 A 
ATOM     48  C   UNL A   1      41.107  26.887  28.401  1.00  0.00     0.031 C 
ATOM     49  C   UNL A   1      47.307  24.644  26.393  1.00  0.00     0.029 A 
ATOM     50  C   UNL A   1      47.236  26.042  26.808  1.00  0.00     0.049 A 
ATOM     51  H   UNL A   1      45.569  27.072  27.515  1.00  0.00     0.167 HD
ATOM     52  C   UNL A   1      41.989  29.153  28.880  1.00  0.00     0.031 A 
ATOM     53  C   UNL A   1      48.266  26.908  26.801  1.00  0.00     0.031 A 
ATOM     54  C   UNL A   1      43.043  30.130  28.973  1.00  0.00     0.049 A 
ATOM     55  C   UNL A   1      48.056  28.312  27.290  1.00  0.00     0.074 A 
ATOM     56  C   UNL A   1      42.969  31.437  29.422  1.00  0.00     0.029 A 
ATOM     57  N   UNL A   1      44.362  29.904  28.613  1.00  0.00    -0.354 N 
ATOM     58  N   UNL A   1      46.953  28.877  27.717  1.00  0.00    -0.248 NA
ATOM     59  C   UNL A   1      49.235  29.189  27.312  1.00  0.00     0.031 C 
ATOM     60  C   UNL A   1      44.242  32.011  29.308  1.00  0.00     0.029 A 
ATOM     61  C   UNL A   1      45.112  31.050  28.818  1.00  0.00     0.049 A 
ATOM     62  H   UNL A   1      44.715  29.054  28.263  1.00  0.00     0.167 HD
ATOM     63  C   UNL A   1      47.307  30.174  28.071  1.00  0.00     0.074 A 
ATOM     64  C   UNL A   1      48.728  30.304  27.823  1.00  0.00     0.031 C 
ATOM     65  C   UNL A   1      46.523  31.167  28.558  1.00  0.00     0.031 A 
BRANCH  52  66
ATOM     66  C   UNL A   1      40.590  29.573  29.241  1.00  0.00    -0.014 A 
ATOM     67  C   UNL A   1      39.615  29.766  28.247  1.00  0.00     0.010 A 
ATOM     68  C   UNL A   1      40.243  29.763  30.591  1.00  0.00     0.010 A 
ATOM     69  C   UNL A   1      38.327  30.185  28.592  1.00  0.00     0.020 A 
ATOM     70  C   UNL A   1      38.950  30.162  30.942  1.00  0.00     0.020 A 
ATOM     71  C   UNL A   1      38.006  30.391  29.938  1.00  0.00     0.054 A 
BRANCH  71  72
ATOM     72  S   UNL A   1      36.329  30.936  30.367  1.00  0.00     0.124 S 
ATOM     73  O   UNL A   1      35.933  29.935  31.355  1.00  0.00    -0.237 OA
ATOM     74  O   UNL A   1      36.548  32.282  30.892  1.00  0.00    -0.237 OA
ATOM     75  O   UNL A   1      35.613  30.877  29.096  1.00  0.00    -0.744 OA
ENDBRANCH  71  72
ENDBRANCH  52  66
BRANCH  53  76
ATOM     76  C   UNL A   1      49.603  26.452  26.340  1.00  0.00    -0.014 A 
ATOM     77  C   UNL A   1      50.001  26.654  25.008  1.00  0.00     0.010 A 
ATOM     78  C   UNL A   1      50.498  25.851  27.243  1.00  0.00     0.010 A 
ATOM     79  C   UNL A   1      51.271  26.257  24.583  1.00  0.00     0.020 A 
ATOM     80  C   UNL A   1      51.775  25.468  26.826  1.00  0.00     0.020 A 
ATOM     81  C   UNL A   1      52.151  25.668  25.495  1.00  0.00     0.054 A 
BRANCH  81  82
ATOM     82  S   UNL A   1      53.826  25.231  24.950  1.00  0.00     0.124 S 
ATOM     83  O   UNL A   1      54.645  25.747  26.042  1.00  0.00    -0.237 OA
ATOM     84  O   UNL A   1      53.760  23.775  24.841  1.00  0.00    -0.237 OA
ATOM     85  O   UNL A   1      53.961  25.935  23.676  1.00  0.00    -0.744 OA
ENDBRANCH  81  82
ENDBRANCH  53  76
BRANCH  65  86
ATOM     86  C   UNL A   1      47.195  32.476  28.865  1.00  0.00    -0.014 A 
ATOM     87  C   UNL A   1      47.276  33.490  27.895  1.00  0.00     0.010 A 
ATOM     88  C   UNL A   1      47.729  32.703  30.145  1.00  0.00     0.010 A 
ATOM     89  C   UNL A   1      47.914  34.698  28.189  1.00  0.00     0.020 A 
ATOM     90  C   UNL A   1      48.352  33.916  30.449  1.00  0.00     0.020 A 
ATOM     91  C   UNL A   1      48.456  34.899  29.462  1.00  0.00     0.054 A 
BRANCH  91  92
ATOM     92  S   UNL A   1      49.260  36.481  29.837  1.00  0.00     0.124 S 
ATOM     93  O   UNL A   1      49.044  37.230  28.602  1.00  0.00    -0.237 OA
ATOM     94  O   UNL A   1      48.516  36.959  31.000  1.00  0.00    -0.237 OA
ATOM     95  O   UNL A   1      50.646  36.107  30.106  1.00  0.00    -0.744 OA
ENDBRANCH  91  92
ENDBRANCH  65  86
ENDBRANCH  39  40
ENDBRANCH  31  34
ENDBRANCH  29  30
ENDBRANCH  28  29
ENDBRANCH   1  28
TORSDOF 17
ENDMDL
MODEL 3
REMARK VINA RESULT:     -11.8      6.489     11.587
REMARK SMILES CN(C)c1c(Cl)cccc1NS(=O)(=O)c1ccc(F)c(C(=O)NCCCNC(=O)c2ccc(-c3c4nc(c(-c5ccc(S(=O)(=O)[O-])cc5)c5ccc([nH]5)c(-c5ccc(S(=O)(=O)[O-])cc5)c5nc(c(-c6ccc(S(=O)(=O)[O-])cc6)c6ccc3[nH]6)C=C5)C=C4)cc2)c1
REMARK SMILES IDX 24 1 23 2 21 3 22 4 20 6 15 7 16 8 90 9 17 10 18 11 19 12
REMARK SMILES IDX 12 13 13 14 14 15 11 16 10 18 4 19 5 20 6 21 7 22 9 23 8 24
REMARK SMILES IDX 2 25 1 26 3 27 25 28 26 29 27 30 28 31 29 33 30 34 31 35
REMARK SMILES IDX 89 36 32 37 88 38 33 39 34 40 35 41 82 42 36 43 87 44 81 45
REMARK SMILES IDX 83 46 37 47 86 48 80 49 79 50 38 52 68 53 49 54 67 55 50 56
REMARK SMILES IDX 53 57 66 58 84 59 51 60 52 61 65 63 85 64 54 65 39 66 40 67
REMARK SMILES IDX 48 68 41 69 47 70 42 71 43 72 44 73 45 74 46 75 69 76 70 77
REMARK SMILES IDX 78 78 71 79 77 80 72 81 73 82 74 83 75 84 76 85 55 86 56 87
REMARK SMILES IDX 64 88 57 89 63 90 58 91 59 92 60 93 61 94 62 95
REMARK H PARENT 23 5 11 17 27 32 83 51 53 62
REMARK Flexibility Score: inf
ROOT
ATOM      1  C   UNL A   1      33.157  30.501  27.373  1.00  0.00     0.118 C 
ENDROOT
BRANCH   1   2
ATOM      2  N   UNL A   1      32.425  29.279  27.647  1.00  0.00    -0.352 N 
ATOM      3  C   UNL A   1      31.823  28.341  26.854  1.00  0.00     0.254 C 
ATOM      4  O   UNL A   1      31.252  27.422  27.447  1.00  0.00    -0.269 OA
ATOM      5  H   UNL A   1      32.344  29.083  28.608  1.00  0.00     0.163 HD
BRANCH   3   6
ATOM      6  C   UNL A   1      31.859  28.298  25.364  1.00  0.00     0.076 A 
ATOM      7  C   UNL A   1      32.508  26.968  23.413  1.00  0.00     0.088 A 
ATOM      8  C   UNL A   1      32.109  27.989  22.553  1.00  0.00     0.025 A 
ATOM      9  C   UNL A   1      32.431  27.139  24.802  1.00  0.00     0.039 A 
ATOM     10  C   UNL A   1      31.487  29.110  23.095  1.00  0.00     0.041 A 
ATOM     11  C   UNL A   1      31.322  29.233  24.479  1.00  0.00     0.136 A 
ATOM     12  F   UNL A   1      30.549  30.243  24.888  1.00  0.00    -0.206 F 
BRANCH   7  13
ATOM     13  S   UNL A   1      32.825  25.324  22.798  1.00  0.00     0.261 S 
ATOM     14  O   UNL A   1      33.791  25.435  21.730  1.00  0.00    -0.201 OA
ATOM     15  O   UNL A   1      31.530  24.708  22.589  1.00  0.00    -0.201 OA
BRANCH  13  16
ATOM     16  N   UNL A   1      33.543  24.506  24.048  1.00  0.00    -0.277 N 
ATOM     17  H   UNL A   1      33.282  24.795  24.952  1.00  0.00     0.180 HD
BRANCH  16  18
ATOM     18  C   UNL A   1      34.493  23.436  23.983  1.00  0.00     0.074 A 
ATOM     19  C   UNL A   1      33.963  22.140  24.258  1.00  0.00     0.080 A 
ATOM     20  C   UNL A   1      34.890  21.128  24.595  1.00  0.00     0.066 A 
ATOM     21  Cl  UNL A   1      34.446  19.505  24.999  1.00  0.00    -0.082 Cl
ATOM     22  C   UNL A   1      36.269  21.386  24.587  1.00  0.00     0.023 A 
ATOM     23  C   UNL A   1      35.869  23.645  23.864  1.00  0.00     0.029 A 
ATOM     24  C   UNL A   1      36.757  22.624  24.186  1.00  0.00     0.004 A 
BRANCH  19  25
ATOM     25  N   UNL A   1      32.568  21.968  24.099  1.00  0.00    -0.375 N 
ATOM     26  C   UNL A   1      31.690  21.700  25.227  1.00  0.00     0.143 C 
ATOM     27  C   UNL A   1      32.229  21.296  22.836  1.00  0.00     0.143 C 
ENDBRANCH  19  25
ENDBRANCH  16  18
ENDBRANCH  13  16
ENDBRANCH   7  13
ENDBRANCH   3   6
ENDBRANCH   1   2
BRANCH   1  28
ATOM     28  C   UNL A   1      34.594  30.188  26.944  1.00  0.00     0.042 C 
BRANCH  28  29
ATOM     29  C   UNL A   1      35.336  29.298  27.941  1.00  0.00     0.118 C 
BRANCH  29  30
ATOM     30  N   UNL A   1      35.456  29.946  29.238  1.00  0.00    -0.352 N 
ATOM     31  C   UNL A   1      36.539  30.057  30.072  1.00  0.00     0.251 C 
ATOM     32  H   UNL A   1      34.633  30.373  29.569  1.00  0.00     0.163 HD
ATOM     33  O   UNL A   1      36.364  30.455  31.221  1.00  0.00    -0.269 OA
BRANCH  31  34
ATOM     34  C   UNL A   1      37.903  29.699  29.617  1.00  0.00     0.039 A 
ATOM     35  C   UNL A   1      38.812  29.220  30.567  1.00  0.00     0.014 A 
ATOM     36  C   UNL A   1      38.322  29.909  28.299  1.00  0.00     0.014 A 
ATOM     37  C   UNL A   1      40.127  28.928  30.195  1.00  0.00     0.010 A 
ATOM     38  C   UNL A   1      39.625  29.578  27.919  1.00  0.00     0.010 A 
ATOM     39  C   UNL A   1      40.542  29.096  28.865  1.00  0.00    -0.014 A 
BRANCH  39  40
ATOM     40  C   UNL A   1      41.935  28.774  28.466  1.00  0.00     0.031 A 
ATOM     41  C   UNL A   1      42.306  27.383  28.032  1.00  0.00     0.074 A 
ATOM     42  C   UNL A   1      42.878  29.735  28.521  1.00  0.00     0.049 A 
ATOM     43  N   UNL A   1      43.470  26.923  27.649  1.00  0.00    -0.248 NA
ATOM     44  C   UNL A   1      41.237  26.373  28.049  1.00  0.00     0.031 C 
ATOM     45  C   UNL A   1      42.657  31.113  28.965  1.00  0.00     0.029 A 
ATOM     46  N   UNL A   1      44.212  29.695  28.204  1.00  0.00    -0.354 N 
ATOM     47  C   UNL A   1      43.280  25.569  27.396  1.00  0.00     0.074 A 
ATOM     48  C   UNL A   1      41.895  25.277  27.698  1.00  0.00     0.031 C 
ATOM     49  C   UNL A   1      43.812  31.792  28.874  1.00  0.00     0.029 A 
ATOM     50  C   UNL A   1      44.856  30.896  28.386  1.00  0.00     0.049 A 
ATOM     51  H   UNL A   1      44.665  28.885  27.878  1.00  0.00     0.167 HD
ATOM     52  C   UNL A   1      44.173  24.654  26.945  1.00  0.00     0.031 A 
ATOM     53  C   UNL A   1      46.141  31.240  28.179  1.00  0.00     0.031 A 
ATOM     54  C   UNL A   1      45.546  24.945  26.629  1.00  0.00     0.049 A 
ATOM     55  C   UNL A   1      47.102  30.221  27.639  1.00  0.00     0.074 A 
ATOM     56  C   UNL A   1      46.511  24.096  26.113  1.00  0.00     0.029 A 
ATOM     57  N   UNL A   1      46.150  26.181  26.796  1.00  0.00    -0.354 N 
ATOM     58  N   UNL A   1      46.886  28.960  27.350  1.00  0.00    -0.248 NA
ATOM     59  C   UNL A   1      48.474  30.676  27.381  1.00  0.00     0.031 C 
ATOM     60  C   UNL A   1      47.708  24.814  25.995  1.00  0.00     0.029 A 
ATOM     61  C   UNL A   1      47.478  26.117  26.406  1.00  0.00     0.049 A 
ATOM     62  H   UNL A   1      45.703  26.987  27.143  1.00  0.00     0.167 HD
ATOM     63  C   UNL A   1      48.094  28.474  26.863  1.00  0.00     0.074 A 
ATOM     64  C   UNL A   1      49.030  29.580  26.882  1.00  0.00     0.031 C 
ATOM     65  C   UNL A   1      48.399  27.223  26.440  1.00  0.00     0.031 A 
BRANCH  52  66
ATOM     66  C   UNL A   1      43.683  23.242  26.776  1.00  0.00    -0.014 A 
ATOM     67  C   UNL A   1      43.656  22.633  25.509  1.00  0.00     0.010 A 
ATOM     68  C   UNL A   1      43.258  22.510  27.899  1.00  0.00     0.010 A 
ATOM     69  C   UNL A   1      43.171  21.331  25.360  1.00  0.00     0.020 A 
ATOM     70  C   UNL A   1      42.791  21.200  27.758  1.00  0.00     0.020 A 
ATOM     71  C   UNL A   1      42.731  20.626  26.485  1.00  0.00     0.054 A 
BRANCH  71  72
ATOM     72  S   UNL A   1      42.104  18.937  26.273  1.00  0.00     0.124 S 
ATOM     73  O   UNL A   1      42.214  18.404  27.629  1.00  0.00    -0.237 OA
ATOM     74  O   UNL A   1      40.740  19.153  25.793  1.00  0.00    -0.237 OA
ATOM     75  O   UNL A   1      43.017  18.352  25.295  1.00  0.00    -0.744 OA
ENDBRANCH  71  72
ENDBRANCH  52  66
BRANCH  53  76
ATOM     76  C   UNL A   1      46.581  32.631  28.459  1.00  0.00    -0.014 A 
ATOM     77  C   UNL A   1      47.051  32.983  29.734  1.00  0.00     0.010 A 
ATOM     78  C   UNL A   1      46.567  33.598  27.437  1.00  0.00     0.010 A 
ATOM     79  C   UNL A   1      47.498  34.283  29.988  1.00  0.00     0.020 A 
ATOM     80  C   UNL A   1      47.029  34.894  27.683  1.00  0.00     0.020 A 
ATOM     81  C   UNL A   1      47.486  35.230  28.960  1.00  0.00     0.054 A 
BRANCH  81  82
ATOM     82  S   UNL A   1      48.144  36.890  29.280  1.00  0.00     0.124 S 
ATOM     83  O   UNL A   1      48.324  37.412  27.930  1.00  0.00    -0.237 OA
ATOM     84  O   UNL A   1      47.078  37.513  30.063  1.00  0.00    -0.237 OA
ATOM     85  O   UNL A   1      49.376  36.628  30.023  1.00  0.00    -0.744 OA
ENDBRANCH  81  82
ENDBRANCH  53  76
BRANCH  65  86
ATOM     86  C   UNL A   1      49.801  26.993  25.950  1.00  0.00    -0.014 A 
ATOM     87  C   UNL A   1      50.811  26.564  26.828  1.00  0.00     0.010 A 
ATOM     88  C   UNL A   1      50.106  27.185  24.590  1.00  0.00     0.010 A 
ATOM     89  C   UNL A   1      52.113  26.365  26.363  1.00  0.00     0.020 A 
ATOM     90  C   UNL A   1      51.403  26.970  24.118  1.00  0.00     0.020 A 
ATOM     91  C   UNL A   1      52.403  26.578  25.012  1.00  0.00     0.054 A 
BRANCH  91  92
ATOM     92  S   UNL A   1      54.093  26.294  24.416  1.00  0.00     0.124 S 
ATOM     93  O   UNL A   1      54.344  24.926  24.864  1.00  0.00    -0.237 OA
ATOM     94  O   UNL A   1      53.965  26.468  22.972  1.00  0.00    -0.237 OA
ATOM     95  O   UNL A   1      54.874  27.326  25.093  1.00  0.00    -0.744 OA
ENDBRANCH  91  92
ENDBRANCH  65  86
ENDBRANCH  39  40
ENDBRANCH  31  34
ENDBRANCH  29  30
ENDBRANCH  28  29
ENDBRANCH   1  28
TORSDOF 17
ENDMDL
