MODEL 1
REMARK VINA RESULT:     -11.1      0.000      0.000
REMARK SMILES C[C@H](Oc1ccc(C(=O)NCc2ccccc2)cc1)C(=O)NCCCNC(=O)c1ccc(-c2c3nc(c(-c4ccc(S(=O)(=O)[O-])cc4)c4ccc([nH]4)c(-c4ccc(S(=O)(=O)[O-])cc4)c4nc(c(-c5ccc(S(=O)(=O)[O-])cc5)c5ccc2[nH]5)C=C4)C=C3)cc1
REMARK SMILES IDX 23 1 22 2 20 3 21 4 2 6 1 7 3 8 4 9 5 10 19 11 6 12 18 13
REMARK SMILES IDX 7 14 8 15 9 16 10 17 11 19 12 20 13 21 17 22 14 23 16 24
REMARK SMILES IDX 15 25 24 26 25 27 26 28 27 29 28 31 29 32 30 33 88 34 31 35
REMARK SMILES IDX 87 36 32 37 33 38 34 39 81 40 35 41 86 42 80 43 82 44 36 45
REMARK SMILES IDX 85 46 79 47 78 48 37 50 67 51 48 52 66 53 49 54 52 55 65 56
REMARK SMILES IDX 83 57 50 58 51 59 64 61 84 62 53 63 38 64 39 65 47 66 40 67
REMARK SMILES IDX 46 68 41 69 42 70 43 71 44 72 45 73 68 74 69 75 77 76 70 77
REMARK SMILES IDX 76 78 71 79 72 80 73 81 74 82 75 83 54 84 55 85 63 86 56 87
REMARK SMILES IDX 62 88 57 89 58 90 59 91 60 92 61 93
REMARK H PARENT 22 5 10 18 26 30 82 49 52 60
REMARK Flexibility Score: inf
ROOT
ATOM      1  C   UNL A   1      32.855  28.708  24.561  1.00  0.00     0.118 C 
ENDROOT
BRANCH   1   2
ATOM      2  N   UNL A   1      31.706  28.519  23.687  1.00  0.00    -0.353 N 
ATOM      3  C   UNL A   1      31.386  27.447  22.893  1.00  0.00     0.260 C 
ATOM      4  O   UNL A   1      30.326  27.486  22.262  1.00  0.00    -0.271 OA
ATOM      5  H   UNL A   1      31.068  29.268  23.662  1.00  0.00     0.163 HD
BRANCH   3   6
ATOM      6  C   UNL A   1      32.297  26.211  22.848  1.00  0.00     0.258 C 
ATOM      7  C   UNL A   1      33.341  26.432  21.748  1.00  0.00     0.064 C 
BRANCH   6   8
ATOM      8  O   UNL A   1      31.402  25.111  22.677  1.00  0.00    -0.481 OA
BRANCH   8   9
ATOM      9  C   UNL A   1      31.547  23.953  23.368  1.00  0.00     0.120 A 
ATOM     10  C   UNL A   1      30.951  23.627  24.575  1.00  0.00     0.047 A 
ATOM     11  C   UNL A   1      32.420  23.041  22.767  1.00  0.00     0.047 A 
ATOM     12  C   UNL A   1      31.285  22.423  25.209  1.00  0.00     0.017 A 
ATOM     13  C   UNL A   1      32.759  21.841  23.399  1.00  0.00     0.017 A 
ATOM     14  C   UNL A   1      32.189  21.514  24.629  1.00  0.00     0.040 A 
BRANCH  14  15
ATOM     15  C   UNL A   1      32.533  20.307  25.429  1.00  0.00     0.251 C 
ATOM     16  O   UNL A   1      32.109  19.213  25.053  1.00  0.00    -0.269 OA
ATOM     17  N   UNL A   1      33.305  20.328  26.557  1.00  0.00    -0.348 N 
ATOM     18  H   UNL A   1      33.415  19.443  26.972  1.00  0.00     0.164 HD
BRANCH  17  19
ATOM     19  C   UNL A   1      33.998  21.386  27.266  1.00  0.00     0.152 C 
BRANCH  19  20
ATOM     20  C   UNL A   1      34.907  22.209  26.379  1.00  0.00    -0.029 A 
ATOM     21  C   UNL A   1      34.719  23.583  26.157  1.00  0.00     0.005 A 
ATOM     22  C   UNL A   1      35.992  21.577  25.751  1.00  0.00     0.005 A 
ATOM     23  C   UNL A   1      35.596  24.305  25.343  1.00  0.00     0.000 A 
ATOM     24  C   UNL A   1      36.869  22.300  24.938  1.00  0.00     0.000 A 
ATOM     25  C   UNL A   1      36.671  23.664  24.736  1.00  0.00     0.000 A 
ENDBRANCH  19  20
ENDBRANCH  17  19
ENDBRANCH  14  15
ENDBRANCH   8   9
ENDBRANCH   6   8
ENDBRANCH   3   6
ENDBRANCH   1   2
BRANCH   1  26
ATOM     26  C   UNL A   1      32.787  27.868  25.828  1.00  0.00     0.042 C 
BRANCH  26  27
ATOM     27  C   UNL A   1      33.816  28.248  26.883  1.00  0.00     0.118 C 
BRANCH  27  28
ATOM     28  N   UNL A   1      33.635  29.600  27.390  1.00  0.00    -0.352 N 
ATOM     29  C   UNL A   1      34.478  30.407  28.114  1.00  0.00     0.251 C 
ATOM     30  H   UNL A   1      32.762  30.005  27.178  1.00  0.00     0.163 HD
ATOM     31  O   UNL A   1      34.043  31.458  28.577  1.00  0.00    -0.269 OA
BRANCH  29  32
ATOM     32  C   UNL A   1      35.885  30.016  28.357  1.00  0.00     0.039 A 
ATOM     33  C   UNL A   1      36.790  30.086  27.294  1.00  0.00     0.014 A 
ATOM     34  C   UNL A   1      36.316  29.554  29.603  1.00  0.00     0.014 A 
ATOM     35  C   UNL A   1      38.130  29.748  27.499  1.00  0.00     0.010 A 
ATOM     36  C   UNL A   1      37.669  29.313  29.830  1.00  0.00     0.010 A 
ATOM     37  C   UNL A   1      38.590  29.394  28.779  1.00  0.00    -0.014 A 
BRANCH  37  38
ATOM     38  C   UNL A   1      40.030  29.108  29.015  1.00  0.00     0.031 A 
ATOM     39  C   UNL A   1      40.617  27.767  28.659  1.00  0.00     0.074 A 
ATOM     40  C   UNL A   1      40.807  30.054  29.579  1.00  0.00     0.049 A 
ATOM     41  N   UNL A   1      41.856  27.358  28.763  1.00  0.00    -0.248 NA
ATOM     42  C   UNL A   1      39.692  26.742  28.145  1.00  0.00     0.031 C 
ATOM     43  C   UNL A   1      40.347  31.372  30.027  1.00  0.00     0.029 A 
ATOM     44  N   UNL A   1      42.149  30.060  29.863  1.00  0.00    -0.354 N 
ATOM     45  C   UNL A   1      41.856  26.034  28.337  1.00  0.00     0.074 A 
ATOM     46  C   UNL A   1      40.486  25.689  28.033  1.00  0.00     0.031 C 
ATOM     47  C   UNL A   1      41.396  32.074  30.482  1.00  0.00     0.029 A 
ATOM     48  C   UNL A   1      42.595  31.247  30.396  1.00  0.00     0.049 A 
ATOM     49  H   UNL A   1      42.737  29.288  29.702  1.00  0.00     0.167 HD
ATOM     50  C   UNL A   1      42.905  25.188  28.188  1.00  0.00     0.031 A 
ATOM     51  C   UNL A   1      43.832  31.633  30.765  1.00  0.00     0.031 A 
ATOM     52  C   UNL A   1      44.270  25.536  28.485  1.00  0.00     0.049 A 
ATOM     53  C   UNL A   1      44.981  30.682  30.577  1.00  0.00     0.074 A 
ATOM     54  C   UNL A   1      45.411  24.770  28.314  1.00  0.00     0.029 A 
ATOM     55  N   UNL A   1      44.681  26.750  29.017  1.00  0.00    -0.354 N 
ATOM     56  N   UNL A   1      44.970  29.460  30.100  1.00  0.00    -0.248 NA
ATOM     57  C   UNL A   1      46.312  31.172  30.959  1.00  0.00     0.031 C 
ATOM     58  C   UNL A   1      46.504  25.500  28.794  1.00  0.00     0.029 A 
ATOM     59  C   UNL A   1      46.053  26.746  29.202  1.00  0.00     0.049 A 
ATOM     60  H   UNL A   1      44.084  27.503  29.230  1.00  0.00     0.167 HD
ATOM     61  C   UNL A   1      46.298  29.045  30.099  1.00  0.00     0.074 A 
ATOM     62  C   UNL A   1      47.082  30.155  30.601  1.00  0.00     0.031 C 
ATOM     63  C   UNL A   1      46.820  27.853  29.716  1.00  0.00     0.031 A 
BRANCH  50  64
ATOM     64  C   UNL A   1      42.613  23.799  27.679  1.00  0.00    -0.014 A 
ATOM     65  C   UNL A   1      42.703  23.491  26.308  1.00  0.00     0.010 A 
ATOM     66  C   UNL A   1      42.285  22.774  28.586  1.00  0.00     0.010 A 
ATOM     67  C   UNL A   1      42.429  22.200  25.850  1.00  0.00     0.020 A 
ATOM     68  C   UNL A   1      42.040  21.473  28.136  1.00  0.00     0.020 A 
ATOM     69  C   UNL A   1      42.097  21.199  26.767  1.00  0.00     0.054 A 
BRANCH  69  70
ATOM     70  S   UNL A   1      41.772  19.525  26.148  1.00  0.00     0.124 S 
ATOM     71  O   UNL A   1      42.646  19.463  24.979  1.00  0.00    -0.237 OA
ATOM     72  O   UNL A   1      42.170  18.684  27.274  1.00  0.00    -0.237 OA
ATOM     73  O   UNL A   1      40.342  19.535  25.855  1.00  0.00    -0.744 OA
ENDBRANCH  69  70
ENDBRANCH  50  64
BRANCH  51  74
ATOM     74  C   UNL A   1      44.048  32.997  31.322  1.00  0.00    -0.014 A 
ATOM     75  C   UNL A   1      44.335  34.082  30.473  1.00  0.00     0.010 A 
ATOM     76  C   UNL A   1      43.958  33.221  32.708  1.00  0.00     0.010 A 
ATOM     77  C   UNL A   1      44.547  35.359  31.001  1.00  0.00     0.020 A 
ATOM     78  C   UNL A   1      44.137  34.502  33.236  1.00  0.00     0.020 A 
ATOM     79  C   UNL A   1      44.444  35.561  32.380  1.00  0.00     0.054 A 
BRANCH  79  80
ATOM     80  S   UNL A   1      44.668  37.236  33.041  1.00  0.00     0.124 S 
ATOM     81  O   UNL A   1      43.890  38.039  32.103  1.00  0.00    -0.237 OA
ATOM     82  O   UNL A   1      44.114  37.120  34.388  1.00  0.00    -0.237 OA
ATOM     83  O   UNL A   1      46.115  37.433  32.987  1.00  0.00    -0.744 OA
ENDBRANCH  79  80
ENDBRANCH  51  74
BRANCH  63  84
ATOM     84  C   UNL A   1      48.318  27.702  29.797  1.00  0.00    -0.014 A 
ATOM     85  C   UNL A   1      49.155  28.124  28.749  1.00  0.00     0.010 A 
ATOM     86  C   UNL A   1      48.895  27.136  30.948  1.00  0.00     0.010 A 
ATOM     87  C   UNL A   1      50.537  27.929  28.826  1.00  0.00     0.020 A 
ATOM     88  C   UNL A   1      50.279  26.971  31.044  1.00  0.00     0.020 A 
ATOM     89  C   UNL A   1      51.089  27.347  29.971  1.00  0.00     0.054 A 
BRANCH  89  90
ATOM     90  S   UNL A   1      52.884  27.102  30.048  1.00  0.00     0.124 S 
ATOM     91  O   UNL A   1      53.033  26.338  31.285  1.00  0.00    -0.237 OA
ATOM     92  O   UNL A   1      53.161  26.366  28.818  1.00  0.00    -0.237 OA
ATOM     93  O   UNL A   1      53.417  28.461  30.088  1.00  0.00    -0.744 OA
ENDBRANCH  89  90
ENDBRANCH  63  84
ENDBRANCH  37  38
ENDBRANCH  29  32
ENDBRANCH  27  28
ENDBRANCH  26  27
ENDBRANCH   1  26
TORSDOF 18
ENDMDL
MODEL 2
REMARK VINA RESULT:     -10.8      2.556      8.125
REMARK SMILES C[C@H](Oc1ccc(C(=O)NCc2ccccc2)cc1)C(=O)NCCCNC(=O)c1ccc(-c2c3nc(c(-c4ccc(S(=O)(=O)[O-])cc4)c4ccc([nH]4)c(-c4ccc(S(=O)(=O)[O-])cc4)c4nc(c(-c5ccc(S(=O)(=O)[O-])cc5)c5ccc2[nH]5)C=C4)C=C3)cc1
REMARK SMILES IDX 23 1 22 2 20 3 21 4 2 6 1 7 3 8 4 9 5 10 19 11 6 12 18 13
REMARK SMILES IDX 7 14 8 15 9 16 10 17 11 19 12 20 13 21 17 22 14 23 16 24
REMARK SMILES IDX 15 25 24 26 25 27 26 28 27 29 28 31 29 32 30 33 88 34 31 35
REMARK SMILES IDX 87 36 32 37 33 38 34 39 81 40 35 41 86 42 80 43 82 44 36 45
REMARK SMILES IDX 85 46 79 47 78 48 37 50 67 51 48 52 66 53 49 54 52 55 65 56
REMARK SMILES IDX 83 57 50 58 51 59 64 61 84 62 53 63 38 64 39 65 47 66 40 67
REMARK SMILES IDX 46 68 41 69 42 70 43 71 44 72 45 73 68 74 69 75 77 76 70 77
REMARK SMILES IDX 76 78 71 79 72 80 73 81 74 82 75 83 54 84 55 85 63 86 56 87
REMARK SMILES IDX 62 88 57 89 58 90 59 91 60 92 61 93
REMARK H PARENT 22 5 10 18 26 30 82 49 52 60
REMARK Flexibility Score: inf
ROOT
ATOM      1  C   UNL A   1      34.652  22.168  24.797  1.00  0.00     0.118 C 
ENDROOT
BRANCH   1   2
ATOM      2  N   UNL A   1      33.707  21.672  23.807  1.00  0.00    -0.353 N 
ATOM      3  C   UNL A   1      32.401  22.032  23.596  1.00  0.00     0.260 C 
ATOM      4  O   UNL A   1      31.796  21.505  22.658  1.00  0.00    -0.271 OA
ATOM      5  H   UNL A   1      34.056  20.978  23.202  1.00  0.00     0.163 HD
BRANCH   3   6
ATOM      6  C   UNL A   1      31.739  23.110  24.467  1.00  0.00     0.258 C 
ATOM      7  C   UNL A   1      31.359  22.469  25.806  1.00  0.00     0.064 C 
BRANCH   6   8
ATOM      8  O   UNL A   1      30.670  23.614  23.666  1.00  0.00    -0.481 OA
BRANCH   8   9
ATOM      9  C   UNL A   1      30.601  24.917  23.296  1.00  0.00     0.120 A 
ATOM     10  C   UNL A   1      31.488  25.594  22.474  1.00  0.00     0.047 A 
ATOM     11  C   UNL A   1      29.520  25.607  23.852  1.00  0.00     0.047 A 
ATOM     12  C   UNL A   1      31.329  26.970  22.270  1.00  0.00     0.017 A 
ATOM     13  C   UNL A   1      29.361  26.982  23.653  1.00  0.00     0.017 A 
ATOM     14  C   UNL A   1      30.263  27.680  22.852  1.00  0.00     0.040 A 
BRANCH  14  15
ATOM     15  C   UNL A   1      30.241  29.153  22.634  1.00  0.00     0.251 C 
ATOM     16  O   UNL A   1      29.862  29.579  21.541  1.00  0.00    -0.269 OA
ATOM     17  N   UNL A   1      30.603  30.075  23.577  1.00  0.00    -0.348 N 
ATOM     18  H   UNL A   1      30.547  31.003  23.257  1.00  0.00     0.164 HD
BRANCH  17  19
ATOM     19  C   UNL A   1      31.050  29.965  24.951  1.00  0.00     0.152 C 
BRANCH  19  20
ATOM     20  C   UNL A   1      32.011  28.819  25.181  1.00  0.00    -0.029 A 
ATOM     21  C   UNL A   1      31.724  27.739  26.032  1.00  0.00     0.005 A 
ATOM     22  C   UNL A   1      33.246  28.828  24.513  1.00  0.00     0.005 A 
ATOM     23  C   UNL A   1      32.636  26.694  26.198  1.00  0.00     0.000 A 
ATOM     24  C   UNL A   1      34.158  27.783  24.681  1.00  0.00     0.000 A 
ATOM     25  C   UNL A   1      33.852  26.715  25.522  1.00  0.00     0.000 A 
ENDBRANCH  19  20
ENDBRANCH  17  19
ENDBRANCH  14  15
ENDBRANCH   8   9
ENDBRANCH   6   8
ENDBRANCH   3   6
ENDBRANCH   1   2
BRANCH   1  26
ATOM     26  C   UNL A   1      35.479  23.343  24.297  1.00  0.00     0.042 C 
BRANCH  26  27
ATOM     27  C   UNL A   1      36.548  23.812  25.275  1.00  0.00     0.118 C 
BRANCH  27  28
ATOM     28  N   UNL A   1      37.581  22.814  25.508  1.00  0.00    -0.352 N 
ATOM     29  C   UNL A   1      38.821  22.925  26.086  1.00  0.00     0.251 C 
ATOM     30  H   UNL A   1      37.352  21.907  25.199  1.00  0.00     0.163 HD
ATOM     31  O   UNL A   1      39.594  21.972  26.024  1.00  0.00    -0.269 OA
BRANCH  29  32
ATOM     32  C   UNL A   1      39.240  24.176  26.759  1.00  0.00     0.039 A 
ATOM     33  C   UNL A   1      38.857  24.378  28.087  1.00  0.00     0.014 A 
ATOM     34  C   UNL A   1      39.973  25.160  26.092  1.00  0.00     0.014 A 
ATOM     35  C   UNL A   1      39.258  25.537  28.757  1.00  0.00     0.010 A 
ATOM     36  C   UNL A   1      40.454  26.266  26.789  1.00  0.00     0.010 A 
ATOM     37  C   UNL A   1      40.092  26.475  28.125  1.00  0.00    -0.014 A 
BRANCH  37  38
ATOM     38  C   UNL A   1      40.583  27.671  28.860  1.00  0.00     0.031 A 
ATOM     39  C   UNL A   1      41.976  27.705  29.432  1.00  0.00     0.074 A 
ATOM     40  C   UNL A   1      39.757  28.722  29.037  1.00  0.00     0.049 A 
ATOM     41  N   UNL A   1      42.580  28.676  30.068  1.00  0.00    -0.248 NA
ATOM     42  C   UNL A   1      42.790  26.485  29.295  1.00  0.00     0.031 C 
ATOM     43  C   UNL A   1      38.363  28.790  28.587  1.00  0.00     0.029 A 
ATOM     44  N   UNL A   1      39.970  29.939  29.632  1.00  0.00    -0.354 N 
ATOM     45  C   UNL A   1      43.834  28.183  30.414  1.00  0.00     0.074 A 
ATOM     46  C   UNL A   1      43.881  26.808  29.971  1.00  0.00     0.031 C 
ATOM     47  C   UNL A   1      37.864  30.001  28.878  1.00  0.00     0.029 A 
ATOM     48  C   UNL A   1      38.885  30.783  29.568  1.00  0.00     0.049 A 
ATOM     49  H   UNL A   1      40.818  30.186  30.065  1.00  0.00     0.167 HD
ATOM     50  C   UNL A   1      44.863  28.823  31.020  1.00  0.00     0.031 A 
ATOM     51  C   UNL A   1      38.730  32.048  30.004  1.00  0.00     0.031 A 
ATOM     52  C   UNL A   1      44.815  30.195  31.455  1.00  0.00     0.049 A 
ATOM     53  C   UNL A   1      39.890  32.741  30.663  1.00  0.00     0.074 A 
ATOM     54  C   UNL A   1      45.822  30.952  32.028  1.00  0.00     0.029 A 
ATOM     55  N   UNL A   1      43.701  31.016  31.366  1.00  0.00    -0.354 N 
ATOM     56  N   UNL A   1      41.093  32.280  30.911  1.00  0.00    -0.248 NA
ATOM     57  C   UNL A   1      39.676  34.132  31.082  1.00  0.00     0.031 C 
ATOM     58  C   UNL A   1      45.300  32.213  32.336  1.00  0.00     0.029 A 
ATOM     59  C   UNL A   1      43.988  32.263  31.894  1.00  0.00     0.049 A 
ATOM     60  H   UNL A   1      42.834  30.751  30.983  1.00  0.00     0.167 HD
ATOM     61  C   UNL A   1      41.789  33.336  31.490  1.00  0.00     0.074 A 
ATOM     62  C   UNL A   1      40.878  34.461  31.533  1.00  0.00     0.031 C 
ATOM     63  C   UNL A   1      43.067  33.371  31.944  1.00  0.00     0.031 A 
BRANCH  50  64
ATOM     64  C   UNL A   1      46.131  28.041  31.252  1.00  0.00    -0.014 A 
ATOM     65  C   UNL A   1      47.146  27.994  30.278  1.00  0.00     0.010 A 
ATOM     66  C   UNL A   1      46.332  27.377  32.477  1.00  0.00     0.010 A 
ATOM     67  C   UNL A   1      48.316  27.264  30.505  1.00  0.00     0.020 A 
ATOM     68  C   UNL A   1      47.514  26.671  32.720  1.00  0.00     0.020 A 
ATOM     69  C   UNL A   1      48.492  26.605  31.725  1.00  0.00     0.054 A 
BRANCH  69  70
ATOM     70  S   UNL A   1      50.031  25.687  32.003  1.00  0.00     0.124 S 
ATOM     71  O   UNL A   1      50.944  26.751  32.415  1.00  0.00    -0.237 OA
ATOM     72  O   UNL A   1      49.655  24.742  33.053  1.00  0.00    -0.237 OA
ATOM     73  O   UNL A   1      50.319  25.089  30.703  1.00  0.00    -0.744 OA
ENDBRANCH  69  70
ENDBRANCH  50  64
BRANCH  51  74
ATOM     74  C   UNL A   1      37.431  32.748  29.804  1.00  0.00    -0.014 A 
ATOM     75  C   UNL A   1      37.133  33.371  28.579  1.00  0.00     0.010 A 
ATOM     76  C   UNL A   1      36.478  32.786  30.838  1.00  0.00     0.010 A 
ATOM     77  C   UNL A   1      35.916  34.036  28.398  1.00  0.00     0.020 A 
ATOM     78  C   UNL A   1      35.248  33.422  30.651  1.00  0.00     0.020 A 
ATOM     79  C   UNL A   1      34.980  34.054  29.435  1.00  0.00     0.054 A 
BRANCH  79  80
ATOM     80  S   UNL A   1      33.385  34.875  29.163  1.00  0.00     0.124 S 
ATOM     81  O   UNL A   1      32.803  34.858  30.502  1.00  0.00    -0.237 OA
ATOM     82  O   UNL A   1      33.787  36.187  28.663  1.00  0.00    -0.237 OA
ATOM     83  O   UNL A   1      32.724  34.019  28.180  1.00  0.00    -0.744 OA
ENDBRANCH  79  80
ENDBRANCH  51  74
BRANCH  63  84
ATOM     84  C   UNL A   1      43.562  34.682  32.499  1.00  0.00    -0.014 A 
ATOM     85  C   UNL A   1      43.493  34.969  33.874  1.00  0.00     0.010 A 
ATOM     86  C   UNL A   1      44.116  35.638  31.627  1.00  0.00     0.010 A 
ATOM     87  C   UNL A   1      43.914  36.212  34.358  1.00  0.00     0.020 A 
ATOM     88  C   UNL A   1      44.569  36.866  32.112  1.00  0.00     0.020 A 
ATOM     89  C   UNL A   1      44.443  37.155  33.472  1.00  0.00     0.054 A 
BRANCH  89  90
ATOM     90  S   UNL A   1      44.980  38.759  34.123  1.00  0.00     0.124 S 
ATOM     91  O   UNL A   1      43.892  39.095  35.038  1.00  0.00    -0.237 OA
ATOM     92  O   UNL A   1      46.257  38.438  34.755  1.00  0.00    -0.237 OA
ATOM     93  O   UNL A   1      45.075  39.602  32.933  1.00  0.00    -0.744 OA
ENDBRANCH  89  90
ENDBRANCH  63  84
ENDBRANCH  37  38
ENDBRANCH  29  32
ENDBRANCH  27  28
ENDBRANCH  26  27
ENDBRANCH   1  26
TORSDOF 18
ENDMDL
MODEL 3
REMARK VINA RESULT:     -10.6      2.631      8.779
REMARK SMILES C[C@H](Oc1ccc(C(=O)NCc2ccccc2)cc1)C(=O)NCCCNC(=O)c1ccc(-c2c3nc(c(-c4ccc(S(=O)(=O)[O-])cc4)c4ccc([nH]4)c(-c4ccc(S(=O)(=O)[O-])cc4)c4nc(c(-c5ccc(S(=O)(=O)[O-])cc5)c5ccc2[nH]5)C=C4)C=C3)cc1
REMARK SMILES IDX 23 1 22 2 20 3 21 4 2 6 1 7 3 8 4 9 5 10 19 11 6 12 18 13
REMARK SMILES IDX 7 14 8 15 9 16 10 17 11 19 12 20 13 21 17 22 14 23 16 24
REMARK SMILES IDX 15 25 24 26 25 27 26 28 27 29 28 31 29 32 30 33 88 34 31 35
REMARK SMILES IDX 87 36 32 37 33 38 34 39 81 40 35 41 86 42 80 43 82 44 36 45
REMARK SMILES IDX 85 46 79 47 78 48 37 50 67 51 48 52 66 53 49 54 52 55 65 56
REMARK SMILES IDX 83 57 50 58 51 59 64 61 84 62 53 63 38 64 39 65 47 66 40 67
REMARK SMILES IDX 46 68 41 69 42 70 43 71 44 72 45 73 68 74 69 75 77 76 70 77
REMARK SMILES IDX 76 78 71 79 72 80 73 81 74 82 75 83 54 84 55 85 63 86 56 87
REMARK SMILES IDX 62 88 57 89 58 90 59 91 60 92 61 93
REMARK H PARENT 22 5 10 18 26 30 82 49 52 60
REMARK Flexibility Score: inf
ROOT
ATOM      1  C   UNL A   1      34.499  29.993  27.319  1.00  0.00     0.118 C 
ENDROOT
BRANCH   1   2
ATOM      2  N   UNL A   1      33.416  29.184  27.861  1.00  0.00    -0.353 N 
ATOM      3  C   UNL A   1      32.243  28.793  27.267  1.00  0.00     0.260 C 
ATOM      4  O   UNL A   1      31.482  28.062  27.907  1.00  0.00    -0.271 OA
ATOM      5  H   UNL A   1      33.543  28.874  28.786  1.00  0.00     0.163 HD
BRANCH   3   6
ATOM      6  C   UNL A   1      31.926  29.205  25.821  1.00  0.00     0.258 C 
ATOM      7  C   UNL A   1      31.367  30.631  25.846  1.00  0.00     0.064 C 
BRANCH   6   8
ATOM      8  O   UNL A   1      31.059  28.179  25.336  1.00  0.00    -0.481 OA
BRANCH   8   9
ATOM      9  C   UNL A   1      31.373  27.423  24.255  1.00  0.00     0.120 A 
ATOM     10  C   UNL A   1      30.562  26.486  23.634  1.00  0.00     0.047 A 
ATOM     11  C   UNL A   1      32.669  27.631  23.776  1.00  0.00     0.047 A 
ATOM     12  C   UNL A   1      31.076  25.715  22.585  1.00  0.00     0.017 A 
ATOM     13  C   UNL A   1      33.186  26.859  22.731  1.00  0.00     0.017 A 
ATOM     14  C   UNL A   1      32.391  25.892  22.118  1.00  0.00     0.040 A 
BRANCH  14  15
ATOM     15  C   UNL A   1      32.856  24.960  21.055  1.00  0.00     0.251 C 
ATOM     16  O   UNL A   1      33.038  25.408  19.920  1.00  0.00    -0.269 OA
ATOM     17  N   UNL A   1      33.112  23.632  21.255  1.00  0.00    -0.348 N 
ATOM     18  H   UNL A   1      33.392  23.161  20.438  1.00  0.00     0.164 HD
BRANCH  17  19
ATOM     19  C   UNL A   1      33.056  22.777  22.424  1.00  0.00     0.152 C 
BRANCH  19  20
ATOM     20  C   UNL A   1      33.990  23.211  23.532  1.00  0.00    -0.029 A 
ATOM     21  C   UNL A   1      35.385  23.254  23.384  1.00  0.00     0.005 A 
ATOM     22  C   UNL A   1      33.441  23.595  24.767  1.00  0.00     0.005 A 
ATOM     23  C   UNL A   1      36.206  23.680  24.431  1.00  0.00     0.000 A 
ATOM     24  C   UNL A   1      34.262  24.020  25.814  1.00  0.00     0.000 A 
ATOM     25  C   UNL A   1      35.644  24.065  25.645  1.00  0.00     0.000 A 
ENDBRANCH  19  20
ENDBRANCH  17  19
ENDBRANCH  14  15
ENDBRANCH   8   9
ENDBRANCH   6   8
ENDBRANCH   3   6
ENDBRANCH   1   2
BRANCH   1  26
ATOM     26  C   UNL A   1      34.619  31.355  27.986  1.00  0.00     0.042 C 
BRANCH  26  27
ATOM     27  C   UNL A   1      35.902  31.546  28.782  1.00  0.00     0.118 C 
BRANCH  27  28
ATOM     28  N   UNL A   1      35.775  31.128  30.171  1.00  0.00    -0.352 N 
ATOM     29  C   UNL A   1      36.585  30.335  30.946  1.00  0.00     0.251 C 
ATOM     30  H   UNL A   1      34.976  31.472  30.631  1.00  0.00     0.163 HD
ATOM     31  O   UNL A   1      36.187  29.982  32.053  1.00  0.00    -0.269 OA
BRANCH  29  32
ATOM     32  C   UNL A   1      37.910  29.890  30.458  1.00  0.00     0.039 A 
ATOM     33  C   UNL A   1      38.152  29.903  29.082  1.00  0.00     0.014 A 
ATOM     34  C   UNL A   1      38.900  29.432  31.331  1.00  0.00     0.014 A 
ATOM     35  C   UNL A   1      39.402  29.512  28.593  1.00  0.00     0.010 A 
ATOM     36  C   UNL A   1      40.174  29.138  30.851  1.00  0.00     0.010 A 
ATOM     37  C   UNL A   1      40.437  29.162  29.476  1.00  0.00    -0.014 A 
BRANCH  37  38
ATOM     38  C   UNL A   1      41.789  28.820  28.961  1.00  0.00     0.031 A 
ATOM     39  C   UNL A   1      42.879  29.858  28.912  1.00  0.00     0.074 A 
ATOM     40  C   UNL A   1      42.028  27.571  28.510  1.00  0.00     0.049 A 
ATOM     41  N   UNL A   1      44.124  29.726  28.529  1.00  0.00    -0.248 NA
ATOM     42  C   UNL A   1      42.524  31.227  29.321  1.00  0.00     0.031 C 
ATOM     43  C   UNL A   1      41.040  26.491  28.445  1.00  0.00     0.029 A 
ATOM     44  N   UNL A   1      43.177  26.997  28.030  1.00  0.00    -0.354 N 
ATOM     45  C   UNL A   1      44.693  30.991  28.642  1.00  0.00     0.074 A 
ATOM     46  C   UNL A   1      43.643  31.888  29.069  1.00  0.00     0.031 C 
ATOM     47  C   UNL A   1      41.636  25.374  28.002  1.00  0.00     0.029 A 
ATOM     48  C   UNL A   1      43.037  25.665  27.714  1.00  0.00     0.049 A 
ATOM     49  H   UNL A   1      44.021  27.490  27.921  1.00  0.00     0.167 HD
ATOM     50  C   UNL A   1      45.978  31.367  28.434  1.00  0.00     0.031 A 
ATOM     51  C   UNL A   1      43.936  24.773  27.254  1.00  0.00     0.031 A 
ATOM     52  C   UNL A   1      47.023  30.470  28.014  1.00  0.00     0.049 A 
ATOM     53  C   UNL A   1      45.359  25.212  27.044  1.00  0.00     0.074 A 
ATOM     54  C   UNL A   1      48.368  30.742  27.830  1.00  0.00     0.029 A 
ATOM     55  N   UNL A   1      46.842  29.129  27.710  1.00  0.00    -0.354 N 
ATOM     56  N   UNL A   1      45.893  26.396  27.230  1.00  0.00    -0.248 NA
ATOM     57  C   UNL A   1      46.304  24.188  26.579  1.00  0.00     0.031 C 
ATOM     58  C   UNL A   1      48.989  29.578  27.363  1.00  0.00     0.029 A 
ATOM     59  C   UNL A   1      48.045  28.566  27.319  1.00  0.00     0.049 A 
ATOM     60  H   UNL A   1      45.985  28.649  27.766  1.00  0.00     0.167 HD
ATOM     61  C   UNL A   1      47.244  26.250  26.933  1.00  0.00     0.074 A 
ATOM     62  C   UNL A   1      47.445  24.861  26.577  1.00  0.00     0.031 C 
ATOM     63  C   UNL A   1      48.229  27.183  26.954  1.00  0.00     0.031 A 
BRANCH  50  64
ATOM     64  C   UNL A   1      46.324  32.818  28.657  1.00  0.00    -0.014 A 
ATOM     65  C   UNL A   1      46.769  33.275  29.912  1.00  0.00     0.010 A 
ATOM     66  C   UNL A   1      46.244  33.731  27.590  1.00  0.00     0.010 A 
ATOM     67  C   UNL A   1      47.086  34.622  30.106  1.00  0.00     0.020 A 
ATOM     68  C   UNL A   1      46.589  35.074  27.771  1.00  0.00     0.020 A 
ATOM     69  C   UNL A   1      46.992  35.514  29.033  1.00  0.00     0.054 A 
BRANCH  69  70
ATOM     70  S   UNL A   1      47.434  37.252  29.307  1.00  0.00     0.124 S 
ATOM     71  O   UNL A   1      47.985  37.630  28.008  1.00  0.00    -0.237 OA
ATOM     72  O   UNL A   1      46.148  37.859  29.644  1.00  0.00    -0.237 OA
ATOM     73  O   UNL A   1      48.400  37.198  30.400  1.00  0.00    -0.744 OA
ENDBRANCH  69  70
ENDBRANCH  50  64
BRANCH  51  74
ATOM     74  C   UNL A   1      43.520  23.368  26.990  1.00  0.00    -0.014 A 
ATOM     75  C   UNL A   1      43.138  22.522  28.047  1.00  0.00     0.010 A 
ATOM     76  C   UNL A   1      43.493  22.871  25.674  1.00  0.00     0.010 A 
ATOM     77  C   UNL A   1      42.757  21.201  27.795  1.00  0.00     0.020 A 
ATOM     78  C   UNL A   1      43.082  21.561  25.415  1.00  0.00     0.020 A 
ATOM     79  C   UNL A   1      42.729  20.729  26.480  1.00  0.00     0.054 A 
BRANCH  79  80
ATOM     80  S   UNL A   1      42.179  19.029  26.169  1.00  0.00     0.124 S 
ATOM     81  O   UNL A   1      40.767  19.219  25.857  1.00  0.00    -0.237 OA
ATOM     82  O   UNL A   1      43.027  18.623  25.050  1.00  0.00    -0.237 OA
ATOM     83  O   UNL A   1      42.457  18.344  27.429  1.00  0.00    -0.744 OA
ENDBRANCH  79  80
ENDBRANCH  51  74
BRANCH  63  84
ATOM     84  C   UNL A   1      49.621  26.719  26.610  1.00  0.00    -0.014 A 
ATOM     85  C   UNL A   1      50.519  26.293  27.605  1.00  0.00     0.010 A 
ATOM     86  C   UNL A   1      50.032  26.700  25.265  1.00  0.00     0.010 A 
ATOM     87  C   UNL A   1      51.821  25.913  27.266  1.00  0.00     0.020 A 
ATOM     88  C   UNL A   1      51.321  26.288  24.919  1.00  0.00     0.020 A 
ATOM     89  C   UNL A   1      52.215  25.921  25.925  1.00  0.00     0.054 A 
BRANCH  89  90
ATOM     90  S   UNL A   1      53.909  25.426  25.511  1.00  0.00     0.124 S 
ATOM     91  O   UNL A   1      54.370  24.840  26.767  1.00  0.00    -0.237 OA
ATOM     92  O   UNL A   1      53.709  24.483  24.414  1.00  0.00    -0.237 OA
ATOM     93  O   UNL A   1      54.555  26.681  25.135  1.00  0.00    -0.744 OA
ENDBRANCH  89  90
ENDBRANCH  63  84
ENDBRANCH  37  38
ENDBRANCH  29  32
ENDBRANCH  27  28
ENDBRANCH  26  27
ENDBRANCH   1  26
TORSDOF 18
ENDMDL
