MODEL 1
REMARK VINA RESULT:     -11.6      0.000      0.000
REMARK SMILES Nc1c(N2CCCC2)ncnc1N1CCC(C(=O)NCCCNC(=O)c2ccc(-c3c4nc(c(-c5ccc(S(=O)(=O)[O-])cc5)c5ccc([nH]5)c(-c5ccc(S(=O)(=O)[O-])cc5)c5nc(c(-c6ccc(S(=O)(=O)[O-])cc6)c6ccc3[nH]6)C=C5)C=C4)cc2)CC1
REMARK SMILES IDX 21 1 20 2 19 3 17 4 18 5 16 7 13 8 14 9 87 10 15 11 86 12
REMARK SMILES IDX 12 13 2 14 3 15 9 16 11 17 10 18 1 19 4 22 5 23 8 24 6 25
REMARK SMILES IDX 7 26 22 27 23 28 24 29 25 31 26 32 27 33 85 34 28 35 84 36
REMARK SMILES IDX 29 37 30 38 31 39 78 40 32 41 83 42 77 43 79 44 33 45 82 46
REMARK SMILES IDX 76 47 75 48 34 50 64 51 45 52 63 53 46 54 49 55 62 56 80 57
REMARK SMILES IDX 47 58 48 59 61 61 81 62 50 63 35 64 36 65 44 66 37 67 43 68
REMARK SMILES IDX 38 69 39 70 40 71 41 72 42 73 65 74 66 75 74 76 67 77 73 78
REMARK SMILES IDX 68 79 69 80 70 81 71 82 72 83 51 84 52 85 60 86 53 87 59 88
REMARK SMILES IDX 54 89 55 90 56 91 57 92 58 93
REMARK H PARENT 19 6 1 20 1 21 23 30 79 49 49 60
REMARK Flexibility Score: inf
ROOT
ATOM      1  C   UNL A   1      32.538  27.775  26.313  1.00  0.00     0.042 C 
ENDROOT
BRANCH   1   2
ATOM      2  C   UNL A   1      32.579  27.021  24.991  1.00  0.00     0.117 C 
BRANCH   2   3
ATOM      3  N   UNL A   1      31.853  27.715  23.933  1.00  0.00    -0.356 N 
ATOM      4  C   UNL A   1      31.307  27.254  22.774  1.00  0.00     0.223 C 
ATOM      5  O   UNL A   1      30.736  28.063  22.039  1.00  0.00    -0.275 OA
ATOM      6  H   UNL A   1      31.738  28.682  24.083  1.00  0.00     0.163 HD
BRANCH   4   7
ATOM      7  C   UNL A   1      31.365  25.782  22.398  1.00  0.00     0.082 C 
ATOM      8  N   UNL A   1      32.260  23.262  23.281  1.00  0.00    -0.355 N 
ATOM      9  C   UNL A   1      32.996  23.825  22.172  1.00  0.00     0.119 C 
ATOM     10  C   UNL A   1      30.829  23.471  23.344  1.00  0.00     0.119 C 
ATOM     11  C   UNL A   1      32.815  25.332  22.158  1.00  0.00     0.035 C 
ATOM     12  C   UNL A   1      30.536  24.959  23.397  1.00  0.00     0.035 C 
BRANCH   8  13
ATOM     13  C   UNL A   1      32.908  22.406  24.154  1.00  0.00     0.157 A 
ATOM     14  C   UNL A   1      32.895  21.020  23.953  1.00  0.00     0.118 A 
ATOM     15  C   UNL A   1      33.497  20.230  24.947  1.00  0.00     0.157 A 
ATOM     16  N   UNL A   1      34.059  20.765  26.041  1.00  0.00    -0.217 NA
ATOM     17  N   UNL A   1      33.539  22.958  25.207  1.00  0.00    -0.217 NA
ATOM     18  C   UNL A   1      34.068  22.105  26.100  1.00  0.00     0.226 A 
BRANCH  14  19
ATOM     19  N   UNL A   1      32.220  20.423  22.867  1.00  0.00    -0.393 N 
ATOM     20  H   UNL A   1      32.237  20.853  21.981  1.00  0.00     0.156 HD
ATOM     21  H   UNL A   1      31.733  19.578  22.995  1.00  0.00     0.156 HD
ENDBRANCH  14  19
BRANCH  15  22
ATOM     22  N   UNL A   1      33.517  18.859  24.775  1.00  0.00    -0.355 N 
ATOM     23  C   UNL A   1      34.756  18.189  24.426  1.00  0.00     0.118 C 
ATOM     24  C   UNL A   1      32.672  17.979  25.561  1.00  0.00     0.118 C 
ATOM     25  C   UNL A   1      34.222  16.807  24.078  1.00  0.00     0.023 C 
ATOM     26  C   UNL A   1      33.140  16.575  25.136  1.00  0.00     0.023 C 
ENDBRANCH  15  22
ENDBRANCH   8  13
ENDBRANCH   4   7
ENDBRANCH   2   3
ENDBRANCH   1   2
BRANCH   1  27
ATOM     27  C   UNL A   1      33.876  28.372  26.717  1.00  0.00     0.118 C 
BRANCH  27  28
ATOM     28  N   UNL A   1      33.753  29.737  27.210  1.00  0.00    -0.352 N 
ATOM     29  C   UNL A   1      34.619  30.475  27.977  1.00  0.00     0.251 C 
ATOM     30  H   UNL A   1      32.923  30.201  26.954  1.00  0.00     0.163 HD
ATOM     31  O   UNL A   1      34.244  31.540  28.464  1.00  0.00    -0.269 OA
BRANCH  29  32
ATOM     32  C   UNL A   1      35.989  29.984  28.234  1.00  0.00     0.039 A 
ATOM     33  C   UNL A   1      36.950  30.097  27.226  1.00  0.00     0.014 A 
ATOM     34  C   UNL A   1      36.326  29.405  29.460  1.00  0.00     0.014 A 
ATOM     35  C   UNL A   1      38.264  29.694  27.474  1.00  0.00     0.010 A 
ATOM     36  C   UNL A   1      37.652  29.089  29.737  1.00  0.00     0.010 A 
ATOM     37  C   UNL A   1      38.633  29.221  28.745  1.00  0.00    -0.014 A 
BRANCH  37  38
ATOM     38  C   UNL A   1      40.035  28.842  29.050  1.00  0.00     0.031 A 
ATOM     39  C   UNL A   1      40.952  29.832  29.717  1.00  0.00     0.074 A 
ATOM     40  C   UNL A   1      40.494  27.627  28.688  1.00  0.00     0.049 A 
ATOM     41  N   UNL A   1      42.218  29.705  30.022  1.00  0.00    -0.248 NA
ATOM     42  C   UNL A   1      40.380  31.141  30.070  1.00  0.00     0.031 C 
ATOM     43  C   UNL A   1      39.709  26.591  28.012  1.00  0.00     0.029 A 
ATOM     44  N   UNL A   1      41.732  27.056  28.840  1.00  0.00    -0.354 N 
ATOM     45  C   UNL A   1      42.592  30.914  30.595  1.00  0.00     0.074 A 
ATOM     46  C   UNL A   1      41.439  31.784  30.541  1.00  0.00     0.031 C 
ATOM     47  C   UNL A   1      40.472  25.499  27.846  1.00  0.00     0.029 A 
ATOM     48  C   UNL A   1      41.811  25.770  28.359  1.00  0.00     0.049 A 
ATOM     49  H   UNL A   1      42.494  27.523  29.256  1.00  0.00     0.167 HD
ATOM     50  C   UNL A   1      43.780  31.261  31.144  1.00  0.00     0.031 A 
ATOM     51  C   UNL A   1      42.845  24.906  28.330  1.00  0.00     0.031 A 
ATOM     52  C   UNL A   1      44.923  30.390  31.202  1.00  0.00     0.049 A 
ATOM     53  C   UNL A   1      44.168  25.331  28.909  1.00  0.00     0.074 A 
ATOM     54  C   UNL A   1      46.163  30.638  31.765  1.00  0.00     0.029 A 
ATOM     55  N   UNL A   1      44.968  29.105  30.683  1.00  0.00    -0.354 N 
ATOM     56  N   UNL A   1      44.489  26.465  29.484  1.00  0.00    -0.248 NA
ATOM     57  C   UNL A   1      45.267  24.357  28.840  1.00  0.00     0.031 C 
ATOM     58  C   UNL A   1      46.973  29.521  31.540  1.00  0.00     0.029 A 
ATOM     59  C   UNL A   1      46.220  28.555  30.893  1.00  0.00     0.049 A 
ATOM     60  H   UNL A   1      44.219  28.652  30.233  1.00  0.00     0.167 HD
ATOM     61  C   UNL A   1      45.818  26.332  29.869  1.00  0.00     0.074 A 
ATOM     62  C   UNL A   1      46.236  25.002  29.475  1.00  0.00     0.031 C 
ATOM     63  C   UNL A   1      46.621  27.229  30.492  1.00  0.00     0.031 A 
BRANCH  50  64
ATOM     64  C   UNL A   1      43.902  32.641  31.734  1.00  0.00    -0.014 A 
ATOM     65  C   UNL A   1      44.265  33.739  30.932  1.00  0.00     0.010 A 
ATOM     66  C   UNL A   1      43.595  32.856  33.089  1.00  0.00     0.010 A 
ATOM     67  C   UNL A   1      44.345  35.021  31.481  1.00  0.00     0.020 A 
ATOM     68  C   UNL A   1      43.647  34.142  33.636  1.00  0.00     0.020 A 
ATOM     69  C   UNL A   1      44.033  35.215  32.829  1.00  0.00     0.054 A 
BRANCH  69  70
ATOM     70  S   UNL A   1      44.107  36.898  33.501  1.00  0.00     0.124 S 
ATOM     71  O   UNL A   1      42.733  37.103  33.955  1.00  0.00    -0.237 OA
ATOM     72  O   UNL A   1      45.105  36.773  34.559  1.00  0.00    -0.237 OA
ATOM     73  O   UNL A   1      44.511  37.712  32.357  1.00  0.00    -0.744 OA
ENDBRANCH  69  70
ENDBRANCH  50  64
BRANCH  51  74
ATOM     74  C   UNL A   1      42.662  23.545  27.756  1.00  0.00    -0.014 A 
ATOM     75  C   UNL A   1      43.209  23.223  26.501  1.00  0.00     0.010 A 
ATOM     76  C   UNL A   1      41.955  22.556  28.465  1.00  0.00     0.010 A 
ATOM     77  C   UNL A   1      43.042  21.944  25.961  1.00  0.00     0.020 A 
ATOM     78  C   UNL A   1      41.810  21.269  27.942  1.00  0.00     0.020 A 
ATOM     79  C   UNL A   1      42.348  20.973  26.687  1.00  0.00     0.054 A 
BRANCH  79  80
ATOM     80  S   UNL A   1      42.190  19.307  25.986  1.00  0.00     0.124 S 
ATOM     81  O   UNL A   1      40.748  19.192  25.793  1.00  0.00    -0.237 OA
ATOM     82  O   UNL A   1      42.988  19.404  24.766  1.00  0.00    -0.237 OA
ATOM     83  O   UNL A   1      42.753  18.444  27.023  1.00  0.00    -0.744 OA
ENDBRANCH  79  80
ENDBRANCH  51  74
BRANCH  63  84
ATOM     84  C   UNL A   1      48.029  26.803  30.813  1.00  0.00    -0.014 A 
ATOM     85  C   UNL A   1      49.091  27.084  29.937  1.00  0.00     0.010 A 
ATOM     86  C   UNL A   1      48.301  26.180  32.045  1.00  0.00     0.010 A 
ATOM     87  C   UNL A   1      50.399  26.730  30.277  1.00  0.00     0.020 A 
ATOM     88  C   UNL A   1      49.611  25.851  32.402  1.00  0.00     0.020 A 
ATOM     89  C   UNL A   1      50.651  26.119  31.510  1.00  0.00     0.054 A 
BRANCH  89  90
ATOM     90  S   UNL A   1      52.366  25.720  31.947  1.00  0.00     0.124 S 
ATOM     91  O   UNL A   1      53.072  26.003  30.701  1.00  0.00    -0.237 OA
ATOM     92  O   UNL A   1      52.636  26.642  33.046  1.00  0.00    -0.237 OA
ATOM     93  O   UNL A   1      52.309  24.309  32.324  1.00  0.00    -0.744 OA
ENDBRANCH  89  90
ENDBRANCH  63  84
ENDBRANCH  37  38
ENDBRANCH  29  32
ENDBRANCH  27  28
ENDBRANCH   1  27
TORSDOF 16
ENDMDL
MODEL 2
REMARK VINA RESULT:     -11.5      2.872      9.692
REMARK SMILES Nc1c(N2CCCC2)ncnc1N1CCC(C(=O)NCCCNC(=O)c2ccc(-c3c4nc(c(-c5ccc(S(=O)(=O)[O-])cc5)c5ccc([nH]5)c(-c5ccc(S(=O)(=O)[O-])cc5)c5nc(c(-c6ccc(S(=O)(=O)[O-])cc6)c6ccc3[nH]6)C=C5)C=C4)cc2)CC1
REMARK SMILES IDX 21 1 20 2 19 3 17 4 18 5 16 7 13 8 14 9 87 10 15 11 86 12
REMARK SMILES IDX 12 13 2 14 3 15 9 16 11 17 10 18 1 19 4 22 5 23 8 24 6 25
REMARK SMILES IDX 7 26 22 27 23 28 24 29 25 31 26 32 27 33 85 34 28 35 84 36
REMARK SMILES IDX 29 37 30 38 31 39 78 40 32 41 83 42 77 43 79 44 33 45 82 46
REMARK SMILES IDX 76 47 75 48 34 50 64 51 45 52 63 53 46 54 49 55 62 56 80 57
REMARK SMILES IDX 47 58 48 59 61 61 81 62 50 63 35 64 36 65 44 66 37 67 43 68
REMARK SMILES IDX 38 69 39 70 40 71 41 72 42 73 65 74 66 75 74 76 67 77 73 78
REMARK SMILES IDX 68 79 69 80 70 81 71 82 72 83 51 84 52 85 60 86 53 87 59 88
REMARK SMILES IDX 54 89 55 90 56 91 57 92 58 93
REMARK H PARENT 19 6 1 20 1 21 23 30 79 49 49 60
REMARK Flexibility Score: inf
ROOT
ATOM      1  C   UNL A   1      35.470  23.721  25.826  1.00  0.00     0.042 C 
ENDROOT
BRANCH   1   2
ATOM      2  C   UNL A   1      34.226  23.491  24.978  1.00  0.00     0.117 C 
BRANCH   2   3
ATOM      3  N   UNL A   1      33.647  22.169  25.189  1.00  0.00    -0.356 N 
ATOM      4  C   UNL A   1      32.349  21.759  25.233  1.00  0.00     0.223 C 
ATOM      5  O   UNL A   1      32.124  20.562  25.429  1.00  0.00    -0.275 OA
ATOM      6  H   UNL A   1      34.307  21.450  25.322  1.00  0.00     0.163 HD
BRANCH   4   7
ATOM      7  C   UNL A   1      31.202  22.731  25.017  1.00  0.00     0.082 C 
ATOM      8  N   UNL A   1      30.601  25.415  24.407  1.00  0.00    -0.355 N 
ATOM      9  C   UNL A   1      30.329  25.016  25.769  1.00  0.00     0.119 C 
ATOM     10  C   UNL A   1      30.358  24.466  23.342  1.00  0.00     0.119 C 
ATOM     11  C   UNL A   1      31.173  23.804  26.119  1.00  0.00     0.035 C 
ATOM     12  C   UNL A   1      31.208  23.227  23.562  1.00  0.00     0.035 C 
BRANCH   8  13
ATOM     13  C   UNL A   1      30.924  26.734  24.144  1.00  0.00     0.157 A 
ATOM     14  C   UNL A   1      29.950  27.649  23.728  1.00  0.00     0.118 A 
ATOM     15  C   UNL A   1      30.394  28.940  23.391  1.00  0.00     0.157 A 
ATOM     16  N   UNL A   1      31.687  29.290  23.459  1.00  0.00    -0.217 NA
ATOM     17  N   UNL A   1      32.211  27.097  24.292  1.00  0.00    -0.217 NA
ATOM     18  C   UNL A   1      32.524  28.352  23.928  1.00  0.00     0.226 A 
BRANCH  14  19
ATOM     19  N   UNL A   1      28.599  27.281  23.547  1.00  0.00    -0.393 N 
ATOM     20  H   UNL A   1      28.367  26.552  22.927  1.00  0.00     0.156 HD
ATOM     21  H   UNL A   1      27.890  27.753  24.040  1.00  0.00     0.156 HD
ENDBRANCH  14  19
BRANCH  15  22
ATOM     22  N   UNL A   1      29.457  29.875  22.992  1.00  0.00    -0.355 N 
ATOM     23  C   UNL A   1      29.171  31.021  23.834  1.00  0.00     0.118 C 
ATOM     24  C   UNL A   1      29.267  30.215  21.595  1.00  0.00     0.118 C 
ATOM     25  C   UNL A   1      27.932  31.561  23.137  1.00  0.00     0.023 C 
ATOM     26  C   UNL A   1      28.258  31.376  21.652  1.00  0.00     0.023 C 
ENDBRANCH  15  22
ENDBRANCH   8  13
ENDBRANCH   4   7
ENDBRANCH   2   3
ENDBRANCH   1   2
BRANCH   1  27
ATOM     27  C   UNL A   1      36.753  23.813  25.018  1.00  0.00     0.118 C 
BRANCH  27  28
ATOM     28  N   UNL A   1      37.716  22.782  25.379  1.00  0.00    -0.352 N 
ATOM     29  C   UNL A   1      38.905  22.889  26.056  1.00  0.00     0.251 C 
ATOM     30  H   UNL A   1      37.479  21.870  25.094  1.00  0.00     0.163 HD
ATOM     31  O   UNL A   1      39.678  21.933  26.083  1.00  0.00    -0.269 OA
BRANCH  29  32
ATOM     32  C   UNL A   1      39.263  24.152  26.734  1.00  0.00     0.039 A 
ATOM     33  C   UNL A   1      38.844  24.359  28.050  1.00  0.00     0.014 A 
ATOM     34  C   UNL A   1      40.004  25.136  26.073  1.00  0.00     0.014 A 
ATOM     35  C   UNL A   1      39.226  25.521  28.724  1.00  0.00     0.010 A 
ATOM     36  C   UNL A   1      40.461  26.248  26.773  1.00  0.00     0.010 A 
ATOM     37  C   UNL A   1      40.069  26.457  28.102  1.00  0.00    -0.014 A 
BRANCH  37  38
ATOM     38  C   UNL A   1      40.537  27.670  28.818  1.00  0.00     0.031 A 
ATOM     39  C   UNL A   1      41.923  27.708  29.405  1.00  0.00     0.074 A 
ATOM     40  C   UNL A   1      39.702  28.716  28.979  1.00  0.00     0.049 A 
ATOM     41  N   UNL A   1      42.495  28.655  30.103  1.00  0.00    -0.248 NA
ATOM     42  C   UNL A   1      42.770  26.522  29.197  1.00  0.00     0.031 C 
ATOM     43  C   UNL A   1      38.326  28.788  28.479  1.00  0.00     0.029 A 
ATOM     44  N   UNL A   1      39.888  29.923  29.606  1.00  0.00    -0.354 N 
ATOM     45  C   UNL A   1      43.761  28.178  30.420  1.00  0.00     0.074 A 
ATOM     46  C   UNL A   1      43.853  26.836  29.892  1.00  0.00     0.031 C 
ATOM     47  C   UNL A   1      37.810  29.989  28.783  1.00  0.00     0.029 A 
ATOM     48  C   UNL A   1      38.796  30.756  29.539  1.00  0.00     0.049 A 
ATOM     49  H   UNL A   1      40.726  30.170  30.062  1.00  0.00     0.167 HD
ATOM     50  C   UNL A   1      44.768  28.810  31.068  1.00  0.00     0.031 A 
ATOM     51  C   UNL A   1      38.607  31.996  30.031  1.00  0.00     0.031 A 
ATOM     52  C   UNL A   1      44.674  30.149  31.586  1.00  0.00     0.049 A 
ATOM     53  C   UNL A   1      39.728  32.661  30.784  1.00  0.00     0.074 A 
ATOM     54  C   UNL A   1      45.650  30.890  32.230  1.00  0.00     0.029 A 
ATOM     55  N   UNL A   1      43.544  30.949  31.516  1.00  0.00    -0.354 N 
ATOM     56  N   UNL A   1      40.932  32.208  31.037  1.00  0.00    -0.248 NA
ATOM     57  C   UNL A   1      39.465  34.008  31.312  1.00  0.00     0.031 C 
ATOM     58  C   UNL A   1      45.091  32.118  32.596  1.00  0.00     0.029 A 
ATOM     59  C   UNL A   1      43.790  32.166  32.125  1.00  0.00     0.049 A 
ATOM     60  H   UNL A   1      42.693  30.688  31.095  1.00  0.00     0.167 HD
ATOM     61  C   UNL A   1      41.580  33.224  31.732  1.00  0.00     0.074 A 
ATOM     62  C   UNL A   1      40.639  34.319  31.844  1.00  0.00     0.031 C 
ATOM     63  C   UNL A   1      42.841  33.247  32.231  1.00  0.00     0.031 A 
BRANCH  50  64
ATOM     64  C   UNL A   1      46.062  28.064  31.247  1.00  0.00    -0.014 A 
ATOM     65  C   UNL A   1      47.096  28.175  30.298  1.00  0.00     0.010 A 
ATOM     66  C   UNL A   1      46.275  27.289  32.402  1.00  0.00     0.010 A 
ATOM     67  C   UNL A   1      48.306  27.503  30.487  1.00  0.00     0.020 A 
ATOM     68  C   UNL A   1      47.495  26.638  32.608  1.00  0.00     0.020 A 
ATOM     69  C   UNL A   1      48.500  26.741  31.643  1.00  0.00     0.054 A 
BRANCH  69  70
ATOM     70  S   UNL A   1      50.097  25.915  31.877  1.00  0.00     0.124 S 
ATOM     71  O   UNL A   1      51.016  27.050  31.944  1.00  0.00    -0.237 OA
ATOM     72  O   UNL A   1      49.899  25.192  33.130  1.00  0.00    -0.237 OA
ATOM     73  O   UNL A   1      50.232  25.076  30.690  1.00  0.00    -0.744 OA
ENDBRANCH  69  70
ENDBRANCH  50  64
BRANCH  51  74
ATOM     74  C   UNL A   1      37.314  32.697  29.804  1.00  0.00    -0.014 A 
ATOM     75  C   UNL A   1      36.295  32.642  30.772  1.00  0.00     0.010 A 
ATOM     76  C   UNL A   1      37.097  33.439  28.628  1.00  0.00     0.010 A 
ATOM     77  C   UNL A   1      35.081  33.304  30.564  1.00  0.00     0.020 A 
ATOM     78  C   UNL A   1      35.896  34.126  28.429  1.00  0.00     0.020 A 
ATOM     79  C   UNL A   1      34.891  34.046  29.395  1.00  0.00     0.054 A 
BRANCH  79  80
ATOM     80  S   UNL A   1      33.326  34.937  29.173  1.00  0.00     0.124 S 
ATOM     81  O   UNL A   1      32.643  34.112  28.181  1.00  0.00    -0.237 OA
ATOM     82  O   UNL A   1      32.757  34.910  30.519  1.00  0.00    -0.237 OA
ATOM     83  O   UNL A   1      33.746  36.257  28.708  1.00  0.00    -0.744 OA
ENDBRANCH  79  80
ENDBRANCH  51  74
BRANCH  63  84
ATOM     84  C   UNL A   1      43.293  34.503  32.927  1.00  0.00    -0.014 A 
ATOM     85  C   UNL A   1      43.791  35.598  32.200  1.00  0.00     0.010 A 
ATOM     86  C   UNL A   1      43.147  34.614  34.322  1.00  0.00     0.010 A 
ATOM     87  C   UNL A   1      44.154  36.775  32.858  1.00  0.00     0.020 A 
ATOM     88  C   UNL A   1      43.481  35.800  34.980  1.00  0.00     0.020 A 
ATOM     89  C   UNL A   1      43.993  36.870  34.244  1.00  0.00     0.054 A 
BRANCH  89  90
ATOM     90  S   UNL A   1      44.423  38.430  35.064  1.00  0.00     0.124 S 
ATOM     91  O   UNL A   1      43.890  38.224  36.408  1.00  0.00    -0.237 OA
ATOM     92  O   UNL A   1      45.879  38.452  34.962  1.00  0.00    -0.237 OA
ATOM     93  O   UNL A   1      43.733  39.443  34.269  1.00  0.00    -0.744 OA
ENDBRANCH  89  90
ENDBRANCH  63  84
ENDBRANCH  37  38
ENDBRANCH  29  32
ENDBRANCH  27  28
ENDBRANCH   1  27
TORSDOF 16
ENDMDL
MODEL 3
REMARK VINA RESULT:     -11.2      2.714      9.523
REMARK SMILES Nc1c(N2CCCC2)ncnc1N1CCC(C(=O)NCCCNC(=O)c2ccc(-c3c4nc(c(-c5ccc(S(=O)(=O)[O-])cc5)c5ccc([nH]5)c(-c5ccc(S(=O)(=O)[O-])cc5)c5nc(c(-c6ccc(S(=O)(=O)[O-])cc6)c6ccc3[nH]6)C=C5)C=C4)cc2)CC1
REMARK SMILES IDX 21 1 20 2 19 3 17 4 18 5 16 7 13 8 14 9 87 10 15 11 86 12
REMARK SMILES IDX 12 13 2 14 3 15 9 16 11 17 10 18 1 19 4 22 5 23 8 24 6 25
REMARK SMILES IDX 7 26 22 27 23 28 24 29 25 31 26 32 27 33 85 34 28 35 84 36
REMARK SMILES IDX 29 37 30 38 31 39 78 40 32 41 83 42 77 43 79 44 33 45 82 46
REMARK SMILES IDX 76 47 75 48 34 50 64 51 45 52 63 53 46 54 49 55 62 56 80 57
REMARK SMILES IDX 47 58 48 59 61 61 81 62 50 63 35 64 36 65 44 66 37 67 43 68
REMARK SMILES IDX 38 69 39 70 40 71 41 72 42 73 65 74 66 75 74 76 67 77 73 78
REMARK SMILES IDX 68 79 69 80 70 81 71 82 72 83 51 84 52 85 60 86 53 87 59 88
REMARK SMILES IDX 54 89 55 90 56 91 57 92 58 93
REMARK H PARENT 19 6 1 20 1 21 23 30 79 49 49 60
REMARK Flexibility Score: inf
ROOT
ATOM      1  C   UNL A   1      35.634  23.200  25.463  1.00  0.00     0.042 C 
ENDROOT
BRANCH   1   2
ATOM      2  C   UNL A   1      35.006  22.435  24.306  1.00  0.00     0.117 C 
BRANCH   2   3
ATOM      3  N   UNL A   1      34.713  21.049  24.651  1.00  0.00    -0.356 N 
ATOM      4  C   UNL A   1      33.526  20.407  24.835  1.00  0.00     0.223 C 
ATOM      5  O   UNL A   1      33.553  19.208  25.126  1.00  0.00    -0.275 OA
ATOM      6  H   UNL A   1      35.508  20.480  24.771  1.00  0.00     0.163 HD
BRANCH   4   7
ATOM      7  C   UNL A   1      32.198  21.125  24.659  1.00  0.00     0.082 C 
ATOM      8  N   UNL A   1      31.016  23.676  24.502  1.00  0.00    -0.355 N 
ATOM      9  C   UNL A   1      30.735  22.939  25.712  1.00  0.00     0.119 C 
ATOM     10  C   UNL A   1      31.102  22.953  23.251  1.00  0.00     0.119 C 
ATOM     11  C   UNL A   1      31.816  21.897  25.932  1.00  0.00     0.035 C 
ATOM     12  C   UNL A   1      32.207  21.915  23.340  1.00  0.00     0.035 C 
BRANCH   8  13
ATOM     13  C   UNL A   1      31.028  25.059  24.543  1.00  0.00     0.157 A 
ATOM     14  C   UNL A   1      31.986  25.752  25.294  1.00  0.00     0.118 A 
ATOM     15  C   UNL A   1      31.856  27.151  25.351  1.00  0.00     0.157 A 
ATOM     16  N   UNL A   1      30.864  27.802  24.724  1.00  0.00    -0.217 NA
ATOM     17  N   UNL A   1      30.078  25.708  23.846  1.00  0.00    -0.217 NA
ATOM     18  C   UNL A   1      30.041  27.043  23.986  1.00  0.00     0.226 A 
BRANCH  14  19
ATOM     19  N   UNL A   1      32.977  25.088  26.049  1.00  0.00    -0.393 N 
ATOM     20  H   UNL A   1      33.761  24.699  25.597  1.00  0.00     0.156 HD
ATOM     21  H   UNL A   1      32.883  25.014  27.025  1.00  0.00     0.156 HD
ENDBRANCH  14  19
BRANCH  15  22
ATOM     22  N   UNL A   1      32.793  27.870  26.069  1.00  0.00    -0.355 N 
ATOM     23  C   UNL A   1      33.866  28.558  25.377  1.00  0.00     0.118 C 
ATOM     24  C   UNL A   1      32.442  28.577  27.286  1.00  0.00     0.118 C 
ATOM     25  C   UNL A   1      34.748  28.932  26.558  1.00  0.00     0.023 C 
ATOM     26  C   UNL A   1      33.737  29.333  27.636  1.00  0.00     0.023 C 
ENDBRANCH  15  22
ENDBRANCH   8  13
ENDBRANCH   4   7
ENDBRANCH   2   3
ENDBRANCH   1   2
BRANCH   1  27
ATOM     27  C   UNL A   1      37.050  23.676  25.185  1.00  0.00     0.118 C 
BRANCH  27  28
ATOM     28  N   UNL A   1      38.056  22.713  25.610  1.00  0.00    -0.352 N 
ATOM     29  C   UNL A   1      39.242  22.915  26.271  1.00  0.00     0.251 C 
ATOM     30  H   UNL A   1      37.856  21.774  25.390  1.00  0.00     0.163 HD
ATOM     31  O   UNL A   1      40.054  21.996  26.358  1.00  0.00    -0.269 OA
BRANCH  29  32
ATOM     32  C   UNL A   1      39.550  24.235  26.858  1.00  0.00     0.039 A 
ATOM     33  C   UNL A   1      39.158  24.502  28.172  1.00  0.00     0.014 A 
ATOM     34  C   UNL A   1      40.217  25.213  26.115  1.00  0.00     0.014 A 
ATOM     35  C   UNL A   1      39.495  25.723  28.761  1.00  0.00     0.010 A 
ATOM     36  C   UNL A   1      40.632  26.389  26.730  1.00  0.00     0.010 A 
ATOM     37  C   UNL A   1      40.268  26.661  28.056  1.00  0.00    -0.014 A 
BRANCH  37  38
ATOM     38  C   UNL A   1      40.689  27.940  28.681  1.00  0.00     0.031 A 
ATOM     39  C   UNL A   1      42.091  28.092  29.208  1.00  0.00     0.074 A 
ATOM     40  C   UNL A   1      39.799  28.944  28.815  1.00  0.00     0.049 A 
ATOM     41  N   UNL A   1      42.631  29.110  29.826  1.00  0.00    -0.248 NA
ATOM     42  C   UNL A   1      42.998  26.946  29.035  1.00  0.00     0.031 C 
ATOM     43  C   UNL A   1      38.405  28.907  28.367  1.00  0.00     0.029 A 
ATOM     44  N   UNL A   1      39.937  30.195  29.362  1.00  0.00    -0.354 N 
ATOM     45  C   UNL A   1      43.934  28.726  30.119  1.00  0.00     0.074 A 
ATOM     46  C   UNL A   1      44.086  27.362  29.667  1.00  0.00     0.031 C 
ATOM     47  C   UNL A   1      37.829  30.093  28.622  1.00  0.00     0.029 A 
ATOM     48  C   UNL A   1      38.796  30.959  29.291  1.00  0.00     0.049 A 
ATOM     49  H   UNL A   1      40.775  30.516  29.769  1.00  0.00     0.167 HD
ATOM     50  C   UNL A   1      44.925  29.453  30.689  1.00  0.00     0.031 A 
ATOM     51  C   UNL A   1      38.552  32.214  29.718  1.00  0.00     0.031 A 
ATOM     52  C   UNL A   1      44.771  30.813  31.131  1.00  0.00     0.049 A 
ATOM     53  C   UNL A   1      39.658  32.986  30.385  1.00  0.00     0.074 A 
ATOM     54  C   UNL A   1      45.724  31.646  31.691  1.00  0.00     0.029 A 
ATOM     55  N   UNL A   1      43.594  31.541  31.061  1.00  0.00    -0.354 N 
ATOM     56  N   UNL A   1      40.895  32.618  30.616  1.00  0.00    -0.248 NA
ATOM     57  C   UNL A   1      39.336  34.344  30.845  1.00  0.00     0.031 C 
ATOM     58  C   UNL A   1      45.108  32.859  32.008  1.00  0.00     0.029 A 
ATOM     59  C   UNL A   1      43.789  32.805  31.588  1.00  0.00     0.049 A 
ATOM     60  H   UNL A   1      42.745  31.208  30.690  1.00  0.00     0.167 HD
ATOM     61  C   UNL A   1      41.507  33.709  31.223  1.00  0.00     0.074 A 
ATOM     62  C   UNL A   1      40.508  34.754  31.310  1.00  0.00     0.031 C 
ATOM     63  C   UNL A   1      42.782  33.835  31.669  1.00  0.00     0.031 A 
BRANCH  50  64
ATOM     64  C   UNL A   1      46.267  28.793  30.858  1.00  0.00    -0.014 A 
ATOM     65  C   UNL A   1      46.564  28.045  32.012  1.00  0.00     0.010 A 
ATOM     66  C   UNL A   1      47.224  28.870  29.829  1.00  0.00     0.010 A 
ATOM     67  C   UNL A   1      47.801  27.412  32.147  1.00  0.00     0.020 A 
ATOM     68  C   UNL A   1      48.452  28.213  29.948  1.00  0.00     0.020 A 
ATOM     69  C   UNL A   1      48.737  27.496  31.113  1.00  0.00     0.054 A 
BRANCH  69  70
ATOM     70  S   UNL A   1      50.317  26.627  31.302  1.00  0.00     0.124 S 
ATOM     71  O   UNL A   1      49.891  25.346  31.864  1.00  0.00    -0.237 OA
ATOM     72  O   UNL A   1      50.816  26.575  29.931  1.00  0.00    -0.237 OA
ATOM     73  O   UNL A   1      51.078  27.481  32.210  1.00  0.00    -0.744 OA
ENDBRANCH  69  70
ENDBRANCH  50  64
BRANCH  51  74
ATOM     74  C   UNL A   1      37.212  32.825  29.503  1.00  0.00    -0.014 A 
ATOM     75  C   UNL A   1      36.278  32.879  30.554  1.00  0.00     0.010 A 
ATOM     76  C   UNL A   1      36.865  33.373  28.254  1.00  0.00     0.010 A 
ATOM     77  C   UNL A   1      35.020  33.457  30.356  1.00  0.00     0.020 A 
ATOM     78  C   UNL A   1      35.620  33.977  28.061  1.00  0.00     0.020 A 
ATOM     79  C   UNL A   1      34.701  34.007  29.112  1.00  0.00     0.054 A 
BRANCH  79  80
ATOM     80  S   UNL A   1      33.081  34.797  28.898  1.00  0.00     0.124 S 
ATOM     81  O   UNL A   1      33.450  36.122  28.411  1.00  0.00    -0.237 OA
ATOM     82  O   UNL A   1      32.433  33.922  27.924  1.00  0.00    -0.237 OA
ATOM     83  O   UNL A   1      32.502  34.761  30.239  1.00  0.00    -0.744 OA
ENDBRANCH  79  80
ENDBRANCH  51  74
BRANCH  63  84
ATOM     84  C   UNL A   1      43.185  35.154  32.272  1.00  0.00    -0.014 A 
ATOM     85  C   UNL A   1      43.881  36.115  31.520  1.00  0.00     0.010 A 
ATOM     86  C   UNL A   1      42.793  35.463  33.588  1.00  0.00     0.010 A 
ATOM     87  C   UNL A   1      44.197  37.355  32.079  1.00  0.00     0.020 A 
ATOM     88  C   UNL A   1      43.082  36.713  34.141  1.00  0.00     0.020 A 
ATOM     89  C   UNL A   1      43.792  37.648  33.385  1.00  0.00     0.054 A 
BRANCH  89  90
ATOM     90  S   UNL A   1      44.170  39.286  34.066  1.00  0.00     0.124 S 
ATOM     91  O   UNL A   1      42.886  39.971  33.943  1.00  0.00    -0.237 OA
ATOM     92  O   UNL A   1      44.588  38.974  35.430  1.00  0.00    -0.237 OA
ATOM     93  O   UNL A   1      45.230  39.789  33.194  1.00  0.00    -0.744 OA
ENDBRANCH  89  90
ENDBRANCH  63  84
ENDBRANCH  37  38
ENDBRANCH  29  32
ENDBRANCH  27  28
ENDBRANCH   1  27
TORSDOF 16
ENDMDL
