MODEL 1
REMARK VINA RESULT:     -11.0      0.000      0.000
REMARK SMILES Cc1ccc([C@@H](C)[N@@H+]2CCO[C@H](CC(=O)NCCCNC(=O)c3ccc(-c4c5nc(c(-c6ccc(S(=O)(=O)[O-])cc6)c6ccc([nH]6)c(-c6ccc(S(=O)(=O)[O-])cc6)c6nc(c(-c7ccc(S(=O)(=O)[O-])cc7)c7ccc4[nH]7)C=C6)C=C5)cc3)C2)o1
REMARK SMILES IDX 18 1 17 2 16 3 14 4 15 5 13 7 12 8 8 9 9 10 83 11 10 13
REMARK SMILES IDX 11 14 6 15 7 16 5 17 1 18 2 19 3 20 84 21 4 22 19 23 20 24
REMARK SMILES IDX 21 25 22 27 23 28 24 29 82 30 25 31 81 32 26 33 27 34 28 35
REMARK SMILES IDX 75 36 29 37 80 38 74 39 76 40 30 41 79 42 73 43 72 44 31 46
REMARK SMILES IDX 61 47 42 48 60 49 43 50 46 51 59 52 77 53 44 54 45 55 58 57
REMARK SMILES IDX 78 58 47 59 32 60 33 61 41 62 34 63 40 64 35 65 36 66 37 67
REMARK SMILES IDX 38 68 39 69 62 70 63 71 71 72 64 73 70 74 65 75 66 76 67 77
REMARK SMILES IDX 68 78 69 79 48 80 49 81 57 82 50 83 56 84 51 85 52 86 53 87
REMARK SMILES IDX 54 88 55 89
REMARK H PARENT 16 6 8 12 20 26 76 45 46 56
REMARK Flexibility Score: inf
ROOT
ATOM      1  C   UNL A   1      33.891  28.197  25.832  1.00  0.00     0.042 C 
ENDROOT
BRANCH   1   2
ATOM      2  C   UNL A   1      33.539  26.766  25.459  1.00  0.00     0.117 C 
BRANCH   2   3
ATOM      3  N   UNL A   1      33.492  26.614  24.022  1.00  0.00    -0.356 N 
ATOM      4  C   UNL A   1      33.697  25.472  23.303  1.00  0.00     0.222 C 
ATOM      5  O   UNL A   1      33.777  25.558  22.076  1.00  0.00    -0.275 OA
ATOM      6  H   UNL A   1      33.289  27.426  23.503  1.00  0.00     0.163 HD
BRANCH   4   7
ATOM      7  C   UNL A   1      33.649  24.126  23.991  1.00  0.00     0.138 C 
BRANCH   7   8
ATOM      8  C   UNL A   1      32.393  23.255  23.944  1.00  0.00     0.182 C 
ATOM      9  N   UNL A   1      32.433  21.534  25.865  1.00  0.00    -0.322 N 
ATOM     10  C   UNL A   1      32.095  20.516  24.882  1.00  0.00     0.291 C 
ATOM     11  C   UNL A   1      31.988  22.844  25.389  1.00  0.00     0.295 C 
ATOM     12  H   UNL A   1      31.886  21.407  26.716  1.00  0.00     0.348 HD
ATOM     13  C   UNL A   1      32.629  20.846  23.496  1.00  0.00     0.222 C 
ATOM     14  O   UNL A   1      32.385  22.170  23.013  1.00  0.00    -0.366 OA
BRANCH   9  15
ATOM     15  C   UNL A   1      33.668  21.351  26.647  1.00  0.00     0.248 C 
ATOM     16  C   UNL A   1      33.619  22.166  27.946  1.00  0.00     0.084 C 
BRANCH  15  17
ATOM     17  C   UNL A   1      35.010  21.510  25.973  1.00  0.00     0.161 A 
ATOM     18  C   UNL A   1      37.825  23.715  25.718  1.00  0.00     0.087 C 
ATOM     19  C   UNL A   1      36.937  22.536  25.620  1.00  0.00     0.101 A 
ATOM     20  C   UNL A   1      36.993  21.359  24.908  1.00  0.00     0.046 A 
ATOM     21  O   UNL A   1      35.771  22.596  26.320  1.00  0.00    -0.460 OA
ATOM     22  C   UNL A   1      35.755  20.700  25.132  1.00  0.00     0.052 A 
ENDBRANCH  15  17
ENDBRANCH   9  15
ENDBRANCH   7   8
ENDBRANCH   4   7
ENDBRANCH   2   3
ENDBRANCH   1   2
BRANCH   1  23
ATOM     23  C   UNL A   1      33.455  28.525  27.241  1.00  0.00     0.118 C 
BRANCH  23  24
ATOM     24  N   UNL A   1      33.464  29.965  27.482  1.00  0.00    -0.352 N 
ATOM     25  C   UNL A   1      34.461  30.727  28.056  1.00  0.00     0.251 C 
ATOM     26  H   UNL A   1      32.659  30.454  27.198  1.00  0.00     0.163 HD
ATOM     27  O   UNL A   1      34.242  31.881  28.388  1.00  0.00    -0.269 OA
BRANCH  25  28
ATOM     28  C   UNL A   1      35.786  30.105  28.295  1.00  0.00     0.039 A 
ATOM     29  C   UNL A   1      36.760  30.142  27.296  1.00  0.00     0.014 A 
ATOM     30  C   UNL A   1      36.080  29.543  29.539  1.00  0.00     0.014 A 
ATOM     31  C   UNL A   1      38.051  29.684  27.576  1.00  0.00     0.010 A 
ATOM     32  C   UNL A   1      37.390  29.218  29.856  1.00  0.00     0.010 A 
ATOM     33  C   UNL A   1      38.388  29.256  28.872  1.00  0.00    -0.014 A 
BRANCH  33  34
ATOM     34  C   UNL A   1      39.758  28.809  29.228  1.00  0.00     0.031 A 
ATOM     35  C   UNL A   1      40.699  29.765  29.918  1.00  0.00     0.074 A 
ATOM     36  C   UNL A   1      40.194  27.592  28.848  1.00  0.00     0.049 A 
ATOM     37  N   UNL A   1      41.960  29.606  30.227  1.00  0.00    -0.248 NA
ATOM     38  C   UNL A   1      40.163  31.094  30.261  1.00  0.00     0.031 C 
ATOM     39  C   UNL A   1      39.410  26.601  28.106  1.00  0.00     0.029 A 
ATOM     40  N   UNL A   1      41.413  26.985  29.024  1.00  0.00    -0.354 N 
ATOM     41  C   UNL A   1      42.374  30.824  30.757  1.00  0.00     0.074 A 
ATOM     42  C   UNL A   1      41.250  31.728  30.666  1.00  0.00     0.031 C 
ATOM     43  C   UNL A   1      40.156  25.500  27.920  1.00  0.00     0.029 A 
ATOM     44  C   UNL A   1      41.482  25.719  28.492  1.00  0.00     0.049 A 
ATOM     45  H   UNL A   1      42.167  27.416  29.488  1.00  0.00     0.167 HD
ATOM     46  C   UNL A   1      43.570  31.155  31.298  1.00  0.00     0.031 A 
ATOM     47  C   UNL A   1      42.496  24.834  28.463  1.00  0.00     0.031 A 
ATOM     48  C   UNL A   1      44.672  30.240  31.418  1.00  0.00     0.049 A 
ATOM     49  C   UNL A   1      43.802  25.197  29.114  1.00  0.00     0.074 A 
ATOM     50  C   UNL A   1      45.896  30.442  32.029  1.00  0.00     0.029 A 
ATOM     51  N   UNL A   1      44.682  28.948  30.915  1.00  0.00    -0.354 N 
ATOM     52  N   UNL A   1      44.147  26.324  29.692  1.00  0.00    -0.248 NA
ATOM     53  C   UNL A   1      44.846  24.166  29.126  1.00  0.00     0.031 C 
ATOM     54  C   UNL A   1      46.665  29.287  31.853  1.00  0.00     0.029 A 
ATOM     55  C   UNL A   1      45.898  28.345  31.182  1.00  0.00     0.049 A 
ATOM     56  H   UNL A   1      43.933  28.522  30.437  1.00  0.00     0.167 HD
ATOM     57  C   UNL A   1      45.444  26.130  30.156  1.00  0.00     0.074 A 
ATOM     58  C   UNL A   1      45.813  24.774  29.803  1.00  0.00     0.031 C 
ATOM     59  C   UNL A   1      46.253  26.996  30.816  1.00  0.00     0.031 A 
BRANCH  46  60
ATOM     60  C   UNL A   1      43.735  32.571  31.789  1.00  0.00    -0.014 A 
ATOM     61  C   UNL A   1      44.247  33.582  30.952  1.00  0.00     0.010 A 
ATOM     62  C   UNL A   1      43.391  32.894  33.114  1.00  0.00     0.010 A 
ATOM     63  C   UNL A   1      44.484  34.864  31.452  1.00  0.00     0.020 A 
ATOM     64  C   UNL A   1      43.593  34.187  33.608  1.00  0.00     0.020 A 
ATOM     65  C   UNL A   1      44.165  35.155  32.782  1.00  0.00     0.054 A 
BRANCH  65  66
ATOM     66  S   UNL A   1      44.505  36.821  33.413  1.00  0.00     0.124 S 
ATOM     67  O   UNL A   1      45.660  36.585  34.276  1.00  0.00    -0.237 OA
ATOM     68  O   UNL A   1      44.779  37.578  32.194  1.00  0.00    -0.237 OA
ATOM     69  O   UNL A   1      43.273  37.186  34.107  1.00  0.00    -0.744 OA
ENDBRANCH  65  66
ENDBRANCH  46  60
BRANCH  47  70
ATOM     70  C   UNL A   1      42.289  23.506  27.826  1.00  0.00    -0.014 A 
ATOM     71  C   UNL A   1      42.641  23.299  26.480  1.00  0.00     0.010 A 
ATOM     72  C   UNL A   1      41.803  22.421  28.580  1.00  0.00     0.010 A 
ATOM     73  C   UNL A   1      42.518  22.032  25.902  1.00  0.00     0.020 A 
ATOM     74  C   UNL A   1      41.702  21.147  28.012  1.00  0.00     0.020 A 
ATOM     75  C   UNL A   1      42.059  20.961  26.676  1.00  0.00     0.054 A 
BRANCH  75  76
ATOM     76  S   UNL A   1      42.007  19.306  25.931  1.00  0.00     0.124 S 
ATOM     77  O   UNL A   1      42.852  19.475  24.753  1.00  0.00    -0.237 OA
ATOM     78  O   UNL A   1      42.558  18.466  26.991  1.00  0.00    -0.237 OA
ATOM     79  O   UNL A   1      40.586  19.098  25.659  1.00  0.00    -0.744 OA
ENDBRANCH  75  76
ENDBRANCH  47  70
BRANCH  59  80
ATOM     80  C   UNL A   1      47.612  26.498  31.226  1.00  0.00    -0.014 A 
ATOM     81  C   UNL A   1      47.819  25.886  32.475  1.00  0.00     0.010 A 
ATOM     82  C   UNL A   1      48.685  26.592  30.322  1.00  0.00     0.010 A 
ATOM     83  C   UNL A   1      49.083  25.404  32.823  1.00  0.00     0.020 A 
ATOM     84  C   UNL A   1      49.944  26.087  30.655  1.00  0.00     0.020 A 
ATOM     85  C   UNL A   1      50.139  25.509  31.910  1.00  0.00     0.054 A 
BRANCH  85  86
ATOM     86  S   UNL A   1      51.760  24.838  32.368  1.00  0.00     0.124 S 
ATOM     87  O   UNL A   1      51.562  23.405  32.171  1.00  0.00    -0.237 OA
ATOM     88  O   UNL A   1      52.657  25.487  31.416  1.00  0.00    -0.237 OA
ATOM     89  O   UNL A   1      51.928  25.258  33.758  1.00  0.00    -0.744 OA
ENDBRANCH  85  86
ENDBRANCH  59  80
ENDBRANCH  33  34
ENDBRANCH  25  28
ENDBRANCH  23  24
ENDBRANCH   1  23
TORSDOF 16
ENDMDL
MODEL 2
REMARK VINA RESULT:     -10.7      2.693      9.406
REMARK SMILES Cc1ccc([C@@H](C)[N@@H+]2CCO[C@H](CC(=O)NCCCNC(=O)c3ccc(-c4c5nc(c(-c6ccc(S(=O)(=O)[O-])cc6)c6ccc([nH]6)c(-c6ccc(S(=O)(=O)[O-])cc6)c6nc(c(-c7ccc(S(=O)(=O)[O-])cc7)c7ccc4[nH]7)C=C6)C=C5)cc3)C2)o1
REMARK SMILES IDX 18 1 17 2 16 3 14 4 15 5 13 7 12 8 8 9 9 10 83 11 10 13
REMARK SMILES IDX 11 14 6 15 7 16 5 17 1 18 2 19 3 20 84 21 4 22 19 23 20 24
REMARK SMILES IDX 21 25 22 27 23 28 24 29 82 30 25 31 81 32 26 33 27 34 28 35
REMARK SMILES IDX 75 36 29 37 80 38 74 39 76 40 30 41 79 42 73 43 72 44 31 46
REMARK SMILES IDX 61 47 42 48 60 49 43 50 46 51 59 52 77 53 44 54 45 55 58 57
REMARK SMILES IDX 78 58 47 59 32 60 33 61 41 62 34 63 40 64 35 65 36 66 37 67
REMARK SMILES IDX 38 68 39 69 62 70 63 71 71 72 64 73 70 74 65 75 66 76 67 77
REMARK SMILES IDX 68 78 69 79 48 80 49 81 57 82 50 83 56 84 51 85 52 86 53 87
REMARK SMILES IDX 54 88 55 89
REMARK H PARENT 16 6 8 12 20 26 76 45 46 56
REMARK Flexibility Score: inf
ROOT
ATOM      1  C   UNL A   1      35.798  23.690  25.708  1.00  0.00     0.042 C 
ENDROOT
BRANCH   1   2
ATOM      2  C   UNL A   1      34.720  22.822  25.081  1.00  0.00     0.117 C 
BRANCH   2   3
ATOM      3  N   UNL A   1      34.682  23.014  23.649  1.00  0.00    -0.356 N 
ATOM      4  C   UNL A   1      33.827  23.809  22.942  1.00  0.00     0.222 C 
ATOM      5  O   UNL A   1      33.833  23.728  21.712  1.00  0.00    -0.275 OA
ATOM      6  H   UNL A   1      35.349  22.515  23.124  1.00  0.00     0.163 HD
BRANCH   4   7
ATOM      7  C   UNL A   1      33.027  24.878  23.651  1.00  0.00     0.138 C 
BRANCH   7   8
ATOM      8  C   UNL A   1      31.693  25.374  23.092  1.00  0.00     0.182 C 
ATOM      9  N   UNL A   1      31.827  27.899  22.582  1.00  0.00    -0.322 N 
ATOM     10  C   UNL A   1      30.567  28.050  23.294  1.00  0.00     0.291 C 
ATOM     11  C   UNL A   1      31.947  26.529  22.082  1.00  0.00     0.295 C 
ATOM     12  H   UNL A   1      31.823  28.452  21.725  1.00  0.00     0.348 HD
ATOM     13  C   UNL A   1      30.390  27.010  24.390  1.00  0.00     0.222 C 
ATOM     14  O   UNL A   1      30.652  25.650  24.033  1.00  0.00    -0.366 OA
BRANCH   9  15
ATOM     15  C   UNL A   1      32.984  28.674  23.061  1.00  0.00     0.248 C 
ATOM     16  C   UNL A   1      34.236  28.355  22.234  1.00  0.00     0.084 C 
BRANCH  15  17
ATOM     17  C   UNL A   1      33.313  28.692  24.535  1.00  0.00     0.161 A 
ATOM     18  C   UNL A   1      33.293  30.803  27.433  1.00  0.00     0.087 C 
ATOM     19  C   UNL A   1      33.369  29.627  26.539  1.00  0.00     0.101 A 
ATOM     20  C   UNL A   1      33.788  28.326  26.710  1.00  0.00     0.046 A 
ATOM     21  O   UNL A   1      33.015  29.829  25.239  1.00  0.00    -0.460 OA
ATOM     22  C   UNL A   1      33.754  27.726  25.424  1.00  0.00     0.052 A 
ENDBRANCH  15  17
ENDBRANCH   9  15
ENDBRANCH   7   8
ENDBRANCH   4   7
ENDBRANCH   2   3
ENDBRANCH   1   2
BRANCH   1  23
ATOM     23  C   UNL A   1      37.067  23.676  24.889  1.00  0.00     0.118 C 
BRANCH  23  24
ATOM     24  N   UNL A   1      38.008  22.672  25.378  1.00  0.00    -0.352 N 
ATOM     25  C   UNL A   1      39.123  22.862  26.169  1.00  0.00     0.251 C 
ATOM     26  H   UNL A   1      37.824  21.743  25.111  1.00  0.00     0.163 HD
ATOM     27  O   UNL A   1      39.933  21.962  26.320  1.00  0.00    -0.269 OA
BRANCH  25  28
ATOM     28  C   UNL A   1      39.333  24.188  26.797  1.00  0.00     0.039 A 
ATOM     29  C   UNL A   1      38.870  24.423  28.093  1.00  0.00     0.014 A 
ATOM     30  C   UNL A   1      40.052  25.176  26.121  1.00  0.00     0.014 A 
ATOM     31  C   UNL A   1      39.195  25.623  28.733  1.00  0.00     0.010 A 
ATOM     32  C   UNL A   1      40.487  26.301  26.805  1.00  0.00     0.010 A 
ATOM     33  C   UNL A   1      40.043  26.555  28.109  1.00  0.00    -0.014 A 
BRANCH  33  34
ATOM     34  C   UNL A   1      40.456  27.817  28.772  1.00  0.00     0.031 A 
ATOM     35  C   UNL A   1      41.823  27.916  29.402  1.00  0.00     0.074 A 
ATOM     36  C   UNL A   1      39.582  28.835  28.897  1.00  0.00     0.049 A 
ATOM     37  N   UNL A   1      42.340  28.889  30.109  1.00  0.00    -0.248 NA
ATOM     38  C   UNL A   1      42.706  26.746  29.261  1.00  0.00     0.031 C 
ATOM     39  C   UNL A   1      38.203  28.838  28.401  1.00  0.00     0.029 A 
ATOM     40  N   UNL A   1      39.720  30.062  29.495  1.00  0.00    -0.354 N 
ATOM     41  C   UNL A   1      43.583  28.428  30.529  1.00  0.00     0.074 A 
ATOM     42  C   UNL A   1      43.713  27.069  30.055  1.00  0.00     0.031 C 
ATOM     43  C   UNL A   1      37.636  30.020  28.686  1.00  0.00     0.029 A 
ATOM     44  C   UNL A   1      38.592  30.845  29.419  1.00  0.00     0.049 A 
ATOM     45  H   UNL A   1      40.549  30.356  29.937  1.00  0.00     0.167 HD
ATOM     46  C   UNL A   1      44.545  29.084  31.221  1.00  0.00     0.031 A 
ATOM     47  C   UNL A   1      38.352  32.085  29.887  1.00  0.00     0.031 A 
ATOM     48  C   UNL A   1      44.423  30.447  31.659  1.00  0.00     0.049 A 
ATOM     49  C   UNL A   1      39.447  32.819  30.609  1.00  0.00     0.074 A 
ATOM     50  C   UNL A   1      45.368  31.237  32.288  1.00  0.00     0.029 A 
ATOM     51  N   UNL A   1      43.284  31.223  31.513  1.00  0.00    -0.354 N 
ATOM     52  N   UNL A   1      40.651  32.400  30.919  1.00  0.00    -0.248 NA
ATOM     53  C   UNL A   1      39.158  34.196  31.026  1.00  0.00     0.031 C 
ATOM     54  C   UNL A   1      44.783  32.477  32.565  1.00  0.00     0.029 A 
ATOM     55  C   UNL A   1      43.492  32.478  32.058  1.00  0.00     0.049 A 
ATOM     56  H   UNL A   1      42.448  30.925  31.084  1.00  0.00     0.167 HD
ATOM     57  C   UNL A   1      41.273  33.471  31.551  1.00  0.00     0.074 A 
ATOM     58  C   UNL A   1      40.316  34.559  31.564  1.00  0.00     0.031 C 
ATOM     59  C   UNL A   1      42.524  33.547  32.070  1.00  0.00     0.031 A 
BRANCH  46  60
ATOM     60  C   UNL A   1      45.802  28.317  31.547  1.00  0.00    -0.014 A 
ATOM     61  C   UNL A   1      46.968  28.458  30.771  1.00  0.00     0.010 A 
ATOM     62  C   UNL A   1      45.812  27.426  32.635  1.00  0.00     0.010 A 
ATOM     63  C   UNL A   1      48.091  27.669  31.028  1.00  0.00     0.020 A 
ATOM     64  C   UNL A   1      46.947  26.659  32.918  1.00  0.00     0.020 A 
ATOM     65  C   UNL A   1      48.068  26.765  32.094  1.00  0.00     0.054 A 
BRANCH  65  66
ATOM     66  S   UNL A   1      49.531  25.734  32.392  1.00  0.00     0.124 S 
ATOM     67  O   UNL A   1      50.545  26.737  32.707  1.00  0.00    -0.237 OA
ATOM     68  O   UNL A   1      49.111  24.896  33.513  1.00  0.00    -0.237 OA
ATOM     69  O   UNL A   1      49.722  25.029  31.127  1.00  0.00    -0.744 OA
ENDBRANCH  65  66
ENDBRANCH  46  60
BRANCH  47  70
ATOM     70  C   UNL A   1      37.024  32.712  29.644  1.00  0.00    -0.014 A 
ATOM     71  C   UNL A   1      36.090  32.829  30.688  1.00  0.00     0.010 A 
ATOM     72  C   UNL A   1      36.714  33.260  28.385  1.00  0.00     0.010 A 
ATOM     73  C   UNL A   1      34.873  33.486  30.481  1.00  0.00     0.020 A 
ATOM     74  C   UNL A   1      35.509  33.939  28.181  1.00  0.00     0.020 A 
ATOM     75  C   UNL A   1      34.595  34.047  29.231  1.00  0.00     0.054 A 
BRANCH  75  76
ATOM     76  S   UNL A   1      33.055  34.983  29.017  1.00  0.00     0.124 S 
ATOM     77  O   UNL A   1      33.548  36.286  28.582  1.00  0.00    -0.237 OA
ATOM     78  O   UNL A   1      32.349  34.202  28.004  1.00  0.00    -0.237 OA
ATOM     79  O   UNL A   1      32.449  34.954  30.346  1.00  0.00    -0.744 OA
ENDBRANCH  75  76
ENDBRANCH  47  70
BRANCH  59  80
ATOM     80  C   UNL A   1      42.945  34.859  32.676  1.00  0.00    -0.014 A 
ATOM     81  C   UNL A   1      42.698  35.151  34.029  1.00  0.00     0.010 A 
ATOM     82  C   UNL A   1      43.650  35.788  31.891  1.00  0.00     0.010 A 
ATOM     83  C   UNL A   1      43.123  36.363  34.577  1.00  0.00     0.020 A 
ATOM     84  C   UNL A   1      44.102  36.990  32.442  1.00  0.00     0.020 A 
ATOM     85  C   UNL A   1      43.822  37.276  33.780  1.00  0.00     0.054 A 
BRANCH  85  86
ATOM     86  S   UNL A   1      44.401  38.824  34.525  1.00  0.00     0.124 S 
ATOM     87  O   UNL A   1      44.379  38.502  35.949  1.00  0.00    -0.237 OA
ATOM     88  O   UNL A   1      45.728  38.988  33.938  1.00  0.00    -0.237 OA
ATOM     89  O   UNL A   1      43.411  39.808  34.094  1.00  0.00    -0.744 OA
ENDBRANCH  85  86
ENDBRANCH  59  80
ENDBRANCH  33  34
ENDBRANCH  25  28
ENDBRANCH  23  24
ENDBRANCH   1  23
TORSDOF 16
ENDMDL
MODEL 3
REMARK VINA RESULT:     -10.7      0.968      1.999
REMARK SMILES Cc1ccc([C@@H](C)[N@@H+]2CCO[C@H](CC(=O)NCCCNC(=O)c3ccc(-c4c5nc(c(-c6ccc(S(=O)(=O)[O-])cc6)c6ccc([nH]6)c(-c6ccc(S(=O)(=O)[O-])cc6)c6nc(c(-c7ccc(S(=O)(=O)[O-])cc7)c7ccc4[nH]7)C=C6)C=C5)cc3)C2)o1
REMARK SMILES IDX 18 1 17 2 16 3 14 4 15 5 13 7 12 8 8 9 9 10 83 11 10 13
REMARK SMILES IDX 11 14 6 15 7 16 5 17 1 18 2 19 3 20 84 21 4 22 19 23 20 24
REMARK SMILES IDX 21 25 22 27 23 28 24 29 82 30 25 31 81 32 26 33 27 34 28 35
REMARK SMILES IDX 75 36 29 37 80 38 74 39 76 40 30 41 79 42 73 43 72 44 31 46
REMARK SMILES IDX 61 47 42 48 60 49 43 50 46 51 59 52 77 53 44 54 45 55 58 57
REMARK SMILES IDX 78 58 47 59 32 60 33 61 41 62 34 63 40 64 35 65 36 66 37 67
REMARK SMILES IDX 38 68 39 69 62 70 63 71 71 72 64 73 70 74 65 75 66 76 67 77
REMARK SMILES IDX 68 78 69 79 48 80 49 81 57 82 50 83 56 84 51 85 52 86 53 87
REMARK SMILES IDX 54 88 55 89
REMARK H PARENT 16 6 8 12 20 26 76 45 46 56
REMARK Flexibility Score: inf
ROOT
ATOM      1  C   UNL A   1      33.920  28.538  25.403  1.00  0.00     0.042 C 
ENDROOT
BRANCH   1   2
ATOM      2  C   UNL A   1      32.789  27.844  24.664  1.00  0.00     0.117 C 
BRANCH   2   3
ATOM      3  N   UNL A   1      33.306  27.058  23.566  1.00  0.00    -0.356 N 
ATOM      4  C   UNL A   1      33.425  25.700  23.503  1.00  0.00     0.222 C 
ATOM      5  O   UNL A   1      34.036  25.208  22.553  1.00  0.00    -0.275 OA
ATOM      6  H   UNL A   1      33.606  27.560  22.774  1.00  0.00     0.163 HD
BRANCH   4   7
ATOM      7  C   UNL A   1      32.672  24.829  24.484  1.00  0.00     0.138 C 
BRANCH   7   8
ATOM      8  C   UNL A   1      33.090  24.742  25.952  1.00  0.00     0.182 C 
ATOM      9  N   UNL A   1      34.906  22.935  26.255  1.00  0.00    -0.322 N 
ATOM     10  C   UNL A   1      34.127  22.422  27.371  1.00  0.00     0.291 C 
ATOM     11  C   UNL A   1      34.592  24.350  26.045  1.00  0.00     0.295 C 
ATOM     12  H   UNL A   1      35.898  22.958  26.490  1.00  0.00     0.348 HD
ATOM     13  C   UNL A   1      32.635  22.671  27.202  1.00  0.00     0.222 C 
ATOM     14  O   UNL A   1      32.244  23.995  26.830  1.00  0.00    -0.366 OA
BRANCH   9  15
ATOM     15  C   UNL A   1      35.204  22.016  25.144  1.00  0.00     0.248 C 
ATOM     16  C   UNL A   1      36.017  22.722  24.051  1.00  0.00     0.084 C 
BRANCH  15  17
ATOM     17  C   UNL A   1      34.091  21.199  24.531  1.00  0.00     0.161 A 
ATOM     18  C   UNL A   1      32.611  17.933  24.550  1.00  0.00     0.087 C 
ATOM     19  C   UNL A   1      32.857  19.375  24.327  1.00  0.00     0.101 A 
ATOM     20  C   UNL A   1      32.270  20.327  23.523  1.00  0.00     0.046 A 
ATOM     21  O   UNL A   1      33.914  19.920  24.990  1.00  0.00    -0.460 OA
ATOM     22  C   UNL A   1      33.063  21.498  23.652  1.00  0.00     0.052 A 
ENDBRANCH  15  17
ENDBRANCH   9  15
ENDBRANCH   7   8
ENDBRANCH   4   7
ENDBRANCH   2   3
ENDBRANCH   1   2
BRANCH   1  23
ATOM     23  C   UNL A   1      33.667  28.579  26.892  1.00  0.00     0.118 C 
BRANCH  23  24
ATOM     24  N   UNL A   1      33.588  29.952  27.383  1.00  0.00    -0.352 N 
ATOM     25  C   UNL A   1      34.515  30.644  28.135  1.00  0.00     0.251 C 
ATOM     26  H   UNL A   1      32.770  30.447  27.147  1.00  0.00     0.163 HD
ATOM     27  O   UNL A   1      34.220  31.709  28.652  1.00  0.00    -0.269 OA
BRANCH  25  28
ATOM     28  C   UNL A   1      35.859  30.050  28.331  1.00  0.00     0.039 A 
ATOM     29  C   UNL A   1      36.814  30.145  27.317  1.00  0.00     0.014 A 
ATOM     30  C   UNL A   1      36.190  29.457  29.551  1.00  0.00     0.014 A 
ATOM     31  C   UNL A   1      38.121  29.711  27.560  1.00  0.00     0.010 A 
ATOM     32  C   UNL A   1      37.514  29.157  29.835  1.00  0.00     0.010 A 
ATOM     33  C   UNL A   1      38.492  29.252  28.836  1.00  0.00    -0.014 A 
BRANCH  33  34
ATOM     34  C   UNL A   1      39.880  28.831  29.153  1.00  0.00     0.031 A 
ATOM     35  C   UNL A   1      40.828  29.811  29.800  1.00  0.00     0.074 A 
ATOM     36  C   UNL A   1      40.322  27.615  28.777  1.00  0.00     0.049 A 
ATOM     37  N   UNL A   1      42.101  29.675  30.071  1.00  0.00    -0.248 NA
ATOM     38  C   UNL A   1      40.283  31.135  30.142  1.00  0.00     0.031 C 
ATOM     39  C   UNL A   1      39.530  26.602  28.075  1.00  0.00     0.029 A 
ATOM     40  N   UNL A   1      41.555  27.029  28.922  1.00  0.00    -0.354 N 
ATOM     41  C   UNL A   1      42.512  30.905  30.570  1.00  0.00     0.074 A 
ATOM     42  C   UNL A   1      41.373  31.792  30.503  1.00  0.00     0.031 C 
ATOM     43  C   UNL A   1      40.286  25.510  27.880  1.00  0.00     0.029 A 
ATOM     44  C   UNL A   1      41.626  25.756  28.406  1.00  0.00     0.049 A 
ATOM     45  H   UNL A   1      42.317  27.477  29.356  1.00  0.00     0.167 HD
ATOM     46  C   UNL A   1      43.720  31.262  31.069  1.00  0.00     0.031 A 
ATOM     47  C   UNL A   1      42.653  24.886  28.357  1.00  0.00     0.031 A 
ATOM     48  C   UNL A   1      44.839  30.365  31.166  1.00  0.00     0.049 A 
ATOM     49  C   UNL A   1      43.972  25.278  28.961  1.00  0.00     0.074 A 
ATOM     50  C   UNL A   1      46.078  30.594  31.734  1.00  0.00     0.029 A 
ATOM     51  N   UNL A   1      44.852  29.066  30.681  1.00  0.00    -0.354 N 
ATOM     52  N   UNL A   1      44.318  26.417  29.512  1.00  0.00    -0.248 NA
ATOM     53  C   UNL A   1      45.032  24.262  28.953  1.00  0.00     0.031 C 
ATOM     54  C   UNL A   1      46.859  29.447  31.550  1.00  0.00     0.029 A 
ATOM     55  C   UNL A   1      46.085  28.485  30.917  1.00  0.00     0.049 A 
ATOM     56  H   UNL A   1      44.095  28.622  30.233  1.00  0.00     0.167 HD
ATOM     57  C   UNL A   1      45.632  26.250  29.936  1.00  0.00     0.074 A 
ATOM     58  C   UNL A   1      46.010  24.894  29.591  1.00  0.00     0.031 C 
ATOM     59  C   UNL A   1      46.448  27.136  30.558  1.00  0.00     0.031 A 
BRANCH  46  60
ATOM     60  C   UNL A   1      43.879  32.687  31.534  1.00  0.00    -0.014 A 
ATOM     61  C   UNL A   1      43.683  33.045  32.882  1.00  0.00     0.010 A 
ATOM     62  C   UNL A   1      44.209  33.690  30.605  1.00  0.00     0.010 A 
ATOM     63  C   UNL A   1      43.739  34.383  33.276  1.00  0.00     0.020 A 
ATOM     64  C   UNL A   1      44.302  35.028  31.003  1.00  0.00     0.020 A 
ATOM     65  C   UNL A   1      44.037  35.368  32.331  1.00  0.00     0.054 A 
BRANCH  65  66
ATOM     66  S   UNL A   1      44.079  37.101  32.863  1.00  0.00     0.124 S 
ATOM     67  O   UNL A   1      45.352  37.164  33.579  1.00  0.00    -0.237 OA
ATOM     68  O   UNL A   1      44.038  37.828  31.597  1.00  0.00    -0.237 OA
ATOM     69  O   UNL A   1      42.888  37.237  33.697  1.00  0.00    -0.744 OA
ENDBRANCH  65  66
ENDBRANCH  46  60
BRANCH  47  70
ATOM     70  C   UNL A   1      42.445  23.546  27.745  1.00  0.00    -0.014 A 
ATOM     71  C   UNL A   1      42.861  23.293  26.426  1.00  0.00     0.010 A 
ATOM     72  C   UNL A   1      41.894  22.494  28.501  1.00  0.00     0.010 A 
ATOM     73  C   UNL A   1      42.737  22.014  25.876  1.00  0.00     0.020 A 
ATOM     74  C   UNL A   1      41.791  21.208  27.963  1.00  0.00     0.020 A 
ATOM     75  C   UNL A   1      42.212  20.976  26.652  1.00  0.00     0.054 A 
BRANCH  75  76
ATOM     76  S   UNL A   1      42.156  19.303  25.950  1.00  0.00     0.124 S 
ATOM     77  O   UNL A   1      42.727  18.501  27.027  1.00  0.00    -0.237 OA
ATOM     78  O   UNL A   1      40.728  19.111  25.706  1.00  0.00    -0.237 OA
ATOM     79  O   UNL A   1      42.975  19.410  24.745  1.00  0.00    -0.744 OA
ENDBRANCH  75  76
ENDBRANCH  47  70
BRANCH  59  80
ATOM     80  C   UNL A   1      47.827  26.664  30.931  1.00  0.00    -0.014 A 
ATOM     81  C   UNL A   1      48.927  26.877  30.081  1.00  0.00     0.010 A 
ATOM     82  C   UNL A   1      48.034  26.051  32.180  1.00  0.00     0.010 A 
ATOM     83  C   UNL A   1      50.204  26.456  30.461  1.00  0.00     0.020 A 
ATOM     84  C   UNL A   1      49.314  25.655  32.576  1.00  0.00     0.020 A 
ATOM     85  C   UNL A   1      50.389  25.846  31.706  1.00  0.00     0.054 A 
BRANCH  85  86
ATOM     86  S   UNL A   1      52.062  25.348  32.195  1.00  0.00     0.124 S 
ATOM     87  O   UNL A   1      52.855  25.780  31.048  1.00  0.00    -0.237 OA
ATOM     88  O   UNL A   1      52.276  26.102  33.427  1.00  0.00    -0.237 OA
ATOM     89  O   UNL A   1      51.956  23.901  32.369  1.00  0.00    -0.744 OA
ENDBRANCH  85  86
ENDBRANCH  59  80
ENDBRANCH  33  34
ENDBRANCH  25  28
ENDBRANCH  23  24
ENDBRANCH   1  23
TORSDOF 16
ENDMDL
