MODEL 1
REMARK VINA RESULT:     -11.5      0.000      0.000
REMARK SMILES O=C(NCCCNC(=O)[C@@H]1CCCCN1c1ccccc1[N+](=O)[O-])c1ccc(-c2c3nc(c(-c4ccc(S(=O)(=O)[O-])cc4)c4ccc([nH]4)c(-c4ccc(S(=O)(=O)[O-])cc4)c4nc(c(-c5ccc(S(=O)(=O)[O-])cc5)c5ccc2[nH]5)C=C4)C=C3)cc1
REMARK SMILES IDX 4 1 3 2 1 3 2 4 25 6 26 7 84 8 27 9 83 10 28 11 29 12 30 13
REMARK SMILES IDX 77 14 31 15 82 16 76 17 78 18 32 19 81 20 75 21 74 22 33 24
REMARK SMILES IDX 63 25 44 26 62 27 45 28 48 29 61 30 79 31 46 32 47 33 60 35
REMARK SMILES IDX 80 36 49 37 34 38 35 39 43 40 36 41 42 42 37 43 38 44 39 45
REMARK SMILES IDX 40 46 41 47 64 48 65 49 73 50 66 51 72 52 67 53 68 54 69 55
REMARK SMILES IDX 70 56 71 57 50 58 51 59 59 60 52 61 58 62 53 63 54 64 55 65
REMARK SMILES IDX 56 66 57 67 5 68 6 69 7 70 8 71 9 73 10 74 11 75 15 76 12 77
REMARK SMILES IDX 14 78 13 79 16 80 17 81 21 82 18 83 20 84 19 85 22 86 23 87
REMARK SMILES IDX 24 88
REMARK H PARENT 3 5 78 23 48 34 7 72
REMARK Flexibility Score: inf
ROOT
ATOM      1  C   UNL A   1      38.982  23.598  26.505  1.00  0.00     0.118 C 
ENDROOT
BRANCH   1   2
ATOM      2  N   UNL A   1      40.082  24.315  25.867  1.00  0.00    -0.352 N 
ATOM      3  O   UNL A   1      41.647  25.826  25.356  1.00  0.00    -0.269 OA
ATOM      4  C   UNL A   1      40.764  25.478  26.144  1.00  0.00     0.251 C 
ATOM      5  H   UNL A   1      40.410  23.864  25.056  1.00  0.00     0.163 HD
BRANCH   4   6
ATOM      6  C   UNL A   1      40.438  26.357  27.296  1.00  0.00     0.039 A 
ATOM      7  C   UNL A   1      40.857  27.677  27.375  1.00  0.00     0.014 A 
ATOM      8  C   UNL A   1      39.659  25.843  28.345  1.00  0.00     0.014 A 
ATOM      9  C   UNL A   1      40.723  28.388  28.561  1.00  0.00     0.010 A 
ATOM     10  C   UNL A   1      39.391  26.617  29.486  1.00  0.00     0.010 A 
ATOM     11  C   UNL A   1      39.977  27.879  29.634  1.00  0.00    -0.014 A 
BRANCH  11  12
ATOM     12  C   UNL A   1      39.843  28.719  30.858  1.00  0.00     0.031 A 
ATOM     13  C   UNL A   1      40.843  28.628  31.983  1.00  0.00     0.074 A 
ATOM     14  C   UNL A   1      38.875  29.661  30.898  1.00  0.00     0.049 A 
ATOM     15  N   UNL A   1      40.956  29.392  33.043  1.00  0.00    -0.248 NA
ATOM     16  C   UNL A   1      41.834  27.542  31.928  1.00  0.00     0.031 C 
ATOM     17  C   UNL A   1      37.832  29.841  29.881  1.00  0.00     0.029 A 
ATOM     18  N   UNL A   1      38.650  30.689  31.779  1.00  0.00    -0.354 N 
ATOM     19  C   UNL A   1      41.994  28.853  33.796  1.00  0.00     0.074 A 
ATOM     20  C   UNL A   1      42.472  27.691  33.080  1.00  0.00     0.031 C 
ATOM     21  C   UNL A   1      37.167  30.978  30.126  1.00  0.00     0.029 A 
ATOM     22  C   UNL A   1      37.672  31.563  31.362  1.00  0.00     0.049 A 
ATOM     23  H   UNL A   1      39.140  30.790  32.627  1.00  0.00     0.167 HD
ATOM     24  C   UNL A   1      42.506  29.287  34.973  1.00  0.00     0.031 A 
ATOM     25  C   UNL A   1      37.230  32.715  31.902  1.00  0.00     0.031 A 
ATOM     26  C   UNL A   1      42.054  30.464  35.667  1.00  0.00     0.049 A 
ATOM     27  C   UNL A   1      37.838  33.195  33.186  1.00  0.00     0.074 A 
ATOM     28  C   UNL A   1      42.530  31.003  36.850  1.00  0.00     0.029 A 
ATOM     29  N   UNL A   1      41.025  31.291  35.239  1.00  0.00    -0.354 N 
ATOM     30  N   UNL A   1      38.826  32.673  33.872  1.00  0.00    -0.248 NA
ATOM     31  C   UNL A   1      37.264  34.411  33.775  1.00  0.00     0.031 C 
ATOM     32  C   UNL A   1      41.763  32.132  37.158  1.00  0.00     0.029 A 
ATOM     33  C   UNL A   1      40.841  32.325  36.142  1.00  0.00     0.049 A 
ATOM     34  H   UNL A   1      40.503  31.162  34.415  1.00  0.00     0.167 HD
ATOM     35  C   UNL A   1      38.995  33.499  34.976  1.00  0.00     0.074 A 
ATOM     36  C   UNL A   1      38.028  34.571  34.848  1.00  0.00     0.031 C 
ATOM     37  C   UNL A   1      39.867  33.376  36.007  1.00  0.00     0.031 A 
BRANCH  24  38
ATOM     38  C   UNL A   1      43.591  28.458  35.610  1.00  0.00    -0.014 A 
ATOM     39  C   UNL A   1      43.293  27.416  36.507  1.00  0.00     0.010 A 
ATOM     40  C   UNL A   1      44.935  28.707  35.275  1.00  0.00     0.010 A 
ATOM     41  C   UNL A   1      44.321  26.667  37.089  1.00  0.00     0.020 A 
ATOM     42  C   UNL A   1      45.964  27.944  35.836  1.00  0.00     0.020 A 
ATOM     43  C   UNL A   1      45.651  26.940  36.754  1.00  0.00     0.054 A 
BRANCH  43  44
ATOM     44  S   UNL A   1      46.969  25.944  37.507  1.00  0.00     0.124 S 
ATOM     45  O   UNL A   1      46.331  25.487  38.740  1.00  0.00    -0.237 OA
ATOM     46  O   UNL A   1      47.206  24.910  36.503  1.00  0.00    -0.237 OA
ATOM     47  O   UNL A   1      48.062  26.896  37.687  1.00  0.00    -0.744 OA
ENDBRANCH  43  44
ENDBRANCH  24  38
BRANCH  25  48
ATOM     48  C   UNL A   1      36.153  33.487  31.223  1.00  0.00    -0.014 A 
ATOM     49  C   UNL A   1      34.998  33.877  31.924  1.00  0.00     0.010 A 
ATOM     50  C   UNL A   1      36.295  33.866  29.876  1.00  0.00     0.010 A 
ATOM     51  C   UNL A   1      34.005  34.629  31.288  1.00  0.00     0.020 A 
ATOM     52  C   UNL A   1      35.319  34.642  29.246  1.00  0.00     0.020 A 
ATOM     53  C   UNL A   1      34.175  35.010  29.954  1.00  0.00     0.054 A 
BRANCH  53  54
ATOM     54  S   UNL A   1      32.913  36.049  29.165  1.00  0.00     0.124 S 
ATOM     55  O   UNL A   1      32.275  35.107  28.250  1.00  0.00    -0.237 OA
ATOM     56  O   UNL A   1      32.099  36.479  30.299  1.00  0.00    -0.237 OA
ATOM     57  O   UNL A   1      33.694  37.109  28.532  1.00  0.00    -0.744 OA
ENDBRANCH  53  54
ENDBRANCH  25  48
BRANCH  37  58
ATOM     58  C   UNL A   1      39.821  34.441  37.067  1.00  0.00    -0.014 A 
ATOM     59  C   UNL A   1      40.540  35.640  36.920  1.00  0.00     0.010 A 
ATOM     60  C   UNL A   1      39.031  34.246  38.213  1.00  0.00     0.010 A 
ATOM     61  C   UNL A   1      40.503  36.611  37.925  1.00  0.00     0.020 A 
ATOM     62  C   UNL A   1      38.973  35.225  39.208  1.00  0.00     0.020 A 
ATOM     63  C   UNL A   1      39.725  36.393  39.065  1.00  0.00     0.054 A 
BRANCH  63  64
ATOM     64  S   UNL A   1      39.678  37.672  40.351  1.00  0.00     0.124 S 
ATOM     65  O   UNL A   1      41.096  37.932  40.572  1.00  0.00    -0.237 OA
ATOM     66  O   UNL A   1      38.933  38.751  39.706  1.00  0.00    -0.237 OA
ATOM     67  O   UNL A   1      38.983  37.021  41.459  1.00  0.00    -0.744 OA
ENDBRANCH  63  64
ENDBRANCH  37  58
ENDBRANCH  11  12
ENDBRANCH   4   6
ENDBRANCH   1   2
BRANCH   1  68
ATOM     68  C   UNL A   1      37.606  23.832  25.882  1.00  0.00     0.042 C 
BRANCH  68  69
ATOM     69  C   UNL A   1      37.059  22.615  25.151  1.00  0.00     0.117 C 
BRANCH  69  70
ATOM     70  N   UNL A   1      36.344  22.905  23.928  1.00  0.00    -0.354 N 
ATOM     71  C   UNL A   1      35.026  23.228  23.783  1.00  0.00     0.242 C 
ATOM     72  H   UNL A   1      36.873  22.866  23.099  1.00  0.00     0.163 HD
ATOM     73  O   UNL A   1      34.731  23.780  22.715  1.00  0.00    -0.273 OA
BRANCH  71  74
ATOM     74  C   UNL A   1      33.946  22.808  24.815  1.00  0.00     0.171 C 
ATOM     75  C   UNL A   1      33.008  21.782  24.138  1.00  0.00     0.035 C 
ATOM     76  N   UNL A   1      33.100  23.856  25.458  1.00  0.00    -0.354 N 
ATOM     77  C   UNL A   1      31.944  21.243  25.088  1.00  0.00     0.004 C 
ATOM     78  C   UNL A   1      32.123  23.358  26.435  1.00  0.00     0.117 C 
ATOM     79  C   UNL A   1      31.172  22.383  25.744  1.00  0.00     0.022 C 
BRANCH  76  80
ATOM     80  C   UNL A   1      33.103  25.202  25.149  1.00  0.00     0.116 A 
ATOM     81  C   UNL A   1      33.952  26.059  25.873  1.00  0.00     0.033 A 
ATOM     82  C   UNL A   1      32.275  25.818  24.172  1.00  0.00     0.292 A 
ATOM     83  C   UNL A   1      33.944  27.447  25.689  1.00  0.00     0.003 A 
ATOM     84  C   UNL A   1      32.262  27.216  23.988  1.00  0.00     0.088 A 
ATOM     85  C   UNL A   1      33.089  28.027  24.758  1.00  0.00     0.007 A 
BRANCH  82  86
ATOM     86  N   UNL A   1      31.278  25.069  23.398  1.00  0.00     0.064 N 
ATOM     87  O   UNL A   1      30.115  25.074  23.828  1.00  0.00    -0.258 OA
ATOM     88  O   UNL A   1      31.644  24.442  22.394  1.00  0.00    -0.258 OA
ENDBRANCH  82  86
ENDBRANCH  76  80
ENDBRANCH  71  74
ENDBRANCH  69  70
ENDBRANCH  68  69
ENDBRANCH   1  68
TORSDOF 15
ENDMDL
MODEL 2
REMARK VINA RESULT:     -11.4      5.138      9.643
REMARK SMILES O=C(NCCCNC(=O)[C@@H]1CCCCN1c1ccccc1[N+](=O)[O-])c1ccc(-c2c3nc(c(-c4ccc(S(=O)(=O)[O-])cc4)c4ccc([nH]4)c(-c4ccc(S(=O)(=O)[O-])cc4)c4nc(c(-c5ccc(S(=O)(=O)[O-])cc5)c5ccc2[nH]5)C=C4)C=C3)cc1
REMARK SMILES IDX 4 1 3 2 1 3 2 4 25 6 26 7 84 8 27 9 83 10 28 11 29 12 30 13
REMARK SMILES IDX 77 14 31 15 82 16 76 17 78 18 32 19 81 20 75 21 74 22 33 24
REMARK SMILES IDX 63 25 44 26 62 27 45 28 48 29 61 30 79 31 46 32 47 33 60 35
REMARK SMILES IDX 80 36 49 37 34 38 35 39 43 40 36 41 42 42 37 43 38 44 39 45
REMARK SMILES IDX 40 46 41 47 64 48 65 49 73 50 66 51 72 52 67 53 68 54 69 55
REMARK SMILES IDX 70 56 71 57 50 58 51 59 59 60 52 61 58 62 53 63 54 64 55 65
REMARK SMILES IDX 56 66 57 67 5 68 6 69 7 70 8 71 9 73 10 74 11 75 15 76 12 77
REMARK SMILES IDX 14 78 13 79 16 80 17 81 21 82 18 83 20 84 19 85 22 86 23 87
REMARK SMILES IDX 24 88
REMARK H PARENT 3 5 78 23 48 34 7 72
REMARK Flexibility Score: inf
ROOT
ATOM      1  C   UNL A   1      33.274  28.385  27.250  1.00  0.00     0.118 C 
ENDROOT
BRANCH   1   2
ATOM      2  N   UNL A   1      33.379  29.783  27.657  1.00  0.00    -0.352 N 
ATOM      3  O   UNL A   1      34.134  31.747  28.409  1.00  0.00    -0.269 OA
ATOM      4  C   UNL A   1      34.402  30.579  28.117  1.00  0.00     0.251 C 
ATOM      5  H   UNL A   1      32.523  30.266  27.585  1.00  0.00     0.163 HD
BRANCH   4   6
ATOM      6  C   UNL A   1      35.782  30.079  28.342  1.00  0.00     0.039 A 
ATOM      7  C   UNL A   1      36.210  29.579  29.564  1.00  0.00     0.014 A 
ATOM      8  C   UNL A   1      36.694  30.093  27.274  1.00  0.00     0.014 A 
ATOM      9  C   UNL A   1      37.559  29.333  29.790  1.00  0.00     0.010 A 
ATOM     10  C   UNL A   1      38.028  29.699  27.464  1.00  0.00     0.010 A 
ATOM     11  C   UNL A   1      38.492  29.375  28.745  1.00  0.00    -0.014 A 
BRANCH  11  12
ATOM     12  C   UNL A   1      39.915  29.059  29.058  1.00  0.00     0.031 A 
ATOM     13  C   UNL A   1      40.539  27.755  28.630  1.00  0.00     0.074 A 
ATOM     14  C   UNL A   1      40.682  30.013  29.628  1.00  0.00     0.049 A 
ATOM     15  N   UNL A   1      41.796  27.390  28.690  1.00  0.00    -0.248 NA
ATOM     16  C   UNL A   1      39.648  26.722  28.079  1.00  0.00     0.031 C 
ATOM     17  C   UNL A   1      40.196  31.313  30.106  1.00  0.00     0.029 A 
ATOM     18  N   UNL A   1      42.038  30.078  29.835  1.00  0.00    -0.354 N 
ATOM     19  C   UNL A   1      41.838  26.078  28.229  1.00  0.00     0.074 A 
ATOM     20  C   UNL A   1      40.479  25.705  27.904  1.00  0.00     0.031 C 
ATOM     21  C   UNL A   1      41.242  32.086  30.427  1.00  0.00     0.029 A 
ATOM     22  C   UNL A   1      42.467  31.313  30.264  1.00  0.00     0.049 A 
ATOM     23  H   UNL A   1      42.643  29.315  29.691  1.00  0.00     0.167 HD
ATOM     24  C   UNL A   1      42.909  25.260  28.086  1.00  0.00     0.031 A 
ATOM     25  C   UNL A   1      43.707  31.785  30.496  1.00  0.00     0.031 A 
ATOM     26  C   UNL A   1      44.266  25.645  28.375  1.00  0.00     0.049 A 
ATOM     27  C   UNL A   1      44.880  30.872  30.293  1.00  0.00     0.074 A 
ATOM     28  C   UNL A   1      45.422  24.897  28.232  1.00  0.00     0.029 A 
ATOM     29  N   UNL A   1      44.651  26.886  28.860  1.00  0.00    -0.354 N 
ATOM     30  N   UNL A   1      44.894  29.640  29.846  1.00  0.00    -0.248 NA
ATOM     31  C   UNL A   1      46.203  31.408  30.638  1.00  0.00     0.031 C 
ATOM     32  C   UNL A   1      46.503  25.672  28.668  1.00  0.00     0.029 A 
ATOM     33  C   UNL A   1      46.025  26.919  29.037  1.00  0.00     0.049 A 
ATOM     34  H   UNL A   1      44.040  27.633  29.049  1.00  0.00     0.167 HD
ATOM     35  C   UNL A   1      46.227  29.251  29.854  1.00  0.00     0.074 A 
ATOM     36  C   UNL A   1      46.992  30.391  30.320  1.00  0.00     0.031 C 
ATOM     37  C   UNL A   1      46.769  28.057  29.513  1.00  0.00     0.031 A 
BRANCH  24  38
ATOM     38  C   UNL A   1      42.651  23.847  27.630  1.00  0.00    -0.014 A 
ATOM     39  C   UNL A   1      42.315  22.829  28.540  1.00  0.00     0.010 A 
ATOM     40  C   UNL A   1      42.715  23.543  26.257  1.00  0.00     0.010 A 
ATOM     41  C   UNL A   1      42.087  21.524  28.090  1.00  0.00     0.020 A 
ATOM     42  C   UNL A   1      42.464  22.245  25.802  1.00  0.00     0.020 A 
ATOM     43  C   UNL A   1      42.170  21.239  26.723  1.00  0.00     0.054 A 
BRANCH  43  44
ATOM     44  S   UNL A   1      41.854  19.543  26.159  1.00  0.00     0.124 S 
ATOM     45  O   UNL A   1      42.741  19.441  25.003  1.00  0.00    -0.237 OA
ATOM     46  O   UNL A   1      42.238  18.740  27.317  1.00  0.00    -0.237 OA
ATOM     47  O   UNL A   1      40.426  19.541  25.850  1.00  0.00    -0.744 OA
ENDBRANCH  43  44
ENDBRANCH  24  38
BRANCH  25  48
ATOM     48  C   UNL A   1      43.894  33.191  30.946  1.00  0.00    -0.014 A 
ATOM     49  C   UNL A   1      43.878  33.516  32.314  1.00  0.00     0.010 A 
ATOM     50  C   UNL A   1      44.124  34.212  30.004  1.00  0.00     0.010 A 
ATOM     51  C   UNL A   1      44.085  34.835  32.730  1.00  0.00     0.020 A 
ATOM     52  C   UNL A   1      44.361  35.524  30.418  1.00  0.00     0.020 A 
ATOM     53  C   UNL A   1      44.330  35.829  31.779  1.00  0.00     0.054 A 
BRANCH  53  54
ATOM     54  S   UNL A   1      44.672  37.522  32.339  1.00  0.00     0.124 S 
ATOM     55  O   UNL A   1      46.097  37.654  32.050  1.00  0.00    -0.237 OA
ATOM     56  O   UNL A   1      43.780  38.321  31.504  1.00  0.00    -0.237 OA
ATOM     57  O   UNL A   1      44.320  37.487  33.757  1.00  0.00    -0.744 OA
ENDBRANCH  53  54
ENDBRANCH  25  48
BRANCH  37  58
ATOM     58  C   UNL A   1      48.264  27.932  29.618  1.00  0.00    -0.014 A 
ATOM     59  C   UNL A   1      49.095  28.254  28.531  1.00  0.00     0.010 A 
ATOM     60  C   UNL A   1      48.841  27.508  30.827  1.00  0.00     0.010 A 
ATOM     61  C   UNL A   1      50.481  28.113  28.639  1.00  0.00     0.020 A 
ATOM     62  C   UNL A   1      50.228  27.388  30.946  1.00  0.00     0.020 A 
ATOM     63  C   UNL A   1      51.038  27.674  29.844  1.00  0.00     0.054 A 
BRANCH  63  64
ATOM     64  S   UNL A   1      52.840  27.513  29.969  1.00  0.00     0.124 S 
ATOM     65  O   UNL A   1      52.995  26.102  30.308  1.00  0.00    -0.237 OA
ATOM     66  O   UNL A   1      53.292  27.894  28.633  1.00  0.00    -0.237 OA
ATOM     67  O   UNL A   1      53.197  28.452  31.031  1.00  0.00    -0.744 OA
ENDBRANCH  63  64
ENDBRANCH  37  58
ENDBRANCH  11  12
ENDBRANCH   4   6
ENDBRANCH   1   2
BRANCH   1  68
ATOM     68  C   UNL A   1      34.067  28.012  25.998  1.00  0.00     0.042 C 
BRANCH  68  69
ATOM     69  C   UNL A   1      33.483  28.592  24.718  1.00  0.00     0.117 C 
BRANCH  69  70
ATOM     70  N   UNL A   1      33.845  27.890  23.506  1.00  0.00    -0.354 N 
ATOM     71  C   UNL A   1      33.072  27.050  22.760  1.00  0.00     0.242 C 
ATOM     72  H   UNL A   1      34.762  28.037  23.180  1.00  0.00     0.163 HD
ATOM     73  O   UNL A   1      33.461  26.863  21.599  1.00  0.00    -0.273 OA
BRANCH  71  74
ATOM     74  C   UNL A   1      31.871  26.269  23.358  1.00  0.00     0.171 C 
ATOM     75  C   UNL A   1      31.183  27.174  24.406  1.00  0.00     0.035 C 
ATOM     76  N   UNL A   1      32.104  24.933  23.981  1.00  0.00    -0.354 N 
ATOM     77  C   UNL A   1      29.940  26.532  25.011  1.00  0.00     0.004 C 
ATOM     78  C   UNL A   1      30.901  24.267  24.499  1.00  0.00     0.117 C 
ATOM     79  C   UNL A   1      30.257  25.148  25.567  1.00  0.00     0.022 C 
BRANCH  76  80
ATOM     80  C   UNL A   1      33.333  24.336  24.183  1.00  0.00     0.116 A 
ATOM     81  C   UNL A   1      34.090  24.713  25.307  1.00  0.00     0.033 A 
ATOM     82  C   UNL A   1      33.931  23.385  23.313  1.00  0.00     0.292 A 
ATOM     83  C   UNL A   1      35.385  24.229  25.530  1.00  0.00     0.003 A 
ATOM     84  C   UNL A   1      35.237  22.900  23.533  1.00  0.00     0.088 A 
ATOM     85  C   UNL A   1      35.964  23.335  24.637  1.00  0.00     0.007 A 
BRANCH  82  86
ATOM     86  N   UNL A   1      33.302  22.959  22.058  1.00  0.00     0.064 N 
ATOM     87  O   UNL A   1      32.557  21.969  22.111  1.00  0.00    -0.258 OA
ATOM     88  O   UNL A   1      33.571  23.570  21.014  1.00  0.00    -0.258 OA
ENDBRANCH  82  86
ENDBRANCH  76  80
ENDBRANCH  71  74
ENDBRANCH  69  70
ENDBRANCH  68  69
ENDBRANCH   1  68
TORSDOF 15
ENDMDL
MODEL 3
REMARK VINA RESULT:     -11.4      5.102      9.578
REMARK SMILES O=C(NCCCNC(=O)[C@@H]1CCCCN1c1ccccc1[N+](=O)[O-])c1ccc(-c2c3nc(c(-c4ccc(S(=O)(=O)[O-])cc4)c4ccc([nH]4)c(-c4ccc(S(=O)(=O)[O-])cc4)c4nc(c(-c5ccc(S(=O)(=O)[O-])cc5)c5ccc2[nH]5)C=C4)C=C3)cc1
REMARK SMILES IDX 4 1 3 2 1 3 2 4 25 6 26 7 84 8 27 9 83 10 28 11 29 12 30 13
REMARK SMILES IDX 77 14 31 15 82 16 76 17 78 18 32 19 81 20 75 21 74 22 33 24
REMARK SMILES IDX 63 25 44 26 62 27 45 28 48 29 61 30 79 31 46 32 47 33 60 35
REMARK SMILES IDX 80 36 49 37 34 38 35 39 43 40 36 41 42 42 37 43 38 44 39 45
REMARK SMILES IDX 40 46 41 47 64 48 65 49 73 50 66 51 72 52 67 53 68 54 69 55
REMARK SMILES IDX 70 56 71 57 50 58 51 59 59 60 52 61 58 62 53 63 54 64 55 65
REMARK SMILES IDX 56 66 57 67 5 68 6 69 7 70 8 71 9 73 10 74 11 75 15 76 12 77
REMARK SMILES IDX 14 78 13 79 16 80 17 81 21 82 18 83 20 84 19 85 22 86 23 87
REMARK SMILES IDX 24 88
REMARK H PARENT 3 5 78 23 48 34 7 72
REMARK Flexibility Score: inf
ROOT
ATOM      1  C   UNL A   1      34.123  27.787  26.091  1.00  0.00     0.118 C 
ENDROOT
BRANCH   1   2
ATOM      2  N   UNL A   1      33.717  29.021  26.757  1.00  0.00    -0.352 N 
ATOM      3  O   UNL A   1      33.692  30.884  27.990  1.00  0.00    -0.269 OA
ATOM      4  C   UNL A   1      34.358  29.943  27.552  1.00  0.00     0.251 C 
ATOM      5  H   UNL A   1      32.771  29.244  26.601  1.00  0.00     0.163 HD
BRANCH   4   6
ATOM      6  C   UNL A   1      35.781  29.817  27.958  1.00  0.00     0.039 A 
ATOM      7  C   UNL A   1      36.835  30.082  27.095  1.00  0.00     0.014 A 
ATOM      8  C   UNL A   1      36.081  29.429  29.273  1.00  0.00     0.014 A 
ATOM      9  C   UNL A   1      38.135  29.739  27.445  1.00  0.00     0.010 A 
ATOM     10  C   UNL A   1      37.411  29.226  29.676  1.00  0.00     0.010 A 
ATOM     11  C   UNL A   1      38.452  29.317  28.744  1.00  0.00    -0.014 A 
BRANCH  11  12
ATOM     12  C   UNL A   1      39.876  29.005  29.055  1.00  0.00     0.031 A 
ATOM     13  C   UNL A   1      40.502  27.702  28.629  1.00  0.00     0.074 A 
ATOM     14  C   UNL A   1      40.642  29.963  29.620  1.00  0.00     0.049 A 
ATOM     15  N   UNL A   1      41.761  27.340  28.687  1.00  0.00    -0.248 NA
ATOM     16  C   UNL A   1      39.614  26.664  28.083  1.00  0.00     0.031 C 
ATOM     17  C   UNL A   1      40.153  31.263  30.096  1.00  0.00     0.029 A 
ATOM     18  N   UNL A   1      41.998  30.032  29.824  1.00  0.00    -0.354 N 
ATOM     19  C   UNL A   1      41.806  26.027  28.230  1.00  0.00     0.074 A 
ATOM     20  C   UNL A   1      40.447  25.649  27.909  1.00  0.00     0.031 C 
ATOM     21  C   UNL A   1      41.197  32.039  30.413  1.00  0.00     0.029 A 
ATOM     22  C   UNL A   1      42.425  31.270  30.249  1.00  0.00     0.049 A 
ATOM     23  H   UNL A   1      42.605  29.271  29.681  1.00  0.00     0.167 HD
ATOM     24  C   UNL A   1      42.879  25.213  28.086  1.00  0.00     0.031 A 
ATOM     25  C   UNL A   1      43.664  31.746  30.477  1.00  0.00     0.031 A 
ATOM     26  C   UNL A   1      44.235  25.601  28.372  1.00  0.00     0.049 A 
ATOM     27  C   UNL A   1      44.839  30.836  30.274  1.00  0.00     0.074 A 
ATOM     28  C   UNL A   1      45.393  24.856  28.228  1.00  0.00     0.029 A 
ATOM     29  N   UNL A   1      44.618  26.845  28.852  1.00  0.00    -0.354 N 
ATOM     30  N   UNL A   1      44.855  29.602  29.830  1.00  0.00    -0.248 NA
ATOM     31  C   UNL A   1      46.161  31.376  30.615  1.00  0.00     0.031 C 
ATOM     32  C   UNL A   1      46.472  25.636  28.659  1.00  0.00     0.029 A 
ATOM     33  C   UNL A   1      45.992  26.883  29.026  1.00  0.00     0.049 A 
ATOM     34  H   UNL A   1      44.005  27.591  29.041  1.00  0.00     0.167 HD
ATOM     35  C   UNL A   1      46.189  29.217  29.836  1.00  0.00     0.074 A 
ATOM     36  C   UNL A   1      46.952  30.361  30.298  1.00  0.00     0.031 C 
ATOM     37  C   UNL A   1      46.734  28.023  29.497  1.00  0.00     0.031 A 
BRANCH  24  38
ATOM     38  C   UNL A   1      42.624  23.797  27.635  1.00  0.00    -0.014 A 
ATOM     39  C   UNL A   1      42.168  22.810  28.527  1.00  0.00     0.010 A 
ATOM     40  C   UNL A   1      42.813  23.460  26.281  1.00  0.00     0.010 A 
ATOM     41  C   UNL A   1      41.947  21.502  28.082  1.00  0.00     0.020 A 
ATOM     42  C   UNL A   1      42.568  22.161  25.828  1.00  0.00     0.020 A 
ATOM     43  C   UNL A   1      42.155  21.184  26.736  1.00  0.00     0.054 A 
BRANCH  43  44
ATOM     44  S   UNL A   1      41.844  19.486  26.177  1.00  0.00     0.124 S 
ATOM     45  O   UNL A   1      42.683  19.405  24.983  1.00  0.00    -0.237 OA
ATOM     46  O   UNL A   1      42.290  18.684  27.313  1.00  0.00    -0.237 OA
ATOM     47  O   UNL A   1      40.404  19.461  25.928  1.00  0.00    -0.744 OA
ENDBRANCH  43  44
ENDBRANCH  24  38
BRANCH  25  48
ATOM     48  C   UNL A   1      43.848  33.154  30.923  1.00  0.00    -0.014 A 
ATOM     49  C   UNL A   1      44.060  34.182  29.987  1.00  0.00     0.010 A 
ATOM     50  C   UNL A   1      43.778  33.479  32.290  1.00  0.00     0.010 A 
ATOM     51  C   UNL A   1      44.201  35.507  30.412  1.00  0.00     0.020 A 
ATOM     52  C   UNL A   1      43.889  34.804  32.715  1.00  0.00     0.020 A 
ATOM     53  C   UNL A   1      44.110  35.810  31.773  1.00  0.00     0.054 A 
BRANCH  53  54
ATOM     54  S   UNL A   1      44.220  37.542  32.301  1.00  0.00     0.124 S 
ATOM     55  O   UNL A   1      43.294  37.573  33.430  1.00  0.00    -0.237 OA
ATOM     56  O   UNL A   1      45.634  37.684  32.639  1.00  0.00    -0.237 OA
ATOM     57  O   UNL A   1      43.792  38.286  31.118  1.00  0.00    -0.744 OA
ENDBRANCH  53  54
ENDBRANCH  25  48
BRANCH  37  58
ATOM     58  C   UNL A   1      48.229  27.904  29.599  1.00  0.00    -0.014 A 
ATOM     59  C   UNL A   1      49.057  28.229  28.511  1.00  0.00     0.010 A 
ATOM     60  C   UNL A   1      48.811  27.481  30.807  1.00  0.00     0.010 A 
ATOM     61  C   UNL A   1      50.444  28.092  28.616  1.00  0.00     0.020 A 
ATOM     62  C   UNL A   1      50.198  27.365  30.923  1.00  0.00     0.020 A 
ATOM     63  C   UNL A   1      51.004  27.654  29.819  1.00  0.00     0.054 A 
BRANCH  63  64
ATOM     64  S   UNL A   1      52.807  27.498  29.941  1.00  0.00     0.124 S 
ATOM     65  O   UNL A   1      52.962  26.725  31.169  1.00  0.00    -0.237 OA
ATOM     66  O   UNL A   1      53.155  26.797  28.707  1.00  0.00    -0.237 OA
ATOM     67  O   UNL A   1      53.268  28.883  30.014  1.00  0.00    -0.744 OA
ENDBRANCH  63  64
ENDBRANCH  37  58
ENDBRANCH  11  12
ENDBRANCH   4   6
ENDBRANCH   1   2
BRANCH   1  68
ATOM     68  C   UNL A   1      33.249  27.369  24.909  1.00  0.00     0.042 C 
BRANCH  68  69
ATOM     69  C   UNL A   1      34.017  27.252  23.601  1.00  0.00     0.117 C 
BRANCH  69  70
ATOM     70  N   UNL A   1      33.612  26.156  22.749  1.00  0.00    -0.354 N 
ATOM     71  C   UNL A   1      33.719  24.818  22.994  1.00  0.00     0.242 C 
ATOM     72  H   UNL A   1      33.209  26.407  21.887  1.00  0.00     0.163 HD
ATOM     73  O   UNL A   1      32.990  24.093  22.304  1.00  0.00    -0.273 OA
BRANCH  71  74
ATOM     74  C   UNL A   1      34.778  24.230  23.964  1.00  0.00     0.171 C 
ATOM     75  C   UNL A   1      35.606  23.179  23.190  1.00  0.00     0.035 C 
ATOM     76  N   UNL A   1      34.334  23.616  25.250  1.00  0.00    -0.354 N 
ATOM     77  C   UNL A   1      36.731  22.583  24.030  1.00  0.00     0.004 C 
ATOM     78  C   UNL A   1      35.414  23.108  26.106  1.00  0.00     0.117 C 
ATOM     79  C   UNL A   1      36.195  22.036  25.349  1.00  0.00     0.022 C 
BRANCH  76  80
ATOM     80  C   UNL A   1      33.025  23.414  25.641  1.00  0.00     0.116 A 
ATOM     81  C   UNL A   1      32.389  24.406  26.411  1.00  0.00     0.033 A 
ATOM     82  C   UNL A   1      32.260  22.248  25.365  1.00  0.00     0.292 A 
ATOM     83  C   UNL A   1      31.100  24.235  26.929  1.00  0.00     0.003 A 
ATOM     84  C   UNL A   1      30.963  22.072  25.891  1.00  0.00     0.088 A 
ATOM     85  C   UNL A   1      30.394  23.063  26.682  1.00  0.00     0.007 A 
BRANCH  82  86
ATOM     86  N   UNL A   1      32.814  21.093  24.649  1.00  0.00     0.064 N 
ATOM     87  O   UNL A   1      32.715  21.099  23.413  1.00  0.00    -0.258 OA
ATOM     88  O   UNL A   1      33.310  20.163  25.301  1.00  0.00    -0.258 OA
ENDBRANCH  82  86
ENDBRANCH  76  80
ENDBRANCH  71  74
ENDBRANCH  69  70
ENDBRANCH  68  69
ENDBRANCH   1  68
TORSDOF 15
ENDMDL
