MODEL 1
REMARK VINA RESULT:     -10.0      0.000      0.000
REMARK SMILES Cc1cc(=O)c(Oc2ccc(C(=O)NCCCNC(=O)c3ccc(-c4c5nc(c(-c6ccc(S(=O)(=O)[O-])cc6)c6ccc([nH]6)c(-c6ccc(S(=O)(=O)[O-])cc6)c6nc(c(-c7ccc(S(=O)(=O)[O-])cc7)c7ccc4[nH]7)C=C6)C=C5)cc3)cc2)c(-c2ccc(S(C)(=O)=O)cc2)o1
REMARK SMILES IDX 15 1 14 2 12 3 13 4 11 6 8 7 9 8 82 9 10 10 81 11 7 12 6 13
REMARK SMILES IDX 1 14 2 15 3 16 94 17 4 18 83 19 5 20 84 21 85 22 93 23 86 24
REMARK SMILES IDX 92 25 87 26 88 27 89 28 90 29 91 30 16 31 17 32 18 33 19 34
REMARK SMILES IDX 20 36 21 37 22 38 80 39 23 40 79 41 24 42 25 43 26 44 73 45
REMARK SMILES IDX 27 46 78 47 72 48 74 49 28 50 77 51 71 52 70 53 29 55 59 56
REMARK SMILES IDX 40 57 58 58 41 59 44 60 57 61 75 62 42 63 43 64 56 66 76 67
REMARK SMILES IDX 45 68 30 69 31 70 39 71 32 72 38 73 33 74 34 75 35 76 36 77
REMARK SMILES IDX 37 78 60 79 61 80 69 81 62 82 68 83 63 84 64 85 65 86 66 87
REMARK SMILES IDX 67 88 46 89 47 90 55 91 48 92 54 93 49 94 50 95 51 96 52 97
REMARK SMILES IDX 53 98
REMARK H PARENT 14 5 18 35 74 54 44 65
REMARK Flexibility Score: inf
ROOT
ATOM      1  C   UNL A   1      42.655  21.278  26.960  1.00  0.00     0.118 C 
ENDROOT
BRANCH   1   2
ATOM      2  N   UNL A   1      43.978  21.291  26.356  1.00  0.00    -0.352 N 
ATOM      3  C   UNL A   1      44.852  22.310  26.062  1.00  0.00     0.251 C 
ATOM      4  O   UNL A   1      45.991  22.018  25.697  1.00  0.00    -0.269 OA
ATOM      5  H   UNL A   1      44.311  20.398  26.109  1.00  0.00     0.163 HD
BRANCH   3   6
ATOM      6  C   UNL A   1      44.443  23.740  26.054  1.00  0.00     0.040 A 
ATOM      7  C   UNL A   1      44.301  26.512  25.865  1.00  0.00     0.127 A 
ATOM      8  C   UNL A   1      44.808  25.938  27.024  1.00  0.00     0.048 A 
ATOM      9  C   UNL A   1      43.651  25.717  24.924  1.00  0.00     0.048 A 
ATOM     10  C   UNL A   1      44.921  24.548  27.098  1.00  0.00     0.017 A 
ATOM     11  C   UNL A   1      43.682  24.329  25.046  1.00  0.00     0.017 A 
BRANCH   7  12
ATOM     12  O   UNL A   1      44.321  27.854  25.630  1.00  0.00    -0.449 OA
BRANCH  12  13
ATOM     13  C   UNL A   1      44.697  28.803  26.570  1.00  0.00     0.217 A 
ATOM     14  C   UNL A   1      45.271  31.826  29.607  1.00  0.00     0.088 C 
ATOM     15  C   UNL A   1      44.973  30.851  28.515  1.00  0.00     0.105 A 
ATOM     16  C   UNL A   1      43.786  30.774  27.913  1.00  0.00     0.098 A 
ATOM     17  O   UNL A   1      46.027  30.027  28.183  1.00  0.00    -0.457 OA
ATOM     18  C   UNL A   1      43.577  29.751  26.882  1.00  0.00     0.228 A 
ATOM     19  C   UNL A   1      45.872  29.033  27.218  1.00  0.00     0.180 A 
ATOM     20  O   UNL A   1      42.487  29.686  26.319  1.00  0.00    -0.285 OA
BRANCH  19  21
ATOM     21  C   UNL A   1      47.140  28.290  27.079  1.00  0.00     0.021 A 
ATOM     22  C   UNL A   1      47.732  27.724  28.223  1.00  0.00     0.013 A 
ATOM     23  C   UNL A   1      47.780  28.146  25.840  1.00  0.00     0.013 A 
ATOM     24  C   UNL A   1      48.891  26.950  28.118  1.00  0.00     0.021 A 
ATOM     25  C   UNL A   1      48.948  27.381  25.730  1.00  0.00     0.021 A 
ATOM     26  C   UNL A   1      49.488  26.774  26.867  1.00  0.00     0.067 A 
BRANCH  26  27
ATOM     27  S   UNL A   1      50.882  25.677  26.724  1.00  0.00     0.175 S 
ATOM     28  C   UNL A   1      52.128  26.447  27.720  1.00  0.00     0.163 C 
ATOM     29  O   UNL A   1      50.513  24.431  27.367  1.00  0.00    -0.224 OA
ATOM     30  O   UNL A   1      51.335  25.707  25.344  1.00  0.00    -0.224 OA
ENDBRANCH  26  27
ENDBRANCH  19  21
ENDBRANCH  12  13
ENDBRANCH   7  12
ENDBRANCH   3   6
ENDBRANCH   1   2
BRANCH   1  31
ATOM     31  C   UNL A   1      41.529  21.806  26.086  1.00  0.00     0.042 C 
BRANCH  31  32
ATOM     32  C   UNL A   1      40.122  21.576  26.608  1.00  0.00     0.118 C 
BRANCH  32  33
ATOM     33  N   UNL A   1      39.087  22.253  25.832  1.00  0.00    -0.352 N 
ATOM     34  C   UNL A   1      38.619  23.547  25.853  1.00  0.00     0.251 C 
ATOM     35  H   UNL A   1      38.641  21.676  25.171  1.00  0.00     0.163 HD
ATOM     36  O   UNL A   1      37.641  23.841  25.169  1.00  0.00    -0.269 OA
BRANCH  34  37
ATOM     37  C   UNL A   1      39.235  24.574  26.725  1.00  0.00     0.039 A 
ATOM     38  C   UNL A   1      38.969  24.622  28.091  1.00  0.00     0.014 A 
ATOM     39  C   UNL A   1      40.103  25.519  26.164  1.00  0.00     0.014 A 
ATOM     40  C   UNL A   1      39.349  25.735  28.832  1.00  0.00     0.010 A 
ATOM     41  C   UNL A   1      40.597  26.570  26.946  1.00  0.00     0.010 A 
ATOM     42  C   UNL A   1      40.166  26.730  28.272  1.00  0.00    -0.014 A 
BRANCH  42  43
ATOM     43  C   UNL A   1      40.543  27.917  29.088  1.00  0.00     0.031 A 
ATOM     44  C   UNL A   1      39.590  29.074  29.254  1.00  0.00     0.074 A 
ATOM     45  C   UNL A   1      41.725  27.925  29.739  1.00  0.00     0.049 A 
ATOM     46  N   UNL A   1      39.746  30.173  29.950  1.00  0.00    -0.248 NA
ATOM     47  C   UNL A   1      38.296  28.996  28.553  1.00  0.00     0.031 C 
ATOM     48  C   UNL A   1      42.721  26.852  29.682  1.00  0.00     0.029 A 
ATOM     49  N   UNL A   1      42.276  28.839  30.603  1.00  0.00    -0.354 N 
ATOM     50  C   UNL A   1      38.588  30.918  29.756  1.00  0.00     0.074 A 
ATOM     51  C   UNL A   1      37.750  30.168  28.848  1.00  0.00     0.031 C 
ATOM     52  C   UNL A   1      43.722  27.135  30.527  1.00  0.00     0.029 A 
ATOM     53  C   UNL A   1      43.489  28.447  31.121  1.00  0.00     0.049 A 
ATOM     54  H   UNL A   1      41.844  29.694  30.832  1.00  0.00     0.167 HD
ATOM     55  C   UNL A   1      38.249  32.111  30.300  1.00  0.00     0.031 A 
ATOM     56  C   UNL A   1      44.338  29.070  31.964  1.00  0.00     0.031 A 
ATOM     57  C   UNL A   1      39.081  32.842  31.223  1.00  0.00     0.049 A 
ATOM     58  C   UNL A   1      43.965  30.419  32.507  1.00  0.00     0.074 A 
ATOM     59  C   UNL A   1      38.809  34.048  31.845  1.00  0.00     0.029 A 
ATOM     60  N   UNL A   1      40.333  32.440  31.661  1.00  0.00    -0.354 N 
ATOM     61  N   UNL A   1      42.860  31.100  32.320  1.00  0.00    -0.248 NA
ATOM     62  C   UNL A   1      44.945  31.087  33.373  1.00  0.00     0.031 C 
ATOM     63  C   UNL A   1      39.927  34.415  32.594  1.00  0.00     0.029 A 
ATOM     64  C   UNL A   1      40.862  33.393  32.515  1.00  0.00     0.049 A 
ATOM     65  H   UNL A   1      40.781  31.602  31.404  1.00  0.00     0.167 HD
ATOM     66  C   UNL A   1      43.005  32.270  33.055  1.00  0.00     0.074 A 
ATOM     67  C   UNL A   1      44.296  32.194  33.710  1.00  0.00     0.031 C 
ATOM     68  C   UNL A   1      42.147  33.313  33.168  1.00  0.00     0.031 A 
BRANCH  55  69
ATOM     69  C   UNL A   1      36.918  32.724  29.931  1.00  0.00    -0.014 A 
ATOM     70  C   UNL A   1      36.845  33.643  28.867  1.00  0.00     0.010 A 
ATOM     71  C   UNL A   1      35.774  32.505  30.719  1.00  0.00     0.010 A 
ATOM     72  C   UNL A   1      35.671  34.363  28.625  1.00  0.00     0.020 A 
ATOM     73  C   UNL A   1      34.587  33.198  30.459  1.00  0.00     0.020 A 
ATOM     74  C   UNL A   1      34.552  34.143  29.431  1.00  0.00     0.054 A 
BRANCH  74  75
ATOM     75  S   UNL A   1      33.054  35.122  29.135  1.00  0.00     0.124 S 
ATOM     76  O   UNL A   1      32.428  35.137  30.454  1.00  0.00    -0.237 OA
ATOM     77  O   UNL A   1      33.593  36.400  28.677  1.00  0.00    -0.237 OA
ATOM     78  O   UNL A   1      32.341  34.356  28.114  1.00  0.00    -0.744 OA
ENDBRANCH  74  75
ENDBRANCH  55  69
BRANCH  56  79
ATOM     79  C   UNL A   1      45.610  28.391  32.342  1.00  0.00    -0.014 A 
ATOM     80  C   UNL A   1      46.772  28.573  31.566  1.00  0.00     0.010 A 
ATOM     81  C   UNL A   1      45.643  27.478  33.410  1.00  0.00     0.010 A 
ATOM     82  C   UNL A   1      47.911  27.799  31.796  1.00  0.00     0.020 A 
ATOM     83  C   UNL A   1      46.795  26.728  33.669  1.00  0.00     0.020 A 
ATOM     84  C   UNL A   1      47.908  26.868  32.836  1.00  0.00     0.054 A 
BRANCH  84  85
ATOM     85  S   UNL A   1      49.369  25.816  33.064  1.00  0.00     0.124 S 
ATOM     86  O   UNL A   1      49.902  25.747  31.706  1.00  0.00    -0.237 OA
ATOM     87  O   UNL A   1      50.169  26.585  34.014  1.00  0.00    -0.237 OA
ATOM     88  O   UNL A   1      48.816  24.568  33.584  1.00  0.00    -0.744 OA
ENDBRANCH  84  85
ENDBRANCH  56  79
BRANCH  68  89
ATOM     89  C   UNL A   1      42.551  34.483  34.030  1.00  0.00    -0.014 A 
ATOM     90  C   UNL A   1      43.313  35.528  33.474  1.00  0.00     0.010 A 
ATOM     91  C   UNL A   1      42.313  34.472  35.415  1.00  0.00     0.010 A 
ATOM     92  C   UNL A   1      43.873  36.512  34.292  1.00  0.00     0.020 A 
ATOM     93  C   UNL A   1      42.841  35.475  36.234  1.00  0.00     0.020 A 
ATOM     94  C   UNL A   1      43.645  36.470  35.670  1.00  0.00     0.054 A 
BRANCH  94  95
ATOM     95  S   UNL A   1      44.431  37.720  36.722  1.00  0.00     0.124 S 
ATOM     96  O   UNL A   1      45.793  37.206  36.845  1.00  0.00    -0.237 OA
ATOM     97  O   UNL A   1      44.289  38.939  35.931  1.00  0.00    -0.237 OA
ATOM     98  O   UNL A   1      43.639  37.687  37.949  1.00  0.00    -0.744 OA
ENDBRANCH  94  95
ENDBRANCH  68  89
ENDBRANCH  42  43
ENDBRANCH  34  37
ENDBRANCH  32  33
ENDBRANCH  31  32
ENDBRANCH   1  31
TORSDOF 17
ENDMDL
MODEL 2
REMARK VINA RESULT:      -9.9      4.911     13.213
REMARK SMILES Cc1cc(=O)c(Oc2ccc(C(=O)NCCCNC(=O)c3ccc(-c4c5nc(c(-c6ccc(S(=O)(=O)[O-])cc6)c6ccc([nH]6)c(-c6ccc(S(=O)(=O)[O-])cc6)c6nc(c(-c7ccc(S(=O)(=O)[O-])cc7)c7ccc4[nH]7)C=C6)C=C5)cc3)cc2)c(-c2ccc(S(C)(=O)=O)cc2)o1
REMARK SMILES IDX 15 1 14 2 12 3 13 4 11 6 8 7 9 8 82 9 10 10 81 11 7 12 6 13
REMARK SMILES IDX 1 14 2 15 3 16 94 17 4 18 83 19 5 20 84 21 85 22 93 23 86 24
REMARK SMILES IDX 92 25 87 26 88 27 89 28 90 29 91 30 16 31 17 32 18 33 19 34
REMARK SMILES IDX 20 36 21 37 22 38 80 39 23 40 79 41 24 42 25 43 26 44 73 45
REMARK SMILES IDX 27 46 78 47 72 48 74 49 28 50 77 51 71 52 70 53 29 55 59 56
REMARK SMILES IDX 40 57 58 58 41 59 44 60 57 61 75 62 42 63 43 64 56 66 76 67
REMARK SMILES IDX 45 68 30 69 31 70 39 71 32 72 38 73 33 74 34 75 35 76 36 77
REMARK SMILES IDX 37 78 60 79 61 80 69 81 62 82 68 83 63 84 64 85 65 86 66 87
REMARK SMILES IDX 67 88 46 89 47 90 55 91 48 92 54 93 49 94 50 95 51 96 52 97
REMARK SMILES IDX 53 98
REMARK H PARENT 14 5 18 35 74 54 44 65
REMARK Flexibility Score: inf
ROOT
ATOM      1  C   UNL A   1      34.560  31.526  28.323  1.00  0.00     0.118 C 
ENDROOT
BRANCH   1   2
ATOM      2  N   UNL A   1      33.450  31.776  27.416  1.00  0.00    -0.352 N 
ATOM      3  C   UNL A   1      32.501  30.949  26.863  1.00  0.00     0.251 C 
ATOM      4  O   UNL A   1      31.564  31.461  26.251  1.00  0.00    -0.269 OA
ATOM      5  H   UNL A   1      33.361  32.719  27.147  1.00  0.00     0.163 HD
BRANCH   3   6
ATOM      6  C   UNL A   1      32.625  29.468  26.873  1.00  0.00     0.040 A 
ATOM      7  C   UNL A   1      32.444  26.734  26.388  1.00  0.00     0.127 A 
ATOM      8  C   UNL A   1      31.449  27.356  27.130  1.00  0.00     0.048 A 
ATOM      9  C   UNL A   1      33.627  27.413  26.106  1.00  0.00     0.048 A 
ATOM     10  C   UNL A   1      31.518  28.736  27.333  1.00  0.00     0.017 A 
ATOM     11  C   UNL A   1      33.733  28.773  26.394  1.00  0.00     0.017 A 
BRANCH   7  12
ATOM     12  O   UNL A   1      32.369  25.435  25.984  1.00  0.00    -0.449 OA
BRANCH  12  13
ATOM     13  C   UNL A   1      32.542  25.016  24.672  1.00  0.00     0.217 A 
ATOM     14  C   UNL A   1      33.263  23.183  20.823  1.00  0.00     0.088 C 
ATOM     15  C   UNL A   1      33.122  23.760  22.194  1.00  0.00     0.105 A 
ATOM     16  C   UNL A   1      33.733  23.250  23.264  1.00  0.00     0.098 A 
ATOM     17  O   UNL A   1      32.299  24.863  22.266  1.00  0.00    -0.457 OA
ATOM     18  C   UNL A   1      33.494  23.862  24.577  1.00  0.00     0.228 A 
ATOM     19  C   UNL A   1      32.034  25.471  23.493  1.00  0.00     0.180 A 
ATOM     20  O   UNL A   1      34.065  23.399  25.562  1.00  0.00    -0.285 OA
BRANCH  19  21
ATOM     21  C   UNL A   1      31.113  26.605  23.284  1.00  0.00     0.021 A 
ATOM     22  C   UNL A   1      29.755  26.456  23.621  1.00  0.00     0.013 A 
ATOM     23  C   UNL A   1      31.551  27.823  22.744  1.00  0.00     0.013 A 
ATOM     24  C   UNL A   1      28.869  27.532  23.508  1.00  0.00     0.021 A 
ATOM     25  C   UNL A   1      30.666  28.901  22.618  1.00  0.00     0.021 A 
ATOM     26  C   UNL A   1      29.334  28.754  23.015  1.00  0.00     0.067 A 
BRANCH  26  27
ATOM     27  S   UNL A   1      28.233  30.153  23.005  1.00  0.00     0.175 S 
ATOM     28  C   UNL A   1      28.207  30.656  21.307  1.00  0.00     0.163 C 
ATOM     29  O   UNL A   1      26.912  29.659  23.337  1.00  0.00    -0.224 OA
ATOM     30  O   UNL A   1      28.855  31.217  23.774  1.00  0.00    -0.224 OA
ENDBRANCH  26  27
ENDBRANCH  19  21
ENDBRANCH  12  13
ENDBRANCH   7  12
ENDBRANCH   3   6
ENDBRANCH   1   2
BRANCH   1  31
ATOM     31  C   UNL A   1      35.840  32.287  28.018  1.00  0.00     0.042 C 
BRANCH  31  32
ATOM     32  C   UNL A   1      36.429  33.079  29.170  1.00  0.00     0.118 C 
BRANCH  32  33
ATOM     33  N   UNL A   1      36.104  32.537  30.486  1.00  0.00    -0.352 N 
ATOM     34  C   UNL A   1      36.683  31.543  31.241  1.00  0.00     0.251 C 
ATOM     35  H   UNL A   1      35.325  32.963  30.912  1.00  0.00     0.163 HD
ATOM     36  O   UNL A   1      36.137  31.189  32.284  1.00  0.00    -0.269 OA
BRANCH  34  37
ATOM     37  C   UNL A   1      37.916  30.856  30.793  1.00  0.00     0.039 A 
ATOM     38  C   UNL A   1      38.904  30.474  31.696  1.00  0.00     0.014 A 
ATOM     39  C   UNL A   1      38.094  30.586  29.430  1.00  0.00     0.014 A 
ATOM     40  C   UNL A   1      40.150  30.070  31.229  1.00  0.00     0.010 A 
ATOM     41  C   UNL A   1      39.304  30.050  28.973  1.00  0.00     0.010 A 
ATOM     42  C   UNL A   1      40.372  29.854  29.860  1.00  0.00    -0.014 A 
BRANCH  42  43
ATOM     43  C   UNL A   1      41.722  29.435  29.391  1.00  0.00     0.031 A 
ATOM     44  C   UNL A   1      41.961  28.039  28.873  1.00  0.00     0.074 A 
ATOM     45  C   UNL A   1      42.725  30.338  29.368  1.00  0.00     0.049 A 
ATOM     46  N   UNL A   1      43.066  27.516  28.402  1.00  0.00    -0.248 NA
ATOM     47  C   UNL A   1      40.822  27.105  28.883  1.00  0.00     0.031 C 
ATOM     48  C   UNL A   1      42.612  31.728  29.815  1.00  0.00     0.029 A 
ATOM     49  N   UNL A   1      44.020  30.241  28.921  1.00  0.00    -0.354 N 
ATOM     50  C   UNL A   1      42.761  26.198  28.080  1.00  0.00     0.074 A 
ATOM     51  C   UNL A   1      41.378  25.984  28.443  1.00  0.00     0.031 C 
ATOM     52  C   UNL A   1      43.758  32.370  29.554  1.00  0.00     0.029 A 
ATOM     53  C   UNL A   1      44.722  31.422  29.005  1.00  0.00     0.049 A 
ATOM     54  H   UNL A   1      44.409  29.407  28.572  1.00  0.00     0.167 HD
ATOM     55  C   UNL A   1      43.557  25.258  27.518  1.00  0.00     0.031 A 
ATOM     56  C   UNL A   1      46.001  31.717  28.697  1.00  0.00     0.031 A 
ATOM     57  C   UNL A   1      44.928  25.486  27.138  1.00  0.00     0.049 A 
ATOM     58  C   UNL A   1      46.881  30.642  28.129  1.00  0.00     0.074 A 
ATOM     59  C   UNL A   1      45.806  24.599  26.539  1.00  0.00     0.029 A 
ATOM     60  N   UNL A   1      45.619  26.676  27.310  1.00  0.00    -0.354 N 
ATOM     61  N   UNL A   1      46.568  29.406  27.821  1.00  0.00    -0.248 NA
ATOM     62  C   UNL A   1      48.282  30.993  27.865  1.00  0.00     0.031 C 
ATOM     63  C   UNL A   1      47.048  25.225  26.423  1.00  0.00     0.029 A 
ATOM     64  C   UNL A   1      46.922  26.534  26.863  1.00  0.00     0.049 A 
ATOM     65  H   UNL A   1      45.239  27.500  27.693  1.00  0.00     0.167 HD
ATOM     66  C   UNL A   1      47.729  28.834  27.315  1.00  0.00     0.074 A 
ATOM     67  C   UNL A   1      48.745  29.867  27.335  1.00  0.00     0.031 C 
ATOM     68  C   UNL A   1      47.931  27.566  26.882  1.00  0.00     0.031 A 
BRANCH  55  69
ATOM     69  C   UNL A   1      42.986  23.883  27.261  1.00  0.00    -0.014 A 
ATOM     70  C   UNL A   1      43.170  22.863  28.215  1.00  0.00     0.010 A 
ATOM     71  C   UNL A   1      42.397  23.559  26.026  1.00  0.00     0.010 A 
ATOM     72  C   UNL A   1      42.818  21.541  27.923  1.00  0.00     0.020 A 
ATOM     73  C   UNL A   1      42.012  22.245  25.743  1.00  0.00     0.020 A 
ATOM     74  C   UNL A   1      42.251  21.240  26.683  1.00  0.00     0.054 A 
BRANCH  74  75
ATOM     75  S   UNL A   1      41.847  19.512  26.303  1.00  0.00     0.124 S 
ATOM     76  O   UNL A   1      40.404  19.574  26.084  1.00  0.00    -0.237 OA
ATOM     77  O   UNL A   1      42.656  19.251  25.114  1.00  0.00    -0.237 OA
ATOM     78  O   UNL A   1      42.267  18.790  27.502  1.00  0.00    -0.744 OA
ENDBRANCH  74  75
ENDBRANCH  55  69
BRANCH  56  79
ATOM     79  C   UNL A   1      46.494  33.108  28.914  1.00  0.00    -0.014 A 
ATOM     80  C   UNL A   1      46.428  34.057  27.875  1.00  0.00     0.010 A 
ATOM     81  C   UNL A   1      47.129  33.461  30.117  1.00  0.00     0.010 A 
ATOM     82  C   UNL A   1      47.056  35.298  28.002  1.00  0.00     0.020 A 
ATOM     83  C   UNL A   1      47.726  34.718  30.263  1.00  0.00     0.020 A 
ATOM     84  C   UNL A   1      47.717  35.612  29.191  1.00  0.00     0.054 A 
BRANCH  84  85
ATOM     85  S   UNL A   1      48.595  37.197  29.302  1.00  0.00     0.124 S 
ATOM     86  O   UNL A   1      48.700  37.578  27.897  1.00  0.00    -0.237 OA
ATOM     87  O   UNL A   1      47.686  38.007  30.108  1.00  0.00    -0.237 OA
ATOM     88  O   UNL A   1      49.855  36.845  29.951  1.00  0.00    -0.744 OA
ENDBRANCH  84  85
ENDBRANCH  56  79
BRANCH  68  89
ATOM     89  C   UNL A   1      49.304  27.190  26.384  1.00  0.00    -0.014 A 
ATOM     90  C   UNL A   1      49.619  27.353  25.022  1.00  0.00     0.010 A 
ATOM     91  C   UNL A   1      50.221  26.535  27.225  1.00  0.00     0.010 A 
ATOM     92  C   UNL A   1      50.800  26.823  24.497  1.00  0.00     0.020 A 
ATOM     93  C   UNL A   1      51.422  26.035  26.711  1.00  0.00     0.020 A 
ATOM     94  C   UNL A   1      51.687  26.154  25.344  1.00  0.00     0.054 A 
BRANCH  94  95
ATOM     95  S   UNL A   1      53.185  25.419  24.633  1.00  0.00     0.124 S 
ATOM     96  O   UNL A   1      54.235  26.283  25.167  1.00  0.00    -0.237 OA
ATOM     97  O   UNL A   1      53.158  24.060  25.165  1.00  0.00    -0.237 OA
ATOM     98  O   UNL A   1      52.968  25.520  23.192  1.00  0.00    -0.744 OA
ENDBRANCH  94  95
ENDBRANCH  68  89
ENDBRANCH  42  43
ENDBRANCH  34  37
ENDBRANCH  32  33
ENDBRANCH  31  32
ENDBRANCH   1  31
TORSDOF 17
ENDMDL
MODEL 3
REMARK VINA RESULT:      -9.6      5.006     12.480
REMARK SMILES Cc1cc(=O)c(Oc2ccc(C(=O)NCCCNC(=O)c3ccc(-c4c5nc(c(-c6ccc(S(=O)(=O)[O-])cc6)c6ccc([nH]6)c(-c6ccc(S(=O)(=O)[O-])cc6)c6nc(c(-c7ccc(S(=O)(=O)[O-])cc7)c7ccc4[nH]7)C=C6)C=C5)cc3)cc2)c(-c2ccc(S(C)(=O)=O)cc2)o1
REMARK SMILES IDX 15 1 14 2 12 3 13 4 11 6 8 7 9 8 82 9 10 10 81 11 7 12 6 13
REMARK SMILES IDX 1 14 2 15 3 16 94 17 4 18 83 19 5 20 84 21 85 22 93 23 86 24
REMARK SMILES IDX 92 25 87 26 88 27 89 28 90 29 91 30 16 31 17 32 18 33 19 34
REMARK SMILES IDX 20 36 21 37 22 38 80 39 23 40 79 41 24 42 25 43 26 44 73 45
REMARK SMILES IDX 27 46 78 47 72 48 74 49 28 50 77 51 71 52 70 53 29 55 59 56
REMARK SMILES IDX 40 57 58 58 41 59 44 60 57 61 75 62 42 63 43 64 56 66 76 67
REMARK SMILES IDX 45 68 30 69 31 70 39 71 32 72 38 73 33 74 34 75 35 76 36 77
REMARK SMILES IDX 37 78 60 79 61 80 69 81 62 82 68 83 63 84 64 85 65 86 66 87
REMARK SMILES IDX 67 88 46 89 47 90 55 91 48 92 54 93 49 94 50 95 51 96 52 97
REMARK SMILES IDX 53 98
REMARK H PARENT 14 5 18 35 74 54 44 65
REMARK Flexibility Score: inf
ROOT
ATOM      1  C   UNL A   1      33.044  32.865  27.635  1.00  0.00     0.118 C 
ENDROOT
BRANCH   1   2
ATOM      2  N   UNL A   1      34.282  32.240  28.072  1.00  0.00    -0.352 N 
ATOM      3  C   UNL A   1      34.829  31.001  27.835  1.00  0.00     0.251 C 
ATOM      4  O   UNL A   1      35.985  30.792  28.201  1.00  0.00    -0.269 OA
ATOM      5  H   UNL A   1      34.836  32.815  28.650  1.00  0.00     0.163 HD
BRANCH   3   6
ATOM      6  C   UNL A   1      34.044  29.875  27.264  1.00  0.00     0.040 A 
ATOM      7  C   UNL A   1      32.891  27.418  26.648  1.00  0.00     0.127 A 
ATOM      8  C   UNL A   1      34.146  27.723  26.137  1.00  0.00     0.048 A 
ATOM      9  C   UNL A   1      32.124  28.415  27.248  1.00  0.00     0.048 A 
ATOM     10  C   UNL A   1      34.742  28.938  26.486  1.00  0.00     0.017 A 
ATOM     11  C   UNL A   1      32.689  29.662  27.512  1.00  0.00     0.017 A 
BRANCH   7  12
ATOM     12  O   UNL A   1      32.312  26.193  26.515  1.00  0.00    -0.449 OA
BRANCH  12  13
ATOM     13  C   UNL A   1      32.320  25.452  25.341  1.00  0.00     0.217 A 
ATOM     14  C   UNL A   1      32.503  22.671  22.036  1.00  0.00     0.088 C 
ATOM     15  C   UNL A   1      32.546  23.576  23.224  1.00  0.00     0.105 A 
ATOM     16  C   UNL A   1      33.212  23.278  24.340  1.00  0.00     0.098 A 
ATOM     17  O   UNL A   1      31.832  24.746  23.076  1.00  0.00    -0.457 OA
ATOM     18  C   UNL A   1      33.156  24.213  25.471  1.00  0.00     0.228 A 
ATOM     19  C   UNL A   1      31.742  25.658  24.126  1.00  0.00     0.180 A 
ATOM     20  O   UNL A   1      33.777  23.945  26.497  1.00  0.00    -0.285 OA
BRANCH  19  21
ATOM     21  C   UNL A   1      30.906  26.800  23.706  1.00  0.00     0.021 A 
ATOM     22  C   UNL A   1      29.506  26.692  23.791  1.00  0.00     0.013 A 
ATOM     23  C   UNL A   1      31.469  27.984  23.210  1.00  0.00     0.013 A 
ATOM     24  C   UNL A   1      28.685  27.780  23.475  1.00  0.00     0.021 A 
ATOM     25  C   UNL A   1      30.652  29.073  22.880  1.00  0.00     0.021 A 
ATOM     26  C   UNL A   1      29.266  28.970  23.029  1.00  0.00     0.067 A 
BRANCH  26  27
ATOM     27  S   UNL A   1      28.225  30.388  22.761  1.00  0.00     0.175 S 
ATOM     28  C   UNL A   1      28.075  30.473  20.998  1.00  0.00     0.163 C 
ATOM     29  O   UNL A   1      26.917  30.066  23.298  1.00  0.00    -0.224 OA
ATOM     30  O   UNL A   1      28.951  31.566  23.203  1.00  0.00    -0.224 OA
ENDBRANCH  26  27
ENDBRANCH  19  21
ENDBRANCH  12  13
ENDBRANCH   7  12
ENDBRANCH   3   6
ENDBRANCH   1   2
BRANCH   1  31
ATOM     31  C   UNL A   1      32.868  34.322  28.034  1.00  0.00     0.042 C 
BRANCH  31  32
ATOM     32  C   UNL A   1      33.670  34.780  29.239  1.00  0.00     0.118 C 
BRANCH  32  33
ATOM     33  N   UNL A   1      32.858  35.386  30.290  1.00  0.00    -0.352 N 
ATOM     34  C   UNL A   1      32.986  35.397  31.661  1.00  0.00     0.251 C 
ATOM     35  H   UNL A   1      32.074  35.878  29.957  1.00  0.00     0.163 HD
ATOM     36  O   UNL A   1      32.087  35.886  32.341  1.00  0.00    -0.269 OA
BRANCH  34  37
ATOM     37  C   UNL A   1      34.155  34.779  32.330  1.00  0.00     0.039 A 
ATOM     38  C   UNL A   1      35.401  35.399  32.332  1.00  0.00     0.014 A 
ATOM     39  C   UNL A   1      34.004  33.544  32.972  1.00  0.00     0.014 A 
ATOM     40  C   UNL A   1      36.527  34.690  32.736  1.00  0.00     0.010 A 
ATOM     41  C   UNL A   1      35.122  32.887  33.502  1.00  0.00     0.010 A 
ATOM     42  C   UNL A   1      36.407  33.421  33.325  1.00  0.00    -0.014 A 
BRANCH  42  43
ATOM     43  C   UNL A   1      37.633  32.681  33.733  1.00  0.00     0.031 A 
ATOM     44  C   UNL A   1      38.236  31.630  32.834  1.00  0.00     0.074 A 
ATOM     45  C   UNL A   1      38.247  33.005  34.890  1.00  0.00     0.049 A 
ATOM     46  N   UNL A   1      39.314  30.910  33.022  1.00  0.00    -0.248 NA
ATOM     47  C   UNL A   1      37.547  31.344  31.564  1.00  0.00     0.031 C 
ATOM     48  C   UNL A   1      37.779  34.025  35.832  1.00  0.00     0.029 A 
ATOM     49  N   UNL A   1      39.411  32.545  35.456  1.00  0.00    -0.354 N 
ATOM     50  C   UNL A   1      39.420  30.080  31.911  1.00  0.00     0.074 A 
ATOM     51  C   UNL A   1      38.279  30.355  31.068  1.00  0.00     0.031 C 
ATOM     52  C   UNL A   1      38.678  34.163  36.815  1.00  0.00     0.029 A 
ATOM     53  C   UNL A   1      39.743  33.183  36.629  1.00  0.00     0.049 A 
ATOM     54  H   UNL A   1      39.956  31.827  35.061  1.00  0.00     0.167 HD
ATOM     55  C   UNL A   1      40.391  29.184  31.614  1.00  0.00     0.031 A 
ATOM     56  C   UNL A   1      40.774  33.000  37.478  1.00  0.00     0.031 A 
ATOM     57  C   UNL A   1      41.538  28.932  32.450  1.00  0.00     0.049 A 
ATOM     58  C   UNL A   1      41.807  31.959  37.156  1.00  0.00     0.074 A 
ATOM     59  C   UNL A   1      42.586  28.059  32.218  1.00  0.00     0.029 A 
ATOM     60  N   UNL A   1      41.794  29.551  33.664  1.00  0.00    -0.354 N 
ATOM     61  N   UNL A   1      41.894  31.194  36.094  1.00  0.00    -0.248 NA
ATOM     62  C   UNL A   1      42.878  31.751  38.139  1.00  0.00     0.031 C 
ATOM     63  C   UNL A   1      43.432  28.089  33.328  1.00  0.00     0.029 A 
ATOM     64  C   UNL A   1      42.964  29.049  34.211  1.00  0.00     0.049 A 
ATOM     65  H   UNL A   1      41.229  30.243  34.077  1.00  0.00     0.167 HD
ATOM     66  C   UNL A   1      43.036  30.423  36.274  1.00  0.00     0.074 A 
ATOM     67  C   UNL A   1      43.621  30.831  37.535  1.00  0.00     0.031 C 
ATOM     68  C   UNL A   1      43.545  29.460  35.467  1.00  0.00     0.031 A 
BRANCH  55  69
ATOM     69  C   UNL A   1      40.282  28.395  30.331  1.00  0.00    -0.014 A 
ATOM     70  C   UNL A   1      39.441  27.267  30.276  1.00  0.00     0.010 A 
ATOM     71  C   UNL A   1      41.110  28.679  29.230  1.00  0.00     0.010 A 
ATOM     72  C   UNL A   1      39.463  26.414  29.167  1.00  0.00     0.020 A 
ATOM     73  C   UNL A   1      41.110  27.848  28.106  1.00  0.00     0.020 A 
ATOM     74  C   UNL A   1      40.307  26.706  28.093  1.00  0.00     0.054 A 
BRANCH  74  75
ATOM     75  S   UNL A   1      40.359  25.562  26.686  1.00  0.00     0.124 S 
ATOM     76  O   UNL A   1      38.960  25.168  26.556  1.00  0.00    -0.237 OA
ATOM     77  O   UNL A   1      40.881  26.405  25.611  1.00  0.00    -0.237 OA
ATOM     78  O   UNL A   1      41.267  24.509  27.134  1.00  0.00    -0.744 OA
ENDBRANCH  74  75
ENDBRANCH  55  69
BRANCH  56  79
ATOM     79  C   UNL A   1      40.865  33.849  38.700  1.00  0.00    -0.014 A 
ATOM     80  C   UNL A   1      40.210  33.463  39.886  1.00  0.00     0.010 A 
ATOM     81  C   UNL A   1      41.512  35.096  38.658  1.00  0.00     0.010 A 
ATOM     82  C   UNL A   1      40.128  34.337  40.972  1.00  0.00     0.020 A 
ATOM     83  C   UNL A   1      41.467  35.959  39.758  1.00  0.00     0.020 A 
ATOM     84  C   UNL A   1      40.743  35.587  40.893  1.00  0.00     0.054 A 
BRANCH  84  85
ATOM     85  S   UNL A   1      40.554  36.737  42.285  1.00  0.00     0.124 S 
ATOM     86  O   UNL A   1      41.883  37.338  42.357  1.00  0.00    -0.237 OA
ATOM     87  O   UNL A   1      39.488  37.622  41.823  1.00  0.00    -0.237 OA
ATOM     88  O   UNL A   1      40.199  35.867  43.403  1.00  0.00    -0.744 OA
ENDBRANCH  84  85
ENDBRANCH  56  79
BRANCH  68  89
ATOM     89  C   UNL A   1      44.807  28.757  35.899  1.00  0.00    -0.014 A 
ATOM     90  C   UNL A   1      44.723  27.622  36.727  1.00  0.00     0.010 A 
ATOM     91  C   UNL A   1      46.070  29.306  35.618  1.00  0.00     0.010 A 
ATOM     92  C   UNL A   1      45.872  27.079  37.308  1.00  0.00     0.020 A 
ATOM     93  C   UNL A   1      47.227  28.744  36.169  1.00  0.00     0.020 A 
ATOM     94  C   UNL A   1      47.115  27.655  37.036  1.00  0.00     0.054 A 
BRANCH  94  95
ATOM     95  S   UNL A   1      48.587  26.975  37.849  1.00  0.00     0.124 S 
ATOM     96  O   UNL A   1      48.473  25.550  37.551  1.00  0.00    -0.237 OA
ATOM     97  O   UNL A   1      49.677  27.673  37.173  1.00  0.00    -0.237 OA
ATOM     98  O   UNL A   1      48.403  27.335  39.253  1.00  0.00    -0.744 OA
ENDBRANCH  94  95
ENDBRANCH  68  89
ENDBRANCH  42  43
ENDBRANCH  34  37
ENDBRANCH  32  33
ENDBRANCH  31  32
ENDBRANCH   1  31
TORSDOF 17
ENDMDL
