MODEL 1
REMARK VINA RESULT:     -10.1      0.000      0.000
REMARK SMILES CN(/C=C\C(=O)NCCCNC(=O)c1ccc(-c2c3nc(c(-c4ccc(S(=O)(=O)[O-])cc4)c4ccc([nH]4)c(-c4ccc(S(=O)(=O)[O-])cc4)c4nc(c(-c5ccc(S(=O)(=O)[O-])cc5)c5ccc2[nH]5)C=C4)C=C3)cc1)C[C@@H]1CCCO1
REMARK SMILES IDX 9 1 8 2 7 3 5 4 6 5 4 7 3 8 2 9 1 10 74 11 75 12 76 13 79 14
REMARK SMILES IDX 77 15 78 16 10 17 11 18 12 19 13 21 14 22 15 23 73 24 16 25
REMARK SMILES IDX 72 26 17 27 18 28 19 29 66 30 20 31 71 32 65 33 67 34 21 35
REMARK SMILES IDX 70 36 64 37 63 38 22 40 52 41 33 42 51 43 34 44 37 45 50 46
REMARK SMILES IDX 68 47 35 48 36 49 49 51 69 52 38 53 23 54 24 55 32 56 25 57
REMARK SMILES IDX 31 58 26 59 27 60 28 61 29 62 30 63 53 64 54 65 62 66 55 67
REMARK SMILES IDX 61 68 56 69 57 70 58 71 59 72 60 73 39 74 40 75 48 76 41 77
REMARK SMILES IDX 47 78 42 79 43 80 44 81 45 82 46 83
REMARK H PARENT 7 6 11 20 67 39 37 50
REMARK Flexibility Score: inf
ROOT
ATOM      1  C   UNL A   1      33.257  27.103  26.307  1.00  0.00     0.042 C 
ENDROOT
BRANCH   1   2
ATOM      2  C   UNL A   1      33.559  25.857  25.494  1.00  0.00     0.118 C 
BRANCH   2   3
ATOM      3  N   UNL A   1      33.663  26.045  24.058  1.00  0.00    -0.352 N 
ATOM      4  C   UNL A   1      32.650  26.195  23.162  1.00  0.00     0.245 C 
ATOM      5  O   UNL A   1      32.899  26.406  21.977  1.00  0.00    -0.270 OA
ATOM      6  H   UNL A   1      34.576  26.066  23.689  1.00  0.00     0.163 HD
BRANCH   4   7
ATOM      7  C   UNL A   1      31.260  25.970  23.596  1.00  0.00     0.088 C 
ATOM      8  C   UNL A   1      30.301  26.888  23.772  1.00  0.00     0.086 C 
BRANCH   8   9
ATOM      9  N   UNL A   1      30.250  28.262  23.529  1.00  0.00    -0.378 N 
ATOM     10  C   UNL A   1      31.044  29.129  24.403  1.00  0.00     0.143 C 
BRANCH   9  11
ATOM     11  C   UNL A   1      29.103  28.833  22.769  1.00  0.00     0.147 C 
BRANCH  11  12
ATOM     12  C   UNL A   1      29.105  30.311  22.317  1.00  0.00     0.137 C 
ATOM     13  C   UNL A   1      28.211  31.284  23.061  1.00  0.00     0.036 C 
ATOM     14  O   UNL A   1      28.870  30.532  20.913  1.00  0.00    -0.376 OA
ATOM     15  C   UNL A   1      28.182  32.454  22.108  1.00  0.00     0.031 C 
ATOM     16  C   UNL A   1      28.094  31.739  20.780  1.00  0.00     0.160 C 
ENDBRANCH  11  12
ENDBRANCH   9  11
ENDBRANCH   8   9
ENDBRANCH   4   7
ENDBRANCH   2   3
ENDBRANCH   1   2
BRANCH   1  17
ATOM     17  C   UNL A   1      34.269  28.233  26.177  1.00  0.00     0.118 C 
BRANCH  17  18
ATOM     18  N   UNL A   1      33.831  29.531  26.683  1.00  0.00    -0.352 N 
ATOM     19  C   UNL A   1      34.413  30.406  27.572  1.00  0.00     0.251 C 
ATOM     20  H   UNL A   1      32.966  29.834  26.325  1.00  0.00     0.163 HD
ATOM     21  O   UNL A   1      33.818  31.425  27.921  1.00  0.00    -0.269 OA
BRANCH  19  22
ATOM     22  C   UNL A   1      35.747  30.116  28.123  1.00  0.00     0.039 A 
ATOM     23  C   UNL A   1      35.890  29.602  29.413  1.00  0.00     0.014 A 
ATOM     24  C   UNL A   1      36.868  30.345  27.334  1.00  0.00     0.014 A 
ATOM     25  C   UNL A   1      37.160  29.229  29.865  1.00  0.00     0.010 A 
ATOM     26  C   UNL A   1      38.084  29.811  27.707  1.00  0.00     0.010 A 
ATOM     27  C   UNL A   1      38.257  29.285  28.993  1.00  0.00    -0.014 A 
BRANCH  27  28
ATOM     28  C   UNL A   1      39.625  28.865  29.376  1.00  0.00     0.031 A 
ATOM     29  C   UNL A   1      40.540  29.873  30.026  1.00  0.00     0.074 A 
ATOM     30  C   UNL A   1      40.081  27.653  29.008  1.00  0.00     0.049 A 
ATOM     31  N   UNL A   1      41.825  29.802  30.250  1.00  0.00    -0.248 NA
ATOM     32  C   UNL A   1      39.940  31.165  30.410  1.00  0.00     0.031 C 
ATOM     33  C   UNL A   1      39.304  26.628  28.306  1.00  0.00     0.029 A 
ATOM     34  N   UNL A   1      41.323  27.088  29.147  1.00  0.00    -0.354 N 
ATOM     35  C   UNL A   1      42.191  31.053  30.734  1.00  0.00     0.074 A 
ATOM     36  C   UNL A   1      41.010  31.884  30.706  1.00  0.00     0.031 C 
ATOM     37  C   UNL A   1      40.079  25.552  28.098  1.00  0.00     0.029 A 
ATOM     38  C   UNL A   1      41.419  25.830  28.601  1.00  0.00     0.049 A 
ATOM     39  H   UNL A   1      42.074  27.540  29.595  1.00  0.00     0.167 HD
ATOM     40  C   UNL A   1      43.398  31.467  31.185  1.00  0.00     0.031 A 
ATOM     41  C   UNL A   1      42.475  24.999  28.504  1.00  0.00     0.031 A 
ATOM     42  C   UNL A   1      44.546  30.604  31.250  1.00  0.00     0.049 A 
ATOM     43  C   UNL A   1      43.791  25.447  29.075  1.00  0.00     0.074 A 
ATOM     44  C   UNL A   1      45.792  30.866  31.787  1.00  0.00     0.029 A 
ATOM     45  N   UNL A   1      44.580  29.304  30.764  1.00  0.00    -0.354 N 
ATOM     46  N   UNL A   1      44.102  26.605  29.612  1.00  0.00    -0.248 NA
ATOM     47  C   UNL A   1      44.892  24.478  29.045  1.00  0.00     0.031 C 
ATOM     48  C   UNL A   1      46.598  29.744  31.571  1.00  0.00     0.029 A 
ATOM     49  C   UNL A   1      45.835  28.758  30.964  1.00  0.00     0.049 A 
ATOM     50  H   UNL A   1      43.823  28.839  30.341  1.00  0.00     0.167 HD
ATOM     51  C   UNL A   1      45.430  26.496  30.005  1.00  0.00     0.074 A 
ATOM     52  C   UNL A   1      45.855  25.153  29.658  1.00  0.00     0.031 C 
ATOM     53  C   UNL A   1      46.227  27.420  30.599  1.00  0.00     0.031 A 
BRANCH  40  54
ATOM     54  C   UNL A   1      43.529  32.904  31.628  1.00  0.00    -0.014 A 
ATOM     55  C   UNL A   1      43.781  33.941  30.710  1.00  0.00     0.010 A 
ATOM     56  C   UNL A   1      43.398  33.225  32.992  1.00  0.00     0.010 A 
ATOM     57  C   UNL A   1      43.969  35.253  31.152  1.00  0.00     0.020 A 
ATOM     58  C   UNL A   1      43.546  34.544  33.435  1.00  0.00     0.020 A 
ATOM     59  C   UNL A   1      43.856  35.545  32.513  1.00  0.00     0.054 A 
BRANCH  59  60
ATOM     60  S   UNL A   1      44.103  37.257  33.059  1.00  0.00     0.124 S 
ATOM     61  O   UNL A   1      44.140  37.976  31.787  1.00  0.00    -0.237 OA
ATOM     62  O   UNL A   1      42.921  37.504  33.883  1.00  0.00    -0.237 OA
ATOM     63  O   UNL A   1      45.368  37.212  33.786  1.00  0.00    -0.744 OA
ENDBRANCH  59  60
ENDBRANCH  40  54
BRANCH  41  64
ATOM     64  C   UNL A   1      42.304  23.666  27.865  1.00  0.00    -0.014 A 
ATOM     65  C   UNL A   1      42.727  23.448  26.542  1.00  0.00     0.010 A 
ATOM     66  C   UNL A   1      41.788  22.584  28.602  1.00  0.00     0.010 A 
ATOM     67  C   UNL A   1      42.640  22.175  25.970  1.00  0.00     0.020 A 
ATOM     68  C   UNL A   1      41.727  21.303  28.043  1.00  0.00     0.020 A 
ATOM     69  C   UNL A   1      42.151  21.107  26.728  1.00  0.00     0.054 A 
BRANCH  69  70
ATOM     70  S   UNL A   1      42.138  19.448  25.995  1.00  0.00     0.124 S 
ATOM     71  O   UNL A   1      40.716  19.235  25.743  1.00  0.00    -0.237 OA
ATOM     72  O   UNL A   1      42.973  19.623  24.808  1.00  0.00    -0.237 OA
ATOM     73  O   UNL A   1      42.722  18.608  27.038  1.00  0.00    -0.744 OA
ENDBRANCH  69  70
ENDBRANCH  41  64
BRANCH  53  74
ATOM     74  C   UNL A   1      47.631  26.999  30.938  1.00  0.00    -0.014 A 
ATOM     75  C   UNL A   1      47.930  26.371  32.160  1.00  0.00     0.010 A 
ATOM     76  C   UNL A   1      48.653  27.177  29.987  1.00  0.00     0.010 A 
ATOM     77  C   UNL A   1      49.234  25.958  32.437  1.00  0.00     0.020 A 
ATOM     78  C   UNL A   1      49.950  26.734  30.246  1.00  0.00     0.020 A 
ATOM     79  C   UNL A   1      50.235  26.140  31.477  1.00  0.00     0.054 A 
BRANCH  79  80
ATOM     80  S   UNL A   1      51.910  25.551  31.843  1.00  0.00     0.124 S 
ATOM     81  O   UNL A   1      52.638  25.943  30.638  1.00  0.00    -0.237 OA
ATOM     82  O   UNL A   1      52.252  26.293  33.053  1.00  0.00    -0.237 OA
ATOM     83  O   UNL A   1      51.740  24.112  32.027  1.00  0.00    -0.744 OA
ENDBRANCH  79  80
ENDBRANCH  53  74
ENDBRANCH  27  28
ENDBRANCH  19  22
ENDBRANCH  17  18
ENDBRANCH   1  17
TORSDOF 16
ENDMDL
MODEL 2
REMARK VINA RESULT:     -10.0      2.260      4.023
REMARK SMILES CN(/C=C\C(=O)NCCCNC(=O)c1ccc(-c2c3nc(c(-c4ccc(S(=O)(=O)[O-])cc4)c4ccc([nH]4)c(-c4ccc(S(=O)(=O)[O-])cc4)c4nc(c(-c5ccc(S(=O)(=O)[O-])cc5)c5ccc2[nH]5)C=C4)C=C3)cc1)C[C@@H]1CCCO1
REMARK SMILES IDX 9 1 8 2 7 3 5 4 6 5 4 7 3 8 2 9 1 10 74 11 75 12 76 13 79 14
REMARK SMILES IDX 77 15 78 16 10 17 11 18 12 19 13 21 14 22 15 23 73 24 16 25
REMARK SMILES IDX 72 26 17 27 18 28 19 29 66 30 20 31 71 32 65 33 67 34 21 35
REMARK SMILES IDX 70 36 64 37 63 38 22 40 52 41 33 42 51 43 34 44 37 45 50 46
REMARK SMILES IDX 68 47 35 48 36 49 49 51 69 52 38 53 23 54 24 55 32 56 25 57
REMARK SMILES IDX 31 58 26 59 27 60 28 61 29 62 30 63 53 64 54 65 62 66 55 67
REMARK SMILES IDX 61 68 56 69 57 70 58 71 59 72 60 73 39 74 40 75 48 76 41 77
REMARK SMILES IDX 47 78 42 79 43 80 44 81 45 82 46 83
REMARK H PARENT 7 6 11 20 67 39 37 50
REMARK Flexibility Score: inf
ROOT
ATOM      1  C   UNL A   1      33.759  27.480  25.096  1.00  0.00     0.042 C 
ENDROOT
BRANCH   1   2
ATOM      2  C   UNL A   1      32.678  26.423  24.953  1.00  0.00     0.118 C 
BRANCH   2   3
ATOM      3  N   UNL A   1      32.254  25.778  26.183  1.00  0.00    -0.352 N 
ATOM      4  C   UNL A   1      31.742  24.526  26.333  1.00  0.00     0.245 C 
ATOM      5  O   UNL A   1      31.482  24.095  27.455  1.00  0.00    -0.270 OA
ATOM      6  H   UNL A   1      32.349  26.310  27.006  1.00  0.00     0.163 HD
BRANCH   4   7
ATOM      7  C   UNL A   1      31.376  23.744  25.139  1.00  0.00     0.088 C 
ATOM      8  C   UNL A   1      32.101  22.799  24.529  1.00  0.00     0.086 C 
BRANCH   8   9
ATOM      9  N   UNL A   1      33.320  22.193  24.839  1.00  0.00    -0.378 N 
ATOM     10  C   UNL A   1      34.436  22.418  23.917  1.00  0.00     0.143 C 
BRANCH   9  11
ATOM     11  C   UNL A   1      33.347  21.020  25.757  1.00  0.00     0.147 C 
BRANCH  11  12
ATOM     12  C   UNL A   1      33.162  19.583  25.218  1.00  0.00     0.137 C 
ATOM     13  C   UNL A   1      34.363  18.891  24.606  1.00  0.00     0.036 C 
ATOM     14  O   UNL A   1      32.071  19.403  24.293  1.00  0.00    -0.376 OA
ATOM     15  C   UNL A   1      33.709  17.750  23.866  1.00  0.00     0.031 C 
ATOM     16  C   UNL A   1      32.486  18.437  23.307  1.00  0.00     0.160 C 
ENDBRANCH  11  12
ENDBRANCH   9  11
ENDBRANCH   8   9
ENDBRANCH   4   7
ENDBRANCH   2   3
ENDBRANCH   1   2
BRANCH   1  17
ATOM     17  C   UNL A   1      34.047  27.935  26.519  1.00  0.00     0.118 C 
BRANCH  17  18
ATOM     18  N   UNL A   1      33.703  29.322  26.818  1.00  0.00    -0.352 N 
ATOM     19  C   UNL A   1      34.379  30.301  27.510  1.00  0.00     0.251 C 
ATOM     20  H   UNL A   1      32.831  29.608  26.461  1.00  0.00     0.163 HD
ATOM     21  O   UNL A   1      33.855  31.395  27.712  1.00  0.00    -0.269 OA
BRANCH  19  22
ATOM     22  C   UNL A   1      35.731  30.033  28.029  1.00  0.00     0.039 A 
ATOM     23  C   UNL A   1      35.917  29.582  29.338  1.00  0.00     0.014 A 
ATOM     24  C   UNL A   1      36.825  30.219  27.193  1.00  0.00     0.014 A 
ATOM     25  C   UNL A   1      37.200  29.228  29.764  1.00  0.00     0.010 A 
ATOM     26  C   UNL A   1      38.052  29.700  27.550  1.00  0.00     0.010 A 
ATOM     27  C   UNL A   1      38.268  29.237  28.854  1.00  0.00    -0.014 A 
BRANCH  27  28
ATOM     28  C   UNL A   1      39.647  28.831  29.211  1.00  0.00     0.031 A 
ATOM     29  C   UNL A   1      40.574  29.857  29.815  1.00  0.00     0.074 A 
ATOM     30  C   UNL A   1      40.098  27.612  28.859  1.00  0.00     0.049 A 
ATOM     31  N   UNL A   1      41.864  29.796  30.006  1.00  0.00    -0.248 NA
ATOM     32  C   UNL A   1      39.977  31.155  30.184  1.00  0.00     0.031 C 
ATOM     33  C   UNL A   1      39.308  26.568  28.200  1.00  0.00     0.029 A 
ATOM     34  N   UNL A   1      41.346  27.055  28.978  1.00  0.00    -0.354 N 
ATOM     35  C   UNL A   1      42.237  31.060  30.453  1.00  0.00     0.074 A 
ATOM     36  C   UNL A   1      41.051  31.884  30.436  1.00  0.00     0.031 C 
ATOM     37  C   UNL A   1      40.082  25.492  27.997  1.00  0.00     0.029 A 
ATOM     38  C   UNL A   1      41.433  25.786  28.458  1.00  0.00     0.049 A 
ATOM     39  H   UNL A   1      42.106  27.521  29.396  1.00  0.00     0.167 HD
ATOM     40  C   UNL A   1      43.453  31.488  30.863  1.00  0.00     0.031 A 
ATOM     41  C   UNL A   1      42.491  24.958  28.352  1.00  0.00     0.031 A 
ATOM     42  C   UNL A   1      44.606  30.631  30.917  1.00  0.00     0.049 A 
ATOM     43  C   UNL A   1      43.819  25.424  28.879  1.00  0.00     0.074 A 
ATOM     44  C   UNL A   1      45.865  30.911  31.415  1.00  0.00     0.029 A 
ATOM     45  N   UNL A   1      44.634  29.321  30.460  1.00  0.00    -0.354 N 
ATOM     46  N   UNL A   1      44.138  26.594  29.382  1.00  0.00    -0.248 NA
ATOM     47  C   UNL A   1      44.923  24.459  28.842  1.00  0.00     0.031 C 
ATOM     48  C   UNL A   1      46.670  29.788  31.204  1.00  0.00     0.029 A 
ATOM     49  C   UNL A   1      45.896  28.785  30.639  1.00  0.00     0.049 A 
ATOM     50  H   UNL A   1      43.868  28.844  30.067  1.00  0.00     0.167 HD
ATOM     51  C   UNL A   1      45.477  26.500  29.742  1.00  0.00     0.074 A 
ATOM     52  C   UNL A   1      45.899  25.151  29.415  1.00  0.00     0.031 C 
ATOM     53  C   UNL A   1      46.284  27.440  30.294  1.00  0.00     0.031 A 
BRANCH  40  54
ATOM     54  C   UNL A   1      43.588  32.935  31.269  1.00  0.00    -0.014 A 
ATOM     55  C   UNL A   1      43.943  33.934  30.343  1.00  0.00     0.010 A 
ATOM     56  C   UNL A   1      43.358  33.305  32.607  1.00  0.00     0.010 A 
ATOM     57  C   UNL A   1      44.132  35.255  30.757  1.00  0.00     0.020 A 
ATOM     58  C   UNL A   1      43.507  34.634  33.020  1.00  0.00     0.020 A 
ATOM     59  C   UNL A   1      43.918  35.596  32.095  1.00  0.00     0.054 A 
BRANCH  59  60
ATOM     60  S   UNL A   1      44.169  37.318  32.606  1.00  0.00     0.124 S 
ATOM     61  O   UNL A   1      43.952  38.037  31.352  1.00  0.00    -0.237 OA
ATOM     62  O   UNL A   1      43.134  37.504  33.620  1.00  0.00    -0.237 OA
ATOM     63  O   UNL A   1      45.540  37.337  33.106  1.00  0.00    -0.744 OA
ENDBRANCH  59  60
ENDBRANCH  40  54
BRANCH  41  64
ATOM     64  C   UNL A   1      42.309  23.610  27.749  1.00  0.00    -0.014 A 
ATOM     65  C   UNL A   1      42.765  23.343  26.445  1.00  0.00     0.010 A 
ATOM     66  C   UNL A   1      41.750  22.561  28.502  1.00  0.00     0.010 A 
ATOM     67  C   UNL A   1      42.668  22.056  25.909  1.00  0.00     0.020 A 
ATOM     68  C   UNL A   1      41.677  21.266  27.979  1.00  0.00     0.020 A 
ATOM     69  C   UNL A   1      42.134  21.022  26.683  1.00  0.00     0.054 A 
BRANCH  69  70
ATOM     70  S   UNL A   1      42.106  19.341  26.000  1.00  0.00     0.124 S 
ATOM     71  O   UNL A   1      42.627  18.551  27.111  1.00  0.00    -0.237 OA
ATOM     72  O   UNL A   1      40.690  19.150  25.694  1.00  0.00    -0.237 OA
ATOM     73  O   UNL A   1      42.980  19.432  24.832  1.00  0.00    -0.744 OA
ENDBRANCH  69  70
ENDBRANCH  41  64
BRANCH  53  74
ATOM     74  C   UNL A   1      47.699  27.033  30.607  1.00  0.00    -0.014 A 
ATOM     75  C   UNL A   1      48.729  27.189  29.663  1.00  0.00     0.010 A 
ATOM     76  C   UNL A   1      48.008  26.550  31.892  1.00  0.00     0.010 A 
ATOM     77  C   UNL A   1      50.040  26.837  29.990  1.00  0.00     0.020 A 
ATOM     78  C   UNL A   1      49.323  26.230  32.233  1.00  0.00     0.020 A 
ATOM     79  C   UNL A   1      50.329  26.362  31.273  1.00  0.00     0.054 A 
BRANCH  79  80
ATOM     80  S   UNL A   1      52.046  25.958  31.686  1.00  0.00     0.124 S 
ATOM     81  O   UNL A   1      52.280  26.794  32.861  1.00  0.00    -0.237 OA
ATOM     82  O   UNL A   1      51.984  24.521  31.939  1.00  0.00    -0.237 OA
ATOM     83  O   UNL A   1      52.792  26.343  30.489  1.00  0.00    -0.744 OA
ENDBRANCH  79  80
ENDBRANCH  53  74
ENDBRANCH  27  28
ENDBRANCH  19  22
ENDBRANCH  17  18
ENDBRANCH   1  17
TORSDOF 16
ENDMDL
MODEL 3
REMARK VINA RESULT:      -9.9      3.448      5.658
REMARK SMILES CN(/C=C\C(=O)NCCCNC(=O)c1ccc(-c2c3nc(c(-c4ccc(S(=O)(=O)[O-])cc4)c4ccc([nH]4)c(-c4ccc(S(=O)(=O)[O-])cc4)c4nc(c(-c5ccc(S(=O)(=O)[O-])cc5)c5ccc2[nH]5)C=C4)C=C3)cc1)C[C@@H]1CCCO1
REMARK SMILES IDX 9 1 8 2 7 3 5 4 6 5 4 7 3 8 2 9 1 10 74 11 75 12 76 13 79 14
REMARK SMILES IDX 77 15 78 16 10 17 11 18 12 19 13 21 14 22 15 23 73 24 16 25
REMARK SMILES IDX 72 26 17 27 18 28 19 29 66 30 20 31 71 32 65 33 67 34 21 35
REMARK SMILES IDX 70 36 64 37 63 38 22 40 52 41 33 42 51 43 34 44 37 45 50 46
REMARK SMILES IDX 68 47 35 48 36 49 49 51 69 52 38 53 23 54 24 55 32 56 25 57
REMARK SMILES IDX 31 58 26 59 27 60 28 61 29 62 30 63 53 64 54 65 62 66 55 67
REMARK SMILES IDX 61 68 56 69 57 70 58 71 59 72 60 73 39 74 40 75 48 76 41 77
REMARK SMILES IDX 47 78 42 79 43 80 44 81 45 82 46 83
REMARK H PARENT 7 6 11 20 67 39 37 50
REMARK Flexibility Score: inf
ROOT
ATOM      1  C   UNL A   1      35.698  33.152  28.660  1.00  0.00     0.042 C 
ENDROOT
BRANCH   1   2
ATOM      2  C   UNL A   1      37.003  33.475  29.366  1.00  0.00     0.118 C 
BRANCH   2   3
ATOM      3  N   UNL A   1      37.510  32.453  30.264  1.00  0.00    -0.352 N 
ATOM      4  C   UNL A   1      38.021  32.621  31.514  1.00  0.00     0.245 C 
ATOM      5  O   UNL A   1      38.358  31.644  32.180  1.00  0.00    -0.270 OA
ATOM      6  H   UNL A   1      37.480  31.527  29.928  1.00  0.00     0.163 HD
BRANCH   4   7
ATOM      7  C   UNL A   1      38.291  33.982  32.010  1.00  0.00     0.088 C 
ATOM      8  C   UNL A   1      37.573  34.687  32.892  1.00  0.00     0.086 C 
BRANCH   8   9
ATOM      9  N   UNL A   1      36.458  34.374  33.671  1.00  0.00    -0.378 N 
ATOM     10  C   UNL A   1      36.704  33.799  34.996  1.00  0.00     0.143 C 
BRANCH   9  11
ATOM     11  C   UNL A   1      35.134  34.179  33.018  1.00  0.00     0.147 C 
BRANCH  11  12
ATOM     12  C   UNL A   1      34.080  35.309  33.002  1.00  0.00     0.137 C 
ATOM     13  C   UNL A   1      33.184  35.432  31.786  1.00  0.00     0.036 C 
ATOM     14  O   UNL A   1      34.583  36.631  33.274  1.00  0.00    -0.376 OA
ATOM     15  C   UNL A   1      32.623  36.821  31.964  1.00  0.00     0.031 C 
ATOM     16  C   UNL A   1      33.844  37.561  32.457  1.00  0.00     0.160 C 
ENDBRANCH  11  12
ENDBRANCH   9  11
ENDBRANCH   8   9
ENDBRANCH   4   7
ENDBRANCH   2   3
ENDBRANCH   1   2
BRANCH   1  17
ATOM     17  C   UNL A   1      34.796  32.155  29.373  1.00  0.00     0.118 C 
BRANCH  17  18
ATOM     18  N   UNL A   1      34.355  31.018  28.568  1.00  0.00    -0.352 N 
ATOM     19  C   UNL A   1      35.034  29.918  28.096  1.00  0.00     0.251 C 
ATOM     20  H   UNL A   1      33.403  31.044  28.320  1.00  0.00     0.163 HD
ATOM     21  O   UNL A   1      34.472  29.111  27.356  1.00  0.00    -0.269 OA
BRANCH  19  22
ATOM     22  C   UNL A   1      36.445  29.713  28.461  1.00  0.00     0.039 A 
ATOM     23  C   UNL A   1      36.791  29.172  29.701  1.00  0.00     0.014 A 
ATOM     24  C   UNL A   1      37.436  30.051  27.546  1.00  0.00     0.014 A 
ATOM     25  C   UNL A   1      38.131  28.884  29.973  1.00  0.00     0.010 A 
ATOM     26  C   UNL A   1      38.725  29.600  27.740  1.00  0.00     0.010 A 
ATOM     27  C   UNL A   1      39.100  29.049  28.972  1.00  0.00    -0.014 A 
BRANCH  27  28
ATOM     28  C   UNL A   1      40.532  28.723  29.162  1.00  0.00     0.031 A 
ATOM     29  C   UNL A   1      41.480  29.820  29.580  1.00  0.00     0.074 A 
ATOM     30  C   UNL A   1      40.993  27.505  28.818  1.00  0.00     0.049 A 
ATOM     31  N   UNL A   1      42.786  29.824  29.599  1.00  0.00    -0.248 NA
ATOM     32  C   UNL A   1      40.875  31.112  29.956  1.00  0.00     0.031 C 
ATOM     33  C   UNL A   1      40.175  26.392  28.328  1.00  0.00     0.029 A 
ATOM     34  N   UNL A   1      42.271  27.008  28.798  1.00  0.00    -0.354 N 
ATOM     35  C   UNL A   1      43.152  31.126  29.923  1.00  0.00     0.074 A 
ATOM     36  C   UNL A   1      41.935  31.899  30.022  1.00  0.00     0.031 C 
ATOM     37  C   UNL A   1      40.967  25.338  28.081  1.00  0.00     0.029 A 
ATOM     38  C   UNL A   1      42.351  25.715  28.340  1.00  0.00     0.049 A 
ATOM     39  H   UNL A   1      43.056  27.529  29.084  1.00  0.00     0.167 HD
ATOM     40  C   UNL A   1      44.389  31.629  30.143  1.00  0.00     0.031 A 
ATOM     41  C   UNL A   1      43.424  24.926  28.137  1.00  0.00     0.031 A 
ATOM     42  C   UNL A   1      45.579  30.825  30.088  1.00  0.00     0.049 A 
ATOM     43  C   UNL A   1      44.786  25.477  28.455  1.00  0.00     0.074 A 
ATOM     44  C   UNL A   1      46.878  31.185  30.396  1.00  0.00     0.029 A 
ATOM     45  N   UNL A   1      45.611  29.491  29.701  1.00  0.00    -0.354 N 
ATOM     46  N   UNL A   1      45.112  26.688  28.847  1.00  0.00    -0.248 NA
ATOM     47  C   UNL A   1      45.922  24.558  28.322  1.00  0.00     0.031 C 
ATOM     48  C   UNL A   1      47.702  30.086  30.139  1.00  0.00     0.029 A 
ATOM     49  C   UNL A   1      46.910  29.020  29.738  1.00  0.00     0.049 A 
ATOM     50  H   UNL A   1      44.824  28.961  29.441  1.00  0.00     0.167 HD
ATOM     51  C   UNL A   1      46.489  26.670  29.029  1.00  0.00     0.074 A 
ATOM     52  C   UNL A   1      46.929  25.323  28.720  1.00  0.00     0.031 C 
ATOM     53  C   UNL A   1      47.315  27.674  29.416  1.00  0.00     0.031 A 
BRANCH  40  54
ATOM     54  C   UNL A   1      44.505  33.101  30.449  1.00  0.00    -0.014 A 
ATOM     55  C   UNL A   1      44.385  33.596  31.762  1.00  0.00     0.010 A 
ATOM     56  C   UNL A   1      44.739  34.013  29.402  1.00  0.00     0.010 A 
ATOM     57  C   UNL A   1      44.424  34.970  32.012  1.00  0.00     0.020 A 
ATOM     58  C   UNL A   1      44.820  35.386  29.652  1.00  0.00     0.020 A 
ATOM     59  C   UNL A   1      44.637  35.858  30.954  1.00  0.00     0.054 A 
BRANCH  59  60
ATOM     60  S   UNL A   1      44.687  37.636  31.306  1.00  0.00     0.124 S 
ATOM     61  O   UNL A   1      43.725  38.161  30.339  1.00  0.00    -0.237 OA
ATOM     62  O   UNL A   1      44.264  37.697  32.704  1.00  0.00    -0.237 OA
ATOM     63  O   UNL A   1      46.079  38.001  31.061  1.00  0.00    -0.744 OA
ENDBRANCH  59  60
ENDBRANCH  40  54
BRANCH  41  64
ATOM     64  C   UNL A   1      43.231  23.538  27.636  1.00  0.00    -0.014 A 
ATOM     65  C   UNL A   1      42.684  22.547  28.470  1.00  0.00     0.010 A 
ATOM     66  C   UNL A   1      43.518  23.218  26.296  1.00  0.00     0.010 A 
ATOM     67  C   UNL A   1      42.427  21.265  27.975  1.00  0.00     0.020 A 
ATOM     68  C   UNL A   1      43.236  21.945  25.790  1.00  0.00     0.020 A 
ATOM     69  C   UNL A   1      42.695  20.975  26.634  1.00  0.00     0.054 A 
BRANCH  69  70
ATOM     70  S   UNL A   1      42.264  19.333  25.991  1.00  0.00     0.124 S 
ATOM     71  O   UNL A   1      42.732  18.455  27.059  1.00  0.00    -0.237 OA
ATOM     72  O   UNL A   1      40.813  19.428  25.839  1.00  0.00    -0.237 OA
ATOM     73  O   UNL A   1      43.009  19.249  24.737  1.00  0.00    -0.744 OA
ENDBRANCH  69  70
ENDBRANCH  41  64
BRANCH  53  74
ATOM     74  C   UNL A   1      48.777  27.345  29.557  1.00  0.00    -0.014 A 
ATOM     75  C   UNL A   1      49.676  27.548  28.497  1.00  0.00     0.010 A 
ATOM     76  C   UNL A   1      49.263  26.889  30.796  1.00  0.00     0.010 A 
ATOM     77  C   UNL A   1      51.034  27.269  28.664  1.00  0.00     0.020 A 
ATOM     78  C   UNL A   1      50.625  26.642  30.977  1.00  0.00     0.020 A 
ATOM     79  C   UNL A   1      51.500  26.820  29.903  1.00  0.00     0.054 A 
BRANCH  79  80
ATOM     80  S   UNL A   1      53.273  26.511  30.108  1.00  0.00     0.124 S 
ATOM     81  O   UNL A   1      53.650  26.023  28.783  1.00  0.00    -0.237 OA
ATOM     82  O   UNL A   1      53.789  27.830  30.462  1.00  0.00    -0.237 OA
ATOM     83  O   UNL A   1      53.332  25.516  31.176  1.00  0.00    -0.744 OA
ENDBRANCH  79  80
ENDBRANCH  53  74
ENDBRANCH  27  28
ENDBRANCH  19  22
ENDBRANCH  17  18
ENDBRANCH   1  17
TORSDOF 16
ENDMDL
