MODEL 1
REMARK VINA RESULT:     -12.2      0.000      0.000
REMARK SMILES CCCn1ccnc1C[N@@H+]1C[C@@H](C(=O)NCCCNC(=O)c2ccc(-c3c4nc(c(-c5ccc(S(=O)(=O)[O-])cc5)c5ccc([nH]5)c(-c5ccc(S(=O)(=O)[O-])cc5)c5nc(c(-c6ccc(S(=O)(=O)[O-])cc6)c6ccc3[nH]6)C=C5)C=C4)cc2)[C@H](c2ccccc2)C1
REMARK SMILES IDX 16 1 15 2 13 3 14 4 12 6 10 7 11 8 89 9 82 11 9 12 8 13 4 14
REMARK SMILES IDX 5 15 6 16 7 17 3 18 2 19 1 20 83 21 84 22 88 23 85 24 87 25
REMARK SMILES IDX 86 26 17 27 18 28 19 29 20 30 21 32 22 33 23 34 81 35 24 36
REMARK SMILES IDX 80 37 25 38 26 39 27 40 74 41 28 42 79 43 73 44 75 45 29 46
REMARK SMILES IDX 78 47 72 48 71 49 30 51 60 52 41 53 59 54 42 55 45 56 58 57
REMARK SMILES IDX 76 58 43 59 44 60 57 62 77 63 46 64 31 65 32 66 40 67 33 68
REMARK SMILES IDX 39 69 34 70 35 71 36 72 37 73 38 74 61 75 62 76 70 77 63 78
REMARK SMILES IDX 69 79 64 80 65 81 66 82 67 83 68 84 47 85 48 86 56 87 49 88
REMARK SMILES IDX 55 89 50 90 51 91 52 92 53 93 54 94
REMARK H PARENT 15 5 10 10 19 31 75 50 45 61
REMARK Flexibility Score: inf
ROOT
ATOM      1  C   UNL A   1      36.620  20.817  24.769  1.00  0.00     0.117 C 
ENDROOT
BRANCH   1   2
ATOM      2  N   UNL A   1      36.047  21.255  26.039  1.00  0.00    -0.356 N 
ATOM      3  C   UNL A   1      34.838  21.834  26.333  1.00  0.00     0.229 C 
ATOM      4  O   UNL A   1      34.664  22.202  27.494  1.00  0.00    -0.275 OA
ATOM      5  H   UNL A   1      36.630  21.110  26.819  1.00  0.00     0.163 HD
BRANCH   3   6
ATOM      6  C   UNL A   1      33.731  21.908  25.285  1.00  0.00     0.146 C 
ATOM      7  N   UNL A   1      31.650  23.008  24.746  1.00  0.00    -0.327 N 
ATOM      8  C   UNL A   1      32.919  23.190  25.428  1.00  0.00     0.277 C 
ATOM      9  C   UNL A   1      31.318  21.606  24.990  1.00  0.00     0.271 C 
ATOM     10  H   UNL A   1      30.905  23.610  25.097  1.00  0.00     0.348 HD
ATOM     11  C   UNL A   1      32.620  20.817  25.334  1.00  0.00     0.092 C 
BRANCH   7  12
ATOM     12  C   UNL A   1      31.691  23.436  23.334  1.00  0.00     0.339 C 
BRANCH  12  13
ATOM     13  C   UNL A   1      32.349  24.752  23.021  1.00  0.00     0.164 A 
ATOM     14  N   UNL A   1      31.844  25.977  23.393  1.00  0.00    -0.330 N 
ATOM     15  C   UNL A   1      32.555  26.943  22.735  1.00  0.00     0.107 A 
ATOM     16  C   UNL A   1      33.598  26.272  22.149  1.00  0.00     0.131 A 
ATOM     17  N   UNL A   1      33.504  24.926  22.398  1.00  0.00    -0.236 NA
BRANCH  14  18
ATOM     18  C   UNL A   1      30.857  26.230  24.422  1.00  0.00     0.123 C 
BRANCH  18  19
ATOM     19  C   UNL A   1      29.426  26.247  23.865  1.00  0.00     0.018 C 
ATOM     20  C   UNL A   1      28.964  27.628  23.413  1.00  0.00     0.006 C 
ENDBRANCH  18  19
ENDBRANCH  14  18
ENDBRANCH  12  13
ENDBRANCH   7  12
BRANCH  11  21
ATOM     21  C   UNL A   1      32.829  19.541  24.512  1.00  0.00    -0.038 A 
ATOM     22  C   UNL A   1      33.755  18.542  24.875  1.00  0.00     0.004 A 
ATOM     23  C   UNL A   1      32.190  19.384  23.273  1.00  0.00     0.004 A 
ATOM     24  C   UNL A   1      33.991  17.421  24.073  1.00  0.00     0.000 A 
ATOM     25  C   UNL A   1      32.442  18.275  22.455  1.00  0.00     0.000 A 
ATOM     26  C   UNL A   1      33.334  17.288  22.859  1.00  0.00     0.000 A 
ENDBRANCH  11  21
ENDBRANCH   3   6
ENDBRANCH   1   2
BRANCH   1  27
ATOM     27  C   UNL A   1      37.702  19.738  24.966  1.00  0.00     0.042 C 
BRANCH  27  28
ATOM     28  C   UNL A   1      38.981  20.262  25.580  1.00  0.00     0.118 C 
BRANCH  28  29
ATOM     29  N   UNL A   1      39.977  19.210  25.762  1.00  0.00    -0.352 N 
ATOM     30  C   UNL A   1      41.333  19.361  25.997  1.00  0.00     0.251 C 
ATOM     31  H   UNL A   1      39.646  18.284  25.713  1.00  0.00     0.163 HD
ATOM     32  O   UNL A   1      42.117  18.466  25.736  1.00  0.00    -0.269 OA
BRANCH  30  33
ATOM     33  C   UNL A   1      41.800  20.637  26.567  1.00  0.00     0.039 A 
ATOM     34  C   UNL A   1      42.469  21.589  25.788  1.00  0.00     0.014 A 
ATOM     35  C   UNL A   1      41.504  20.888  27.901  1.00  0.00     0.014 A 
ATOM     36  C   UNL A   1      42.767  22.827  26.350  1.00  0.00     0.010 A 
ATOM     37  C   UNL A   1      41.618  22.160  28.384  1.00  0.00     0.010 A 
ATOM     38  C   UNL A   1      42.322  23.110  27.647  1.00  0.00    -0.014 A 
BRANCH  38  39
ATOM     39  C   UNL A   1      42.478  24.428  28.252  1.00  0.00     0.031 A 
ATOM     40  C   UNL A   1      41.344  25.364  28.016  1.00  0.00     0.074 A 
ATOM     41  C   UNL A   1      43.426  24.638  29.194  1.00  0.00     0.049 A 
ATOM     42  N   UNL A   1      41.378  26.514  27.429  1.00  0.00    -0.248 NA
ATOM     43  C   UNL A   1      39.980  24.913  28.351  1.00  0.00     0.031 C 
ATOM     44  C   UNL A   1      44.396  23.663  29.717  1.00  0.00     0.029 A 
ATOM     45  N   UNL A   1      43.605  25.698  30.027  1.00  0.00    -0.354 N 
ATOM     46  C   UNL A   1      40.090  27.033  27.528  1.00  0.00     0.074 A 
ATOM     47  C   UNL A   1      39.242  25.929  27.902  1.00  0.00     0.031 C 
ATOM     48  C   UNL A   1      44.828  24.063  30.930  1.00  0.00     0.029 A 
ATOM     49  C   UNL A   1      44.304  25.389  31.193  1.00  0.00     0.049 A 
ATOM     50  H   UNL A   1      43.270  26.602  29.824  1.00  0.00     0.167 HD
ATOM     51  C   UNL A   1      39.860  28.376  27.568  1.00  0.00     0.031 A 
ATOM     52  C   UNL A   1      44.389  26.139  32.323  1.00  0.00     0.031 A 
ATOM     53  C   UNL A   1      41.035  29.123  27.196  1.00  0.00     0.049 A 
ATOM     54  C   UNL A   1      44.018  27.525  31.944  1.00  0.00     0.074 A 
ATOM     55  C   UNL A   1      41.842  29.164  26.078  1.00  0.00     0.029 A 
ATOM     56  N   UNL A   1      41.769  29.677  28.220  1.00  0.00    -0.354 N 
ATOM     57  N   UNL A   1      44.727  28.254  31.126  1.00  0.00    -0.248 NA
ATOM     58  C   UNL A   1      42.626  27.927  32.082  1.00  0.00     0.031 C 
ATOM     59  C   UNL A   1      43.166  29.282  26.590  1.00  0.00     0.029 A 
ATOM     60  C   UNL A   1      43.091  29.401  27.979  1.00  0.00     0.049 A 
ATOM     61  H   UNL A   1      41.411  30.180  28.987  1.00  0.00     0.167 HD
ATOM     62  C   UNL A   1      43.793  28.883  30.315  1.00  0.00     0.074 A 
ATOM     63  C   UNL A   1      42.521  28.737  31.022  1.00  0.00     0.031 C 
ATOM     64  C   UNL A   1      44.082  29.194  29.016  1.00  0.00     0.031 A 
BRANCH  51  65
ATOM     65  C   UNL A   1      38.728  29.018  28.336  1.00  0.00    -0.014 A 
ATOM     66  C   UNL A   1      37.758  29.755  27.626  1.00  0.00     0.010 A 
ATOM     67  C   UNL A   1      38.735  29.159  29.739  1.00  0.00     0.010 A 
ATOM     68  C   UNL A   1      36.897  30.647  28.281  1.00  0.00     0.020 A 
ATOM     69  C   UNL A   1      37.851  30.009  30.407  1.00  0.00     0.020 A 
ATOM     70  C   UNL A   1      36.963  30.778  29.668  1.00  0.00     0.054 A 
BRANCH  70  71
ATOM     71  S   UNL A   1      35.931  32.013  30.495  1.00  0.00     0.124 S 
ATOM     72  O   UNL A   1      35.684  31.379  31.787  1.00  0.00    -0.237 OA
ATOM     73  O   UNL A   1      36.807  33.182  30.518  1.00  0.00    -0.237 OA
ATOM     74  O   UNL A   1      34.768  32.129  29.619  1.00  0.00    -0.744 OA
ENDBRANCH  70  71
ENDBRANCH  51  65
BRANCH  52  75
ATOM     75  C   UNL A   1      44.470  25.669  33.734  1.00  0.00    -0.014 A 
ATOM     76  C   UNL A   1      43.899  24.444  34.127  1.00  0.00     0.010 A 
ATOM     77  C   UNL A   1      45.344  26.296  34.647  1.00  0.00     0.010 A 
ATOM     78  C   UNL A   1      44.252  23.834  35.346  1.00  0.00     0.020 A 
ATOM     79  C   UNL A   1      45.690  25.702  35.868  1.00  0.00     0.020 A 
ATOM     80  C   UNL A   1      45.166  24.457  36.197  1.00  0.00     0.054 A 
BRANCH  80  81
ATOM     81  S   UNL A   1      45.784  23.570  37.661  1.00  0.00     0.124 S 
ATOM     82  O   UNL A   1      45.627  22.173  37.270  1.00  0.00    -0.237 OA
ATOM     83  O   UNL A   1      47.160  24.047  37.765  1.00  0.00    -0.237 OA
ATOM     84  O   UNL A   1      44.896  24.016  38.734  1.00  0.00    -0.744 OA
ENDBRANCH  80  81
ENDBRANCH  52  75
BRANCH  64  85
ATOM     85  C   UNL A   1      45.517  29.083  28.546  1.00  0.00    -0.014 A 
ATOM     86  C   UNL A   1      46.128  27.869  28.170  1.00  0.00     0.010 A 
ATOM     87  C   UNL A   1      46.218  30.280  28.317  1.00  0.00     0.010 A 
ATOM     88  C   UNL A   1      47.415  27.855  27.607  1.00  0.00     0.020 A 
ATOM     89  C   UNL A   1      47.489  30.274  27.739  1.00  0.00     0.020 A 
ATOM     90  C   UNL A   1      48.088  29.061  27.397  1.00  0.00     0.054 A 
BRANCH  90  91
ATOM     91  S   UNL A   1      49.734  29.046  26.633  1.00  0.00     0.124 S 
ATOM     92  O   UNL A   1      50.513  28.247  27.575  1.00  0.00    -0.237 OA
ATOM     93  O   UNL A   1      49.487  28.425  25.335  1.00  0.00    -0.237 OA
ATOM     94  O   UNL A   1      50.103  30.460  26.572  1.00  0.00    -0.744 OA
ENDBRANCH  90  91
ENDBRANCH  64  85
ENDBRANCH  38  39
ENDBRANCH  30  33
ENDBRANCH  28  29
ENDBRANCH  27  28
ENDBRANCH   1  27
TORSDOF 18
ENDMDL
MODEL 2
REMARK VINA RESULT:     -11.9      3.030      7.928
REMARK SMILES CCCn1ccnc1C[N@@H+]1C[C@@H](C(=O)NCCCNC(=O)c2ccc(-c3c4nc(c(-c5ccc(S(=O)(=O)[O-])cc5)c5ccc([nH]5)c(-c5ccc(S(=O)(=O)[O-])cc5)c5nc(c(-c6ccc(S(=O)(=O)[O-])cc6)c6ccc3[nH]6)C=C5)C=C4)cc2)[C@H](c2ccccc2)C1
REMARK SMILES IDX 16 1 15 2 13 3 14 4 12 6 10 7 11 8 89 9 82 11 9 12 8 13 4 14
REMARK SMILES IDX 5 15 6 16 7 17 3 18 2 19 1 20 83 21 84 22 88 23 85 24 87 25
REMARK SMILES IDX 86 26 17 27 18 28 19 29 20 30 21 32 22 33 23 34 81 35 24 36
REMARK SMILES IDX 80 37 25 38 26 39 27 40 74 41 28 42 79 43 73 44 75 45 29 46
REMARK SMILES IDX 78 47 72 48 71 49 30 51 60 52 41 53 59 54 42 55 45 56 58 57
REMARK SMILES IDX 76 58 43 59 44 60 57 62 77 63 46 64 31 65 32 66 40 67 33 68
REMARK SMILES IDX 39 69 34 70 35 71 36 72 37 73 38 74 61 75 62 76 70 77 63 78
REMARK SMILES IDX 69 79 64 80 65 81 66 82 67 83 68 84 47 85 48 86 56 87 49 88
REMARK SMILES IDX 55 89 50 90 51 91 52 92 53 93 54 94
REMARK H PARENT 15 5 10 10 19 31 75 50 45 61
REMARK Flexibility Score: inf
ROOT
ATOM      1  C   UNL A   1      38.148  21.857  25.727  1.00  0.00     0.117 C 
ENDROOT
BRANCH   1   2
ATOM      2  N   UNL A   1      37.750  22.372  24.420  1.00  0.00    -0.356 N 
ATOM      3  C   UNL A   1      36.511  22.538  23.853  1.00  0.00     0.229 C 
ATOM      4  O   UNL A   1      36.480  22.900  22.678  1.00  0.00    -0.275 OA
ATOM      5  H   UNL A   1      38.500  22.649  23.846  1.00  0.00     0.163 HD
BRANCH   3   6
ATOM      6  C   UNL A   1      35.242  22.386  24.688  1.00  0.00     0.146 C 
ATOM      7  N   UNL A   1      34.170  23.112  26.726  1.00  0.00    -0.327 N 
ATOM      8  C   UNL A   1      35.099  23.526  25.689  1.00  0.00     0.277 C 
ATOM      9  C   UNL A   1      34.447  21.688  26.897  1.00  0.00     0.271 C 
ATOM     10  H   UNL A   1      34.298  23.602  27.612  1.00  0.00     0.348 HD
ATOM     11  C   UNL A   1      35.131  21.134  25.608  1.00  0.00     0.092 C 
BRANCH   7  12
ATOM     12  C   UNL A   1      32.772  23.477  26.423  1.00  0.00     0.339 C 
BRANCH  12  13
ATOM     13  C   UNL A   1      32.528  24.783  25.718  1.00  0.00     0.164 A 
ATOM     14  N   UNL A   1      32.110  24.891  24.412  1.00  0.00    -0.330 N 
ATOM     15  C   UNL A   1      32.235  26.200  24.036  1.00  0.00     0.107 A 
ATOM     16  C   UNL A   1      32.531  26.870  25.195  1.00  0.00     0.131 A 
ATOM     17  N   UNL A   1      32.633  25.993  26.245  1.00  0.00    -0.236 NA
BRANCH  14  18
ATOM     18  C   UNL A   1      31.484  23.856  23.616  1.00  0.00     0.123 C 
BRANCH  18  19
ATOM     19  C   UNL A   1      32.486  23.134  22.704  1.00  0.00     0.018 C 
ATOM     20  C   UNL A   1      32.106  21.690  22.401  1.00  0.00     0.006 C 
ENDBRANCH  18  19
ENDBRANCH  14  18
ENDBRANCH  12  13
ENDBRANCH   7  12
BRANCH  11  21
ATOM     21  C   UNL A   1      34.482  19.873  25.031  1.00  0.00    -0.038 A 
ATOM     22  C   UNL A   1      33.087  19.671  25.015  1.00  0.00     0.004 A 
ATOM     23  C   UNL A   1      35.277  18.794  24.614  1.00  0.00     0.004 A 
ATOM     24  C   UNL A   1      32.514  18.480  24.557  1.00  0.00     0.000 A 
ATOM     25  C   UNL A   1      34.708  17.591  24.177  1.00  0.00     0.000 A 
ATOM     26  C   UNL A   1      33.327  17.437  24.138  1.00  0.00     0.000 A 
ENDBRANCH  11  21
ENDBRANCH   3   6
ENDBRANCH   1   2
BRANCH   1  27
ATOM     27  C   UNL A   1      39.273  22.697  26.359  1.00  0.00     0.042 C 
BRANCH  27  28
ATOM     28  C   UNL A   1      40.344  21.872  27.037  1.00  0.00     0.118 C 
BRANCH  28  29
ATOM     29  N   UNL A   1      41.489  21.628  26.164  1.00  0.00    -0.352 N 
ATOM     30  C   UNL A   1      42.340  22.564  25.603  1.00  0.00     0.251 C 
ATOM     31  H   UNL A   1      41.677  20.686  25.948  1.00  0.00     0.163 HD
ATOM     32  O   UNL A   1      42.986  22.304  24.603  1.00  0.00    -0.269 OA
BRANCH  30  33
ATOM     33  C   UNL A   1      42.440  23.884  26.250  1.00  0.00     0.039 A 
ATOM     34  C   UNL A   1      41.806  25.013  25.717  1.00  0.00     0.014 A 
ATOM     35  C   UNL A   1      43.147  23.960  27.444  1.00  0.00     0.014 A 
ATOM     36  C   UNL A   1      41.828  26.201  26.443  1.00  0.00     0.010 A 
ATOM     37  C   UNL A   1      43.001  25.060  28.239  1.00  0.00     0.010 A 
ATOM     38  C   UNL A   1      42.416  26.210  27.714  1.00  0.00    -0.014 A 
BRANCH  38  39
ATOM     39  C   UNL A   1      42.360  27.377  28.587  1.00  0.00     0.031 A 
ATOM     40  C   UNL A   1      43.461  28.360  28.390  1.00  0.00     0.074 A 
ATOM     41  C   UNL A   1      41.230  27.661  29.275  1.00  0.00     0.049 A 
ATOM     42  N   UNL A   1      44.335  28.752  29.257  1.00  0.00    -0.248 NA
ATOM     43  C   UNL A   1      43.710  28.871  27.029  1.00  0.00     0.031 C 
ATOM     44  C   UNL A   1      39.972  26.898  29.279  1.00  0.00     0.029 A 
ATOM     45  N   UNL A   1      40.888  28.785  29.960  1.00  0.00    -0.354 N 
ATOM     46  C   UNL A   1      45.094  29.730  28.619  1.00  0.00     0.074 A 
ATOM     47  C   UNL A   1      44.811  29.603  27.213  1.00  0.00     0.031 C 
ATOM     48  C   UNL A   1      38.959  27.702  29.663  1.00  0.00     0.029 A 
ATOM     49  C   UNL A   1      39.513  28.971  30.090  1.00  0.00     0.049 A 
ATOM     50  H   UNL A   1      41.553  29.410  30.331  1.00  0.00     0.167 HD
ATOM     51  C   UNL A   1      45.682  30.745  29.314  1.00  0.00     0.031 A 
ATOM     52  C   UNL A   1      38.869  30.111  30.456  1.00  0.00     0.031 A 
ATOM     53  C   UNL A   1      45.668  30.492  30.733  1.00  0.00     0.049 A 
ATOM     54  C   UNL A   1      39.871  30.965  31.141  1.00  0.00     0.074 A 
ATOM     55  C   UNL A   1      46.154  29.484  31.541  1.00  0.00     0.029 A 
ATOM     56  N   UNL A   1      44.710  31.148  31.471  1.00  0.00    -0.354 N 
ATOM     57  N   UNL A   1      40.430  30.639  32.275  1.00  0.00    -0.248 NA
ATOM     58  C   UNL A   1      40.608  31.935  30.345  1.00  0.00     0.031 C 
ATOM     59  C   UNL A   1      45.138  29.281  32.519  1.00  0.00     0.029 A 
ATOM     60  C   UNL A   1      44.135  30.231  32.314  1.00  0.00     0.049 A 
ATOM     61  H   UNL A   1      44.478  32.103  31.407  1.00  0.00     0.167 HD
ATOM     62  C   UNL A   1      41.766  30.982  32.120  1.00  0.00     0.074 A 
ATOM     63  C   UNL A   1      41.792  31.879  30.964  1.00  0.00     0.031 C 
ATOM     64  C   UNL A   1      42.753  30.277  32.748  1.00  0.00     0.031 A 
BRANCH  51  65
ATOM     65  C   UNL A   1      45.888  32.137  28.764  1.00  0.00    -0.014 A 
ATOM     66  C   UNL A   1      47.173  32.712  28.833  1.00  0.00     0.010 A 
ATOM     67  C   UNL A   1      44.821  33.001  28.442  1.00  0.00     0.010 A 
ATOM     68  C   UNL A   1      47.366  34.091  28.668  1.00  0.00     0.020 A 
ATOM     69  C   UNL A   1      45.007  34.369  28.230  1.00  0.00     0.020 A 
ATOM     70  C   UNL A   1      46.275  34.911  28.383  1.00  0.00     0.054 A 
BRANCH  70  71
ATOM     71  S   UNL A   1      46.510  36.703  28.286  1.00  0.00     0.124 S 
ATOM     72  O   UNL A   1      45.667  37.053  27.147  1.00  0.00    -0.237 OA
ATOM     73  O   UNL A   1      46.029  37.148  29.592  1.00  0.00    -0.237 OA
ATOM     74  O   UNL A   1      47.947  36.848  28.073  1.00  0.00    -0.744 OA
ENDBRANCH  70  71
ENDBRANCH  51  65
BRANCH  52  75
ATOM     75  C   UNL A   1      37.550  30.614  29.983  1.00  0.00    -0.014 A 
ATOM     76  C   UNL A   1      36.636  31.209  30.874  1.00  0.00     0.010 A 
ATOM     77  C   UNL A   1      37.292  30.755  28.603  1.00  0.00     0.010 A 
ATOM     78  C   UNL A   1      35.558  31.981  30.401  1.00  0.00     0.020 A 
ATOM     79  C   UNL A   1      36.212  31.510  28.125  1.00  0.00     0.020 A 
ATOM     80  C   UNL A   1      35.368  32.147  29.028  1.00  0.00     0.054 A 
BRANCH  80  81
ATOM     81  S   UNL A   1      34.111  33.316  28.426  1.00  0.00     0.124 S 
ATOM     82  O   UNL A   1      34.887  34.185  27.545  1.00  0.00    -0.237 OA
ATOM     83  O   UNL A   1      33.152  32.438  27.762  1.00  0.00    -0.237 OA
ATOM     84  O   UNL A   1      33.620  33.953  29.647  1.00  0.00    -0.744 OA
ENDBRANCH  80  81
ENDBRANCH  52  75
BRANCH  64  85
ATOM     85  C   UNL A   1      42.363  29.280  33.819  1.00  0.00    -0.014 A 
ATOM     86  C   UNL A   1      41.812  28.010  33.547  1.00  0.00     0.010 A 
ATOM     87  C   UNL A   1      42.727  29.577  35.144  1.00  0.00     0.010 A 
ATOM     88  C   UNL A   1      41.607  27.079  34.578  1.00  0.00     0.020 A 
ATOM     89  C   UNL A   1      42.545  28.648  36.170  1.00  0.00     0.020 A 
ATOM     90  C   UNL A   1      41.975  27.407  35.885  1.00  0.00     0.054 A 
BRANCH  90  91
ATOM     91  S   UNL A   1      41.746  26.188  37.211  1.00  0.00     0.124 S 
ATOM     92  O   UNL A   1      42.863  26.479  38.105  1.00  0.00    -0.237 OA
ATOM     93  O   UNL A   1      40.422  26.516  37.732  1.00  0.00    -0.237 OA
ATOM     94  O   UNL A   1      41.829  24.902  36.520  1.00  0.00    -0.744 OA
ENDBRANCH  90  91
ENDBRANCH  64  85
ENDBRANCH  38  39
ENDBRANCH  30  33
ENDBRANCH  28  29
ENDBRANCH  27  28
ENDBRANCH   1  27
TORSDOF 18
ENDMDL
MODEL 3
REMARK VINA RESULT:     -11.7      2.852      7.538
REMARK SMILES CCCn1ccnc1C[N@@H+]1C[C@@H](C(=O)NCCCNC(=O)c2ccc(-c3c4nc(c(-c5ccc(S(=O)(=O)[O-])cc5)c5ccc([nH]5)c(-c5ccc(S(=O)(=O)[O-])cc5)c5nc(c(-c6ccc(S(=O)(=O)[O-])cc6)c6ccc3[nH]6)C=C5)C=C4)cc2)[C@H](c2ccccc2)C1
REMARK SMILES IDX 16 1 15 2 13 3 14 4 12 6 10 7 11 8 89 9 82 11 9 12 8 13 4 14
REMARK SMILES IDX 5 15 6 16 7 17 3 18 2 19 1 20 83 21 84 22 88 23 85 24 87 25
REMARK SMILES IDX 86 26 17 27 18 28 19 29 20 30 21 32 22 33 23 34 81 35 24 36
REMARK SMILES IDX 80 37 25 38 26 39 27 40 74 41 28 42 79 43 73 44 75 45 29 46
REMARK SMILES IDX 78 47 72 48 71 49 30 51 60 52 41 53 59 54 42 55 45 56 58 57
REMARK SMILES IDX 76 58 43 59 44 60 57 62 77 63 46 64 31 65 32 66 40 67 33 68
REMARK SMILES IDX 39 69 34 70 35 71 36 72 37 73 38 74 61 75 62 76 70 77 63 78
REMARK SMILES IDX 69 79 64 80 65 81 66 82 67 83 68 84 47 85 48 86 56 87 49 88
REMARK SMILES IDX 55 89 50 90 51 91 52 92 53 93 54 94
REMARK H PARENT 15 5 10 10 19 31 75 50 45 61
REMARK Flexibility Score: inf
ROOT
ATOM      1  C   UNL A   1      35.491  21.434  25.775  1.00  0.00     0.117 C 
ENDROOT
BRANCH   1   2
ATOM      2  N   UNL A   1      34.795  21.659  27.039  1.00  0.00    -0.356 N 
ATOM      3  C   UNL A   1      33.711  22.442  27.346  1.00  0.00     0.229 C 
ATOM      4  O   UNL A   1      33.402  22.523  28.534  1.00  0.00    -0.275 OA
ATOM      5  H   UNL A   1      35.168  21.162  27.802  1.00  0.00     0.163 HD
BRANCH   3   6
ATOM      6  C   UNL A   1      32.873  23.085  26.245  1.00  0.00     0.146 C 
ATOM      7  N   UNL A   1      31.139  24.716  25.837  1.00  0.00    -0.327 N 
ATOM      8  C   UNL A   1      32.249  24.393  26.717  1.00  0.00     0.277 C 
ATOM      9  C   UNL A   1      30.559  23.415  25.513  1.00  0.00     0.271 C 
ATOM     10  H   UNL A   1      30.435  25.316  26.268  1.00  0.00     0.348 HD
ATOM     11  C   UNL A   1      31.627  22.300  25.737  1.00  0.00     0.092 C 
BRANCH   7  12
ATOM     12  C   UNL A   1      31.540  25.559  24.694  1.00  0.00     0.339 C 
BRANCH  12  13
ATOM     13  C   UNL A   1      31.558  27.049  24.897  1.00  0.00     0.164 A 
ATOM     14  N   UNL A   1      30.705  27.926  24.268  1.00  0.00    -0.330 N 
ATOM     15  C   UNL A   1      31.165  29.195  24.491  1.00  0.00     0.107 A 
ATOM     16  C   UNL A   1      32.163  29.047  25.420  1.00  0.00     0.131 A 
ATOM     17  N   UNL A   1      32.346  27.721  25.722  1.00  0.00    -0.236 NA
BRANCH  14  18
ATOM     18  C   UNL A   1      29.448  27.601  23.627  1.00  0.00     0.123 C 
BRANCH  18  19
ATOM     19  C   UNL A   1      28.973  28.709  22.677  1.00  0.00     0.018 C 
ATOM     20  C   UNL A   1      27.522  29.121  22.896  1.00  0.00     0.006 C 
ENDBRANCH  18  19
ENDBRANCH  14  18
ENDBRANCH  12  13
ENDBRANCH   7  12
BRANCH  11  21
ATOM     21  C   UNL A   1      31.812  21.345  24.554  1.00  0.00    -0.038 A 
ATOM     22  C   UNL A   1      32.211  20.003  24.711  1.00  0.00     0.004 A 
ATOM     23  C   UNL A   1      31.720  21.823  23.238  1.00  0.00     0.004 A 
ATOM     24  C   UNL A   1      32.452  19.166  23.616  1.00  0.00     0.000 A 
ATOM     25  C   UNL A   1      31.985  20.996  22.139  1.00  0.00     0.000 A 
ATOM     26  C   UNL A   1      32.340  19.665  22.327  1.00  0.00     0.000 A 
ENDBRANCH  11  21
ENDBRANCH   3   6
ENDBRANCH   1   2
BRANCH   1  27
ATOM     27  C   UNL A   1      35.878  22.757  25.087  1.00  0.00     0.042 C 
BRANCH  27  28
ATOM     28  C   UNL A   1      37.354  23.077  25.164  1.00  0.00     0.118 C 
BRANCH  28  29
ATOM     29  N   UNL A   1      38.114  22.023  25.831  1.00  0.00    -0.352 N 
ATOM     30  C   UNL A   1      39.332  22.138  26.478  1.00  0.00     0.251 C 
ATOM     31  H   UNL A   1      37.713  21.124  25.819  1.00  0.00     0.163 HD
ATOM     32  O   UNL A   1      40.051  21.168  26.637  1.00  0.00    -0.269 OA
BRANCH  30  33
ATOM     33  C   UNL A   1      39.735  23.470  26.964  1.00  0.00     0.039 A 
ATOM     34  C   UNL A   1      38.833  24.539  27.009  1.00  0.00     0.014 A 
ATOM     35  C   UNL A   1      41.037  23.615  27.428  1.00  0.00     0.014 A 
ATOM     36  C   UNL A   1      39.236  25.734  27.601  1.00  0.00     0.010 A 
ATOM     37  C   UNL A   1      41.362  24.710  28.177  1.00  0.00     0.010 A 
ATOM     38  C   UNL A   1      40.500  25.804  28.198  1.00  0.00    -0.014 A 
BRANCH  38  39
ATOM     39  C   UNL A   1      40.940  26.973  28.951  1.00  0.00     0.031 A 
ATOM     40  C   UNL A   1      42.048  27.743  28.321  1.00  0.00     0.074 A 
ATOM     41  C   UNL A   1      40.181  27.460  29.960  1.00  0.00     0.049 A 
ATOM     42  N   UNL A   1      43.219  27.986  28.809  1.00  0.00    -0.248 NA
ATOM     43  C   UNL A   1      41.888  28.186  26.923  1.00  0.00     0.031 C 
ATOM     44  C   UNL A   1      38.897  26.931  30.445  1.00  0.00     0.029 A 
ATOM     45  N   UNL A   1      40.284  28.634  30.636  1.00  0.00    -0.354 N 
ATOM     46  C   UNL A   1      43.857  28.806  27.882  1.00  0.00     0.074 A 
ATOM     47  C   UNL A   1      43.087  28.714  26.669  1.00  0.00     0.031 C 
ATOM     48  C   UNL A   1      38.224  27.905  31.091  1.00  0.00     0.029 A 
ATOM     49  C   UNL A   1      39.089  29.062  31.212  1.00  0.00     0.049 A 
ATOM     50  H   UNL A   1      41.128  29.137  30.713  1.00  0.00     0.167 HD
ATOM     51  C   UNL A   1      44.806  29.710  28.260  1.00  0.00     0.031 A 
ATOM     52  C   UNL A   1      38.805  30.302  31.691  1.00  0.00     0.031 A 
ATOM     53  C   UNL A   1      45.244  29.480  29.614  1.00  0.00     0.049 A 
ATOM     54  C   UNL A   1      40.106  30.974  31.931  1.00  0.00     0.074 A 
ATOM     55  C   UNL A   1      45.811  28.413  30.280  1.00  0.00     0.029 A 
ATOM     56  N   UNL A   1      44.720  30.305  30.585  1.00  0.00    -0.354 N 
ATOM     57  N   UNL A   1      40.963  30.568  32.828  1.00  0.00    -0.248 NA
ATOM     58  C   UNL A   1      40.668  31.789  30.864  1.00  0.00     0.031 C 
ATOM     59  C   UNL A   1      45.179  28.404  31.557  1.00  0.00     0.029 A 
ATOM     60  C   UNL A   1      44.334  29.514  31.637  1.00  0.00     0.049 A 
ATOM     61  H   UNL A   1      44.638  31.284  30.534  1.00  0.00     0.167 HD
ATOM     62  C   UNL A   1      42.199  30.669  32.204  1.00  0.00     0.074 A 
ATOM     63  C   UNL A   1      41.967  31.533  31.047  1.00  0.00     0.031 C 
ATOM     64  C   UNL A   1      43.215  29.808  32.509  1.00  0.00     0.031 A 
BRANCH  51  65
ATOM     65  C   UNL A   1      45.029  31.037  27.574  1.00  0.00    -0.014 A 
ATOM     66  C   UNL A   1      46.325  31.357  27.120  1.00  0.00     0.010 A 
ATOM     67  C   UNL A   1      44.089  32.088  27.609  1.00  0.00     0.010 A 
ATOM     68  C   UNL A   1      46.680  32.674  26.796  1.00  0.00     0.020 A 
ATOM     69  C   UNL A   1      44.419  33.395  27.244  1.00  0.00     0.020 A 
ATOM     70  C   UNL A   1      45.724  33.686  26.877  1.00  0.00     0.054 A 
BRANCH  70  71
ATOM     71  S   UNL A   1      46.216  35.401  26.570  1.00  0.00     0.124 S 
ATOM     72  O   UNL A   1      46.911  35.288  25.291  1.00  0.00    -0.237 OA
ATOM     73  O   UNL A   1      44.928  36.090  26.533  1.00  0.00    -0.237 OA
ATOM     74  O   UNL A   1      47.059  35.726  27.717  1.00  0.00    -0.744 OA
ENDBRANCH  70  71
ENDBRANCH  51  65
BRANCH  52  75
ATOM     75  C   UNL A   1      37.503  31.024  31.658  1.00  0.00    -0.014 A 
ATOM     76  C   UNL A   1      36.785  31.283  32.842  1.00  0.00     0.010 A 
ATOM     77  C   UNL A   1      37.089  31.700  30.491  1.00  0.00     0.010 A 
ATOM     78  C   UNL A   1      35.751  32.238  32.871  1.00  0.00     0.020 A 
ATOM     79  C   UNL A   1      36.052  32.643  30.509  1.00  0.00     0.020 A 
ATOM     80  C   UNL A   1      35.409  32.931  31.708  1.00  0.00     0.054 A 
BRANCH  80  81
ATOM     81  S   UNL A   1      34.228  34.312  31.796  1.00  0.00     0.124 S 
ATOM     82  O   UNL A   1      35.071  35.416  32.247  1.00  0.00    -0.237 OA
ATOM     83  O   UNL A   1      33.746  34.407  30.421  1.00  0.00    -0.237 OA
ATOM     84  O   UNL A   1      33.235  33.856  32.766  1.00  0.00    -0.744 OA
ENDBRANCH  80  81
ENDBRANCH  52  75
BRANCH  64  85
ATOM     85  C   UNL A   1      43.066  28.908  33.718  1.00  0.00    -0.014 A 
ATOM     86  C   UNL A   1      43.254  29.341  35.047  1.00  0.00     0.010 A 
ATOM     87  C   UNL A   1      42.549  27.619  33.506  1.00  0.00     0.010 A 
ATOM     88  C   UNL A   1      42.960  28.495  36.128  1.00  0.00     0.020 A 
ATOM     89  C   UNL A   1      42.234  26.779  34.577  1.00  0.00     0.020 A 
ATOM     90  C   UNL A   1      42.452  27.216  35.884  1.00  0.00     0.054 A 
BRANCH  90  91
ATOM     91  S   UNL A   1      42.034  26.137  37.282  1.00  0.00     0.124 S 
ATOM     92  O   UNL A   1      40.727  26.642  37.692  1.00  0.00    -0.237 OA
ATOM     93  O   UNL A   1      42.034  24.806  36.679  1.00  0.00    -0.237 OA
ATOM     94  O   UNL A   1      43.114  26.373  38.239  1.00  0.00    -0.744 OA
ENDBRANCH  90  91
ENDBRANCH  64  85
ENDBRANCH  38  39
ENDBRANCH  30  33
ENDBRANCH  28  29
ENDBRANCH  27  28
ENDBRANCH   1  27
TORSDOF 18
ENDMDL
