MODEL 1
REMARK VINA RESULT:     -12.1      0.000      0.000
REMARK SMILES COc1cc(/C=C2\SC(=S)N(CC(=O)NCCCNC(=O)c3ccc(-c4c5nc(c(-c6ccc(S(=O)(=O)[O-])cc6)c6ccc([nH]6)c(-c6ccc(S(=O)(=O)[O-])cc6)c6nc(c(-c7ccc(S(=O)(=O)[O-])cc7)c7ccc4[nH]7)C=C6)C=C5)cc3)C2=O)cc2c1OCO2
REMARK SMILES IDX 17 1 16 2 15 3 13 4 14 5 12 7 11 8 6 9 7 10 8 11 82 12 9 13
REMARK SMILES IDX 83 14 10 15 5 16 3 17 4 18 86 19 85 20 87 21 84 22 89 23
REMARK SMILES IDX 88 24 2 25 1 26 18 27 19 28 20 29 21 31 22 32 23 33 81 34
REMARK SMILES IDX 24 35 80 36 25 37 26 38 27 39 74 40 28 41 79 42 73 43 75 44
REMARK SMILES IDX 29 45 78 46 72 47 71 48 30 50 60 51 41 52 59 53 42 54 45 55
REMARK SMILES IDX 58 56 76 57 43 58 44 59 57 61 77 62 46 63 31 64 32 65 40 66
REMARK SMILES IDX 33 67 39 68 34 69 35 70 36 71 37 72 38 73 61 74 62 75 70 76
REMARK SMILES IDX 63 77 69 78 64 79 65 80 66 81 67 82 68 83 47 84 48 85 56 86
REMARK SMILES IDX 49 87 55 88 50 89 51 90 52 91 53 92 54 93
REMARK H PARENT 15 6 19 30 75 49 45 60
REMARK Flexibility Score: inf
ROOT
ATOM      1  C   UNL A   1      37.385  23.725  25.360  1.00  0.00     0.042 C 
ENDROOT
BRANCH   1   2
ATOM      2  C   UNL A   1      36.593  22.447  25.599  1.00  0.00     0.117 C 
BRANCH   2   3
ATOM      3  N   UNL A   1      35.652  22.569  26.692  1.00  0.00    -0.354 N 
ATOM      4  C   UNL A   1      34.291  22.489  26.692  1.00  0.00     0.240 C 
ATOM      5  O   UNL A   1      33.739  22.320  27.783  1.00  0.00    -0.273 OA
ATOM      6  H   UNL A   1      36.058  22.736  27.574  1.00  0.00     0.163 HD
BRANCH   4   7
ATOM      7  C   UNL A   1      33.483  22.418  25.391  1.00  0.00     0.227 C 
BRANCH   7   8
ATOM      8  N   UNL A   1      32.611  23.564  25.143  1.00  0.00    -0.283 N 
ATOM      9  C   UNL A   1      32.492  26.966  23.911  1.00  0.00     0.029 C 
ATOM     10  C   UNL A   1      32.182  25.776  24.443  1.00  0.00     0.081 C 
ATOM     11  S   UNL A   1      30.672  25.253  25.072  1.00  0.00    -0.054 SA
ATOM     12  C   UNL A   1      33.185  24.684  24.559  1.00  0.00     0.266 C 
ATOM     13  C   UNL A   1      31.320  23.709  25.603  1.00  0.00     0.148 C 
ATOM     14  O   UNL A   1      34.347  24.792  24.211  1.00  0.00    -0.268 OA
ATOM     15  S   UNL A   1      30.430  22.663  26.551  1.00  0.00    -0.052 S 
BRANCH   9  16
ATOM     16  C   UNL A   1      31.575  28.101  23.755  1.00  0.00    -0.017 A 
ATOM     17  C   UNL A   1      30.768  30.258  24.596  1.00  0.00     0.165 A 
ATOM     18  C   UNL A   1      31.620  29.149  24.697  1.00  0.00     0.058 A 
ATOM     19  C   UNL A   1      29.906  30.307  23.516  1.00  0.00     0.207 A 
ATOM     20  C   UNL A   1      29.857  29.279  22.600  1.00  0.00     0.170 A 
ATOM     21  O   UNL A   1      29.043  31.307  23.182  1.00  0.00    -0.450 OA
ATOM     22  C   UNL A   1      30.653  28.156  22.705  1.00  0.00     0.059 A 
ATOM     23  O   UNL A   1      28.964  29.505  21.596  1.00  0.00    -0.453 OA
ATOM     24  C   UNL A   1      28.555  30.853  21.907  1.00  0.00     0.468 C 
BRANCH  17  25
ATOM     25  O   UNL A   1      30.930  31.201  25.570  1.00  0.00    -0.493 OA
ATOM     26  C   UNL A   1      31.866  30.875  26.593  1.00  0.00     0.278 C 
ENDBRANCH  17  25
ENDBRANCH   9  16
ENDBRANCH   7   8
ENDBRANCH   4   7
ENDBRANCH   2   3
ENDBRANCH   1   2
BRANCH   1  27
ATOM     27  C   UNL A   1      38.280  24.125  26.532  1.00  0.00     0.118 C 
BRANCH  27  28
ATOM     28  N   UNL A   1      39.698  23.966  26.235  1.00  0.00    -0.352 N 
ATOM     29  C   UNL A   1      40.776  24.728  26.615  1.00  0.00     0.251 C 
ATOM     30  H   UNL A   1      39.919  23.189  25.674  1.00  0.00     0.163 HD
ATOM     31  O   UNL A   1      41.870  24.517  26.098  1.00  0.00    -0.269 OA
BRANCH  29  32
ATOM     32  C   UNL A   1      40.627  25.802  27.622  1.00  0.00     0.039 A 
ATOM     33  C   UNL A   1      39.615  25.690  28.580  1.00  0.00     0.014 A 
ATOM     34  C   UNL A   1      41.455  26.927  27.610  1.00  0.00     0.014 A 
ATOM     35  C   UNL A   1      39.477  26.674  29.563  1.00  0.00     0.010 A 
ATOM     36  C   UNL A   1      41.368  27.865  28.636  1.00  0.00     0.010 A 
ATOM     37  C   UNL A   1      40.377  27.751  29.622  1.00  0.00    -0.014 A 
BRANCH  37  38
ATOM     38  C   UNL A   1      40.303  28.760  30.712  1.00  0.00     0.031 A 
ATOM     39  C   UNL A   1      41.184  28.634  31.926  1.00  0.00     0.074 A 
ATOM     40  C   UNL A   1      39.395  29.754  30.636  1.00  0.00     0.049 A 
ATOM     41  N   UNL A   1      41.216  29.379  33.001  1.00  0.00    -0.248 NA
ATOM     42  C   UNL A   1      42.134  27.509  31.947  1.00  0.00     0.031 C 
ATOM     43  C   UNL A   1      38.458  29.963  29.529  1.00  0.00     0.029 A 
ATOM     44  N   UNL A   1      39.108  30.773  31.509  1.00  0.00    -0.354 N 
ATOM     45  C   UNL A   1      42.175  28.807  33.830  1.00  0.00     0.074 A 
ATOM     46  C   UNL A   1      42.664  27.625  33.156  1.00  0.00     0.031 C 
ATOM     47  C   UNL A   1      37.718  31.055  29.779  1.00  0.00     0.029 A 
ATOM     48  C   UNL A   1      38.094  31.599  31.081  1.00  0.00     0.049 A 
ATOM     49  H   UNL A   1      39.582  30.901  32.362  1.00  0.00     0.167 HD
ATOM     50  C   UNL A   1      42.621  29.238  35.036  1.00  0.00     0.031 A 
ATOM     51  C   UNL A   1      37.521  32.665  31.671  1.00  0.00     0.031 A 
ATOM     52  C   UNL A   1      42.134  30.418  35.700  1.00  0.00     0.049 A 
ATOM     53  C   UNL A   1      38.021  33.114  33.018  1.00  0.00     0.074 A 
ATOM     54  C   UNL A   1      42.559  30.967  36.898  1.00  0.00     0.029 A 
ATOM     55  N   UNL A   1      41.113  31.229  35.229  1.00  0.00    -0.354 N 
ATOM     56  N   UNL A   1      38.975  32.598  33.755  1.00  0.00    -0.248 NA
ATOM     57  C   UNL A   1      37.375  34.294  33.606  1.00  0.00     0.031 C 
ATOM     58  C   UNL A   1      41.755  32.076  37.179  1.00  0.00     0.029 A 
ATOM     59  C   UNL A   1      40.875  32.259  36.125  1.00  0.00     0.049 A 
ATOM     60  H   UNL A   1      40.629  31.094  34.382  1.00  0.00     0.167 HD
ATOM     61  C   UNL A   1      39.064  33.409  34.881  1.00  0.00     0.074 A 
ATOM     62  C   UNL A   1      38.077  34.457  34.719  1.00  0.00     0.031 C 
ATOM     63  C   UNL A   1      39.889  33.297  35.951  1.00  0.00     0.031 A 
BRANCH  50  64
ATOM     64  C   UNL A   1      43.685  28.419  35.719  1.00  0.00    -0.014 A 
ATOM     65  C   UNL A   1      43.349  27.380  36.608  1.00  0.00     0.010 A 
ATOM     66  C   UNL A   1      45.043  28.661  35.439  1.00  0.00     0.010 A 
ATOM     67  C   UNL A   1      44.347  26.629  37.232  1.00  0.00     0.020 A 
ATOM     68  C   UNL A   1      46.044  27.892  36.037  1.00  0.00     0.020 A 
ATOM     69  C   UNL A   1      45.690  26.892  36.945  1.00  0.00     0.054 A 
BRANCH  69  70
ATOM     70  S   UNL A   1      46.964  25.885  37.753  1.00  0.00     0.124 S 
ATOM     71  O   UNL A   1      47.421  25.037  36.655  1.00  0.00    -0.237 OA
ATOM     72  O   UNL A   1      47.922  26.888  38.211  1.00  0.00    -0.237 OA
ATOM     73  O   UNL A   1      46.238  25.191  38.815  1.00  0.00    -0.744 OA
ENDBRANCH  69  70
ENDBRANCH  50  64
BRANCH  51  74
ATOM     74  C   UNL A   1      36.416  33.390  30.984  1.00  0.00    -0.014 A 
ATOM     75  C   UNL A   1      35.155  33.519  31.596  1.00  0.00     0.010 A 
ATOM     76  C   UNL A   1      36.620  33.967  29.717  1.00  0.00     0.010 A 
ATOM     77  C   UNL A   1      34.116  34.192  30.946  1.00  0.00     0.020 A 
ATOM     78  C   UNL A   1      35.594  34.668  29.078  1.00  0.00     0.020 A 
ATOM     79  C   UNL A   1      34.344  34.765  29.691  1.00  0.00     0.054 A 
BRANCH  79  80
ATOM     80  S   UNL A   1      32.994  35.674  28.888  1.00  0.00     0.124 S 
ATOM     81  O   UNL A   1      33.719  36.695  28.138  1.00  0.00    -0.237 OA
ATOM     82  O   UNL A   1      32.350  34.638  28.086  1.00  0.00    -0.237 OA
ATOM     83  O   UNL A   1      32.198  36.169  30.010  1.00  0.00    -0.744 OA
ENDBRANCH  79  80
ENDBRANCH  51  74
BRANCH  63  84
ATOM     84  C   UNL A   1      39.790  34.354  37.019  1.00  0.00    -0.014 A 
ATOM     85  C   UNL A   1      38.996  34.167  38.165  1.00  0.00     0.010 A 
ATOM     86  C   UNL A   1      40.550  35.532  36.899  1.00  0.00     0.010 A 
ATOM     87  C   UNL A   1      38.939  35.153  39.154  1.00  0.00     0.020 A 
ATOM     88  C   UNL A   1      40.521  36.506  37.901  1.00  0.00     0.020 A 
ATOM     89  C   UNL A   1      39.703  36.316  39.016  1.00  0.00     0.054 A 
BRANCH  89  90
ATOM     90  S   UNL A   1      39.647  37.559  40.336  1.00  0.00     0.124 S 
ATOM     91  O   UNL A   1      38.860  38.622  39.717  1.00  0.00    -0.237 OA
ATOM     92  O   UNL A   1      38.986  36.840  41.423  1.00  0.00    -0.237 OA
ATOM     93  O   UNL A   1      41.052  37.880  40.571  1.00  0.00    -0.744 OA
ENDBRANCH  89  90
ENDBRANCH  63  84
ENDBRANCH  37  38
ENDBRANCH  29  32
ENDBRANCH  27  28
ENDBRANCH   1  27
TORSDOF 16
ENDMDL
MODEL 2
REMARK VINA RESULT:     -11.8      4.983     12.739
REMARK SMILES COc1cc(/C=C2\SC(=S)N(CC(=O)NCCCNC(=O)c3ccc(-c4c5nc(c(-c6ccc(S(=O)(=O)[O-])cc6)c6ccc([nH]6)c(-c6ccc(S(=O)(=O)[O-])cc6)c6nc(c(-c7ccc(S(=O)(=O)[O-])cc7)c7ccc4[nH]7)C=C6)C=C5)cc3)C2=O)cc2c1OCO2
REMARK SMILES IDX 17 1 16 2 15 3 13 4 14 5 12 7 11 8 6 9 7 10 8 11 82 12 9 13
REMARK SMILES IDX 83 14 10 15 5 16 3 17 4 18 86 19 85 20 87 21 84 22 89 23
REMARK SMILES IDX 88 24 2 25 1 26 18 27 19 28 20 29 21 31 22 32 23 33 81 34
REMARK SMILES IDX 24 35 80 36 25 37 26 38 27 39 74 40 28 41 79 42 73 43 75 44
REMARK SMILES IDX 29 45 78 46 72 47 71 48 30 50 60 51 41 52 59 53 42 54 45 55
REMARK SMILES IDX 58 56 76 57 43 58 44 59 57 61 77 62 46 63 31 64 32 65 40 66
REMARK SMILES IDX 33 67 39 68 34 69 35 70 36 71 37 72 38 73 61 74 62 75 70 76
REMARK SMILES IDX 63 77 69 78 64 79 65 80 66 81 67 82 68 83 47 84 48 85 56 86
REMARK SMILES IDX 49 87 55 88 50 89 51 90 52 91 53 92 54 93
REMARK H PARENT 15 6 19 30 75 49 45 60
REMARK Flexibility Score: inf
ROOT
ATOM      1  C   UNL A   1      34.895  32.316  30.874  1.00  0.00     0.042 C 
ENDROOT
BRANCH   1   2
ATOM      2  C   UNL A   1      35.330  33.512  31.711  1.00  0.00     0.117 C 
BRANCH   2   3
ATOM      3  N   UNL A   1      35.283  33.246  33.133  1.00  0.00    -0.354 N 
ATOM      4  C   UNL A   1      36.218  33.466  34.099  1.00  0.00     0.240 C 
ATOM      5  O   UNL A   1      35.831  33.442  35.271  1.00  0.00    -0.273 OA
ATOM      6  H   UNL A   1      34.443  32.843  33.452  1.00  0.00     0.163 HD
BRANCH   4   7
ATOM      7  C   UNL A   1      37.645  33.914  33.760  1.00  0.00     0.227 C 
BRANCH   7   8
ATOM      8  N   UNL A   1      38.689  32.946  34.087  1.00  0.00    -0.283 N 
ATOM      9  C   UNL A   1      40.143  29.756  33.184  1.00  0.00     0.029 C 
ATOM     10  C   UNL A   1      39.851  30.914  33.792  1.00  0.00     0.081 C 
ATOM     11  S   UNL A   1      40.569  31.586  35.199  1.00  0.00    -0.054 SA
ATOM     12  C   UNL A   1      38.792  31.823  33.280  1.00  0.00     0.266 C 
ATOM     13  C   UNL A   1      39.459  32.947  35.231  1.00  0.00     0.148 C 
ATOM     14  O   UNL A   1      38.104  31.581  32.304  1.00  0.00    -0.268 OA
ATOM     15  S   UNL A   1      39.404  34.005  36.521  1.00  0.00    -0.052 S 
BRANCH   9  16
ATOM     16  C   UNL A   1      41.166  28.795  33.612  1.00  0.00    -0.017 A 
ATOM     17  C   UNL A   1      41.729  26.786  34.899  1.00  0.00     0.165 A 
ATOM     18  C   UNL A   1      40.792  27.733  34.459  1.00  0.00     0.058 A 
ATOM     19  C   UNL A   1      43.027  26.908  34.440  1.00  0.00     0.207 A 
ATOM     20  C   UNL A   1      43.393  27.952  33.618  1.00  0.00     0.170 A 
ATOM     21  O   UNL A   1      44.078  26.076  34.680  1.00  0.00    -0.450 OA
ATOM     22  C   UNL A   1      42.500  28.922  33.210  1.00  0.00     0.059 A 
ATOM     23  O   UNL A   1      44.705  27.903  33.252  1.00  0.00    -0.453 OA
ATOM     24  C   UNL A   1      45.091  26.636  33.824  1.00  0.00     0.468 C 
BRANCH  17  25
ATOM     25  O   UNL A   1      41.224  25.807  35.705  1.00  0.00    -0.493 OA
ATOM     26  C   UNL A   1      41.400  26.008  37.104  1.00  0.00     0.278 C 
ENDBRANCH  17  25
ENDBRANCH   9  16
ENDBRANCH   7   8
ENDBRANCH   4   7
ENDBRANCH   2   3
ENDBRANCH   1   2
BRANCH   1  27
ATOM     27  C   UNL A   1      34.863  32.592  29.372  1.00  0.00     0.118 C 
BRANCH  27  28
ATOM     28  N   UNL A   1      34.162  31.556  28.625  1.00  0.00    -0.352 N 
ATOM     29  C   UNL A   1      34.634  30.405  28.044  1.00  0.00     0.251 C 
ATOM     30  H   UNL A   1      33.195  31.706  28.520  1.00  0.00     0.163 HD
ATOM     31  O   UNL A   1      33.897  29.763  27.301  1.00  0.00    -0.269 OA
BRANCH  29  32
ATOM     32  C   UNL A   1      36.019  29.945  28.294  1.00  0.00     0.039 A 
ATOM     33  C   UNL A   1      36.971  30.098  27.282  1.00  0.00     0.014 A 
ATOM     34  C   UNL A   1      36.374  29.338  29.501  1.00  0.00     0.014 A 
ATOM     35  C   UNL A   1      38.294  29.704  27.508  1.00  0.00     0.010 A 
ATOM     36  C   UNL A   1      37.707  29.020  29.752  1.00  0.00     0.010 A 
ATOM     37  C   UNL A   1      38.681  29.196  28.758  1.00  0.00    -0.014 A 
BRANCH  37  38
ATOM     38  C   UNL A   1      40.098  28.854  29.047  1.00  0.00     0.031 A 
ATOM     39  C   UNL A   1      41.025  29.885  29.635  1.00  0.00     0.074 A 
ATOM     40  C   UNL A   1      40.567  27.633  28.720  1.00  0.00     0.049 A 
ATOM     41  N   UNL A   1      42.303  29.789  29.897  1.00  0.00    -0.248 NA
ATOM     42  C   UNL A   1      40.446  31.202  29.946  1.00  0.00     0.031 C 
ATOM     43  C   UNL A   1      39.780  26.559  28.109  1.00  0.00     0.029 A 
ATOM     44  N   UNL A   1      41.821  27.090  28.848  1.00  0.00    -0.354 N 
ATOM     45  C   UNL A   1      42.684  31.034  30.386  1.00  0.00     0.074 A 
ATOM     46  C   UNL A   1      41.513  31.882  30.338  1.00  0.00     0.031 C 
ATOM     47  C   UNL A   1      40.562  25.481  27.940  1.00  0.00     0.029 A 
ATOM     48  C   UNL A   1      41.915  25.798  28.386  1.00  0.00     0.049 A 
ATOM     49  H   UNL A   1      42.583  27.580  29.234  1.00  0.00     0.167 HD
ATOM     50  C   UNL A   1      43.894  31.430  30.851  1.00  0.00     0.031 A 
ATOM     51  C   UNL A   1      42.970  24.965  28.316  1.00  0.00     0.031 A 
ATOM     52  C   UNL A   1      45.055  30.580  30.902  1.00  0.00     0.049 A 
ATOM     53  C   UNL A   1      44.308  25.433  28.822  1.00  0.00     0.074 A 
ATOM     54  C   UNL A   1      46.312  30.871  31.404  1.00  0.00     0.029 A 
ATOM     55  N   UNL A   1      45.105  29.277  30.431  1.00  0.00    -0.354 N 
ATOM     56  N   UNL A   1      44.631  26.592  29.343  1.00  0.00    -0.248 NA
ATOM     57  C   UNL A   1      45.420  24.477  28.741  1.00  0.00     0.031 C 
ATOM     58  C   UNL A   1      47.137  29.764  31.183  1.00  0.00     0.029 A 
ATOM     59  C   UNL A   1      46.378  28.759  30.606  1.00  0.00     0.049 A 
ATOM     60  H   UNL A   1      44.348  28.791  30.032  1.00  0.00     0.167 HD
ATOM     61  C   UNL A   1      45.977  26.494  29.679  1.00  0.00     0.074 A 
ATOM     62  C   UNL A   1      46.402  25.157  29.317  1.00  0.00     0.031 C 
ATOM     63  C   UNL A   1      46.788  27.426  30.240  1.00  0.00     0.031 A 
BRANCH  50  64
ATOM     64  C   UNL A   1      44.026  32.851  31.334  1.00  0.00    -0.014 A 
ATOM     65  C   UNL A   1      43.650  33.215  32.641  1.00  0.00     0.010 A 
ATOM     66  C   UNL A   1      44.574  33.831  30.486  1.00  0.00     0.010 A 
ATOM     67  C   UNL A   1      43.781  34.536  33.075  1.00  0.00     0.020 A 
ATOM     68  C   UNL A   1      44.735  35.148  30.926  1.00  0.00     0.020 A 
ATOM     69  C   UNL A   1      44.320  35.495  32.213  1.00  0.00     0.054 A 
BRANCH  69  70
ATOM     70  S   UNL A   1      44.498  37.198  32.812  1.00  0.00     0.124 S 
ATOM     71  O   UNL A   1      45.949  37.365  32.821  1.00  0.00    -0.237 OA
ATOM     72  O   UNL A   1      43.785  37.971  31.798  1.00  0.00    -0.237 OA
ATOM     73  O   UNL A   1      43.867  37.173  34.129  1.00  0.00    -0.744 OA
ENDBRANCH  69  70
ENDBRANCH  50  64
BRANCH  51  74
ATOM     74  C   UNL A   1      42.801  23.596  27.753  1.00  0.00    -0.014 A 
ATOM     75  C   UNL A   1      42.337  22.542  28.561  1.00  0.00     0.010 A 
ATOM     76  C   UNL A   1      43.091  23.340  26.400  1.00  0.00     0.010 A 
ATOM     77  C   UNL A   1      42.186  21.256  28.034  1.00  0.00     0.020 A 
ATOM     78  C   UNL A   1      42.912  22.063  25.861  1.00  0.00     0.020 A 
ATOM     79  C   UNL A   1      42.472  21.026  26.685  1.00  0.00     0.054 A 
BRANCH  79  80
ATOM     80  S   UNL A   1      42.225  19.359  26.012  1.00  0.00     0.124 S 
ATOM     81  O   UNL A   1      42.678  18.515  27.113  1.00  0.00    -0.237 OA
ATOM     82  O   UNL A   1      40.790  19.336  25.745  1.00  0.00    -0.237 OA
ATOM     83  O   UNL A   1      43.073  19.341  24.821  1.00  0.00    -0.744 OA
ENDBRANCH  79  80
ENDBRANCH  51  74
BRANCH  63  84
ATOM     84  C   UNL A   1      48.210  27.026  30.532  1.00  0.00    -0.014 A 
ATOM     85  C   UNL A   1      49.226  27.176  29.571  1.00  0.00     0.010 A 
ATOM     86  C   UNL A   1      48.543  26.541  31.810  1.00  0.00     0.010 A 
ATOM     87  C   UNL A   1      50.543  26.820  29.874  1.00  0.00     0.020 A 
ATOM     88  C   UNL A   1      49.864  26.214  32.127  1.00  0.00     0.020 A 
ATOM     89  C   UNL A   1      50.854  26.342  31.151  1.00  0.00     0.054 A 
BRANCH  89  90
ATOM     90  S   UNL A   1      52.579  25.930  31.532  1.00  0.00     0.124 S 
ATOM     91  O   UNL A   1      53.223  26.087  30.231  1.00  0.00    -0.237 OA
ATOM     92  O   UNL A   1      52.933  26.933  32.533  1.00  0.00    -0.237 OA
ATOM     93  O   UNL A   1      52.506  24.558  32.030  1.00  0.00    -0.744 OA
ENDBRANCH  89  90
ENDBRANCH  63  84
ENDBRANCH  37  38
ENDBRANCH  29  32
ENDBRANCH  27  28
ENDBRANCH   1  27
TORSDOF 16
ENDMDL
MODEL 3
REMARK VINA RESULT:     -11.5      4.904     11.565
REMARK SMILES COc1cc(/C=C2\SC(=S)N(CC(=O)NCCCNC(=O)c3ccc(-c4c5nc(c(-c6ccc(S(=O)(=O)[O-])cc6)c6ccc([nH]6)c(-c6ccc(S(=O)(=O)[O-])cc6)c6nc(c(-c7ccc(S(=O)(=O)[O-])cc7)c7ccc4[nH]7)C=C6)C=C5)cc3)C2=O)cc2c1OCO2
REMARK SMILES IDX 17 1 16 2 15 3 13 4 14 5 12 7 11 8 6 9 7 10 8 11 82 12 9 13
REMARK SMILES IDX 83 14 10 15 5 16 3 17 4 18 86 19 85 20 87 21 84 22 89 23
REMARK SMILES IDX 88 24 2 25 1 26 18 27 19 28 20 29 21 31 22 32 23 33 81 34
REMARK SMILES IDX 24 35 80 36 25 37 26 38 27 39 74 40 28 41 79 42 73 43 75 44
REMARK SMILES IDX 29 45 78 46 72 47 71 48 30 50 60 51 41 52 59 53 42 54 45 55
REMARK SMILES IDX 58 56 76 57 43 58 44 59 57 61 77 62 46 63 31 64 32 65 40 66
REMARK SMILES IDX 33 67 39 68 34 69 35 70 36 71 37 72 38 73 61 74 62 75 70 76
REMARK SMILES IDX 63 77 69 78 64 79 65 80 66 81 67 82 68 83 47 84 48 85 56 86
REMARK SMILES IDX 49 87 55 88 50 89 51 90 52 91 53 92 54 93
REMARK H PARENT 15 6 19 30 75 49 45 60
REMARK Flexibility Score: inf
ROOT
ATOM      1  C   UNL A   1      34.025  34.085  28.000  1.00  0.00     0.042 C 
ENDROOT
BRANCH   1   2
ATOM      2  C   UNL A   1      34.772  35.301  28.530  1.00  0.00     0.117 C 
BRANCH   2   3
ATOM      3  N   UNL A   1      33.889  36.296  29.100  1.00  0.00    -0.354 N 
ATOM      4  C   UNL A   1      33.128  36.250  30.230  1.00  0.00     0.240 C 
ATOM      5  O   UNL A   1      32.704  37.325  30.665  1.00  0.00    -0.273 OA
ATOM      6  H   UNL A   1      33.828  37.138  28.593  1.00  0.00     0.163 HD
BRANCH   4   7
ATOM      7  C   UNL A   1      32.956  34.960  31.040  1.00  0.00     0.227 C 
BRANCH   7   8
ATOM      8  N   UNL A   1      34.094  34.607  31.886  1.00  0.00    -0.283 N 
ATOM      9  C   UNL A   1      36.380  31.952  32.798  1.00  0.00     0.029 C 
ATOM     10  C   UNL A   1      35.714  33.113  32.729  1.00  0.00     0.081 C 
ATOM     11  S   UNL A   1      35.943  34.528  33.673  1.00  0.00    -0.054 SA
ATOM     12  C   UNL A   1      34.615  33.329  31.751  1.00  0.00     0.266 C 
ATOM     13  C   UNL A   1      34.578  35.355  32.938  1.00  0.00     0.148 C 
ATOM     14  O   UNL A   1      34.226  32.478  30.969  1.00  0.00    -0.268 OA
ATOM     15  S   UNL A   1      34.013  36.810  33.528  1.00  0.00    -0.052 S 
BRANCH   9  16
ATOM     16  C   UNL A   1      37.474  31.644  33.727  1.00  0.00    -0.017 A 
ATOM     17  C   UNL A   1      38.621  32.146  35.834  1.00  0.00     0.165 A 
ATOM     18  C   UNL A   1      37.595  32.397  34.911  1.00  0.00     0.058 A 
ATOM     19  C   UNL A   1      39.488  31.105  35.560  1.00  0.00     0.207 A 
ATOM     20  C   UNL A   1      39.374  30.374  34.397  1.00  0.00     0.170 A 
ATOM     21  O   UNL A   1      40.508  30.642  36.335  1.00  0.00    -0.450 OA
ATOM     22  C   UNL A   1      38.401  30.633  33.452  1.00  0.00     0.059 A 
ATOM     23  O   UNL A   1      40.301  29.380  34.302  1.00  0.00    -0.453 OA
ATOM     24  C   UNL A   1      40.925  29.478  35.599  1.00  0.00     0.468 C 
BRANCH  17  25
ATOM     25  O   UNL A   1      38.608  32.944  36.942  1.00  0.00    -0.493 OA
ATOM     26  C   UNL A   1      37.424  32.885  37.730  1.00  0.00     0.278 C 
ENDBRANCH  17  25
ENDBRANCH   9  16
ENDBRANCH   7   8
ENDBRANCH   4   7
ENDBRANCH   2   3
ENDBRANCH   1   2
BRANCH   1  27
ATOM     27  C   UNL A   1      34.874  32.818  27.936  1.00  0.00     0.118 C 
BRANCH  27  28
ATOM     28  N   UNL A   1      34.070  31.606  27.846  1.00  0.00    -0.352 N 
ATOM     29  C   UNL A   1      34.449  30.286  27.851  1.00  0.00     0.251 C 
ATOM     30  H   UNL A   1      33.101  31.757  27.770  1.00  0.00     0.163 HD
ATOM     31  O   UNL A   1      33.618  29.423  27.579  1.00  0.00    -0.269 OA
BRANCH  29  32
ATOM     32  C   UNL A   1      35.842  29.899  28.166  1.00  0.00     0.039 A 
ATOM     33  C   UNL A   1      36.803  29.963  27.153  1.00  0.00     0.014 A 
ATOM     34  C   UNL A   1      36.199  29.447  29.439  1.00  0.00     0.014 A 
ATOM     35  C   UNL A   1      38.133  29.637  27.435  1.00  0.00     0.010 A 
ATOM     36  C   UNL A   1      37.537  29.200  29.738  1.00  0.00     0.010 A 
ATOM     37  C   UNL A   1      38.519  29.289  28.739  1.00  0.00    -0.014 A 
BRANCH  37  38
ATOM     38  C   UNL A   1      39.941  29.026  29.080  1.00  0.00     0.031 A 
ATOM     39  C   UNL A   1      40.572  27.701  28.744  1.00  0.00     0.074 A 
ATOM     40  C   UNL A   1      40.647  29.959  29.751  1.00  0.00     0.049 A 
ATOM     41  N   UNL A   1      41.776  27.269  29.017  1.00  0.00    -0.248 NA
ATOM     42  C   UNL A   1      39.732  26.724  28.031  1.00  0.00     0.031 C 
ATOM     43  C   UNL A   1      40.138  31.268  30.169  1.00  0.00     0.029 A 
ATOM     44  N   UNL A   1      41.942  29.948  30.206  1.00  0.00    -0.354 N 
ATOM     45  C   UNL A   1      41.834  25.969  28.525  1.00  0.00     0.074 A 
ATOM     46  C   UNL A   1      40.528  25.666  27.982  1.00  0.00     0.031 C 
ATOM     47  C   UNL A   1      41.117  31.941  30.795  1.00  0.00     0.029 A 
ATOM     48  C   UNL A   1      42.307  31.099  30.865  1.00  0.00     0.049 A 
ATOM     49  H   UNL A   1      42.552  29.186  30.073  1.00  0.00     0.167 HD
ATOM     50  C   UNL A   1      42.884  25.113  28.510  1.00  0.00     0.031 A 
ATOM     51  C   UNL A   1      43.462  31.436  31.469  1.00  0.00     0.031 A 
ATOM     52  C   UNL A   1      44.183  25.421  29.047  1.00  0.00     0.049 A 
ATOM     53  C   UNL A   1      44.609  30.462  31.454  1.00  0.00     0.074 A 
ATOM     54  C   UNL A   1      45.327  24.641  29.033  1.00  0.00     0.029 A 
ATOM     55  N   UNL A   1      44.513  26.600  29.699  1.00  0.00    -0.354 N 
ATOM     56  N   UNL A   1      44.663  29.263  30.924  1.00  0.00    -0.248 NA
ATOM     57  C   UNL A   1      45.852  30.889  32.109  1.00  0.00     0.031 C 
ATOM     58  C   UNL A   1      46.330  25.324  29.727  1.00  0.00     0.029 A 
ATOM     59  C   UNL A   1      45.833  26.558  30.115  1.00  0.00     0.049 A 
ATOM     60  H   UNL A   1      43.898  27.356  29.844  1.00  0.00     0.167 HD
ATOM     61  C   UNL A   1      45.956  28.805  31.156  1.00  0.00     0.074 A 
ATOM     62  C   UNL A   1      46.653  29.862  31.860  1.00  0.00     0.031 C 
ATOM     63  C   UNL A   1      46.515  27.618  30.815  1.00  0.00     0.031 A 
BRANCH  50  64
ATOM     64  C   UNL A   1      42.667  23.752  27.899  1.00  0.00    -0.014 A 
ATOM     65  C   UNL A   1      43.056  23.477  26.575  1.00  0.00     0.010 A 
ATOM     66  C   UNL A   1      42.105  22.719  28.672  1.00  0.00     0.010 A 
ATOM     67  C   UNL A   1      42.850  22.210  26.024  1.00  0.00     0.020 A 
ATOM     68  C   UNL A   1      41.926  21.441  28.135  1.00  0.00     0.020 A 
ATOM     69  C   UNL A   1      42.283  21.200  26.807  1.00  0.00     0.054 A 
BRANCH  69  70
ATOM     70  S   UNL A   1      42.048  19.559  26.071  1.00  0.00     0.124 S 
ATOM     71  O   UNL A   1      42.521  18.680  27.138  1.00  0.00    -0.237 OA
ATOM     72  O   UNL A   1      40.610  19.523  25.821  1.00  0.00    -0.237 OA
ATOM     73  O   UNL A   1      42.886  19.590  24.874  1.00  0.00    -0.744 OA
ENDBRANCH  69  70
ENDBRANCH  50  64
BRANCH  51  74
ATOM     74  C   UNL A   1      43.595  32.765  32.128  1.00  0.00    -0.014 A 
ATOM     75  C   UNL A   1      44.032  33.886  31.399  1.00  0.00     0.010 A 
ATOM     76  C   UNL A   1      43.273  32.921  33.489  1.00  0.00     0.010 A 
ATOM     77  C   UNL A   1      44.165  35.130  32.022  1.00  0.00     0.020 A 
ATOM     78  C   UNL A   1      43.374  34.171  34.108  1.00  0.00     0.020 A 
ATOM     79  C   UNL A   1      43.832  35.265  33.373  1.00  0.00     0.054 A 
BRANCH  79  80
ATOM     80  S   UNL A   1      43.967  36.901  34.148  1.00  0.00     0.124 S 
ATOM     81  O   UNL A   1      42.597  37.143  34.588  1.00  0.00    -0.237 OA
ATOM     82  O   UNL A   1      44.942  36.667  35.210  1.00  0.00    -0.237 OA
ATOM     83  O   UNL A   1      44.435  37.758  33.060  1.00  0.00    -0.744 OA
ENDBRANCH  79  80
ENDBRANCH  51  74
BRANCH  63  84
ATOM     84  C   UNL A   1      47.965  27.406  31.165  1.00  0.00    -0.014 A 
ATOM     85  C   UNL A   1      48.995  27.797  30.290  1.00  0.00     0.010 A 
ATOM     86  C   UNL A   1      48.301  26.856  32.416  1.00  0.00     0.010 A 
ATOM     87  C   UNL A   1      50.333  27.612  30.647  1.00  0.00     0.020 A 
ATOM     88  C   UNL A   1      49.639  26.699  32.789  1.00  0.00     0.020 A 
ATOM     89  C   UNL A   1      50.647  27.065  31.896  1.00  0.00     0.054 A 
BRANCH  89  90
ATOM     90  S   UNL A   1      52.392  26.878  32.353  1.00  0.00     0.124 S 
ATOM     91  O   UNL A   1      53.070  27.541  31.242  1.00  0.00    -0.237 OA
ATOM     92  O   UNL A   1      52.462  27.574  33.636  1.00  0.00    -0.237 OA
ATOM     93  O   UNL A   1      52.579  25.431  32.424  1.00  0.00    -0.744 OA
ENDBRANCH  89  90
ENDBRANCH  63  84
ENDBRANCH  37  38
ENDBRANCH  29  32
ENDBRANCH  27  28
ENDBRANCH   1  27
TORSDOF 16
ENDMDL
