MODEL 1
REMARK VINA RESULT:     -12.2      0.000      0.000
REMARK SMILES Cc1ccc2c(c1)OCCN2c1sc(C(=O)NCCCNC(=O)c2ccc(-c3c4nc(c(-c5ccc(S(=O)(=O)[O-])cc5)c5ccc([nH]5)c(-c5ccc(S(=O)(=O)[O-])cc5)c5nc(c(-c6ccc(S(=O)(=O)[O-])cc6)c6ccc3[nH]6)C=C5)C=C4)cc2)cc1C
REMARK SMILES IDX 20 1 19 2 18 3 17 4 15 5 16 6 14 8 12 9 13 10 85 11 84 12
REMARK SMILES IDX 86 13 11 14 1 15 2 16 3 17 7 18 4 19 6 20 5 21 8 22 9 23
REMARK SMILES IDX 10 24 21 25 22 26 23 28 24 29 25 30 83 31 26 32 82 33 27 34
REMARK SMILES IDX 28 35 29 36 76 37 30 38 81 39 75 40 77 41 31 42 80 43 74 44
REMARK SMILES IDX 73 45 32 47 62 48 43 49 61 50 44 51 47 52 60 53 78 54 45 55
REMARK SMILES IDX 46 56 59 58 79 59 48 60 33 61 34 62 42 63 35 64 41 65 36 66
REMARK SMILES IDX 37 67 38 68 39 69 40 70 63 71 64 72 72 73 65 74 71 75 66 76
REMARK SMILES IDX 67 77 68 78 69 79 70 80 49 81 50 82 58 83 51 84 57 85 52 86
REMARK SMILES IDX 53 87 54 88 55 89 56 90
REMARK H PARENT 17 7 21 27 77 46 47 57
REMARK Flexibility Score: inf
ROOT
ATOM      1  C   UNL A   1      33.336  28.668  27.090  1.00  0.00     0.118 C 
ENDROOT
BRANCH   1   2
ATOM      2  C   UNL A   1      32.934  28.419  25.637  1.00  0.00     0.042 C 
BRANCH   2   3
ATOM      3  C   UNL A   1      31.426  28.477  25.413  1.00  0.00     0.118 C 
BRANCH   3   4
ATOM      4  N   UNL A   1      31.090  28.293  24.013  1.00  0.00    -0.351 N 
ATOM      5  C   UNL A   1      31.039  27.194  23.194  1.00  0.00     0.261 C 
ATOM      6  O   UNL A   1      30.641  27.427  22.047  1.00  0.00    -0.268 OA
ATOM      7  H   UNL A   1      30.849  29.132  23.557  1.00  0.00     0.163 HD
BRANCH   5   8
ATOM      8  C   UNL A   1      31.337  25.837  23.626  1.00  0.00     0.094 A 
ATOM      9  C   UNL A   1      32.307  23.605  24.140  1.00  0.00     0.099 A 
ATOM     10  S   UNL A   1      32.399  24.750  22.859  1.00  0.00    -0.112 S 
ATOM     11  C   UNL A   1      31.257  23.913  24.991  1.00  0.00    -0.015 A 
ATOM     12  C   UNL A   1      30.707  25.199  24.682  1.00  0.00     0.031 A 
ATOM     13  C   UNL A   1      30.772  23.091  26.139  1.00  0.00     0.047 C 
BRANCH   9  14
ATOM     14  N   UNL A   1      33.139  22.528  24.225  1.00  0.00    -0.327 N 
ATOM     15  C   UNL A   1      38.611  22.506  26.046  1.00  0.00     0.044 C 
ATOM     16  C   UNL A   1      37.182  22.505  25.596  1.00  0.00    -0.047 A 
ATOM     17  C   UNL A   1      36.507  23.712  25.402  1.00  0.00     0.006 A 
ATOM     18  C   UNL A   1      36.508  21.310  25.330  1.00  0.00     0.052 A 
ATOM     19  C   UNL A   1      35.175  23.724  24.969  1.00  0.00     0.030 A 
ATOM     20  C   UNL A   1      35.178  21.326  24.894  1.00  0.00     0.143 A 
ATOM     21  C   UNL A   1      34.484  22.537  24.681  1.00  0.00     0.085 A 
ATOM     22  O   UNL A   1      34.618  20.082  24.698  1.00  0.00    -0.490 OA
ATOM     23  C   UNL A   1      33.189  20.130  24.631  1.00  0.00     0.251 C 
ATOM     24  C   UNL A   1      32.709  21.234  23.696  1.00  0.00     0.165 C 
ENDBRANCH   9  14
ENDBRANCH   5   8
ENDBRANCH   3   4
ENDBRANCH   2   3
ENDBRANCH   1   2
BRANCH   1  25
ATOM     25  N   UNL A   1      33.358  30.087  27.431  1.00  0.00    -0.352 N 
ATOM     26  C   UNL A   1      34.330  30.826  28.063  1.00  0.00     0.251 C 
ATOM     27  H   UNL A   1      32.555  30.592  27.167  1.00  0.00     0.163 HD
ATOM     28  O   UNL A   1      34.083  31.976  28.419  1.00  0.00    -0.269 OA
BRANCH  26  29
ATOM     29  C   UNL A   1      35.655  30.230  28.339  1.00  0.00     0.039 A 
ATOM     30  C   UNL A   1      35.938  29.664  29.583  1.00  0.00     0.014 A 
ATOM     31  C   UNL A   1      36.630  30.240  27.337  1.00  0.00     0.014 A 
ATOM     32  C   UNL A   1      37.237  29.266  29.880  1.00  0.00     0.010 A 
ATOM     33  C   UNL A   1      37.916  29.762  27.612  1.00  0.00     0.010 A 
ATOM     34  C   UNL A   1      38.243  29.318  28.901  1.00  0.00    -0.014 A 
BRANCH  34  35
ATOM     35  C   UNL A   1      39.630  28.914  29.257  1.00  0.00     0.031 A 
ATOM     36  C   UNL A   1      40.474  29.780  30.155  1.00  0.00     0.074 A 
ATOM     37  C   UNL A   1      40.101  27.725  28.830  1.00  0.00     0.049 A 
ATOM     38  N   UNL A   1      41.684  29.561  30.603  1.00  0.00    -0.248 NA
ATOM     39  C   UNL A   1      39.890  31.053  30.611  1.00  0.00     0.031 C 
ATOM     40  C   UNL A   1      39.364  26.786  27.982  1.00  0.00     0.029 A 
ATOM     41  N   UNL A   1      41.289  27.084  29.080  1.00  0.00    -0.354 N 
ATOM     42  C   UNL A   1      42.007  30.665  31.385  1.00  0.00     0.074 A 
ATOM     43  C   UNL A   1      40.882  31.572  31.322  1.00  0.00     0.031 C 
ATOM     44  C   UNL A   1      40.083  25.663  27.843  1.00  0.00     0.029 A 
ATOM     45  C   UNL A   1      41.361  25.825  28.531  1.00  0.00     0.049 A 
ATOM     46  H   UNL A   1      42.019  27.487  29.603  1.00  0.00     0.167 HD
ATOM     47  C   UNL A   1      43.132  30.894  32.102  1.00  0.00     0.031 A 
ATOM     48  C   UNL A   1      42.341  24.900  28.570  1.00  0.00     0.031 A 
ATOM     49  C   UNL A   1      44.244  29.981  32.171  1.00  0.00     0.049 A 
ATOM     50  C   UNL A   1      43.603  25.202  29.324  1.00  0.00     0.074 A 
ATOM     51  C   UNL A   1      45.428  30.129  32.873  1.00  0.00     0.029 A 
ATOM     52  N   UNL A   1      44.310  28.754  31.530  1.00  0.00    -0.354 N 
ATOM     53  N   UNL A   1      43.895  26.260  30.041  1.00  0.00    -0.248 NA
ATOM     54  C   UNL A   1      44.672  24.195  29.270  1.00  0.00     0.031 C 
ATOM     55  C   UNL A   1      46.232  29.018  32.611  1.00  0.00     0.029 A 
ATOM     56  C   UNL A   1      45.523  28.145  31.801  1.00  0.00     0.049 A 
ATOM     57  H   UNL A   1      43.598  28.372  30.966  1.00  0.00     0.167 HD
ATOM     58  C   UNL A   1      45.178  26.044  30.531  1.00  0.00     0.074 A 
ATOM     59  C   UNL A   1      45.598  24.745  30.046  1.00  0.00     0.031 C 
ATOM     60  C   UNL A   1      45.936  26.854  31.308  1.00  0.00     0.031 A 
BRANCH  47  61
ATOM     61  C   UNL A   1      43.235  32.177  32.884  1.00  0.00    -0.014 A 
ATOM     62  C   UNL A   1      42.826  32.213  34.230  1.00  0.00     0.010 A 
ATOM     63  C   UNL A   1      43.620  33.375  32.254  1.00  0.00     0.010 A 
ATOM     64  C   UNL A   1      42.769  33.425  34.924  1.00  0.00     0.020 A 
ATOM     65  C   UNL A   1      43.589  34.586  32.953  1.00  0.00     0.020 A 
ATOM     66  C   UNL A   1      43.141  34.606  34.277  1.00  0.00     0.054 A 
BRANCH  66  67
ATOM     67  S   UNL A   1      43.037  36.174  35.184  1.00  0.00     0.124 S 
ATOM     68  O   UNL A   1      41.716  36.665  34.801  1.00  0.00    -0.237 OA
ATOM     69  O   UNL A   1      43.174  35.749  36.575  1.00  0.00    -0.237 OA
ATOM     70  O   UNL A   1      44.166  36.944  34.665  1.00  0.00    -0.744 OA
ENDBRANCH  66  67
ENDBRANCH  47  61
BRANCH  48  71
ATOM     71  C   UNL A   1      42.134  23.596  27.881  1.00  0.00    -0.014 A 
ATOM     72  C   UNL A   1      41.534  22.519  28.560  1.00  0.00     0.010 A 
ATOM     73  C   UNL A   1      42.620  23.396  26.578  1.00  0.00     0.010 A 
ATOM     74  C   UNL A   1      41.482  21.252  27.976  1.00  0.00     0.020 A 
ATOM     75  C   UNL A   1      42.543  22.134  25.977  1.00  0.00     0.020 A 
ATOM     76  C   UNL A   1      42.003  21.064  26.695  1.00  0.00     0.054 A 
BRANCH  76  77
ATOM     77  S   UNL A   1      41.981  19.397  25.978  1.00  0.00     0.124 S 
ATOM     78  O   UNL A   1      42.489  18.590  27.085  1.00  0.00    -0.237 OA
ATOM     79  O   UNL A   1      40.569  19.205  25.657  1.00  0.00    -0.237 OA
ATOM     80  O   UNL A   1      42.870  19.509  24.825  1.00  0.00    -0.744 OA
ENDBRANCH  76  77
ENDBRANCH  48  71
BRANCH  60  81
ATOM     81  C   UNL A   1      47.313  26.384  31.693  1.00  0.00    -0.014 A 
ATOM     82  C   UNL A   1      48.391  26.580  30.808  1.00  0.00     0.010 A 
ATOM     83  C   UNL A   1      47.511  25.626  32.860  1.00  0.00     0.010 A 
ATOM     84  C   UNL A   1      49.632  25.994  31.064  1.00  0.00     0.020 A 
ATOM     85  C   UNL A   1      48.760  25.060  33.132  1.00  0.00     0.020 A 
ATOM     86  C   UNL A   1      49.804  25.225  32.218  1.00  0.00     0.054 A 
BRANCH  86  87
ATOM     87  S   UNL A   1      51.410  24.434  32.512  1.00  0.00     0.124 S 
ATOM     88  O   UNL A   1      51.125  23.037  32.202  1.00  0.00    -0.237 OA
ATOM     89  O   UNL A   1      52.287  25.124  31.567  1.00  0.00    -0.237 OA
ATOM     90  O   UNL A   1      51.680  24.719  33.920  1.00  0.00    -0.744 OA
ENDBRANCH  86  87
ENDBRANCH  60  81
ENDBRANCH  34  35
ENDBRANCH  26  29
ENDBRANCH   1  25
TORSDOF 14
ENDMDL
MODEL 2
REMARK VINA RESULT:     -12.1      2.567      9.562
REMARK SMILES Cc1ccc2c(c1)OCCN2c1sc(C(=O)NCCCNC(=O)c2ccc(-c3c4nc(c(-c5ccc(S(=O)(=O)[O-])cc5)c5ccc([nH]5)c(-c5ccc(S(=O)(=O)[O-])cc5)c5nc(c(-c6ccc(S(=O)(=O)[O-])cc6)c6ccc3[nH]6)C=C5)C=C4)cc2)cc1C
REMARK SMILES IDX 20 1 19 2 18 3 17 4 15 5 16 6 14 8 12 9 13 10 85 11 84 12
REMARK SMILES IDX 86 13 11 14 1 15 2 16 3 17 7 18 4 19 6 20 5 21 8 22 9 23
REMARK SMILES IDX 10 24 21 25 22 26 23 28 24 29 25 30 83 31 26 32 82 33 27 34
REMARK SMILES IDX 28 35 29 36 76 37 30 38 81 39 75 40 77 41 31 42 80 43 74 44
REMARK SMILES IDX 73 45 32 47 62 48 43 49 61 50 44 51 47 52 60 53 78 54 45 55
REMARK SMILES IDX 46 56 59 58 79 59 48 60 33 61 34 62 42 63 35 64 41 65 36 66
REMARK SMILES IDX 37 67 38 68 39 69 40 70 63 71 64 72 72 73 65 74 71 75 66 76
REMARK SMILES IDX 67 77 68 78 69 79 70 80 49 81 50 82 58 83 51 84 57 85 52 86
REMARK SMILES IDX 53 87 54 88 55 89 56 90
REMARK H PARENT 17 7 21 27 77 46 47 57
REMARK Flexibility Score: inf
ROOT
ATOM      1  C   UNL A   1      37.031  23.520  24.944  1.00  0.00     0.118 C 
ENDROOT
BRANCH   1   2
ATOM      2  C   UNL A   1      35.818  22.838  24.313  1.00  0.00     0.042 C 
BRANCH   2   3
ATOM      3  C   UNL A   1      34.992  22.037  25.314  1.00  0.00     0.118 C 
BRANCH   3   4
ATOM      4  N   UNL A   1      33.955  21.267  24.652  1.00  0.00    -0.351 N 
ATOM      5  C   UNL A   1      32.856  21.615  23.908  1.00  0.00     0.261 C 
ATOM      6  O   UNL A   1      32.224  20.657  23.447  1.00  0.00    -0.268 OA
ATOM      7  H   UNL A   1      34.061  20.294  24.760  1.00  0.00     0.163 HD
BRANCH   5   8
ATOM      8  C   UNL A   1      32.481  22.986  23.592  1.00  0.00     0.094 A 
ATOM      9  C   UNL A   1      31.800  25.377  23.570  1.00  0.00     0.099 A 
ATOM     10  S   UNL A   1      31.449  23.981  24.511  1.00  0.00    -0.112 S 
ATOM     11  C   UNL A   1      32.456  25.022  22.400  1.00  0.00    -0.015 A 
ATOM     12  C   UNL A   1      32.840  23.643  22.427  1.00  0.00     0.031 A 
ATOM     13  C   UNL A   1      32.810  25.929  21.269  1.00  0.00     0.047 C 
BRANCH   9  14
ATOM     14  N   UNL A   1      31.411  26.631  23.940  1.00  0.00    -0.327 N 
ATOM     15  C   UNL A   1      34.294  30.302  27.326  1.00  0.00     0.044 C 
ATOM     16  C   UNL A   1      33.555  29.359  26.426  1.00  0.00    -0.047 A 
ATOM     17  C   UNL A   1      33.998  28.044  26.272  1.00  0.00     0.006 A 
ATOM     18  C   UNL A   1      32.398  29.760  25.753  1.00  0.00     0.052 A 
ATOM     19  C   UNL A   1      33.308  27.150  25.443  1.00  0.00     0.030 A 
ATOM     20  C   UNL A   1      31.708  28.863  24.928  1.00  0.00     0.143 A 
ATOM     21  C   UNL A   1      32.135  27.526  24.770  1.00  0.00     0.085 A 
ATOM     22  O   UNL A   1      30.602  29.390  24.297  1.00  0.00    -0.490 OA
ATOM     23  C   UNL A   1      30.164  28.584  23.199  1.00  0.00     0.251 C 
ATOM     24  C   UNL A   1      30.076  27.112  23.584  1.00  0.00     0.165 C 
ENDBRANCH   9  14
ENDBRANCH   5   8
ENDBRANCH   3   4
ENDBRANCH   2   3
ENDBRANCH   1   2
BRANCH   1  25
ATOM     25  N   UNL A   1      38.032  22.566  25.410  1.00  0.00    -0.352 N 
ATOM     26  C   UNL A   1      39.166  22.775  26.158  1.00  0.00     0.251 C 
ATOM     27  H   UNL A   1      37.870  21.630  25.151  1.00  0.00     0.163 HD
ATOM     28  O   UNL A   1      39.979  21.864  26.298  1.00  0.00    -0.269 OA
BRANCH  26  29
ATOM     29  C   UNL A   1      39.422  24.098  26.769  1.00  0.00     0.039 A 
ATOM     30  C   UNL A   1      40.088  25.097  26.057  1.00  0.00     0.014 A 
ATOM     31  C   UNL A   1      38.988  24.342  28.075  1.00  0.00     0.014 A 
ATOM     32  C   UNL A   1      40.469  26.267  26.702  1.00  0.00     0.010 A 
ATOM     33  C   UNL A   1      39.300  25.555  28.698  1.00  0.00     0.010 A 
ATOM     34  C   UNL A   1      40.087  26.507  28.033  1.00  0.00    -0.014 A 
BRANCH  34  35
ATOM     35  C   UNL A   1      40.535  27.755  28.708  1.00  0.00     0.031 A 
ATOM     36  C   UNL A   1      41.977  27.938  29.104  1.00  0.00     0.074 A 
ATOM     37  C   UNL A   1      39.653  28.758  28.894  1.00  0.00     0.049 A 
ATOM     38  N   UNL A   1      42.549  28.975  29.659  1.00  0.00    -0.248 NA
ATOM     39  C   UNL A   1      42.896  26.815  28.847  1.00  0.00     0.031 C 
ATOM     40  C   UNL A   1      38.238  28.710  28.522  1.00  0.00     0.029 A 
ATOM     41  N   UNL A   1      39.819  30.022  29.402  1.00  0.00    -0.354 N 
ATOM     42  C   UNL A   1      43.888  28.632  29.821  1.00  0.00     0.074 A 
ATOM     43  C   UNL A   1      44.037  27.276  29.341  1.00  0.00     0.031 C 
ATOM     44  C   UNL A   1      37.684  29.910  28.746  1.00  0.00     0.029 A 
ATOM     45  C   UNL A   1      38.683  30.793  29.342  1.00  0.00     0.049 A 
ATOM     46  H   UNL A   1      40.672  30.345  29.775  1.00  0.00     0.167 HD
ATOM     47  C   UNL A   1      44.901  29.385  30.310  1.00  0.00     0.031 A 
ATOM     48  C   UNL A   1      38.459  32.067  29.722  1.00  0.00     0.031 A 
ATOM     49  C   UNL A   1      44.748  30.740  30.774  1.00  0.00     0.049 A 
ATOM     50  C   UNL A   1      39.586  32.862  30.317  1.00  0.00     0.074 A 
ATOM     51  C   UNL A   1      45.719  31.582  31.288  1.00  0.00     0.029 A 
ATOM     52  N   UNL A   1      43.559  31.454  30.774  1.00  0.00    -0.354 N 
ATOM     53  N   UNL A   1      40.839  32.512  30.478  1.00  0.00    -0.248 NA
ATOM     54  C   UNL A   1      39.272  34.219  30.788  1.00  0.00     0.031 C 
ATOM     55  C   UNL A   1      45.108  32.784  31.650  1.00  0.00     0.029 A 
ATOM     56  C   UNL A   1      43.769  32.717  31.300  1.00  0.00     0.049 A 
ATOM     57  H   UNL A   1      42.695  31.112  30.447  1.00  0.00     0.167 HD
ATOM     58  C   UNL A   1      41.466  33.606  31.062  1.00  0.00     0.074 A 
ATOM     59  C   UNL A   1      40.460  34.638  31.207  1.00  0.00     0.031 C 
ATOM     60  C   UNL A   1      42.759  33.736  31.447  1.00  0.00     0.031 A 
BRANCH  47  61
ATOM     61  C   UNL A   1      46.278  28.779  30.372  1.00  0.00    -0.014 A 
ATOM     62  C   UNL A   1      47.093  28.771  29.224  1.00  0.00     0.010 A 
ATOM     63  C   UNL A   1      46.719  28.109  31.528  1.00  0.00     0.010 A 
ATOM     64  C   UNL A   1      48.308  28.078  29.220  1.00  0.00     0.020 A 
ATOM     65  C   UNL A   1      47.946  27.438  31.535  1.00  0.00     0.020 A 
ATOM     66  C   UNL A   1      48.721  27.407  30.373  1.00  0.00     0.054 A 
BRANCH  66  67
ATOM     67  S   UNL A   1      50.288  26.493  30.342  1.00  0.00     0.124 S 
ATOM     68  O   UNL A   1      50.359  25.956  31.698  1.00  0.00    -0.237 OA
ATOM     69  O   UNL A   1      50.064  25.510  29.284  1.00  0.00    -0.237 OA
ATOM     70  O   UNL A   1      51.276  27.521  30.023  1.00  0.00    -0.744 OA
ENDBRANCH  66  67
ENDBRANCH  47  61
BRANCH  48  71
ATOM     71  C   UNL A   1      37.106  32.657  29.523  1.00  0.00    -0.014 A 
ATOM     72  C   UNL A   1      36.744  33.201  28.276  1.00  0.00     0.010 A 
ATOM     73  C   UNL A   1      36.211  32.762  30.601  1.00  0.00     0.010 A 
ATOM     74  C   UNL A   1      35.541  33.896  28.128  1.00  0.00     0.020 A 
ATOM     75  C   UNL A   1      34.992  33.431  30.448  1.00  0.00     0.020 A 
ATOM     76  C   UNL A   1      34.681  34.021  29.220  1.00  0.00     0.054 A 
BRANCH  76  77
ATOM     77  S   UNL A   1      33.153  34.979  29.023  1.00  0.00     0.124 S 
ATOM     78  O   UNL A   1      32.441  34.200  28.013  1.00  0.00    -0.237 OA
ATOM     79  O   UNL A   1      32.576  34.943  30.365  1.00  0.00    -0.237 OA
ATOM     80  O   UNL A   1      33.625  36.289  28.586  1.00  0.00    -0.744 OA
ENDBRANCH  76  77
ENDBRANCH  48  71
BRANCH  60  81
ATOM     81  C   UNL A   1      43.186  35.036  32.075  1.00  0.00    -0.014 A 
ATOM     82  C   UNL A   1      42.893  35.287  33.428  1.00  0.00     0.010 A 
ATOM     83  C   UNL A   1      43.747  36.059  31.291  1.00  0.00     0.010 A 
ATOM     84  C   UNL A   1      43.116  36.551  33.978  1.00  0.00     0.020 A 
ATOM     85  C   UNL A   1      43.996  37.318  31.846  1.00  0.00     0.020 A 
ATOM     86  C   UNL A   1      43.654  37.564  33.178  1.00  0.00     0.054 A 
BRANCH  86  87
ATOM     87  S   UNL A   1      43.897  39.211  33.896  1.00  0.00     0.124 S 
ATOM     88  O   UNL A   1      42.639  39.876  33.571  1.00  0.00    -0.237 OA
ATOM     89  O   UNL A   1      44.106  38.918  35.313  1.00  0.00    -0.237 OA
ATOM     90  O   UNL A   1      45.073  39.721  33.195  1.00  0.00    -0.744 OA
ENDBRANCH  86  87
ENDBRANCH  60  81
ENDBRANCH  34  35
ENDBRANCH  26  29
ENDBRANCH   1  25
TORSDOF 14
ENDMDL
MODEL 3
REMARK VINA RESULT:     -11.9      3.735      9.714
REMARK SMILES Cc1ccc2c(c1)OCCN2c1sc(C(=O)NCCCNC(=O)c2ccc(-c3c4nc(c(-c5ccc(S(=O)(=O)[O-])cc5)c5ccc([nH]5)c(-c5ccc(S(=O)(=O)[O-])cc5)c5nc(c(-c6ccc(S(=O)(=O)[O-])cc6)c6ccc3[nH]6)C=C5)C=C4)cc2)cc1C
REMARK SMILES IDX 20 1 19 2 18 3 17 4 15 5 16 6 14 8 12 9 13 10 85 11 84 12
REMARK SMILES IDX 86 13 11 14 1 15 2 16 3 17 7 18 4 19 6 20 5 21 8 22 9 23
REMARK SMILES IDX 10 24 21 25 22 26 23 28 24 29 25 30 83 31 26 32 82 33 27 34
REMARK SMILES IDX 28 35 29 36 76 37 30 38 81 39 75 40 77 41 31 42 80 43 74 44
REMARK SMILES IDX 73 45 32 47 62 48 43 49 61 50 44 51 47 52 60 53 78 54 45 55
REMARK SMILES IDX 46 56 59 58 79 59 48 60 33 61 34 62 42 63 35 64 41 65 36 66
REMARK SMILES IDX 37 67 38 68 39 69 40 70 63 71 64 72 72 73 65 74 71 75 66 76
REMARK SMILES IDX 67 77 68 78 69 79 70 80 49 81 50 82 58 83 51 84 57 85 52 86
REMARK SMILES IDX 53 87 54 88 55 89 56 90
REMARK H PARENT 17 7 21 27 77 46 47 57
REMARK Flexibility Score: inf
ROOT
ATOM      1  C   UNL A   1      38.185  24.371  26.155  1.00  0.00     0.118 C 
ENDROOT
BRANCH   1   2
ATOM      2  C   UNL A   1      37.242  23.439  25.395  1.00  0.00     0.042 C 
BRANCH   2   3
ATOM      3  C   UNL A   1      35.995  23.067  26.191  1.00  0.00     0.118 C 
BRANCH   3   4
ATOM      4  N   UNL A   1      35.124  22.187  25.434  1.00  0.00    -0.351 N 
ATOM      5  C   UNL A   1      34.051  22.410  24.608  1.00  0.00     0.261 C 
ATOM      6  O   UNL A   1      33.589  21.391  24.081  1.00  0.00    -0.268 OA
ATOM      7  H   UNL A   1      35.349  21.234  25.534  1.00  0.00     0.163 HD
BRANCH   5   8
ATOM      8  C   UNL A   1      33.525  23.728  24.285  1.00  0.00     0.094 A 
ATOM      9  C   UNL A   1      32.581  26.028  24.250  1.00  0.00     0.099 A 
ATOM     10  S   UNL A   1      32.389  24.606  25.199  1.00  0.00    -0.112 S 
ATOM     11  C   UNL A   1      33.272  25.742  23.082  1.00  0.00    -0.015 A 
ATOM     12  C   UNL A   1      33.807  24.414  23.116  1.00  0.00     0.031 A 
ATOM     13  C   UNL A   1      33.521  26.676  21.945  1.00  0.00     0.047 C 
BRANCH   9  14
ATOM     14  N   UNL A   1      32.055  27.232  24.614  1.00  0.00    -0.327 N 
ATOM     15  C   UNL A   1      34.489  31.198  28.021  1.00  0.00     0.044 C 
ATOM     16  C   UNL A   1      33.865  30.179  27.117  1.00  0.00    -0.047 A 
ATOM     17  C   UNL A   1      34.449  28.920  26.969  1.00  0.00     0.006 A 
ATOM     18  C   UNL A   1      32.678  30.451  26.431  1.00  0.00     0.052 A 
ATOM     19  C   UNL A   1      33.869  27.955  26.136  1.00  0.00     0.030 A 
ATOM     20  C   UNL A   1      32.098  29.484  25.601  1.00  0.00     0.143 A 
ATOM     21  C   UNL A   1      32.669  28.201  25.450  1.00  0.00     0.085 A 
ATOM     22  O   UNL A   1      30.948  29.888  24.958  1.00  0.00    -0.490 OA
ATOM     23  C   UNL A   1      30.612  29.038  23.856  1.00  0.00     0.251 C 
ATOM     24  C   UNL A   1      30.679  27.566  24.243  1.00  0.00     0.165 C 
ENDBRANCH   9  14
ENDBRANCH   5   8
ENDBRANCH   3   4
ENDBRANCH   2   3
ENDBRANCH   1   2
BRANCH   1  25
ATOM     25  N   UNL A   1      39.556  23.874  26.190  1.00  0.00    -0.352 N 
ATOM     26  C   UNL A   1      40.666  24.396  26.811  1.00  0.00     0.251 C 
ATOM     27  H   UNL A   1      39.710  23.036  25.696  1.00  0.00     0.163 HD
ATOM     28  O   UNL A   1      41.775  23.922  26.573  1.00  0.00    -0.269 OA
BRANCH  26  29
ATOM     29  C   UNL A   1      40.531  25.541  27.737  1.00  0.00     0.039 A 
ATOM     30  C   UNL A   1      41.445  26.596  27.707  1.00  0.00     0.014 A 
ATOM     31  C   UNL A   1      39.473  25.559  28.651  1.00  0.00     0.014 A 
ATOM     32  C   UNL A   1      41.402  27.574  28.694  1.00  0.00     0.010 A 
ATOM     33  C   UNL A   1      39.383  26.589  29.593  1.00  0.00     0.010 A 
ATOM     34  C   UNL A   1      40.376  27.578  29.654  1.00  0.00    -0.014 A 
BRANCH  34  35
ATOM     35  C   UNL A   1      40.373  28.619  30.717  1.00  0.00     0.031 A 
ATOM     36  C   UNL A   1      39.364  29.738  30.691  1.00  0.00     0.074 A 
ATOM     37  C   UNL A   1      41.233  28.512  31.749  1.00  0.00     0.049 A 
ATOM     38  N   UNL A   1      39.188  30.703  31.557  1.00  0.00    -0.248 NA
ATOM     39  C   UNL A   1      38.432  29.782  29.550  1.00  0.00     0.031 C 
ATOM     40  C   UNL A   1      42.235  27.454  31.899  1.00  0.00     0.029 A 
ATOM     41  N   UNL A   1      41.380  29.271  32.883  1.00  0.00    -0.354 N 
ATOM     42  C   UNL A   1      38.135  31.468  31.067  1.00  0.00     0.074 A 
ATOM     43  C   UNL A   1      37.734  30.879  29.809  1.00  0.00     0.031 C 
ATOM     44  C   UNL A   1      42.840  27.589  33.088  1.00  0.00     0.029 A 
ATOM     45  C   UNL A   1      42.323  28.780  33.755  1.00  0.00     0.049 A 
ATOM     46  H   UNL A   1      40.860  30.089  33.054  1.00  0.00     0.167 HD
ATOM     47  C   UNL A   1      37.547  32.552  31.625  1.00  0.00     0.031 A 
ATOM     48  C   UNL A   1      42.732  29.232  34.958  1.00  0.00     0.031 A 
ATOM     49  C   UNL A   1      37.942  33.127  32.885  1.00  0.00     0.049 A 
ATOM     50  C   UNL A   1      42.104  30.471  35.527  1.00  0.00     0.074 A 
ATOM     51  C   UNL A   1      37.404  34.227  33.529  1.00  0.00     0.029 A 
ATOM     52  N   UNL A   1      38.960  32.647  33.695  1.00  0.00    -0.354 N 
ATOM     53  N   UNL A   1      41.122  31.190  35.038  1.00  0.00    -0.248 NA
ATOM     54  C   UNL A   1      42.640  30.967  36.803  1.00  0.00     0.031 C 
ATOM     55  C   UNL A   1      38.131  34.446  34.700  1.00  0.00     0.029 A 
ATOM     56  C   UNL A   1      39.079  33.443  34.821  1.00  0.00     0.049 A 
ATOM     57  H   UNL A   1      39.514  31.857  33.499  1.00  0.00     0.167 HD
ATOM     58  C   UNL A   1      40.917  32.219  35.949  1.00  0.00     0.074 A 
ATOM     59  C   UNL A   1      41.862  32.019  37.029  1.00  0.00     0.031 C 
ATOM     60  C   UNL A   1      40.028  33.239  35.889  1.00  0.00     0.031 A 
BRANCH  47  61
ATOM     61  C   UNL A   1      36.404  33.204  30.891  1.00  0.00    -0.014 A 
ATOM     62  C   UNL A   1      36.650  33.923  29.707  1.00  0.00     0.010 A 
ATOM     63  C   UNL A   1      35.107  33.209  31.436  1.00  0.00     0.010 A 
ATOM     64  C   UNL A   1      35.631  34.661  29.098  1.00  0.00     0.020 A 
ATOM     65  C   UNL A   1      34.078  33.924  30.815  1.00  0.00     0.020 A 
ATOM     66  C   UNL A   1      34.353  34.665  29.663  1.00  0.00     0.054 A 
BRANCH  66  67
ATOM     67  S   UNL A   1      33.048  35.648  28.874  1.00  0.00     0.124 S 
ATOM     68  O   UNL A   1      33.817  36.639  28.127  1.00  0.00    -0.237 OA
ATOM     69  O   UNL A   1      32.343  34.656  28.066  1.00  0.00    -0.237 OA
ATOM     70  O   UNL A   1      32.284  36.172  30.005  1.00  0.00    -0.744 OA
ENDBRANCH  66  67
ENDBRANCH  47  61
BRANCH  48  71
ATOM     71  C   UNL A   1      43.781  28.476  35.697  1.00  0.00    -0.014 A 
ATOM     72  C   UNL A   1      45.145  28.713  35.439  1.00  0.00     0.010 A 
ATOM     73  C   UNL A   1      43.423  27.452  36.590  1.00  0.00     0.010 A 
ATOM     74  C   UNL A   1      46.127  27.900  36.009  1.00  0.00     0.020 A 
ATOM     75  C   UNL A   1      44.406  26.655  37.187  1.00  0.00     0.020 A 
ATOM     76  C   UNL A   1      45.749  26.865  36.866  1.00  0.00     0.054 A 
BRANCH  76  77
ATOM     77  S   UNL A   1      47.035  25.782  37.548  1.00  0.00     0.124 S 
ATOM     78  O   UNL A   1      47.418  26.500  38.761  1.00  0.00    -0.237 OA
ATOM     79  O   UNL A   1      46.319  24.527  37.762  1.00  0.00    -0.237 OA
ATOM     80  O   UNL A   1      48.046  25.747  36.495  1.00  0.00    -0.744 OA
ENDBRANCH  76  77
ENDBRANCH  48  71
BRANCH  60  81
ATOM     81  C   UNL A   1      40.018  34.241  37.012  1.00  0.00    -0.014 A 
ATOM     82  C   UNL A   1      39.181  34.035  38.125  1.00  0.00     0.010 A 
ATOM     83  C   UNL A   1      40.725  35.450  36.900  1.00  0.00     0.010 A 
ATOM     84  C   UNL A   1      39.021  35.035  39.086  1.00  0.00     0.020 A 
ATOM     85  C   UNL A   1      40.588  36.444  37.874  1.00  0.00     0.020 A 
ATOM     86  C   UNL A   1      39.715  36.240  38.946  1.00  0.00     0.054 A 
BRANCH  86  87
ATOM     87  S   UNL A   1      39.462  37.545  40.180  1.00  0.00     0.124 S 
ATOM     88  O   UNL A   1      38.988  36.787  41.334  1.00  0.00    -0.237 OA
ATOM     89  O   UNL A   1      40.796  38.127  40.312  1.00  0.00    -0.237 OA
ATOM     90  O   UNL A   1      38.470  38.418  39.556  1.00  0.00    -0.744 OA
ENDBRANCH  86  87
ENDBRANCH  60  81
ENDBRANCH  34  35
ENDBRANCH  26  29
ENDBRANCH   1  25
TORSDOF 14
ENDMDL
