MODEL 1
REMARK VINA RESULT:     -13.0      0.000      0.000
REMARK SMILES CCc1cccc(C)c1Nc1ccccc1CC(=O)NCCCNC(=O)c1ccc(-c2c3nc(c(-c4ccc(S(=O)(=O)[O-])cc4)c4ccc([nH]4)c(-c4ccc(S(=O)(=O)[O-])cc4)c4nc(c(-c5ccc(S(=O)(=O)[O-])cc5)c5ccc2[nH]5)C=C4)C=C3)cc1
REMARK SMILES IDX 21 1 20 2 18 3 19 4 17 6 16 7 11 8 12 9 13 10 15 11 14 12
REMARK SMILES IDX 10 13 9 15 3 16 4 17 5 18 7 19 6 20 8 21 2 22 1 23 22 24
REMARK SMILES IDX 23 25 24 26 25 27 26 29 27 30 28 31 86 32 29 33 85 34 30 35
REMARK SMILES IDX 31 36 32 37 79 38 33 39 84 40 78 41 80 42 34 43 83 44 77 45
REMARK SMILES IDX 76 46 35 48 65 49 46 50 64 51 47 52 50 53 63 54 81 55 48 56
REMARK SMILES IDX 49 57 62 59 82 60 51 61 36 62 37 63 45 64 38 65 44 66 39 67
REMARK SMILES IDX 40 68 41 69 42 70 43 71 66 72 67 73 75 74 68 75 74 76 69 77
REMARK SMILES IDX 70 78 71 79 72 80 73 81 52 82 53 83 61 84 54 85 60 86 55 87
REMARK SMILES IDX 56 88 57 89 58 90 59 91
REMARK H PARENT 20 5 10 14 24 28 80 47 50 58
REMARK Flexibility Score: inf
ROOT
ATOM      1  C   UNL A   1      32.305  28.505  27.701  1.00  0.00     0.117 C 
ENDROOT
BRANCH   1   2
ATOM      2  N   UNL A   1      31.263  27.781  26.992  1.00  0.00    -0.356 N 
ATOM      3  C   UNL A   1      31.339  26.630  26.259  1.00  0.00     0.224 C 
ATOM      4  O   UNL A   1      30.315  25.951  26.140  1.00  0.00    -0.275 OA
ATOM      5  H   UNL A   1      30.366  28.180  27.048  1.00  0.00     0.163 HD
BRANCH   3   6
ATOM      6  C   UNL A   1      32.656  26.120  25.708  1.00  0.00     0.137 C 
BRANCH   6   7
ATOM      7  C   UNL A   1      32.767  25.968  24.205  1.00  0.00    -0.015 A 
ATOM      8  C   UNL A   1      32.531  24.757  23.518  1.00  0.00     0.042 A 
ATOM      9  C   UNL A   1      32.741  24.708  22.128  1.00  0.00     0.026 A 
ATOM     10  C   UNL A   1      33.115  25.841  21.409  1.00  0.00     0.002 A 
ATOM     11  C   UNL A   1      33.173  27.097  23.463  1.00  0.00     0.006 A 
ATOM     12  C   UNL A   1      33.328  27.040  22.078  1.00  0.00     0.000 A 
BRANCH   8  13
ATOM     13  N   UNL A   1      32.199  23.547  24.159  1.00  0.00    -0.355 N 
ATOM     14  H   UNL A   1      31.457  23.051  23.743  1.00  0.00     0.167 HD
BRANCH  13  15
ATOM     15  C   UNL A   1      32.761  22.927  25.303  1.00  0.00     0.045 A 
ATOM     16  C   UNL A   1      34.118  22.517  25.278  1.00  0.00    -0.024 A 
ATOM     17  C   UNL A   1      34.773  22.248  26.497  1.00  0.00     0.006 A 
ATOM     18  C   UNL A   1      34.080  22.242  27.698  1.00  0.00     0.001 A 
ATOM     19  C   UNL A   1      32.024  22.666  26.480  1.00  0.00    -0.027 A 
ATOM     20  C   UNL A   1      32.703  22.393  27.679  1.00  0.00     0.005 A 
ATOM     21  C   UNL A   1      30.526  22.638  26.522  1.00  0.00     0.046 C 
BRANCH  16  22
ATOM     22  C   UNL A   1      34.951  22.318  24.026  1.00  0.00     0.034 C 
ATOM     23  C   UNL A   1      36.093  23.303  23.784  1.00  0.00     0.009 C 
ENDBRANCH  16  22
ENDBRANCH  13  15
ENDBRANCH   8  13
ENDBRANCH   6   7
ENDBRANCH   3   6
ENDBRANCH   1   2
BRANCH   1  24
ATOM     24  C   UNL A   1      33.125  29.469  26.852  1.00  0.00     0.042 C 
BRANCH  24  25
ATOM     25  C   UNL A   1      34.637  29.338  27.034  1.00  0.00     0.118 C 
BRANCH  25  26
ATOM     26  N   UNL A   1      35.241  30.591  27.478  1.00  0.00    -0.352 N 
ATOM     27  C   UNL A   1      36.398  30.780  28.214  1.00  0.00     0.251 C 
ATOM     28  H   UNL A   1      34.761  31.410  27.220  1.00  0.00     0.163 HD
ATOM     29  O   UNL A   1      36.693  31.840  28.724  1.00  0.00    -0.269 OA
BRANCH  27  30
ATOM     30  C   UNL A   1      37.341  29.647  28.240  1.00  0.00     0.039 A 
ATOM     31  C   UNL A   1      37.455  28.945  29.444  1.00  0.00     0.014 A 
ATOM     32  C   UNL A   1      38.252  29.472  27.203  1.00  0.00     0.014 A 
ATOM     33  C   UNL A   1      38.598  28.192  29.686  1.00  0.00     0.010 A 
ATOM     34  C   UNL A   1      39.411  28.767  27.466  1.00  0.00     0.010 A 
ATOM     35  C   UNL A   1      39.609  28.186  28.727  1.00  0.00    -0.014 A 
BRANCH  35  36
ATOM     36  C   UNL A   1      40.938  27.645  28.975  1.00  0.00     0.031 A 
ATOM     37  C   UNL A   1      41.240  26.249  28.579  1.00  0.00     0.074 A 
ATOM     38  C   UNL A   1      41.903  28.436  29.499  1.00  0.00     0.049 A 
ATOM     39  N   UNL A   1      42.208  25.543  29.060  1.00  0.00    -0.248 NA
ATOM     40  C   UNL A   1      40.411  25.511  27.630  1.00  0.00     0.031 C 
ATOM     41  C   UNL A   1      43.333  28.137  29.561  1.00  0.00     0.029 A 
ATOM     42  N   UNL A   1      41.787  29.608  30.256  1.00  0.00    -0.354 N 
ATOM     43  C   UNL A   1      42.328  24.418  28.272  1.00  0.00     0.074 A 
ATOM     44  C   UNL A   1      41.123  24.390  27.478  1.00  0.00     0.031 C 
ATOM     45  C   UNL A   1      43.880  28.873  30.542  1.00  0.00     0.029 A 
ATOM     46  C   UNL A   1      42.780  29.512  31.244  1.00  0.00     0.049 A 
ATOM     47  H   UNL A   1      41.146  30.342  30.124  1.00  0.00     0.167 HD
ATOM     48  C   UNL A   1      43.506  23.729  28.267  1.00  0.00     0.031 A 
ATOM     49  C   UNL A   1      42.535  29.366  32.581  1.00  0.00     0.031 A 
ATOM     50  C   UNL A   1      44.431  24.240  29.280  1.00  0.00     0.049 A 
ATOM     51  C   UNL A   1      43.214  28.147  33.186  1.00  0.00     0.074 A 
ATOM     52  C   UNL A   1      45.540  25.068  29.217  1.00  0.00     0.029 A 
ATOM     53  N   UNL A   1      44.086  24.147  30.625  1.00  0.00    -0.354 N 
ATOM     54  N   UNL A   1      43.620  27.117  32.492  1.00  0.00    -0.248 NA
ATOM     55  C   UNL A   1      43.472  27.981  34.614  1.00  0.00     0.031 C 
ATOM     56  C   UNL A   1      45.817  25.530  30.531  1.00  0.00     0.029 A 
ATOM     57  C   UNL A   1      44.897  24.960  31.394  1.00  0.00     0.049 A 
ATOM     58  H   UNL A   1      43.364  23.580  30.980  1.00  0.00     0.167 HD
ATOM     59  C   UNL A   1      44.201  26.190  33.322  1.00  0.00     0.074 A 
ATOM     60  C   UNL A   1      44.086  26.784  34.642  1.00  0.00     0.031 C 
ATOM     61  C   UNL A   1      44.724  25.019  32.843  1.00  0.00     0.031 A 
BRANCH  48  62
ATOM     62  C   UNL A   1      43.929  22.796  27.144  1.00  0.00    -0.014 A 
ATOM     63  C   UNL A   1      43.034  21.809  26.680  1.00  0.00     0.010 A 
ATOM     64  C   UNL A   1      45.209  22.782  26.558  1.00  0.00     0.010 A 
ATOM     65  C   UNL A   1      43.424  20.809  25.771  1.00  0.00     0.020 A 
ATOM     66  C   UNL A   1      45.625  21.774  25.674  1.00  0.00     0.020 A 
ATOM     67  C   UNL A   1      44.732  20.781  25.296  1.00  0.00     0.054 A 
BRANCH  67  68
ATOM     68  S   UNL A   1      45.251  19.442  24.191  1.00  0.00     0.124 S 
ATOM     69  O   UNL A   1      44.527  19.748  22.960  1.00  0.00    -0.237 OA
ATOM     70  O   UNL A   1      46.698  19.626  24.134  1.00  0.00    -0.237 OA
ATOM     71  O   UNL A   1      44.808  18.232  24.881  1.00  0.00    -0.744 OA
ENDBRANCH  67  68
ENDBRANCH  48  62
BRANCH  49  72
ATOM     72  C   UNL A   1      41.243  29.937  33.053  1.00  0.00    -0.014 A 
ATOM     73  C   UNL A   1      41.154  31.338  33.194  1.00  0.00     0.010 A 
ATOM     74  C   UNL A   1      40.056  29.187  32.987  1.00  0.00     0.010 A 
ATOM     75  C   UNL A   1      39.920  31.988  33.100  1.00  0.00     0.020 A 
ATOM     76  C   UNL A   1      38.813  29.838  32.905  1.00  0.00     0.020 A 
ATOM     77  C   UNL A   1      38.762  31.236  32.901  1.00  0.00     0.054 A 
BRANCH  77  78
ATOM     78  S   UNL A   1      37.241  32.121  32.438  1.00  0.00     0.124 S 
ATOM     79  O   UNL A   1      37.705  32.995  31.366  1.00  0.00    -0.237 OA
ATOM     80  O   UNL A   1      36.362  31.028  32.018  1.00  0.00    -0.237 OA
ATOM     81  O   UNL A   1      36.850  32.789  33.674  1.00  0.00    -0.744 OA
ENDBRANCH  77  78
ENDBRANCH  49  72
BRANCH  61  82
ATOM     82  C   UNL A   1      45.201  23.828  33.657  1.00  0.00    -0.014 A 
ATOM     83  C   UNL A   1      46.458  23.726  34.271  1.00  0.00     0.010 A 
ATOM     84  C   UNL A   1      44.289  22.772  33.919  1.00  0.00     0.010 A 
ATOM     85  C   UNL A   1      46.804  22.615  35.058  1.00  0.00     0.020 A 
ATOM     86  C   UNL A   1      44.604  21.684  34.739  1.00  0.00     0.020 A 
ATOM     87  C   UNL A   1      45.875  21.601  35.288  1.00  0.00     0.054 A 
BRANCH  87  88
ATOM     88  S   UNL A   1      46.315  20.215  36.366  1.00  0.00     0.124 S 
ATOM     89  O   UNL A   1      45.587  19.109  35.749  1.00  0.00    -0.237 OA
ATOM     90  O   UNL A   1      47.770  20.155  36.238  1.00  0.00    -0.237 OA
ATOM     91  O   UNL A   1      45.831  20.630  37.680  1.00  0.00    -0.744 OA
ENDBRANCH  87  88
ENDBRANCH  61  82
ENDBRANCH  35  36
ENDBRANCH  27  30
ENDBRANCH  25  26
ENDBRANCH  24  25
ENDBRANCH   1  24
TORSDOF 17
ENDMDL
MODEL 2
REMARK VINA RESULT:     -12.8      0.863      2.383
REMARK SMILES CCc1cccc(C)c1Nc1ccccc1CC(=O)NCCCNC(=O)c1ccc(-c2c3nc(c(-c4ccc(S(=O)(=O)[O-])cc4)c4ccc([nH]4)c(-c4ccc(S(=O)(=O)[O-])cc4)c4nc(c(-c5ccc(S(=O)(=O)[O-])cc5)c5ccc2[nH]5)C=C4)C=C3)cc1
REMARK SMILES IDX 21 1 20 2 18 3 19 4 17 6 16 7 11 8 12 9 13 10 15 11 14 12
REMARK SMILES IDX 10 13 9 15 3 16 4 17 5 18 7 19 6 20 8 21 2 22 1 23 22 24
REMARK SMILES IDX 23 25 24 26 25 27 26 29 27 30 28 31 86 32 29 33 85 34 30 35
REMARK SMILES IDX 31 36 32 37 79 38 33 39 84 40 78 41 80 42 34 43 83 44 77 45
REMARK SMILES IDX 76 46 35 48 65 49 46 50 64 51 47 52 50 53 63 54 81 55 48 56
REMARK SMILES IDX 49 57 62 59 82 60 51 61 36 62 37 63 45 64 38 65 44 66 39 67
REMARK SMILES IDX 40 68 41 69 42 70 43 71 66 72 67 73 75 74 68 75 74 76 69 77
REMARK SMILES IDX 70 78 71 79 72 80 73 81 52 82 53 83 61 84 54 85 60 86 55 87
REMARK SMILES IDX 56 88 57 89 58 90 59 91
REMARK H PARENT 20 5 10 14 24 28 80 47 50 58
REMARK Flexibility Score: inf
ROOT
ATOM      1  C   UNL A   1      32.265  28.543  27.710  1.00  0.00     0.117 C 
ENDROOT
BRANCH   1   2
ATOM      2  N   UNL A   1      31.585  27.459  27.020  1.00  0.00    -0.356 N 
ATOM      3  C   UNL A   1      32.084  26.294  26.511  1.00  0.00     0.224 C 
ATOM      4  O   UNL A   1      31.313  25.336  26.394  1.00  0.00    -0.275 OA
ATOM      5  H   UNL A   1      30.616  27.584  26.901  1.00  0.00     0.163 HD
BRANCH   3   6
ATOM      6  C   UNL A   1      33.560  26.120  26.215  1.00  0.00     0.137 C 
BRANCH   6   7
ATOM      7  C   UNL A   1      33.977  24.860  25.483  1.00  0.00    -0.015 A 
ATOM      8  C   UNL A   1      34.104  24.772  24.079  1.00  0.00     0.042 A 
ATOM      9  C   UNL A   1      34.419  23.530  23.498  1.00  0.00     0.026 A 
ATOM     10  C   UNL A   1      34.667  22.405  24.281  1.00  0.00     0.002 A 
ATOM     11  C   UNL A   1      34.204  23.702  26.256  1.00  0.00     0.006 A 
ATOM     12  C   UNL A   1      34.564  22.492  25.663  1.00  0.00     0.000 A 
BRANCH   8  13
ATOM     13  N   UNL A   1      33.825  25.838  23.201  1.00  0.00    -0.355 N 
ATOM     14  H   UNL A   1      34.522  26.009  22.527  1.00  0.00     0.167 HD
BRANCH  13  15
ATOM     15  C   UNL A   1      32.704  26.702  23.129  1.00  0.00     0.045 A 
ATOM     16  C   UNL A   1      31.409  26.151  22.963  1.00  0.00    -0.024 A 
ATOM     17  C   UNL A   1      30.283  26.949  23.255  1.00  0.00     0.006 A 
ATOM     18  C   UNL A   1      30.418  28.294  23.566  1.00  0.00     0.001 A 
ATOM     19  C   UNL A   1      32.809  28.109  23.189  1.00  0.00    -0.027 A 
ATOM     20  C   UNL A   1      31.670  28.881  23.475  1.00  0.00     0.005 A 
ATOM     21  C   UNL A   1      34.088  28.850  22.936  1.00  0.00     0.046 C 
BRANCH  16  22
ATOM     22  C   UNL A   1      31.109  24.748  22.469  1.00  0.00     0.034 C 
ATOM     23  C   UNL A   1      30.691  23.714  23.514  1.00  0.00     0.009 C 
ENDBRANCH  16  22
ENDBRANCH  13  15
ENDBRANCH   8  13
ENDBRANCH   6   7
ENDBRANCH   3   6
ENDBRANCH   1   2
BRANCH   1  24
ATOM     24  C   UNL A   1      33.052  29.495  26.816  1.00  0.00     0.042 C 
BRANCH  24  25
ATOM     25  C   UNL A   1      34.569  29.384  26.960  1.00  0.00     0.118 C 
BRANCH  25  26
ATOM     26  N   UNL A   1      35.160  30.626  27.449  1.00  0.00    -0.352 N 
ATOM     27  C   UNL A   1      36.312  30.800  28.196  1.00  0.00     0.251 C 
ATOM     28  H   UNL A   1      34.674  31.450  27.217  1.00  0.00     0.163 HD
ATOM     29  O   UNL A   1      36.596  31.844  28.744  1.00  0.00    -0.269 OA
BRANCH  27  30
ATOM     30  C   UNL A   1      37.266  29.675  28.187  1.00  0.00     0.039 A 
ATOM     31  C   UNL A   1      37.374  28.927  29.365  1.00  0.00     0.014 A 
ATOM     32  C   UNL A   1      38.188  29.548  27.154  1.00  0.00     0.014 A 
ATOM     33  C   UNL A   1      38.521  28.175  29.588  1.00  0.00     0.010 A 
ATOM     34  C   UNL A   1      39.351  28.844  27.401  1.00  0.00     0.010 A 
ATOM     35  C   UNL A   1      39.542  28.215  28.640  1.00  0.00    -0.014 A 
BRANCH  35  36
ATOM     36  C   UNL A   1      40.873  27.676  28.881  1.00  0.00     0.031 A 
ATOM     37  C   UNL A   1      41.169  26.276  28.498  1.00  0.00     0.074 A 
ATOM     38  C   UNL A   1      41.843  28.473  29.385  1.00  0.00     0.049 A 
ATOM     39  N   UNL A   1      42.142  25.575  28.976  1.00  0.00    -0.248 NA
ATOM     40  C   UNL A   1      40.331  25.527  27.565  1.00  0.00     0.031 C 
ATOM     41  C   UNL A   1      43.274  28.174  29.436  1.00  0.00     0.029 A 
ATOM     42  N   UNL A   1      41.736  29.653  30.130  1.00  0.00    -0.354 N 
ATOM     43  C   UNL A   1      42.254  24.441  28.200  1.00  0.00     0.074 A 
ATOM     44  C   UNL A   1      41.040  24.405  27.419  1.00  0.00     0.031 C 
ATOM     45  C   UNL A   1      43.831  28.921  30.403  1.00  0.00     0.029 A 
ATOM     46  C   UNL A   1      42.739  29.568  31.109  1.00  0.00     0.049 A 
ATOM     47  H   UNL A   1      41.094  30.387  29.996  1.00  0.00     0.167 HD
ATOM     48  C   UNL A   1      43.431  23.751  28.191  1.00  0.00     0.031 A 
ATOM     49  C   UNL A   1      42.508  29.438  32.450  1.00  0.00     0.031 A 
ATOM     50  C   UNL A   1      44.367  24.273  29.189  1.00  0.00     0.049 A 
ATOM     51  C   UNL A   1      43.193  28.225  33.061  1.00  0.00     0.074 A 
ATOM     52  C   UNL A   1      45.475  25.099  29.105  1.00  0.00     0.029 A 
ATOM     53  N   UNL A   1      44.036  24.196  30.538  1.00  0.00    -0.354 N 
ATOM     54  N   UNL A   1      43.590  27.188  32.376  1.00  0.00    -0.248 NA
ATOM     55  C   UNL A   1      43.465  28.076  34.489  1.00  0.00     0.031 C 
ATOM     56  C   UNL A   1      45.767  25.577  30.410  1.00  0.00     0.029 A 
ATOM     57  C   UNL A   1      44.856  25.017  31.289  1.00  0.00     0.049 A 
ATOM     58  H   UNL A   1      43.318  23.633  30.906  1.00  0.00     0.167 HD
ATOM     59  C   UNL A   1      44.180  26.270  33.210  1.00  0.00     0.074 A 
ATOM     60  C   UNL A   1      44.079  26.879  34.524  1.00  0.00     0.031 C 
ATOM     61  C   UNL A   1      44.697  25.093  32.739  1.00  0.00     0.031 A 
BRANCH  48  62
ATOM     62  C   UNL A   1      43.842  22.805  27.075  1.00  0.00    -0.014 A 
ATOM     63  C   UNL A   1      42.981  21.753  26.697  1.00  0.00     0.010 A 
ATOM     64  C   UNL A   1      45.084  22.844  26.413  1.00  0.00     0.010 A 
ATOM     65  C   UNL A   1      43.375  20.745  25.798  1.00  0.00     0.020 A 
ATOM     66  C   UNL A   1      45.506  21.831  25.538  1.00  0.00     0.020 A 
ATOM     67  C   UNL A   1      44.653  20.775  25.246  1.00  0.00     0.054 A 
BRANCH  67  68
ATOM     68  S   UNL A   1      45.185  19.430  24.155  1.00  0.00     0.124 S 
ATOM     69  O   UNL A   1      44.624  19.828  22.865  1.00  0.00    -0.237 OA
ATOM     70  O   UNL A   1      46.639  19.498  24.258  1.00  0.00    -0.237 OA
ATOM     71  O   UNL A   1      44.577  18.241  24.749  1.00  0.00    -0.744 OA
ENDBRANCH  67  68
ENDBRANCH  48  62
BRANCH  49  72
ATOM     72  C   UNL A   1      41.221  30.015  32.928  1.00  0.00    -0.014 A 
ATOM     73  C   UNL A   1      41.167  31.407  33.156  1.00  0.00     0.010 A 
ATOM     74  C   UNL A   1      40.016  29.306  32.788  1.00  0.00     0.010 A 
ATOM     75  C   UNL A   1      39.954  32.097  33.077  1.00  0.00     0.020 A 
ATOM     76  C   UNL A   1      38.794  29.996  32.721  1.00  0.00     0.020 A 
ATOM     77  C   UNL A   1      38.782  31.392  32.805  1.00  0.00     0.054 A 
BRANCH  77  78
ATOM     78  S   UNL A   1      37.297  32.348  32.366  1.00  0.00     0.124 S 
ATOM     79  O   UNL A   1      37.786  33.207  31.293  1.00  0.00    -0.237 OA
ATOM     80  O   UNL A   1      36.363  31.299  31.951  1.00  0.00    -0.237 OA
ATOM     81  O   UNL A   1      36.951  33.024  33.611  1.00  0.00    -0.744 OA
ENDBRANCH  77  78
ENDBRANCH  49  72
BRANCH  61  82
ATOM     82  C   UNL A   1      45.182  23.911  33.562  1.00  0.00    -0.014 A 
ATOM     83  C   UNL A   1      46.484  23.761  34.063  1.00  0.00     0.010 A 
ATOM     84  C   UNL A   1      44.242  22.923  33.955  1.00  0.00     0.010 A 
ATOM     85  C   UNL A   1      46.840  22.665  34.867  1.00  0.00     0.020 A 
ATOM     86  C   UNL A   1      44.572  21.853  34.793  1.00  0.00     0.020 A 
ATOM     87  C   UNL A   1      45.882  21.718  35.228  1.00  0.00     0.054 A 
BRANCH  87  88
ATOM     88  S   UNL A   1      46.345  20.355  36.326  1.00  0.00     0.124 S 
ATOM     89  O   UNL A   1      45.831  19.196  35.601  1.00  0.00    -0.237 OA
ATOM     90  O   UNL A   1      47.801  20.464  36.381  1.00  0.00    -0.237 OA
ATOM     91  O   UNL A   1      45.658  20.669  37.576  1.00  0.00    -0.744 OA
ENDBRANCH  87  88
ENDBRANCH  61  82
ENDBRANCH  35  36
ENDBRANCH  27  30
ENDBRANCH  25  26
ENDBRANCH  24  25
ENDBRANCH   1  24
TORSDOF 17
ENDMDL
MODEL 3
REMARK VINA RESULT:     -12.7      4.433     11.321
REMARK SMILES CCc1cccc(C)c1Nc1ccccc1CC(=O)NCCCNC(=O)c1ccc(-c2c3nc(c(-c4ccc(S(=O)(=O)[O-])cc4)c4ccc([nH]4)c(-c4ccc(S(=O)(=O)[O-])cc4)c4nc(c(-c5ccc(S(=O)(=O)[O-])cc5)c5ccc2[nH]5)C=C4)C=C3)cc1
REMARK SMILES IDX 21 1 20 2 18 3 19 4 17 6 16 7 11 8 12 9 13 10 15 11 14 12
REMARK SMILES IDX 10 13 9 15 3 16 4 17 5 18 7 19 6 20 8 21 2 22 1 23 22 24
REMARK SMILES IDX 23 25 24 26 25 27 26 29 27 30 28 31 86 32 29 33 85 34 30 35
REMARK SMILES IDX 31 36 32 37 79 38 33 39 84 40 78 41 80 42 34 43 83 44 77 45
REMARK SMILES IDX 76 46 35 48 65 49 46 50 64 51 47 52 50 53 63 54 81 55 48 56
REMARK SMILES IDX 49 57 62 59 82 60 51 61 36 62 37 63 45 64 38 65 44 66 39 67
REMARK SMILES IDX 40 68 41 69 42 70 43 71 66 72 67 73 75 74 68 75 74 76 69 77
REMARK SMILES IDX 70 78 71 79 72 80 73 81 52 82 53 83 61 84 54 85 60 86 55 87
REMARK SMILES IDX 56 88 57 89 58 90 59 91
REMARK H PARENT 20 5 10 14 24 28 80 47 50 58
REMARK Flexibility Score: inf
ROOT
ATOM      1  C   UNL A   1      35.926  22.080  25.124  1.00  0.00     0.117 C 
ENDROOT
BRANCH   1   2
ATOM      2  N   UNL A   1      35.193  22.589  23.976  1.00  0.00    -0.356 N 
ATOM      3  C   UNL A   1      34.605  23.807  23.782  1.00  0.00     0.224 C 
ATOM      4  O   UNL A   1      34.452  24.197  22.620  1.00  0.00    -0.275 OA
ATOM      5  H   UNL A   1      35.107  21.961  23.224  1.00  0.00     0.163 HD
BRANCH   3   6
ATOM      6  C   UNL A   1      34.260  24.721  24.941  1.00  0.00     0.137 C 
BRANCH   6   7
ATOM      7  C   UNL A   1      32.819  24.730  25.412  1.00  0.00    -0.015 A 
ATOM      8  C   UNL A   1      31.931  25.808  25.203  1.00  0.00     0.042 A 
ATOM      9  C   UNL A   1      30.638  25.744  25.754  1.00  0.00     0.026 A 
ATOM     10  C   UNL A   1      30.198  24.617  26.444  1.00  0.00     0.002 A 
ATOM     11  C   UNL A   1      32.364  23.610  26.138  1.00  0.00     0.006 A 
ATOM     12  C   UNL A   1      31.062  23.546  26.634  1.00  0.00     0.000 A 
BRANCH   8  13
ATOM     13  N   UNL A   1      32.296  27.009  24.564  1.00  0.00    -0.355 N 
ATOM     14  H   UNL A   1      32.670  26.897  23.660  1.00  0.00     0.167 HD
BRANCH  13  15
ATOM     15  C   UNL A   1      32.212  28.352  25.009  1.00  0.00     0.045 A 
ATOM     16  C   UNL A   1      31.312  29.242  24.370  1.00  0.00    -0.024 A 
ATOM     17  C   UNL A   1      30.958  30.441  25.023  1.00  0.00     0.006 A 
ATOM     18  C   UNL A   1      31.576  30.825  26.204  1.00  0.00     0.001 A 
ATOM     19  C   UNL A   1      33.007  28.870  26.055  1.00  0.00    -0.027 A 
ATOM     20  C   UNL A   1      32.634  30.070  26.683  1.00  0.00     0.005 A 
ATOM     21  C   UNL A   1      34.268  28.214  26.530  1.00  0.00     0.046 C 
BRANCH  16  22
ATOM     22  C   UNL A   1      30.690  29.030  23.003  1.00  0.00     0.034 C 
ATOM     23  C   UNL A   1      29.198  28.704  22.959  1.00  0.00     0.009 C 
ENDBRANCH  16  22
ENDBRANCH  13  15
ENDBRANCH   8  13
ENDBRANCH   6   7
ENDBRANCH   3   6
ENDBRANCH   1   2
BRANCH   1  24
ATOM     24  C   UNL A   1      37.423  22.365  25.122  1.00  0.00     0.042 C 
BRANCH  24  25
ATOM     25  C   UNL A   1      37.867  23.405  26.150  1.00  0.00     0.118 C 
BRANCH  25  26
ATOM     26  N   UNL A   1      39.113  23.021  26.807  1.00  0.00    -0.352 N 
ATOM     27  C   UNL A   1      40.082  23.835  27.368  1.00  0.00     0.251 C 
ATOM     28  H   UNL A   1      39.288  22.054  26.856  1.00  0.00     0.163 HD
ATOM     29  O   UNL A   1      41.181  23.436  27.685  1.00  0.00    -0.269 OA
BRANCH  27  30
ATOM     30  C   UNL A   1      39.661  25.211  27.693  1.00  0.00     0.039 A 
ATOM     31  C   UNL A   1      40.112  26.228  26.844  1.00  0.00     0.014 A 
ATOM     32  C   UNL A   1      39.079  25.492  28.924  1.00  0.00     0.014 A 
ATOM     33  C   UNL A   1      40.145  27.536  27.311  1.00  0.00     0.010 A 
ATOM     34  C   UNL A   1      39.163  26.784  29.406  1.00  0.00     0.010 A 
ATOM     35  C   UNL A   1      39.755  27.788  28.625  1.00  0.00    -0.014 A 
BRANCH  35  36
ATOM     36  C   UNL A   1      39.983  29.061  29.293  1.00  0.00     0.031 A 
ATOM     37  C   UNL A   1      38.954  30.123  29.203  1.00  0.00     0.074 A 
ATOM     38  C   UNL A   1      41.094  29.240  30.045  1.00  0.00     0.049 A 
ATOM     39  N   UNL A   1      39.174  31.378  29.412  1.00  0.00    -0.248 NA
ATOM     40  C   UNL A   1      37.578  29.845  28.801  1.00  0.00     0.031 C 
ATOM     41  C   UNL A   1      41.342  30.337  30.981  1.00  0.00     0.029 A 
ATOM     42  N   UNL A   1      42.324  28.574  29.999  1.00  0.00    -0.354 N 
ATOM     43  C   UNL A   1      37.949  32.003  29.496  1.00  0.00     0.074 A 
ATOM     44  C   UNL A   1      37.002  31.035  28.995  1.00  0.00     0.031 C 
ATOM     45  C   UNL A   1      42.669  30.459  31.151  1.00  0.00     0.029 A 
ATOM     46  C   UNL A   1      43.295  29.570  30.188  1.00  0.00     0.049 A 
ATOM     47  H   UNL A   1      42.476  27.611  29.862  1.00  0.00     0.167 HD
ATOM     48  C   UNL A   1      37.855  33.209  30.128  1.00  0.00     0.031 A 
ATOM     49  C   UNL A   1      44.187  29.977  29.235  1.00  0.00     0.031 A 
ATOM     50  C   UNL A   1      39.176  33.733  30.482  1.00  0.00     0.049 A 
ATOM     51  C   UNL A   1      44.135  31.473  28.965  1.00  0.00     0.074 A 
ATOM     52  C   UNL A   1      39.889  33.775  31.669  1.00  0.00     0.029 A 
ATOM     53  N   UNL A   1      40.078  34.044  29.470  1.00  0.00    -0.354 N 
ATOM     54  N   UNL A   1      43.111  32.232  29.250  1.00  0.00    -0.248 NA
ATOM     55  C   UNL A   1      45.217  32.227  28.337  1.00  0.00     0.031 C 
ATOM     56  C   UNL A   1      41.248  34.046  31.355  1.00  0.00     0.029 A 
ATOM     57  C   UNL A   1      41.353  34.198  29.983  1.00  0.00     0.049 A 
ATOM     58  H   UNL A   1      39.842  34.142  28.520  1.00  0.00     0.167 HD
ATOM     59  C   UNL A   1      43.376  33.532  28.897  1.00  0.00     0.074 A 
ATOM     60  C   UNL A   1      44.712  33.474  28.332  1.00  0.00     0.031 C 
ATOM     61  C   UNL A   1      42.468  34.536  29.103  1.00  0.00     0.031 A 
BRANCH  48  62
ATOM     62  C   UNL A   1      36.558  33.765  30.692  1.00  0.00    -0.014 A 
ATOM     63  C   UNL A   1      35.478  34.037  29.825  1.00  0.00     0.010 A 
ATOM     64  C   UNL A   1      36.360  34.114  32.041  1.00  0.00     0.010 A 
ATOM     65  C   UNL A   1      34.321  34.710  30.255  1.00  0.00     0.020 A 
ATOM     66  C   UNL A   1      35.225  34.814  32.482  1.00  0.00     0.020 A 
ATOM     67  C   UNL A   1      34.215  35.122  31.581  1.00  0.00     0.054 A 
BRANCH  67  68
ATOM     68  S   UNL A   1      32.760  36.063  32.110  1.00  0.00     0.124 S 
ATOM     69  O   UNL A   1      32.431  36.836  30.914  1.00  0.00    -0.237 OA
ATOM     70  O   UNL A   1      31.814  35.008  32.459  1.00  0.00    -0.237 OA
ATOM     71  O   UNL A   1      33.249  36.854  33.238  1.00  0.00    -0.744 OA
ENDBRANCH  67  68
ENDBRANCH  48  62
BRANCH  49  72
ATOM     72  C   UNL A   1      44.546  28.945  28.223  1.00  0.00    -0.014 A 
ATOM     73  C   UNL A   1      45.495  27.967  28.587  1.00  0.00     0.010 A 
ATOM     74  C   UNL A   1      43.716  28.703  27.114  1.00  0.00     0.010 A 
ATOM     75  C   UNL A   1      45.501  26.713  27.969  1.00  0.00     0.020 A 
ATOM     76  C   UNL A   1      43.728  27.447  26.484  1.00  0.00     0.020 A 
ATOM     77  C   UNL A   1      44.579  26.443  26.958  1.00  0.00     0.054 A 
BRANCH  77  78
ATOM     78  S   UNL A   1      44.381  24.715  26.425  1.00  0.00     0.124 S 
ATOM     79  O   UNL A   1      43.111  24.754  25.708  1.00  0.00    -0.237 OA
ATOM     80  O   UNL A   1      45.566  24.509  25.589  1.00  0.00    -0.237 OA
ATOM     81  O   UNL A   1      44.376  23.973  27.681  1.00  0.00    -0.744 OA
ENDBRANCH  77  78
ENDBRANCH  49  72
BRANCH  61  82
ATOM     82  C   UNL A   1      42.542  35.960  28.579  1.00  0.00    -0.014 A 
ATOM     83  C   UNL A   1      41.920  36.421  27.410  1.00  0.00     0.010 A 
ATOM     84  C   UNL A   1      43.197  36.943  29.368  1.00  0.00     0.010 A 
ATOM     85  C   UNL A   1      41.987  37.770  27.023  1.00  0.00     0.020 A 
ATOM     86  C   UNL A   1      43.231  38.297  29.018  1.00  0.00     0.020 A 
ATOM     87  C   UNL A   1      42.641  38.700  27.829  1.00  0.00     0.054 A 
BRANCH  87  88
ATOM     88  S   UNL A   1      42.652  40.446  27.350  1.00  0.00     0.124 S 
ATOM     89  O   UNL A   1      41.246  40.682  27.036  1.00  0.00    -0.237 OA
ATOM     90  O   UNL A   1      43.143  41.109  28.556  1.00  0.00    -0.237 OA
ATOM     91  O   UNL A   1      43.565  40.487  26.212  1.00  0.00    -0.744 OA
ENDBRANCH  87  88
ENDBRANCH  61  82
ENDBRANCH  35  36
ENDBRANCH  27  30
ENDBRANCH  25  26
ENDBRANCH  24  25
ENDBRANCH   1  24
TORSDOF 17
ENDMDL
