MODEL 1
REMARK VINA RESULT:     -13.6      0.000      0.000
REMARK SMILES Cc1ccc(NC(=O)C[C@@H]2C[NH2+]CCO2)c(C(=O)NCCCNC(=O)c2ccc(-c3c4nc(c(-c5ccc(S(=O)(=O)[O-])cc5)c5ccc([nH]5)c(-c5ccc(S(=O)(=O)[O-])cc5)c5nc(c(-c6ccc(S(=O)(=O)[O-])cc6)c6ccc3[nH]6)C=C5)C=C4)cc2)c1
REMARK SMILES IDX 21 1 20 2 19 3 17 4 18 5 16 7 1 8 2 9 3 10 86 11 4 12 5 13
REMARK SMILES IDX 6 14 7 15 8 17 9 18 10 19 11 20 15 21 12 22 14 23 13 24
REMARK SMILES IDX 22 27 23 28 24 29 25 31 26 32 27 33 85 34 28 35 84 36 29 37
REMARK SMILES IDX 30 38 31 39 78 40 32 41 83 42 77 43 79 44 33 45 82 46 76 47
REMARK SMILES IDX 75 48 34 50 64 51 45 52 63 53 46 54 49 55 62 56 80 57 47 58
REMARK SMILES IDX 48 59 61 61 81 62 50 63 35 64 36 65 44 66 37 67 43 68 38 69
REMARK SMILES IDX 39 70 40 71 41 72 42 73 65 74 66 75 74 76 67 77 73 78 68 79
REMARK SMILES IDX 69 80 70 81 71 82 72 83 51 84 52 85 60 86 53 87 59 88 54 89
REMARK SMILES IDX 55 90 56 91 57 92 58 93
REMARK H PARENT 19 6 6 16 12 25 12 26 23 30 79 49 49 60
REMARK Flexibility Score: inf
ROOT
ATOM      1  C   UNL A   1      33.269  29.790  27.034  1.00  0.00     0.042 C 
ENDROOT
BRANCH   1   2
ATOM      2  C   UNL A   1      32.445  28.575  27.462  1.00  0.00     0.118 C 
BRANCH   2   3
ATOM      3  N   UNL A   1      32.956  27.337  26.883  1.00  0.00    -0.352 N 
ATOM      4  C   UNL A   1      32.535  26.562  25.824  1.00  0.00     0.253 C 
ATOM      5  O   UNL A   1      33.278  25.645  25.470  1.00  0.00    -0.269 OA
ATOM      6  H   UNL A   1      33.756  26.988  27.337  1.00  0.00     0.163 HD
BRANCH   4   7
ATOM      7  C   UNL A   1      31.271  26.821  25.054  1.00  0.00     0.063 A 
ATOM      8  C   UNL A   1      29.898  29.447  22.645  1.00  0.00     0.044 C 
ATOM      9  C   UNL A   1      30.011  28.183  23.442  1.00  0.00    -0.050 A 
ATOM     10  C   UNL A   1      28.985  27.248  23.464  1.00  0.00     0.005 A 
ATOM     11  C   UNL A   1      31.140  27.951  24.233  1.00  0.00     0.019 A 
ATOM     12  C   UNL A   1      29.055  26.161  24.336  1.00  0.00     0.027 A 
ATOM     13  C   UNL A   1      30.135  25.993  25.214  1.00  0.00     0.054 A 
BRANCH  13  14
ATOM     14  N   UNL A   1      30.081  25.077  26.294  1.00  0.00    -0.325 N 
ATOM     15  C   UNL A   1      30.434  23.759  26.395  1.00  0.00     0.227 C 
ATOM     16  H   UNL A   1      29.724  25.460  27.127  1.00  0.00     0.169 HD
ATOM     17  O   UNL A   1      30.250  23.177  27.472  1.00  0.00    -0.275 OA
BRANCH  15  18
ATOM     18  C   UNL A   1      31.036  22.969  25.249  1.00  0.00     0.138 C 
BRANCH  18  19
ATOM     19  C   UNL A   1      32.116  21.934  25.611  1.00  0.00     0.182 C 
ATOM     20  C   UNL A   1      33.447  22.342  24.923  1.00  0.00     0.293 C 
ATOM     21  O   UNL A   1      31.734  20.614  25.219  1.00  0.00    -0.366 OA
ATOM     22  N   UNL A   1      34.535  21.359  25.092  1.00  0.00    -0.342 N 
ATOM     23  C   UNL A   1      32.765  19.649  25.420  1.00  0.00     0.222 C 
ATOM     24  C   UNL A   1      34.031  20.043  24.653  1.00  0.00     0.289 C 
ATOM     25  H   UNL A   1      34.813  21.314  26.071  1.00  0.00     0.346 HD
ATOM     26  H   UNL A   1      35.347  21.631  24.537  1.00  0.00     0.346 HD
ENDBRANCH  18  19
ENDBRANCH  15  18
ENDBRANCH  13  14
ENDBRANCH   4   7
ENDBRANCH   2   3
ENDBRANCH   1   2
BRANCH   1  27
ATOM     27  C   UNL A   1      34.767  29.583  27.173  1.00  0.00     0.118 C 
BRANCH  27  28
ATOM     28  N   UNL A   1      35.464  30.823  27.492  1.00  0.00    -0.352 N 
ATOM     29  C   UNL A   1      36.631  30.957  28.231  1.00  0.00     0.251 C 
ATOM     30  H   UNL A   1      35.063  31.654  27.149  1.00  0.00     0.163 HD
ATOM     31  O   UNL A   1      36.998  31.997  28.726  1.00  0.00    -0.269 OA
BRANCH  29  32
ATOM     32  C   UNL A   1      37.499  29.762  28.231  1.00  0.00     0.039 A 
ATOM     33  C   UNL A   1      37.553  29.036  29.427  1.00  0.00     0.014 A 
ATOM     34  C   UNL A   1      38.466  29.623  27.242  1.00  0.00     0.014 A 
ATOM     35  C   UNL A   1      38.688  28.287  29.713  1.00  0.00     0.010 A 
ATOM     36  C   UNL A   1      39.628  28.954  27.569  1.00  0.00     0.010 A 
ATOM     37  C   UNL A   1      39.757  28.330  28.821  1.00  0.00    -0.014 A 
BRANCH  37  38
ATOM     38  C   UNL A   1      41.065  27.755  29.101  1.00  0.00     0.031 A 
ATOM     39  C   UNL A   1      41.309  26.344  28.706  1.00  0.00     0.074 A 
ATOM     40  C   UNL A   1      42.060  28.521  29.607  1.00  0.00     0.049 A 
ATOM     41  N   UNL A   1      42.286  25.615  29.129  1.00  0.00    -0.248 NA
ATOM     42  C   UNL A   1      40.401  25.618  27.821  1.00  0.00     0.031 C 
ATOM     43  C   UNL A   1      43.481  28.181  29.637  1.00  0.00     0.029 A 
ATOM     44  N   UNL A   1      41.992  29.687  30.378  1.00  0.00    -0.354 N 
ATOM     45  C   UNL A   1      42.318  24.475  28.353  1.00  0.00     0.074 A 
ATOM     46  C   UNL A   1      41.073  24.482  27.625  1.00  0.00     0.031 C 
ATOM     47  C   UNL A   1      44.074  28.892  30.609  1.00  0.00     0.029 A 
ATOM     48  C   UNL A   1      43.009  29.558  31.342  1.00  0.00     0.049 A 
ATOM     49  H   UNL A   1      41.366  30.439  30.270  1.00  0.00     0.167 HD
ATOM     50  C   UNL A   1      43.460  23.730  28.301  1.00  0.00     0.031 A 
ATOM     51  C   UNL A   1      42.793  29.408  32.685  1.00  0.00     0.031 A 
ATOM     52  C   UNL A   1      44.440  24.195  29.281  1.00  0.00     0.049 A 
ATOM     53  C   UNL A   1      43.427  28.149  33.257  1.00  0.00     0.074 A 
ATOM     54  C   UNL A   1      45.561  25.004  29.189  1.00  0.00     0.029 A 
ATOM     55  N   UNL A   1      44.142  24.087  30.635  1.00  0.00    -0.354 N 
ATOM     56  N   UNL A   1      43.780  27.120  32.533  1.00  0.00    -0.248 NA
ATOM     57  C   UNL A   1      43.696  27.936  34.678  1.00  0.00     0.031 C 
ATOM     58  C   UNL A   1      45.871  25.468  30.496  1.00  0.00     0.029 A 
ATOM     59  C   UNL A   1      44.963  24.910  31.380  1.00  0.00     0.049 A 
ATOM     60  H   UNL A   1      43.442  23.504  31.009  1.00  0.00     0.167 HD
ATOM     61  C   UNL A   1      44.333  26.154  33.331  1.00  0.00     0.074 A 
ATOM     62  C   UNL A   1      44.257  26.712  34.670  1.00  0.00     0.031 C 
ATOM     63  C   UNL A   1      44.812  24.976  32.829  1.00  0.00     0.031 A 
BRANCH  50  64
ATOM     64  C   UNL A   1      43.785  22.782  27.164  1.00  0.00    -0.014 A 
ATOM     65  C   UNL A   1      42.927  21.696  26.894  1.00  0.00     0.010 A 
ATOM     66  C   UNL A   1      44.952  22.850  26.378  1.00  0.00     0.010 A 
ATOM     67  C   UNL A   1      43.264  20.686  25.974  1.00  0.00     0.020 A 
ATOM     68  C   UNL A   1      45.321  21.834  25.484  1.00  0.00     0.020 A 
ATOM     69  C   UNL A   1      44.477  20.747  25.295  1.00  0.00     0.054 A 
BRANCH  69  70
ATOM     70  S   UNL A   1      44.945  19.401  24.175  1.00  0.00     0.124 S 
ATOM     71  O   UNL A   1      44.488  19.895  22.878  1.00  0.00    -0.237 OA
ATOM     72  O   UNL A   1      46.391  19.335  24.353  1.00  0.00    -0.237 OA
ATOM     73  O   UNL A   1      44.204  18.249  24.689  1.00  0.00    -0.744 OA
ENDBRANCH  69  70
ENDBRANCH  50  64
BRANCH  51  74
ATOM     74  C   UNL A   1      41.542  30.042  33.186  1.00  0.00    -0.014 A 
ATOM     75  C   UNL A   1      41.593  31.416  33.502  1.00  0.00     0.010 A 
ATOM     76  C   UNL A   1      40.290  29.451  32.938  1.00  0.00     0.010 A 
ATOM     77  C   UNL A   1      40.459  32.220  33.368  1.00  0.00     0.020 A 
ATOM     78  C   UNL A   1      39.145  30.254  32.819  1.00  0.00     0.020 A 
ATOM     79  C   UNL A   1      39.258  31.642  32.955  1.00  0.00     0.054 A 
BRANCH  79  80
ATOM     80  S   UNL A   1      37.927  32.751  32.399  1.00  0.00     0.124 S 
ATOM     81  O   UNL A   1      36.847  31.819  32.096  1.00  0.00    -0.237 OA
ATOM     82  O   UNL A   1      37.716  33.592  33.579  1.00  0.00    -0.237 OA
ATOM     83  O   UNL A   1      38.514  33.433  31.250  1.00  0.00    -0.744 OA
ENDBRANCH  79  80
ENDBRANCH  51  74
BRANCH  63  84
ATOM     84  C   UNL A   1      45.254  23.777  33.637  1.00  0.00    -0.014 A 
ATOM     85  C   UNL A   1      46.511  23.659  34.247  1.00  0.00     0.010 A 
ATOM     86  C   UNL A   1      44.303  22.766  33.929  1.00  0.00     0.010 A 
ATOM     87  C   UNL A   1      46.825  22.561  35.063  1.00  0.00     0.020 A 
ATOM     88  C   UNL A   1      44.590  21.693  34.776  1.00  0.00     0.020 A 
ATOM     89  C   UNL A   1      45.863  21.585  35.323  1.00  0.00     0.054 A 
BRANCH  89  90
ATOM     90  S   UNL A   1      46.249  20.217  36.444  1.00  0.00     0.124 S 
ATOM     91  O   UNL A   1      45.427  19.139  35.899  1.00  0.00    -0.237 OA
ATOM     92  O   UNL A   1      47.691  20.049  36.277  1.00  0.00    -0.237 OA
ATOM     93  O   UNL A   1      45.836  20.721  37.752  1.00  0.00    -0.744 OA
ENDBRANCH  89  90
ENDBRANCH  63  84
ENDBRANCH  37  38
ENDBRANCH  29  32
ENDBRANCH  27  28
ENDBRANCH   1  27
TORSDOF 16
ENDMDL
MODEL 2
REMARK VINA RESULT:     -13.3      4.869     11.471
REMARK SMILES Cc1ccc(NC(=O)C[C@@H]2C[NH2+]CCO2)c(C(=O)NCCCNC(=O)c2ccc(-c3c4nc(c(-c5ccc(S(=O)(=O)[O-])cc5)c5ccc([nH]5)c(-c5ccc(S(=O)(=O)[O-])cc5)c5nc(c(-c6ccc(S(=O)(=O)[O-])cc6)c6ccc3[nH]6)C=C5)C=C4)cc2)c1
REMARK SMILES IDX 21 1 20 2 19 3 17 4 18 5 16 7 1 8 2 9 3 10 86 11 4 12 5 13
REMARK SMILES IDX 6 14 7 15 8 17 9 18 10 19 11 20 15 21 12 22 14 23 13 24
REMARK SMILES IDX 22 27 23 28 24 29 25 31 26 32 27 33 85 34 28 35 84 36 29 37
REMARK SMILES IDX 30 38 31 39 78 40 32 41 83 42 77 43 79 44 33 45 82 46 76 47
REMARK SMILES IDX 75 48 34 50 64 51 45 52 63 53 46 54 49 55 62 56 80 57 47 58
REMARK SMILES IDX 48 59 61 61 81 62 50 63 35 64 36 65 44 66 37 67 43 68 38 69
REMARK SMILES IDX 39 70 40 71 41 72 42 73 65 74 66 75 74 76 67 77 73 78 68 79
REMARK SMILES IDX 69 80 70 81 71 82 72 83 51 84 52 85 60 86 53 87 59 88 54 89
REMARK SMILES IDX 55 90 56 91 57 92 58 93
REMARK H PARENT 19 6 6 16 12 25 12 26 23 30 79 49 49 60
REMARK Flexibility Score: inf
ROOT
ATOM      1  C   UNL A   1      37.655  22.696  24.865  1.00  0.00     0.042 C 
ENDROOT
BRANCH   1   2
ATOM      2  C   UNL A   1      36.648  23.228  23.843  1.00  0.00     0.118 C 
BRANCH   2   3
ATOM      3  N   UNL A   1      35.580  23.993  24.477  1.00  0.00    -0.352 N 
ATOM      4  C   UNL A   1      34.240  23.736  24.672  1.00  0.00     0.253 C 
ATOM      5  O   UNL A   1      33.618  24.516  25.395  1.00  0.00    -0.269 OA
ATOM      6  H   UNL A   1      35.873  24.862  24.834  1.00  0.00     0.163 HD
BRANCH   4   7
ATOM      7  C   UNL A   1      33.533  22.534  24.112  1.00  0.00     0.063 A 
ATOM      8  C   UNL A   1      32.835  18.919  25.125  1.00  0.00     0.044 C 
ATOM      9  C   UNL A   1      32.778  20.209  24.364  1.00  0.00    -0.050 A 
ATOM     10  C   UNL A   1      32.075  20.315  23.173  1.00  0.00     0.005 A 
ATOM     11  C   UNL A   1      33.492  21.322  24.818  1.00  0.00     0.019 A 
ATOM     12  C   UNL A   1      32.170  21.480  22.411  1.00  0.00     0.027 A 
ATOM     13  C   UNL A   1      32.980  22.553  22.810  1.00  0.00     0.054 A 
BRANCH  13  14
ATOM     14  N   UNL A   1      33.317  23.603  21.920  1.00  0.00    -0.325 N 
ATOM     15  C   UNL A   1      32.780  24.847  21.726  1.00  0.00     0.227 C 
ATOM     16  H   UNL A   1      34.078  23.400  21.331  1.00  0.00     0.169 HD
ATOM     17  O   UNL A   1      33.258  25.567  20.841  1.00  0.00    -0.275 OA
BRANCH  15  18
ATOM     18  C   UNL A   1      31.620  25.388  22.540  1.00  0.00     0.138 C 
BRANCH  18  19
ATOM     19  C   UNL A   1      31.586  26.908  22.774  1.00  0.00     0.182 C 
ATOM     20  C   UNL A   1      31.330  27.175  24.281  1.00  0.00     0.293 C 
ATOM     21  O   UNL A   1      30.583  27.542  21.976  1.00  0.00    -0.366 OA
ATOM     22  N   UNL A   1      31.151  28.601  24.617  1.00  0.00    -0.342 N 
ATOM     23  C   UNL A   1      30.434  28.931  22.263  1.00  0.00     0.222 C 
ATOM     24  C   UNL A   1      30.095  29.145  23.741  1.00  0.00     0.289 C 
ATOM     25  H   UNL A   1      32.023  29.105  24.462  1.00  0.00     0.346 HD
ATOM     26  H   UNL A   1      30.887  28.704  25.597  1.00  0.00     0.346 HD
ENDBRANCH  18  19
ENDBRANCH  15  18
ENDBRANCH  13  14
ENDBRANCH   4   7
ENDBRANCH   2   3
ENDBRANCH   1   2
BRANCH   1  27
ATOM     27  C   UNL A   1      37.892  23.643  26.028  1.00  0.00     0.118 C 
BRANCH  27  28
ATOM     28  N   UNL A   1      38.956  23.173  26.908  1.00  0.00    -0.352 N 
ATOM     29  C   UNL A   1      39.900  23.951  27.563  1.00  0.00     0.251 C 
ATOM     30  H   UNL A   1      39.012  22.201  27.050  1.00  0.00     0.163 HD
ATOM     31  O   UNL A   1      40.931  23.515  28.020  1.00  0.00    -0.269 OA
BRANCH  29  32
ATOM     32  C   UNL A   1      39.479  25.343  27.818  1.00  0.00     0.039 A 
ATOM     33  C   UNL A   1      40.007  26.317  26.961  1.00  0.00     0.014 A 
ATOM     34  C   UNL A   1      38.923  25.672  29.048  1.00  0.00     0.014 A 
ATOM     35  C   UNL A   1      40.136  27.623  27.418  1.00  0.00     0.010 A 
ATOM     36  C   UNL A   1      39.137  26.946  29.532  1.00  0.00     0.010 A 
ATOM     37  C   UNL A   1      39.787  27.904  28.736  1.00  0.00    -0.014 A 
BRANCH  37  38
ATOM     38  C   UNL A   1      40.062  29.177  29.389  1.00  0.00     0.031 A 
ATOM     39  C   UNL A   1      39.035  30.245  29.302  1.00  0.00     0.074 A 
ATOM     40  C   UNL A   1      41.174  29.337  30.145  1.00  0.00     0.049 A 
ATOM     41  N   UNL A   1      39.236  31.491  29.570  1.00  0.00    -0.248 NA
ATOM     42  C   UNL A   1      37.676  29.979  28.832  1.00  0.00     0.031 C 
ATOM     43  C   UNL A   1      41.420  30.415  31.101  1.00  0.00     0.029 A 
ATOM     44  N   UNL A   1      42.407  28.677  30.080  1.00  0.00    -0.354 N 
ATOM     45  C   UNL A   1      38.004  32.110  29.618  1.00  0.00     0.074 A 
ATOM     46  C   UNL A   1      37.082  31.152  29.060  1.00  0.00     0.031 C 
ATOM     47  C   UNL A   1      42.745  30.540  31.277  1.00  0.00     0.029 A 
ATOM     48  C   UNL A   1      43.376  29.674  30.295  1.00  0.00     0.049 A 
ATOM     49  H   UNL A   1      42.562  27.718  29.919  1.00  0.00     0.167 HD
ATOM     50  C   UNL A   1      37.878  33.304  30.265  1.00  0.00     0.031 A 
ATOM     51  C   UNL A   1      44.269  30.106  29.352  1.00  0.00     0.031 A 
ATOM     52  C   UNL A   1      39.183  33.839  30.649  1.00  0.00     0.049 A 
ATOM     53  C   UNL A   1      44.188  31.603  29.093  1.00  0.00     0.074 A 
ATOM     54  C   UNL A   1      39.893  33.842  31.838  1.00  0.00     0.029 A 
ATOM     55  N   UNL A   1      40.084  34.197  29.652  1.00  0.00    -0.354 N 
ATOM     56  N   UNL A   1      43.153  32.339  29.400  1.00  0.00    -0.248 NA
ATOM     57  C   UNL A   1      45.247  32.387  28.458  1.00  0.00     0.031 C 
ATOM     58  C   UNL A   1      41.256  34.102  31.531  1.00  0.00     0.029 A 
ATOM     59  C   UNL A   1      41.363  34.295  30.164  1.00  0.00     0.049 A 
ATOM     60  H   UNL A   1      39.842  34.359  28.711  1.00  0.00     0.167 HD
ATOM     61  C   UNL A   1      43.389  33.645  29.058  1.00  0.00     0.074 A 
ATOM     62  C   UNL A   1      44.717  33.624  28.470  1.00  0.00     0.031 C 
ATOM     63  C   UNL A   1      42.477  34.636  29.289  1.00  0.00     0.031 A 
BRANCH  50  64
ATOM     64  C   UNL A   1      36.559  33.827  30.800  1.00  0.00    -0.014 A 
ATOM     65  C   UNL A   1      35.473  34.012  29.920  1.00  0.00     0.010 A 
ATOM     66  C   UNL A   1      36.344  34.232  32.132  1.00  0.00     0.010 A 
ATOM     67  C   UNL A   1      34.288  34.655  30.319  1.00  0.00     0.020 A 
ATOM     68  C   UNL A   1      35.184  34.909  32.538  1.00  0.00     0.020 A 
ATOM     69  C   UNL A   1      34.162  35.128  31.622  1.00  0.00     0.054 A 
BRANCH  69  70
ATOM     70  S   UNL A   1      32.669  36.032  32.107  1.00  0.00     0.124 S 
ATOM     71  O   UNL A   1      31.778  34.960  32.545  1.00  0.00    -0.237 OA
ATOM     72  O   UNL A   1      33.164  36.913  33.159  1.00  0.00    -0.237 OA
ATOM     73  O   UNL A   1      32.257  36.707  30.876  1.00  0.00    -0.744 OA
ENDBRANCH  69  70
ENDBRANCH  50  64
BRANCH  51  74
ATOM     74  C   UNL A   1      44.649  29.081  28.341  1.00  0.00    -0.014 A 
ATOM     75  C   UNL A   1      44.149  29.245  27.032  1.00  0.00     0.010 A 
ATOM     76  C   UNL A   1      45.777  28.265  28.537  1.00  0.00     0.010 A 
ATOM     77  C   UNL A   1      44.874  28.784  25.930  1.00  0.00     0.020 A 
ATOM     78  C   UNL A   1      46.499  27.787  27.433  1.00  0.00     0.020 A 
ATOM     79  C   UNL A   1      46.084  28.121  26.140  1.00  0.00     0.054 A 
BRANCH  79  80
ATOM     80  S   UNL A   1      47.190  27.901  24.712  1.00  0.00     0.124 S 
ATOM     81  O   UNL A   1      48.504  28.171  25.287  1.00  0.00    -0.237 OA
ATOM     82  O   UNL A   1      46.942  26.505  24.344  1.00  0.00    -0.237 OA
ATOM     83  O   UNL A   1      46.707  28.889  23.754  1.00  0.00    -0.744 OA
ENDBRANCH  79  80
ENDBRANCH  51  74
BRANCH  63  84
ATOM     84  C   UNL A   1      42.558  36.057  28.775  1.00  0.00    -0.014 A 
ATOM     85  C   UNL A   1      43.276  37.083  29.408  1.00  0.00     0.010 A 
ATOM     86  C   UNL A   1      42.001  36.354  27.506  1.00  0.00     0.010 A 
ATOM     87  C   UNL A   1      43.389  38.357  28.830  1.00  0.00     0.020 A 
ATOM     88  C   UNL A   1      42.146  37.605  26.900  1.00  0.00     0.020 A 
ATOM     89  C   UNL A   1      42.823  38.610  27.580  1.00  0.00     0.054 A 
BRANCH  89  90
ATOM     90  S   UNL A   1      43.046  40.230  26.803  1.00  0.00     0.124 S 
ATOM     91  O   UNL A   1      43.379  41.071  27.951  1.00  0.00    -0.237 OA
ATOM     92  O   UNL A   1      44.138  39.997  25.861  1.00  0.00    -0.237 OA
ATOM     93  O   UNL A   1      41.748  40.495  26.187  1.00  0.00    -0.744 OA
ENDBRANCH  89  90
ENDBRANCH  63  84
ENDBRANCH  37  38
ENDBRANCH  29  32
ENDBRANCH  27  28
ENDBRANCH   1  27
TORSDOF 16
ENDMDL
MODEL 3
REMARK VINA RESULT:     -13.2      4.468     11.370
REMARK SMILES Cc1ccc(NC(=O)C[C@@H]2C[NH2+]CCO2)c(C(=O)NCCCNC(=O)c2ccc(-c3c4nc(c(-c5ccc(S(=O)(=O)[O-])cc5)c5ccc([nH]5)c(-c5ccc(S(=O)(=O)[O-])cc5)c5nc(c(-c6ccc(S(=O)(=O)[O-])cc6)c6ccc3[nH]6)C=C5)C=C4)cc2)c1
REMARK SMILES IDX 21 1 20 2 19 3 17 4 18 5 16 7 1 8 2 9 3 10 86 11 4 12 5 13
REMARK SMILES IDX 6 14 7 15 8 17 9 18 10 19 11 20 15 21 12 22 14 23 13 24
REMARK SMILES IDX 22 27 23 28 24 29 25 31 26 32 27 33 85 34 28 35 84 36 29 37
REMARK SMILES IDX 30 38 31 39 78 40 32 41 83 42 77 43 79 44 33 45 82 46 76 47
REMARK SMILES IDX 75 48 34 50 64 51 45 52 63 53 46 54 49 55 62 56 80 57 47 58
REMARK SMILES IDX 48 59 61 61 81 62 50 63 35 64 36 65 44 66 37 67 43 68 38 69
REMARK SMILES IDX 39 70 40 71 41 72 42 73 65 74 66 75 74 76 67 77 73 78 68 79
REMARK SMILES IDX 69 80 70 81 71 82 72 83 51 84 52 85 60 86 53 87 59 88 54 89
REMARK SMILES IDX 55 90 56 91 57 92 58 93
REMARK H PARENT 19 6 6 16 12 25 12 26 23 30 79 49 49 60
REMARK Flexibility Score: inf
ROOT
ATOM      1  C   UNL A   1      37.456  22.790  25.017  1.00  0.00     0.042 C 
ENDROOT
BRANCH   1   2
ATOM      2  C   UNL A   1      36.953  21.422  25.480  1.00  0.00     0.118 C 
BRANCH   2   3
ATOM      3  N   UNL A   1      35.905  21.538  26.489  1.00  0.00    -0.352 N 
ATOM      4  C   UNL A   1      34.538  21.379  26.432  1.00  0.00     0.253 C 
ATOM      5  O   UNL A   1      33.928  21.386  27.503  1.00  0.00    -0.269 OA
ATOM      6  H   UNL A   1      36.241  21.777  27.383  1.00  0.00     0.163 HD
BRANCH   4   7
ATOM      7  C   UNL A   1      33.780  21.134  25.159  1.00  0.00     0.063 A 
ATOM      8  C   UNL A   1      32.405  18.160  23.196  1.00  0.00     0.044 C 
ATOM      9  C   UNL A   1      32.670  19.574  23.617  1.00  0.00    -0.050 A 
ATOM     10  C   UNL A   1      32.215  20.649  22.867  1.00  0.00     0.005 A 
ATOM     11  C   UNL A   1      33.441  19.834  24.754  1.00  0.00     0.019 A 
ATOM     12  C   UNL A   1      32.610  21.946  23.200  1.00  0.00     0.027 A 
ATOM     13  C   UNL A   1      33.479  22.195  24.272  1.00  0.00     0.054 A 
BRANCH  13  14
ATOM     14  N   UNL A   1      34.115  23.450  24.438  1.00  0.00    -0.325 N 
ATOM     15  C   UNL A   1      33.811  24.536  25.212  1.00  0.00     0.227 C 
ATOM     16  H   UNL A   1      34.928  23.562  23.895  1.00  0.00     0.169 HD
ATOM     17  O   UNL A   1      34.536  25.537  25.141  1.00  0.00    -0.275 OA
BRANCH  15  18
ATOM     18  C   UNL A   1      32.623  24.579  26.153  1.00  0.00     0.138 C 
BRANCH  18  19
ATOM     19  C   UNL A   1      31.410  25.413  25.703  1.00  0.00     0.182 C 
ATOM     20  C   UNL A   1      30.709  24.680  24.528  1.00  0.00     0.293 C 
ATOM     21  O   UNL A   1      31.795  26.733  25.310  1.00  0.00    -0.366 OA
ATOM     22  N   UNL A   1      29.600  25.440  23.921  1.00  0.00    -0.342 N 
ATOM     23  C   UNL A   1      30.717  27.491  24.763  1.00  0.00     0.222 C 
ATOM     24  C   UNL A   1      30.111  26.775  23.553  1.00  0.00     0.289 C 
ATOM     25  H   UNL A   1      28.838  25.535  24.592  1.00  0.00     0.346 HD
ATOM     26  H   UNL A   1      29.247  24.955  23.096  1.00  0.00     0.346 HD
ENDBRANCH  18  19
ENDBRANCH  15  18
ENDBRANCH  13  14
ENDBRANCH   4   7
ENDBRANCH   2   3
ENDBRANCH   1   2
BRANCH   1  27
ATOM     27  C   UNL A   1      37.751  23.745  26.161  1.00  0.00     0.118 C 
BRANCH  27  28
ATOM     28  N   UNL A   1      38.861  23.283  26.986  1.00  0.00    -0.352 N 
ATOM     29  C   UNL A   1      39.842  24.065  27.577  1.00  0.00     0.251 C 
ATOM     30  H   UNL A   1      38.921  22.312  27.139  1.00  0.00     0.163 HD
ATOM     31  O   UNL A   1      40.895  23.631  27.982  1.00  0.00    -0.269 OA
BRANCH  29  32
ATOM     32  C   UNL A   1      39.442  25.463  27.835  1.00  0.00     0.039 A 
ATOM     33  C   UNL A   1      39.970  26.429  26.970  1.00  0.00     0.014 A 
ATOM     34  C   UNL A   1      38.904  25.800  29.072  1.00  0.00     0.014 A 
ATOM     35  C   UNL A   1      40.121  27.733  27.423  1.00  0.00     0.010 A 
ATOM     36  C   UNL A   1      39.140  27.071  29.551  1.00  0.00     0.010 A 
ATOM     37  C   UNL A   1      39.792  28.021  28.746  1.00  0.00    -0.014 A 
BRANCH  37  38
ATOM     38  C   UNL A   1      40.090  29.291  29.393  1.00  0.00     0.031 A 
ATOM     39  C   UNL A   1      39.063  30.362  29.340  1.00  0.00     0.074 A 
ATOM     40  C   UNL A   1      41.225  29.446  30.115  1.00  0.00     0.049 A 
ATOM     41  N   UNL A   1      39.276  31.607  29.606  1.00  0.00    -0.248 NA
ATOM     42  C   UNL A   1      37.690  30.101  28.911  1.00  0.00     0.031 C 
ATOM     43  C   UNL A   1      41.503  30.521  31.066  1.00  0.00     0.029 A 
ATOM     44  N   UNL A   1      42.453  28.783  30.011  1.00  0.00    -0.354 N 
ATOM     45  C   UNL A   1      38.048  32.229  29.694  1.00  0.00     0.074 A 
ATOM     46  C   UNL A   1      37.106  31.275  29.161  1.00  0.00     0.031 C 
ATOM     47  C   UNL A   1      42.833  30.642  31.201  1.00  0.00     0.029 A 
ATOM     48  C   UNL A   1      43.431  29.777  30.198  1.00  0.00     0.049 A 
ATOM     49  H   UNL A   1      42.601  27.824  29.842  1.00  0.00     0.167 HD
ATOM     50  C   UNL A   1      37.945  33.422  30.347  1.00  0.00     0.031 A 
ATOM     51  C   UNL A   1      44.296  30.209  29.229  1.00  0.00     0.031 A 
ATOM     52  C   UNL A   1      39.262  33.952  30.692  1.00  0.00     0.049 A 
ATOM     53  C   UNL A   1      44.212  31.708  28.977  1.00  0.00     0.074 A 
ATOM     54  C   UNL A   1      40.008  33.950  31.859  1.00  0.00     0.029 A 
ATOM     55  N   UNL A   1      40.133  34.310  29.669  1.00  0.00    -0.354 N 
ATOM     56  N   UNL A   1      43.188  32.445  29.317  1.00  0.00    -0.248 NA
ATOM     57  C   UNL A   1      45.252  32.490  28.312  1.00  0.00     0.031 C 
ATOM     58  C   UNL A   1      41.362  34.207  31.511  1.00  0.00     0.029 A 
ATOM     59  C   UNL A   1      41.427  34.403  30.142  1.00  0.00     0.049 A 
ATOM     60  H   UNL A   1      39.863  34.475  28.736  1.00  0.00     0.167 HD
ATOM     61  C   UNL A   1      43.417  33.751  28.972  1.00  0.00     0.074 A 
ATOM     62  C   UNL A   1      44.726  33.729  28.343  1.00  0.00     0.031 C 
ATOM     63  C   UNL A   1      42.515  34.745  29.233  1.00  0.00     0.031 A 
BRANCH  50  64
ATOM     64  C   UNL A   1      36.644  33.946  30.924  1.00  0.00    -0.014 A 
ATOM     65  C   UNL A   1      35.471  33.917  30.141  1.00  0.00     0.010 A 
ATOM     66  C   UNL A   1      36.521  34.553  32.189  1.00  0.00     0.010 A 
ATOM     67  C   UNL A   1      34.282  34.546  30.551  1.00  0.00     0.020 A 
ATOM     68  C   UNL A   1      35.355  35.217  32.598  1.00  0.00     0.020 A 
ATOM     69  C   UNL A   1      34.241  35.220  31.768  1.00  0.00     0.054 A 
BRANCH  69  70
ATOM     70  S   UNL A   1      32.733  36.101  32.252  1.00  0.00     0.124 S 
ATOM     71  O   UNL A   1      33.167  36.845  33.432  1.00  0.00    -0.237 OA
ATOM     72  O   UNL A   1      32.447  36.905  31.069  1.00  0.00    -0.237 OA
ATOM     73  O   UNL A   1      31.775  35.029  32.520  1.00  0.00    -0.744 OA
ENDBRANCH  69  70
ENDBRANCH  50  64
BRANCH  51  74
ATOM     74  C   UNL A   1      44.642  29.186  28.204  1.00  0.00    -0.014 A 
ATOM     75  C   UNL A   1      45.568  28.187  28.573  1.00  0.00     0.010 A 
ATOM     76  C   UNL A   1      43.787  28.947  27.114  1.00  0.00     0.010 A 
ATOM     77  C   UNL A   1      45.501  26.911  28.009  1.00  0.00     0.020 A 
ATOM     78  C   UNL A   1      43.729  27.670  26.534  1.00  0.00     0.020 A 
ATOM     79  C   UNL A   1      44.530  26.643  27.043  1.00  0.00     0.054 A 
BRANCH  79  80
ATOM     80  S   UNL A   1      44.199  24.902  26.632  1.00  0.00     0.124 S 
ATOM     81  O   UNL A   1      42.972  24.991  25.848  1.00  0.00    -0.237 OA
ATOM     82  O   UNL A   1      45.398  24.531  25.878  1.00  0.00    -0.237 OA
ATOM     83  O   UNL A   1      44.068  24.265  27.938  1.00  0.00    -0.744 OA
ENDBRANCH  79  80
ENDBRANCH  51  74
BRANCH  63  84
ATOM     84  C   UNL A   1      42.584  36.166  28.722  1.00  0.00    -0.014 A 
ATOM     85  C   UNL A   1      43.403  37.163  29.274  1.00  0.00     0.010 A 
ATOM     86  C   UNL A   1      41.896  36.492  27.526  1.00  0.00     0.010 A 
ATOM     87  C   UNL A   1      43.491  38.437  28.693  1.00  0.00     0.020 A 
ATOM     88  C   UNL A   1      42.013  37.743  26.914  1.00  0.00     0.020 A 
ATOM     89  C   UNL A   1      42.795  38.720  27.517  1.00  0.00     0.054 A 
BRANCH  89  90
ATOM     90  S   UNL A   1      42.982  40.339  26.729  1.00  0.00     0.124 S 
ATOM     91  O   UNL A   1      44.120  40.113  25.842  1.00  0.00    -0.237 OA
ATOM     92  O   UNL A   1      41.697  40.531  26.060  1.00  0.00    -0.237 OA
ATOM     93  O   UNL A   1      43.230  41.239  27.852  1.00  0.00    -0.744 OA
ENDBRANCH  89  90
ENDBRANCH  63  84
ENDBRANCH  37  38
ENDBRANCH  29  32
ENDBRANCH  27  28
ENDBRANCH   1  27
TORSDOF 16
ENDMDL
