MODEL 1
REMARK VINA RESULT:     -12.3      0.000      0.000
REMARK SMILES O=C(NCCCNC(=O)c1cccc(Br)c1O[C@@H]1CCOC2(CCC2)C1)c1ccc(-c2c3nc(c(-c4ccc(S(=O)(=O)[O-])cc4)c4ccc([nH]4)c(-c4ccc(S(=O)(=O)[O-])cc4)c4nc(c(-c5ccc(S(=O)(=O)[O-])cc5)c5ccc2[nH]5)C=C4)C=C3)cc1
REMARK SMILES IDX 4 1 3 2 1 3 2 4 27 6 28 7 86 8 29 9 85 10 30 11 31 12 32 13
REMARK SMILES IDX 79 14 33 15 84 16 78 17 80 18 34 19 83 20 77 21 76 22 35 24
REMARK SMILES IDX 65 25 46 26 64 27 47 28 50 29 63 30 81 31 48 32 49 33 62 35
REMARK SMILES IDX 82 36 51 37 36 38 37 39 45 40 38 41 44 42 39 43 40 44 41 45
REMARK SMILES IDX 42 46 43 47 66 48 67 49 75 50 68 51 74 52 69 53 70 54 71 55
REMARK SMILES IDX 72 56 73 57 52 58 53 59 61 60 54 61 60 62 55 63 56 64 57 65
REMARK SMILES IDX 58 66 59 67 5 68 6 69 7 70 8 71 9 73 10 74 11 75 16 76 12 77
REMARK SMILES IDX 14 78 13 79 15 80 17 81 18 82 19 83 26 84 20 85 22 86 21 87
REMARK SMILES IDX 23 88 25 89 24 90
REMARK H PARENT 3 5 80 23 50 34 7 72
REMARK Flexibility Score: inf
ROOT
ATOM      1  C   UNL A   1      38.291  24.143  26.679  1.00  0.00     0.118 C 
ENDROOT
BRANCH   1   2
ATOM      2  N   UNL A   1      39.489  24.413  25.895  1.00  0.00    -0.352 N 
ATOM      3  O   UNL A   1      41.400  25.445  25.294  1.00  0.00    -0.269 OA
ATOM      4  C   UNL A   1      40.518  25.297  26.136  1.00  0.00     0.251 C 
ATOM      5  H   UNL A   1      39.576  23.885  25.069  1.00  0.00     0.163 HD
BRANCH   4   6
ATOM      6  C   UNL A   1      40.536  26.099  27.381  1.00  0.00     0.039 A 
ATOM      7  C   UNL A   1      39.687  25.794  28.445  1.00  0.00     0.014 A 
ATOM      8  C   UNL A   1      41.401  27.193  27.475  1.00  0.00     0.014 A 
ATOM      9  C   UNL A   1      39.556  26.688  29.503  1.00  0.00     0.010 A 
ATOM     10  C   UNL A   1      41.348  28.029  28.595  1.00  0.00     0.010 A 
ATOM     11  C   UNL A   1      40.386  27.817  29.594  1.00  0.00    -0.014 A 
BRANCH  11  12
ATOM     12  C   UNL A   1      40.245  28.737  30.755  1.00  0.00     0.031 A 
ATOM     13  C   UNL A   1      41.155  28.630  31.951  1.00  0.00     0.074 A 
ATOM     14  C   UNL A   1      39.305  29.704  30.712  1.00  0.00     0.049 A 
ATOM     15  N   UNL A   1      41.196  29.381  33.025  1.00  0.00    -0.248 NA
ATOM     16  C   UNL A   1      42.141  27.539  31.951  1.00  0.00     0.031 C 
ATOM     17  C   UNL A   1      38.364  29.916  29.608  1.00  0.00     0.029 A 
ATOM     18  N   UNL A   1      39.000  30.701  31.602  1.00  0.00    -0.354 N 
ATOM     19  C   UNL A   1      42.187  28.839  33.836  1.00  0.00     0.074 A 
ATOM     20  C   UNL A   1      42.703  27.678  33.143  1.00  0.00     0.031 C 
ATOM     21  C   UNL A   1      37.632  31.010  29.858  1.00  0.00     0.029 A 
ATOM     22  C   UNL A   1      37.996  31.534  31.169  1.00  0.00     0.049 A 
ATOM     23  H   UNL A   1      39.456  30.809  32.467  1.00  0.00     0.167 HD
ATOM     24  C   UNL A   1      42.628  29.268  35.045  1.00  0.00     0.031 A 
ATOM     25  C   UNL A   1      37.418  32.598  31.760  1.00  0.00     0.031 A 
ATOM     26  C   UNL A   1      42.105  30.422  35.732  1.00  0.00     0.049 A 
ATOM     27  C   UNL A   1      37.897  33.027  33.117  1.00  0.00     0.074 A 
ATOM     28  C   UNL A   1      42.511  30.961  36.941  1.00  0.00     0.029 A 
ATOM     29  N   UNL A   1      41.054  31.208  35.281  1.00  0.00    -0.354 N 
ATOM     30  N   UNL A   1      38.861  32.524  33.849  1.00  0.00    -0.248 NA
ATOM     31  C   UNL A   1      37.211  34.176  33.723  1.00  0.00     0.031 C 
ATOM     32  C   UNL A   1      41.662  32.026  37.255  1.00  0.00     0.029 A 
ATOM     33  C   UNL A   1      40.777  32.205  36.203  1.00  0.00     0.049 A 
ATOM     34  H   UNL A   1      40.575  31.076  34.432  1.00  0.00     0.167 HD
ATOM     35  C   UNL A   1      38.925  33.319  34.988  1.00  0.00     0.074 A 
ATOM     36  C   UNL A   1      37.907  34.339  34.840  1.00  0.00     0.031 C 
ATOM     37  C   UNL A   1      39.759  33.216  36.053  1.00  0.00     0.031 A 
BRANCH  24  38
ATOM     38  C   UNL A   1      43.703  28.456  35.727  1.00  0.00    -0.014 A 
ATOM     39  C   UNL A   1      45.068  28.765  35.585  1.00  0.00     0.010 A 
ATOM     40  C   UNL A   1      43.335  27.375  36.552  1.00  0.00     0.010 A 
ATOM     41  C   UNL A   1      46.043  27.977  36.204  1.00  0.00     0.020 A 
ATOM     42  C   UNL A   1      44.305  26.605  37.200  1.00  0.00     0.020 A 
ATOM     43  C   UNL A   1      45.655  26.897  37.002  1.00  0.00     0.054 A 
BRANCH  43  44
ATOM     44  S   UNL A   1      46.942  25.885  37.785  1.00  0.00     0.124 S 
ATOM     45  O   UNL A   1      47.003  24.732  36.889  1.00  0.00    -0.237 OA
ATOM     46  O   UNL A   1      48.106  26.766  37.752  1.00  0.00    -0.237 OA
ATOM     47  O   UNL A   1      46.408  25.610  39.117  1.00  0.00    -0.744 OA
ENDBRANCH  43  44
ENDBRANCH  24  38
BRANCH  25  48
ATOM     48  C   UNL A   1      36.331  33.332  31.057  1.00  0.00    -0.014 A 
ATOM     49  C   UNL A   1      35.070  33.485  31.656  1.00  0.00     0.010 A 
ATOM     50  C   UNL A   1      36.564  33.908  29.794  1.00  0.00     0.010 A 
ATOM     51  C   UNL A   1      34.057  34.191  31.003  1.00  0.00     0.020 A 
ATOM     52  C   UNL A   1      35.564  34.644  29.152  1.00  0.00     0.020 A 
ATOM     53  C   UNL A   1      34.313  34.772  29.757  1.00  0.00     0.054 A 
BRANCH  53  54
ATOM     54  S   UNL A   1      33.000  35.735  28.958  1.00  0.00     0.124 S 
ATOM     55  O   UNL A   1      32.210  36.179  30.102  1.00  0.00    -0.237 OA
ATOM     56  O   UNL A   1      33.754  36.776  28.264  1.00  0.00    -0.237 OA
ATOM     57  O   UNL A   1      32.346  34.762  28.084  1.00  0.00    -0.744 OA
ENDBRANCH  53  54
ENDBRANCH  25  48
BRANCH  37  58
ATOM     58  C   UNL A   1      39.646  34.271  37.123  1.00  0.00    -0.014 A 
ATOM     59  C   UNL A   1      38.931  34.048  38.314  1.00  0.00     0.010 A 
ATOM     60  C   UNL A   1      40.302  35.504  36.942  1.00  0.00     0.010 A 
ATOM     61  C   UNL A   1      38.838  35.053  39.282  1.00  0.00     0.020 A 
ATOM     62  C   UNL A   1      40.240  36.497  37.922  1.00  0.00     0.020 A 
ATOM     63  C   UNL A   1      39.493  36.272  39.078  1.00  0.00     0.054 A 
BRANCH  63  64
ATOM     64  S   UNL A   1      39.382  37.549  40.362  1.00  0.00     0.124 S 
ATOM     65  O   UNL A   1      40.726  38.120  40.340  1.00  0.00    -0.237 OA
ATOM     66  O   UNL A   1      38.321  38.417  39.856  1.00  0.00    -0.237 OA
ATOM     67  O   UNL A   1      39.043  36.799  41.569  1.00  0.00    -0.744 OA
ENDBRANCH  63  64
ENDBRANCH  37  58
ENDBRANCH  11  12
ENDBRANCH   4   6
ENDBRANCH   1   2
BRANCH   1  68
ATOM     68  C   UNL A   1      37.031  23.980  25.846  1.00  0.00     0.042 C 
BRANCH  68  69
ATOM     69  C   UNL A   1      36.308  22.653  26.020  1.00  0.00     0.118 C 
BRANCH  69  70
ATOM     70  N   UNL A   1      35.288  22.684  27.064  1.00  0.00    -0.352 N 
ATOM     71  C   UNL A   1      33.950  22.364  27.014  1.00  0.00     0.255 C 
ATOM     72  H   UNL A   1      35.609  22.980  27.947  1.00  0.00     0.163 HD
ATOM     73  O   UNL A   1      33.255  22.463  28.019  1.00  0.00    -0.269 OA
BRANCH  71  74
ATOM     74  C   UNL A   1      33.386  21.836  25.757  1.00  0.00     0.083 A 
ATOM     75  C   UNL A   1      32.972  20.506  25.762  1.00  0.00     0.018 A 
ATOM     76  C   UNL A   1      33.293  22.634  24.592  1.00  0.00     0.146 A 
ATOM     77  C   UNL A   1      32.535  19.932  24.594  1.00  0.00     0.002 A 
ATOM     78  C   UNL A   1      32.970  22.106  23.265  1.00  0.00     0.060 A 
ATOM     79  C   UNL A   1      32.554  20.674  23.402  1.00  0.00     0.019 A 
ATOM     80  Br  UNL A   1      33.081  23.566  21.129  1.00  0.00    -0.047 Br
BRANCH  76  81
ATOM     81  O   UNL A   1      33.487  23.972  24.745  1.00  0.00    -0.488 OA
BRANCH  81  82
ATOM     82  C   UNL A   1      32.192  24.217  25.191  1.00  0.00     0.178 C 
ATOM     83  C   UNL A   1      31.215  24.758  23.600  1.00  0.00     0.074 C 
ATOM     84  C   UNL A   1      32.555  25.467  26.617  1.00  0.00     0.080 C 
ATOM     85  C   UNL A   1      30.650  26.595  23.478  1.00  0.00     0.165 C 
ATOM     86  C   UNL A   1      32.097  27.285  26.306  1.00  0.00     0.072 C 
ATOM     87  O   UNL A   1      31.064  27.726  24.874  1.00  0.00    -0.375 OA
ATOM     88  C   UNL A   1      31.570  28.072  27.577  1.00  0.00     0.036 C 
ATOM     89  C   UNL A   1      33.429  28.105  26.574  1.00  0.00     0.036 C 
ATOM     90  C   UNL A   1      32.565  29.191  27.201  1.00  0.00     0.006 C 
ENDBRANCH  81  82
ENDBRANCH  76  81
ENDBRANCH  71  74
ENDBRANCH  69  70
ENDBRANCH  68  69
ENDBRANCH   1  68
TORSDOF 15
ENDMDL
MODEL 2
REMARK VINA RESULT:     -12.3      6.657     12.219
REMARK SMILES O=C(NCCCNC(=O)c1cccc(Br)c1O[C@@H]1CCOC2(CCC2)C1)c1ccc(-c2c3nc(c(-c4ccc(S(=O)(=O)[O-])cc4)c4ccc([nH]4)c(-c4ccc(S(=O)(=O)[O-])cc4)c4nc(c(-c5ccc(S(=O)(=O)[O-])cc5)c5ccc2[nH]5)C=C4)C=C3)cc1
REMARK SMILES IDX 4 1 3 2 1 3 2 4 27 6 28 7 86 8 29 9 85 10 30 11 31 12 32 13
REMARK SMILES IDX 79 14 33 15 84 16 78 17 80 18 34 19 83 20 77 21 76 22 35 24
REMARK SMILES IDX 65 25 46 26 64 27 47 28 50 29 63 30 81 31 48 32 49 33 62 35
REMARK SMILES IDX 82 36 51 37 36 38 37 39 45 40 38 41 44 42 39 43 40 44 41 45
REMARK SMILES IDX 42 46 43 47 66 48 67 49 75 50 68 51 74 52 69 53 70 54 71 55
REMARK SMILES IDX 72 56 73 57 52 58 53 59 61 60 54 61 60 62 55 63 56 64 57 65
REMARK SMILES IDX 58 66 59 67 5 68 6 69 7 70 8 71 9 73 10 74 11 75 16 76 12 77
REMARK SMILES IDX 14 78 13 79 15 80 17 81 18 82 19 83 26 84 20 85 22 86 21 87
REMARK SMILES IDX 23 88 25 89 24 90
REMARK H PARENT 3 5 80 23 50 34 7 72
REMARK Flexibility Score: inf
ROOT
ATOM      1  C   UNL A   1      35.370  29.314  27.417  1.00  0.00     0.118 C 
ENDROOT
BRANCH   1   2
ATOM      2  N   UNL A   1      35.251  29.660  28.828  1.00  0.00    -0.352 N 
ATOM      3  O   UNL A   1      35.914  30.004  30.953  1.00  0.00    -0.269 OA
ATOM      4  C   UNL A   1      36.231  29.798  29.785  1.00  0.00     0.251 C 
ATOM      5  H   UNL A   1      34.332  29.817  29.144  1.00  0.00     0.163 HD
BRANCH   4   6
ATOM      6  C   UNL A   1      37.659  29.655  29.417  1.00  0.00     0.039 A 
ATOM      7  C   UNL A   1      38.086  29.854  28.103  1.00  0.00     0.014 A 
ATOM      8  C   UNL A   1      38.583  29.289  30.399  1.00  0.00     0.014 A 
ATOM      9  C   UNL A   1      39.378  29.493  27.735  1.00  0.00     0.010 A 
ATOM     10  C   UNL A   1      39.913  29.035  30.046  1.00  0.00     0.010 A 
ATOM     11  C   UNL A   1      40.310  29.080  28.701  1.00  0.00    -0.014 A 
BRANCH  11  12
ATOM     12  C   UNL A   1      41.694  28.732  28.280  1.00  0.00     0.031 A 
ATOM     13  C   UNL A   1      42.797  29.759  28.297  1.00  0.00     0.074 A 
ATOM     14  C   UNL A   1      41.965  27.464  27.911  1.00  0.00     0.049 A 
ATOM     15  N   UNL A   1      44.066  29.610  28.005  1.00  0.00    -0.248 NA
ATOM     16  C   UNL A   1      42.433  31.131  28.682  1.00  0.00     0.031 C 
ATOM     17  C   UNL A   1      40.986  26.374  27.856  1.00  0.00     0.029 A 
ATOM     18  N   UNL A   1      43.142  26.868  27.537  1.00  0.00    -0.354 N 
ATOM     19  C   UNL A   1      44.644  30.868  28.144  1.00  0.00     0.074 A 
ATOM     20  C   UNL A   1      43.580  31.775  28.518  1.00  0.00     0.031 C 
ATOM     21  C   UNL A   1      41.613  25.234  27.533  1.00  0.00     0.029 A 
ATOM     22  C   UNL A   1      43.020  25.522  27.283  1.00  0.00     0.049 A 
ATOM     23  H   UNL A   1      43.993  27.358  27.457  1.00  0.00     0.167 HD
ATOM     24  C   UNL A   1      45.939  31.234  27.977  1.00  0.00     0.031 A 
ATOM     25  C   UNL A   1      43.932  24.616  26.884  1.00  0.00     0.031 A 
ATOM     26  C   UNL A   1      46.992  30.326  27.598  1.00  0.00     0.049 A 
ATOM     27  C   UNL A   1      45.351  25.056  26.666  1.00  0.00     0.074 A 
ATOM     28  C   UNL A   1      48.342  30.591  27.442  1.00  0.00     0.029 A 
ATOM     29  N   UNL A   1      46.816  28.981  27.302  1.00  0.00    -0.354 N 
ATOM     30  N   UNL A   1      45.883  26.241  26.840  1.00  0.00    -0.248 NA
ATOM     31  C   UNL A   1      46.295  24.029  26.204  1.00  0.00     0.031 C 
ATOM     32  C   UNL A   1      48.968  29.428  26.983  1.00  0.00     0.029 A 
ATOM     33  C   UNL A   1      48.025  28.414  26.933  1.00  0.00     0.049 A 
ATOM     34  H   UNL A   1      45.957  28.501  27.347  1.00  0.00     0.167 HD
ATOM     35  C   UNL A   1      47.234  26.095  26.545  1.00  0.00     0.074 A 
ATOM     36  C   UNL A   1      47.435  24.705  26.191  1.00  0.00     0.031 C 
ATOM     37  C   UNL A   1      48.218  27.029  26.576  1.00  0.00     0.031 A 
BRANCH  24  38
ATOM     38  C   UNL A   1      46.284  32.693  28.157  1.00  0.00    -0.014 A 
ATOM     39  C   UNL A   1      46.681  33.212  29.403  1.00  0.00     0.010 A 
ATOM     40  C   UNL A   1      46.234  33.558  27.047  1.00  0.00     0.010 A 
ATOM     41  C   UNL A   1      46.964  34.573  29.547  1.00  0.00     0.020 A 
ATOM     42  C   UNL A   1      46.549  34.913  27.179  1.00  0.00     0.020 A 
ATOM     43  C   UNL A   1      46.890  35.417  28.435  1.00  0.00     0.054 A 
BRANCH  43  44
ATOM     44  S   UNL A   1      47.253  37.181  28.653  1.00  0.00     0.124 S 
ATOM     45  O   UNL A   1      48.708  37.174  28.788  1.00  0.00    -0.237 OA
ATOM     46  O   UNL A   1      46.742  37.769  27.418  1.00  0.00    -0.237 OA
ATOM     47  O   UNL A   1      46.519  37.541  29.864  1.00  0.00    -0.744 OA
ENDBRANCH  43  44
ENDBRANCH  24  38
BRANCH  25  48
ATOM     48  C   UNL A   1      43.523  23.199  26.678  1.00  0.00    -0.014 A 
ATOM     49  C   UNL A   1      43.753  22.561  25.449  1.00  0.00     0.010 A 
ATOM     50  C   UNL A   1      42.927  22.473  27.726  1.00  0.00     0.010 A 
ATOM     51  C   UNL A   1      43.386  21.226  25.264  1.00  0.00     0.020 A 
ATOM     52  C   UNL A   1      42.589  21.128  27.557  1.00  0.00     0.020 A 
ATOM     53  C   UNL A   1      42.812  20.515  26.323  1.00  0.00     0.054 A 
BRANCH  53  54
ATOM     54  S   UNL A   1      42.400  18.766  26.077  1.00  0.00     0.124 S 
ATOM     55  O   UNL A   1      41.002  18.839  25.663  1.00  0.00    -0.237 OA
ATOM     56  O   UNL A   1      43.348  18.363  25.043  1.00  0.00    -0.237 OA
ATOM     57  O   UNL A   1      42.633  18.172  27.392  1.00  0.00    -0.744 OA
ENDBRANCH  53  54
ENDBRANCH  25  48
BRANCH  37  58
ATOM     58  C   UNL A   1      49.620  26.566  26.273  1.00  0.00    -0.014 A 
ATOM     59  C   UNL A   1      50.436  25.975  27.254  1.00  0.00     0.010 A 
ATOM     60  C   UNL A   1      50.117  26.700  24.962  1.00  0.00     0.010 A 
ATOM     61  C   UNL A   1      51.736  25.567  26.941  1.00  0.00     0.020 A 
ATOM     62  C   UNL A   1      51.402  26.262  24.637  1.00  0.00     0.020 A 
ATOM     63  C   UNL A   1      52.211  25.714  25.634  1.00  0.00     0.054 A 
BRANCH  63  64
ATOM     64  S   UNL A   1      53.891  25.150  25.245  1.00  0.00     0.124 S 
ATOM     65  O   UNL A   1      54.208  25.938  24.057  1.00  0.00    -0.237 OA
ATOM     66  O   UNL A   1      54.633  25.505  26.452  1.00  0.00    -0.237 OA
ATOM     67  O   UNL A   1      53.732  23.716  25.017  1.00  0.00    -0.744 OA
ENDBRANCH  63  64
ENDBRANCH  37  58
ENDBRANCH  11  12
ENDBRANCH   4   6
ENDBRANCH   1   2
BRANCH   1  68
ATOM     68  C   UNL A   1      34.153  28.599  26.852  1.00  0.00     0.042 C 
BRANCH  68  69
ATOM     69  C   UNL A   1      33.457  29.317  25.705  1.00  0.00     0.118 C 
BRANCH  69  70
ATOM     70  N   UNL A   1      34.005  28.980  24.395  1.00  0.00    -0.352 N 
ATOM     71  C   UNL A   1      33.423  28.347  23.320  1.00  0.00     0.255 C 
ATOM     72  H   UNL A   1      34.942  29.250  24.258  1.00  0.00     0.163 HD
ATOM     73  O   UNL A   1      34.068  28.154  22.295  1.00  0.00    -0.269 OA
BRANCH  71  74
ATOM     74  C   UNL A   1      31.998  27.970  23.396  1.00  0.00     0.083 A 
ATOM     75  C   UNL A   1      31.108  28.718  22.628  1.00  0.00     0.018 A 
ATOM     76  C   UNL A   1      31.552  26.916  24.228  1.00  0.00     0.146 A 
ATOM     77  C   UNL A   1      29.760  28.480  22.738  1.00  0.00     0.002 A 
ATOM     78  C   UNL A   1      30.143  26.653  24.526  1.00  0.00     0.060 A 
ATOM     79  C   UNL A   1      29.293  27.521  23.651  1.00  0.00     0.019 A 
ATOM     80  Br  UNL A   1      29.403  24.884  26.266  1.00  0.00    -0.047 Br
BRANCH  76  81
ATOM     81  O   UNL A   1      32.505  26.092  24.741  1.00  0.00    -0.488 OA
BRANCH  81  82
ATOM     82  C   UNL A   1      32.663  25.366  23.566  1.00  0.00     0.178 C 
ATOM     83  C   UNL A   1      31.445  23.862  23.745  1.00  0.00     0.074 C 
ATOM     84  C   UNL A   1      34.577  25.112  23.579  1.00  0.00     0.080 C 
ATOM     85  C   UNL A   1      32.213  22.110  23.972  1.00  0.00     0.165 C 
ATOM     86  C   UNL A   1      35.212  23.366  23.979  1.00  0.00     0.072 C 
ATOM     87  O   UNL A   1      34.051  21.964  24.001  1.00  0.00    -0.375 OA
ATOM     88  C   UNL A   1      36.521  22.931  23.198  1.00  0.00     0.036 C 
ATOM     89  C   UNL A   1      36.215  23.551  25.194  1.00  0.00     0.036 C 
ATOM     90  C   UNL A   1      37.090  22.478  24.559  1.00  0.00     0.006 C 
ENDBRANCH  81  82
ENDBRANCH  76  81
ENDBRANCH  71  74
ENDBRANCH  69  70
ENDBRANCH  68  69
ENDBRANCH   1  68
TORSDOF 15
ENDMDL
MODEL 3
REMARK VINA RESULT:     -11.9      4.870      9.858
REMARK SMILES O=C(NCCCNC(=O)c1cccc(Br)c1O[C@@H]1CCOC2(CCC2)C1)c1ccc(-c2c3nc(c(-c4ccc(S(=O)(=O)[O-])cc4)c4ccc([nH]4)c(-c4ccc(S(=O)(=O)[O-])cc4)c4nc(c(-c5ccc(S(=O)(=O)[O-])cc5)c5ccc2[nH]5)C=C4)C=C3)cc1
REMARK SMILES IDX 4 1 3 2 1 3 2 4 27 6 28 7 86 8 29 9 85 10 30 11 31 12 32 13
REMARK SMILES IDX 79 14 33 15 84 16 78 17 80 18 34 19 83 20 77 21 76 22 35 24
REMARK SMILES IDX 65 25 46 26 64 27 47 28 50 29 63 30 81 31 48 32 49 33 62 35
REMARK SMILES IDX 82 36 51 37 36 38 37 39 45 40 38 41 44 42 39 43 40 44 41 45
REMARK SMILES IDX 42 46 43 47 66 48 67 49 75 50 68 51 74 52 69 53 70 54 71 55
REMARK SMILES IDX 72 56 73 57 52 58 53 59 61 60 54 61 60 62 55 63 56 64 57 65
REMARK SMILES IDX 58 66 59 67 5 68 6 69 7 70 8 71 9 73 10 74 11 75 16 76 12 77
REMARK SMILES IDX 14 78 13 79 15 80 17 81 18 82 19 83 26 84 20 85 22 86 21 87
REMARK SMILES IDX 23 88 25 89 24 90
REMARK H PARENT 3 5 80 23 50 34 7 72
REMARK Flexibility Score: inf
ROOT
ATOM      1  C   UNL A   1      33.475  28.582  27.613  1.00  0.00     0.118 C 
ENDROOT
BRANCH   1   2
ATOM      2  N   UNL A   1      33.466  30.011  27.898  1.00  0.00    -0.352 N 
ATOM      3  O   UNL A   1      34.245  32.000  28.616  1.00  0.00    -0.269 OA
ATOM      4  C   UNL A   1      34.483  30.827  28.342  1.00  0.00     0.251 C 
ATOM      5  H   UNL A   1      32.602  30.461  27.754  1.00  0.00     0.163 HD
BRANCH   4   6
ATOM      6  C   UNL A   1      35.847  30.282  28.530  1.00  0.00     0.039 A 
ATOM      7  C   UNL A   1      36.237  29.723  29.747  1.00  0.00     0.014 A 
ATOM      8  C   UNL A   1      36.762  30.356  27.475  1.00  0.00     0.014 A 
ATOM      9  C   UNL A   1      37.578  29.431  29.975  1.00  0.00     0.010 A 
ATOM     10  C   UNL A   1      38.088  29.954  27.673  1.00  0.00     0.010 A 
ATOM     11  C   UNL A   1      38.522  29.540  28.941  1.00  0.00    -0.014 A 
BRANCH  11  12
ATOM     12  C   UNL A   1      39.943  29.188  29.207  1.00  0.00     0.031 A 
ATOM     13  C   UNL A   1      40.502  27.846  28.812  1.00  0.00     0.074 A 
ATOM     14  C   UNL A   1      40.747  30.107  29.782  1.00  0.00     0.049 A 
ATOM     15  N   UNL A   1      41.728  27.397  28.930  1.00  0.00    -0.248 NA
ATOM     16  C   UNL A   1      39.570  26.878  28.215  1.00  0.00     0.031 C 
ATOM     17  C   UNL A   1      40.327  31.445  30.208  1.00  0.00     0.029 A 
ATOM     18  N   UNL A   1      42.083  30.067  30.085  1.00  0.00    -0.354 N 
ATOM     19  C   UNL A   1      41.708  26.092  28.451  1.00  0.00     0.074 A 
ATOM     20  C   UNL A   1      40.341  25.811  28.067  1.00  0.00     0.031 C 
ATOM     21  C   UNL A   1      41.395  32.119  30.657  1.00  0.00     0.029 A 
ATOM     22  C   UNL A   1      42.558  31.240  30.624  1.00  0.00     0.049 A 
ATOM     23  H   UNL A   1      42.648  29.276  29.932  1.00  0.00     0.167 HD
ATOM     24  C   UNL A   1      42.732  25.209  28.339  1.00  0.00     0.031 A 
ATOM     25  C   UNL A   1      43.789  31.575  31.056  1.00  0.00     0.031 A 
ATOM     26  C   UNL A   1      44.090  25.494  28.730  1.00  0.00     0.049 A 
ATOM     27  C   UNL A   1      44.895  30.565  30.959  1.00  0.00     0.074 A 
ATOM     28  C   UNL A   1      45.205  24.681  28.620  1.00  0.00     0.029 A 
ATOM     29  N   UNL A   1      44.518  26.676  29.317  1.00  0.00    -0.354 N 
ATOM     30  N   UNL A   1      44.864  29.350  30.467  1.00  0.00    -0.248 NA
ATOM     31  C   UNL A   1      46.209  30.977  31.471  1.00  0.00     0.031 C 
ATOM     32  C   UNL A   1      46.290  25.342  29.205  1.00  0.00     0.029 A 
ATOM     33  C   UNL A   1      45.871  26.601  29.606  1.00  0.00     0.049 A 
ATOM     34  H   UNL A   1      43.943  27.454  29.503  1.00  0.00     0.167 HD
ATOM     35  C   UNL A   1      46.162  28.865  30.575  1.00  0.00     0.074 A 
ATOM     36  C   UNL A   1      46.953  29.923  31.171  1.00  0.00     0.031 C 
ATOM     37  C   UNL A   1      46.653  27.656  30.204  1.00  0.00     0.031 A 
BRANCH  24  38
ATOM     38  C   UNL A   1      42.414  23.830  27.814  1.00  0.00    -0.014 A 
ATOM     39  C   UNL A   1      42.022  22.783  28.668  1.00  0.00     0.010 A 
ATOM     40  C   UNL A   1      42.484  23.584  26.429  1.00  0.00     0.010 A 
ATOM     41  C   UNL A   1      41.764  21.508  28.156  1.00  0.00     0.020 A 
ATOM     42  C   UNL A   1      42.195  22.320  25.908  1.00  0.00     0.020 A 
ATOM     43  C   UNL A   1      41.859  21.282  26.780  1.00  0.00     0.054 A 
BRANCH  43  44
ATOM     44  S   UNL A   1      41.528  19.615  26.145  1.00  0.00     0.124 S 
ATOM     45  O   UNL A   1      42.508  19.505  25.066  1.00  0.00    -0.237 OA
ATOM     46  O   UNL A   1      41.782  18.773  27.310  1.00  0.00    -0.237 OA
ATOM     47  O   UNL A   1      40.133  19.676  25.714  1.00  0.00    -0.744 OA
ENDBRANCH  43  44
ENDBRANCH  24  38
BRANCH  25  48
ATOM     48  C   UNL A   1      44.031  32.936  31.606  1.00  0.00    -0.014 A 
ATOM     49  C   UNL A   1      44.457  33.980  30.768  1.00  0.00     0.010 A 
ATOM     50  C   UNL A   1      43.808  33.202  32.970  1.00  0.00     0.010 A 
ATOM     51  C   UNL A   1      44.665  35.262  31.283  1.00  0.00     0.020 A 
ATOM     52  C   UNL A   1      43.983  34.490  33.483  1.00  0.00     0.020 A 
ATOM     53  C   UNL A   1      44.421  35.510  32.637  1.00  0.00     0.054 A 
BRANCH  53  54
ATOM     54  S   UNL A   1      44.640  37.196  33.268  1.00  0.00     0.124 S 
ATOM     55  O   UNL A   1      46.072  37.406  33.079  1.00  0.00    -0.237 OA
ATOM     56  O   UNL A   1      43.764  37.973  32.396  1.00  0.00    -0.237 OA
ATOM     57  O   UNL A   1      44.200  37.101  34.658  1.00  0.00    -0.744 OA
ENDBRANCH  53  54
ENDBRANCH  25  48
BRANCH  37  58
ATOM     58  C   UNL A   1      48.133  27.428  30.377  1.00  0.00    -0.014 A 
ATOM     59  C   UNL A   1      49.060  27.779  29.380  1.00  0.00     0.010 A 
ATOM     60  C   UNL A   1      48.604  26.876  31.584  1.00  0.00     0.010 A 
ATOM     61  C   UNL A   1      50.426  27.543  29.569  1.00  0.00     0.020 A 
ATOM     62  C   UNL A   1      49.970  26.671  31.790  1.00  0.00     0.020 A 
ATOM     63  C   UNL A   1      50.871  26.989  30.774  1.00  0.00     0.054 A 
BRANCH  63  64
ATOM     64  S   UNL A   1      52.650  26.720  31.007  1.00  0.00     0.124 S 
ATOM     65  O   UNL A   1      53.141  26.727  29.632  1.00  0.00    -0.237 OA
ATOM     66  O   UNL A   1      53.042  27.867  31.822  1.00  0.00    -0.237 OA
ATOM     67  O   UNL A   1      52.719  25.428  31.686  1.00  0.00    -0.744 OA
ENDBRANCH  63  64
ENDBRANCH  37  58
ENDBRANCH  11  12
ENDBRANCH   4   6
ENDBRANCH   1   2
BRANCH   1  68
ATOM     68  C   UNL A   1      34.060  28.227  26.256  1.00  0.00     0.042 C 
BRANCH  68  69
ATOM     69  C   UNL A   1      33.669  29.160  25.119  1.00  0.00     0.118 C 
BRANCH  69  70
ATOM     70  N   UNL A   1      34.088  28.678  23.807  1.00  0.00    -0.352 N 
ATOM     71  C   UNL A   1      33.394  27.964  22.855  1.00  0.00     0.255 C 
ATOM     72  H   UNL A   1      35.015  28.900  23.562  1.00  0.00     0.163 HD
ATOM     73  O   UNL A   1      33.939  27.650  21.803  1.00  0.00    -0.269 OA
BRANCH  71  74
ATOM     74  C   UNL A   1      31.973  27.646  23.093  1.00  0.00     0.083 A 
ATOM     75  C   UNL A   1      31.037  28.339  22.327  1.00  0.00     0.018 A 
ATOM     76  C   UNL A   1      31.576  26.702  24.069  1.00  0.00     0.146 A 
ATOM     77  C   UNL A   1      29.698  28.160  22.577  1.00  0.00     0.002 A 
ATOM     78  C   UNL A   1      30.192  26.521  24.514  1.00  0.00     0.060 A 
ATOM     79  C   UNL A   1      29.290  27.320  23.625  1.00  0.00     0.019 A 
ATOM     80  Br  UNL A   1      29.565  24.973  26.492  1.00  0.00    -0.047 Br
BRANCH  76  81
ATOM     81  O   UNL A   1      32.549  25.905  24.586  1.00  0.00    -0.488 OA
BRANCH  81  82
ATOM     82  C   UNL A   1      32.646  25.105  23.452  1.00  0.00     0.178 C 
ATOM     83  C   UNL A   1      31.446  23.615  23.794  1.00  0.00     0.074 C 
ATOM     84  C   UNL A   1      34.559  24.854  23.377  1.00  0.00     0.080 C 
ATOM     85  C   UNL A   1      32.232  21.882  24.090  1.00  0.00     0.165 C 
ATOM     86  C   UNL A   1      35.221  23.137  23.851  1.00  0.00     0.072 C 
ATOM     87  O   UNL A   1      34.070  21.739  24.026  1.00  0.00    -0.375 OA
ATOM     88  C   UNL A   1      36.487  22.655  23.029  1.00  0.00     0.036 C 
ATOM     89  C   UNL A   1      36.289  23.400  24.995  1.00  0.00     0.036 C 
ATOM     90  C   UNL A   1      37.133  22.290  24.382  1.00  0.00     0.006 C 
ENDBRANCH  81  82
ENDBRANCH  76  81
ENDBRANCH  71  74
ENDBRANCH  69  70
ENDBRANCH  68  69
ENDBRANCH   1  68
TORSDOF 15
ENDMDL
