MODEL 1
REMARK VINA RESULT:     -12.7      0.000      0.000
REMARK SMILES COc1ccc(-c2nc(C(C)C)cc3nn(CC(=O)NCCCNC(=O)c4ccc(-c5c6nc(c(-c7ccc(S(=O)(=O)[O-])cc7)c7ccc([nH]7)c(-c7ccc(S(=O)(=O)[O-])cc7)c7nc(c(-c8ccc(S(=O)(=O)[O-])cc8)c8ccc5[nH]8)C=C7)C=C6)cc4)c(=O)n23)cc1
REMARK SMILES IDX 22 1 21 2 20 3 18 4 19 5 17 7 16 8 7 9 8 10 89 11 9 12 14 13
REMARK SMILES IDX 87 14 13 15 15 16 88 17 6 18 3 19 4 20 91 21 5 22 90 23 2 24
REMARK SMILES IDX 1 25 10 26 11 27 12 28 23 29 24 30 25 31 26 33 27 34 28 35
REMARK SMILES IDX 86 36 29 37 85 38 30 39 31 40 32 41 79 42 33 43 84 44 78 45
REMARK SMILES IDX 80 46 34 47 83 48 77 49 76 50 35 52 65 53 46 54 64 55 47 56
REMARK SMILES IDX 50 57 63 58 81 59 48 60 49 61 62 63 82 64 51 65 36 66 37 67
REMARK SMILES IDX 45 68 38 69 44 70 39 71 40 72 41 73 42 74 43 75 66 76 67 77
REMARK SMILES IDX 75 78 68 79 74 80 69 81 70 82 71 83 72 84 73 85 52 86 53 87
REMARK SMILES IDX 61 88 54 89 60 90 55 91 56 92 57 93 58 94 59 95
REMARK H PARENT 20 6 24 32 80 51 50 62
REMARK Flexibility Score: inf
ROOT
ATOM      1  C   UNL A   1      35.688  22.784  26.125  1.00  0.00     0.042 C 
ENDROOT
BRANCH   1   2
ATOM      2  C   UNL A   1      34.856  21.836  25.257  1.00  0.00     0.117 C 
BRANCH   2   3
ATOM      3  N   UNL A   1      34.773  22.248  23.867  1.00  0.00    -0.354 N 
ATOM      4  C   UNL A   1      33.861  23.068  23.262  1.00  0.00     0.241 C 
ATOM      5  O   UNL A   1      34.155  23.523  22.153  1.00  0.00    -0.273 OA
ATOM      6  H   UNL A   1      35.472  21.884  23.276  1.00  0.00     0.163 HD
BRANCH   4   7
ATOM      7  C   UNL A   1      32.609  23.540  23.998  1.00  0.00     0.249 C 
BRANCH   7   8
ATOM      8  N   UNL A   1      32.707  24.921  24.398  1.00  0.00    -0.203 N 
ATOM      9  C   UNL A   1      32.018  28.444  24.507  1.00  0.00     0.150 A 
ATOM     10  N   UNL A   1      32.642  29.343  25.215  1.00  0.00    -0.234 NA
ATOM     11  N   UNL A   1      32.368  27.101  24.552  1.00  0.00    -0.226 N 
ATOM     12  C   UNL A   1      33.660  28.932  26.053  1.00  0.00     0.049 A 
ATOM     13  C   UNL A   1      33.379  26.672  25.335  1.00  0.00     0.165 A 
ATOM     14  C   UNL A   1      31.919  25.964  23.880  1.00  0.00     0.352 A 
ATOM     15  C   UNL A   1      34.069  27.658  26.155  1.00  0.00     0.073 A 
ATOM     16  N   UNL A   1      33.642  25.401  25.284  1.00  0.00    -0.149 NA
ATOM     17  O   UNL A   1      31.063  25.857  23.031  1.00  0.00    -0.245 OA
BRANCH   9  18
ATOM     18  C   UNL A   1      30.950  28.855  23.575  1.00  0.00     0.018 A 
ATOM     19  C   UNL A   1      28.862  29.689  21.926  1.00  0.00     0.118 A 
ATOM     20  C   UNL A   1      30.188  29.905  21.541  1.00  0.00     0.047 A 
ATOM     21  C   UNL A   1      28.581  29.003  23.108  1.00  0.00     0.047 A 
ATOM     22  C   UNL A   1      31.237  29.493  22.364  1.00  0.00     0.016 A 
ATOM     23  C   UNL A   1      29.626  28.582  23.933  1.00  0.00     0.016 A 
BRANCH  19  24
ATOM     24  O   UNL A   1      27.899  30.118  21.054  1.00  0.00    -0.497 OA
ATOM     25  C   UNL A   1      28.027  31.487  20.677  1.00  0.00     0.278 C 
ENDBRANCH  19  24
ENDBRANCH   9  18
BRANCH  12  26
ATOM     26  C   UNL A   1      34.324  30.041  26.860  1.00  0.00     0.032 C 
ATOM     27  C   UNL A   1      33.300  30.959  27.536  1.00  0.00     0.014 C 
ATOM     28  C   UNL A   1      35.302  29.469  27.891  1.00  0.00     0.014 C 
ENDBRANCH  12  26
ENDBRANCH   7   8
ENDBRANCH   4   7
ENDBRANCH   2   3
ENDBRANCH   1   2
BRANCH   1  29
ATOM     29  C   UNL A   1      37.097  22.988  25.592  1.00  0.00     0.118 C 
BRANCH  29  30
ATOM     30  N   UNL A   1      38.040  21.969  26.051  1.00  0.00    -0.352 N 
ATOM     31  C   UNL A   1      39.323  22.150  26.532  1.00  0.00     0.251 C 
ATOM     32  H   UNL A   1      37.722  21.038  26.012  1.00  0.00     0.163 HD
ATOM     33  O   UNL A   1      40.101  21.203  26.586  1.00  0.00    -0.269 OA
BRANCH  31  34
ATOM     34  C   UNL A   1      39.746  23.497  26.958  1.00  0.00     0.039 A 
ATOM     35  C   UNL A   1      38.877  24.587  26.870  1.00  0.00     0.014 A 
ATOM     36  C   UNL A   1      41.026  23.656  27.484  1.00  0.00     0.014 A 
ATOM     37  C   UNL A   1      39.272  25.815  27.399  1.00  0.00     0.010 A 
ATOM     38  C   UNL A   1      41.358  24.821  28.131  1.00  0.00     0.010 A 
ATOM     39  C   UNL A   1      40.508  25.921  28.054  1.00  0.00    -0.014 A 
BRANCH  39  40
ATOM     40  C   UNL A   1      40.867  27.134  28.792  1.00  0.00     0.031 A 
ATOM     41  C   UNL A   1      41.993  27.913  28.198  1.00  0.00     0.074 A 
ATOM     42  C   UNL A   1      40.079  27.657  29.759  1.00  0.00     0.049 A 
ATOM     43  N   UNL A   1      43.147  28.174  28.717  1.00  0.00    -0.248 NA
ATOM     44  C   UNL A   1      41.866  28.345  26.794  1.00  0.00     0.031 C 
ATOM     45  C   UNL A   1      38.772  27.160  30.213  1.00  0.00     0.029 A 
ATOM     46  N   UNL A   1      40.198  28.832  30.439  1.00  0.00    -0.354 N 
ATOM     47  C   UNL A   1      43.801  28.999  27.804  1.00  0.00     0.074 A 
ATOM     48  C   UNL A   1      43.057  28.906  26.575  1.00  0.00     0.031 C 
ATOM     49  C   UNL A   1      38.115  28.142  30.866  1.00  0.00     0.029 A 
ATOM     50  C   UNL A   1      39.018  29.262  31.042  1.00  0.00     0.049 A 
ATOM     51  H   UNL A   1      41.044  29.333  30.498  1.00  0.00     0.167 HD
ATOM     52  C   UNL A   1      44.741  29.903  28.202  1.00  0.00     0.031 A 
ATOM     53  C   UNL A   1      38.779  30.466  31.619  1.00  0.00     0.031 A 
ATOM     54  C   UNL A   1      45.183  29.648  29.548  1.00  0.00     0.049 A 
ATOM     55  C   UNL A   1      40.095  31.065  31.932  1.00  0.00     0.074 A 
ATOM     56  C   UNL A   1      45.808  28.606  30.200  1.00  0.00     0.029 A 
ATOM     57  N   UNL A   1      44.625  30.437  30.526  1.00  0.00    -0.354 N 
ATOM     58  N   UNL A   1      40.928  30.558  32.798  1.00  0.00    -0.248 NA
ATOM     59  C   UNL A   1      40.677  31.996  30.981  1.00  0.00     0.031 C 
ATOM     60  C   UNL A   1      45.226  28.581  31.501  1.00  0.00     0.029 A 
ATOM     61  C   UNL A   1      44.326  29.646  31.601  1.00  0.00     0.049 A 
ATOM     62  H   UNL A   1      44.467  31.407  30.463  1.00  0.00     0.167 HD
ATOM     63  C   UNL A   1      42.181  30.750  32.237  1.00  0.00     0.074 A 
ATOM     64  C   UNL A   1      41.973  31.750  31.192  1.00  0.00     0.031 C 
ATOM     65  C   UNL A   1      43.203  29.878  32.486  1.00  0.00     0.031 A 
BRANCH  52  66
ATOM     66  C   UNL A   1      44.917  31.271  27.567  1.00  0.00    -0.014 A 
ATOM     67  C   UNL A   1      46.199  31.636  27.099  1.00  0.00     0.010 A 
ATOM     68  C   UNL A   1      43.971  32.308  27.691  1.00  0.00     0.010 A 
ATOM     69  C   UNL A   1      46.541  32.977  26.874  1.00  0.00     0.020 A 
ATOM     70  C   UNL A   1      44.287  33.643  27.426  1.00  0.00     0.020 A 
ATOM     71  C   UNL A   1      45.584  33.974  27.061  1.00  0.00     0.054 A 
BRANCH  71  72
ATOM     72  S   UNL A   1      46.067  35.710  26.899  1.00  0.00     0.124 S 
ATOM     73  O   UNL A   1      46.872  35.909  28.100  1.00  0.00    -0.237 OA
ATOM     74  O   UNL A   1      46.800  35.710  25.635  1.00  0.00    -0.237 OA
ATOM     75  O   UNL A   1      44.790  36.418  26.874  1.00  0.00    -0.744 OA
ENDBRANCH  71  72
ENDBRANCH  52  66
BRANCH  53  76
ATOM     76  C   UNL A   1      37.511  31.237  31.669  1.00  0.00    -0.014 A 
ATOM     77  C   UNL A   1      36.832  31.448  32.884  1.00  0.00     0.010 A 
ATOM     78  C   UNL A   1      37.112  32.004  30.555  1.00  0.00     0.010 A 
ATOM     79  C   UNL A   1      35.831  32.431  32.993  1.00  0.00     0.020 A 
ATOM     80  C   UNL A   1      36.112  32.981  30.656  1.00  0.00     0.020 A 
ATOM     81  C   UNL A   1      35.491  33.205  31.881  1.00  0.00     0.054 A 
BRANCH  81  82
ATOM     82  S   UNL A   1      34.319  34.583  32.074  1.00  0.00     0.124 S 
ATOM     83  O   UNL A   1      33.252  33.976  32.866  1.00  0.00    -0.237 OA
ATOM     84  O   UNL A   1      35.120  35.590  32.763  1.00  0.00    -0.237 OA
ATOM     85  O   UNL A   1      33.954  34.921  30.700  1.00  0.00    -0.744 OA
ENDBRANCH  81  82
ENDBRANCH  53  76
BRANCH  65  86
ATOM     86  C   UNL A   1      43.063  28.925  33.651  1.00  0.00    -0.014 A 
ATOM     87  C   UNL A   1      43.582  29.165  34.938  1.00  0.00     0.010 A 
ATOM     88  C   UNL A   1      42.240  27.802  33.459  1.00  0.00     0.010 A 
ATOM     89  C   UNL A   1      43.300  28.288  35.998  1.00  0.00     0.020 A 
ATOM     90  C   UNL A   1      41.940  26.936  34.512  1.00  0.00     0.020 A 
ATOM     91  C   UNL A   1      42.478  27.178  35.776  1.00  0.00     0.054 A 
BRANCH  91  92
ATOM     92  S   UNL A   1      42.073  26.069  37.155  1.00  0.00     0.124 S 
ATOM     93  O   UNL A   1      43.038  26.466  38.176  1.00  0.00    -0.237 OA
ATOM     94  O   UNL A   1      40.679  26.403  37.442  1.00  0.00    -0.237 OA
ATOM     95  O   UNL A   1      42.276  24.732  36.600  1.00  0.00    -0.744 OA
ENDBRANCH  91  92
ENDBRANCH  65  86
ENDBRANCH  39  40
ENDBRANCH  31  34
ENDBRANCH  29  30
ENDBRANCH   1  29
TORSDOF 17
ENDMDL
MODEL 2
REMARK VINA RESULT:     -12.4      4.514     11.625
REMARK SMILES COc1ccc(-c2nc(C(C)C)cc3nn(CC(=O)NCCCNC(=O)c4ccc(-c5c6nc(c(-c7ccc(S(=O)(=O)[O-])cc7)c7ccc([nH]7)c(-c7ccc(S(=O)(=O)[O-])cc7)c7nc(c(-c8ccc(S(=O)(=O)[O-])cc8)c8ccc5[nH]8)C=C7)C=C6)cc4)c(=O)n23)cc1
REMARK SMILES IDX 22 1 21 2 20 3 18 4 19 5 17 7 16 8 7 9 8 10 89 11 9 12 14 13
REMARK SMILES IDX 87 14 13 15 15 16 88 17 6 18 3 19 4 20 91 21 5 22 90 23 2 24
REMARK SMILES IDX 1 25 10 26 11 27 12 28 23 29 24 30 25 31 26 33 27 34 28 35
REMARK SMILES IDX 86 36 29 37 85 38 30 39 31 40 32 41 79 42 33 43 84 44 78 45
REMARK SMILES IDX 80 46 34 47 83 48 77 49 76 50 35 52 65 53 46 54 64 55 47 56
REMARK SMILES IDX 50 57 63 58 81 59 48 60 49 61 62 63 82 64 51 65 36 66 37 67
REMARK SMILES IDX 45 68 38 69 44 70 39 71 40 72 41 73 42 74 43 75 66 76 67 77
REMARK SMILES IDX 75 78 68 79 74 80 69 81 70 82 71 83 72 84 73 85 52 86 53 87
REMARK SMILES IDX 61 88 54 89 60 90 55 91 56 92 57 93 58 94 59 95
REMARK H PARENT 20 6 24 32 80 51 50 62
REMARK Flexibility Score: inf
ROOT
ATOM      1  C   UNL A   1      34.018  35.125  28.433  1.00  0.00     0.042 C 
ENDROOT
BRANCH   1   2
ATOM      2  C   UNL A   1      33.083  34.888  29.623  1.00  0.00     0.117 C 
BRANCH   2   3
ATOM      3  N   UNL A   1      32.976  36.032  30.511  1.00  0.00    -0.354 N 
ATOM      4  C   UNL A   1      33.262  36.119  31.846  1.00  0.00     0.241 C 
ATOM      5  O   UNL A   1      33.392  37.248  32.325  1.00  0.00    -0.273 OA
ATOM      6  H   UNL A   1      32.651  36.862  30.094  1.00  0.00     0.163 HD
BRANCH   4   7
ATOM      7  C   UNL A   1      33.576  34.873  32.671  1.00  0.00     0.249 C 
BRANCH   7   8
ATOM      8  N   UNL A   1      34.989  34.588  32.701  1.00  0.00    -0.203 N 
ATOM      9  C   UNL A   1      38.189  33.592  33.993  1.00  0.00     0.150 A 
ATOM     10  N   UNL A   1      39.331  33.621  33.365  1.00  0.00    -0.234 NA
ATOM     11  N   UNL A   1      37.006  33.996  33.386  1.00  0.00    -0.226 N 
ATOM     12  C   UNL A   1      39.349  34.039  32.049  1.00  0.00     0.049 A 
ATOM     13  C   UNL A   1      36.996  34.442  32.113  1.00  0.00     0.165 A 
ATOM     14  C   UNL A   1      35.688  34.116  33.826  1.00  0.00     0.352 A 
ATOM     15  C   UNL A   1      38.258  34.453  31.386  1.00  0.00     0.073 A 
ATOM     16  N   UNL A   1      35.843  34.819  31.649  1.00  0.00    -0.149 NA
ATOM     17  O   UNL A   1      35.215  33.892  34.917  1.00  0.00    -0.245 OA
BRANCH   9  18
ATOM     18  C   UNL A   1      38.140  33.184  35.411  1.00  0.00     0.018 A 
ATOM     19  C   UNL A   1      38.135  32.304  38.056  1.00  0.00     0.118 A 
ATOM     20  C   UNL A   1      38.320  33.659  37.769  1.00  0.00     0.047 A 
ATOM     21  C   UNL A   1      37.894  31.398  37.022  1.00  0.00     0.047 A 
ATOM     22  C   UNL A   1      38.327  34.105  36.446  1.00  0.00     0.016 A 
ATOM     23  C   UNL A   1      37.892  31.838  35.698  1.00  0.00     0.016 A 
BRANCH  19  24
ATOM     24  O   UNL A   1      38.135  31.958  39.379  1.00  0.00    -0.497 OA
ATOM     25  C   UNL A   1      36.984  31.220  39.784  1.00  0.00     0.278 C 
ENDBRANCH  19  24
ENDBRANCH   9  18
BRANCH  12  26
ATOM     26  C   UNL A   1      40.720  34.025  31.382  1.00  0.00     0.032 C 
ATOM     27  C   UNL A   1      40.633  34.291  29.876  1.00  0.00     0.014 C 
ATOM     28  C   UNL A   1      41.675  35.017  32.053  1.00  0.00     0.014 C 
ENDBRANCH  12  26
ENDBRANCH   7   8
ENDBRANCH   4   7
ENDBRANCH   2   3
ENDBRANCH   1   2
BRANCH   1  29
ATOM     29  C   UNL A   1      34.798  33.880  28.040  1.00  0.00     0.118 C 
BRANCH  29  30
ATOM     30  N   UNL A   1      34.023  32.648  28.173  1.00  0.00    -0.352 N 
ATOM     31  C   UNL A   1      34.472  31.345  28.076  1.00  0.00     0.251 C 
ATOM     32  H   UNL A   1      33.062  32.761  28.356  1.00  0.00     0.163 HD
ATOM     33  O   UNL A   1      33.675  30.429  27.902  1.00  0.00    -0.269 OA
BRANCH  31  34
ATOM     34  C   UNL A   1      35.920  31.075  28.165  1.00  0.00     0.039 A 
ATOM     35  C   UNL A   1      36.782  31.974  28.798  1.00  0.00     0.014 A 
ATOM     36  C   UNL A   1      36.408  29.886  27.630  1.00  0.00     0.014 A 
ATOM     37  C   UNL A   1      38.121  31.624  28.971  1.00  0.00     0.010 A 
ATOM     38  C   UNL A   1      37.687  29.480  27.926  1.00  0.00     0.010 A 
ATOM     39  C   UNL A   1      38.564  30.359  28.554  1.00  0.00    -0.014 A 
BRANCH  39  40
ATOM     40  C   UNL A   1      39.906  29.882  28.897  1.00  0.00     0.031 A 
ATOM     41  C   UNL A   1      40.176  29.786  30.362  1.00  0.00     0.074 A 
ATOM     42  C   UNL A   1      40.728  29.311  27.987  1.00  0.00     0.049 A 
ATOM     43  N   UNL A   1      41.058  30.426  31.056  1.00  0.00    -0.248 NA
ATOM     44  C   UNL A   1      39.260  28.969  31.179  1.00  0.00     0.031 C 
ATOM     45  C   UNL A   1      40.447  29.047  26.569  1.00  0.00     0.029 A 
ATOM     46  N   UNL A   1      41.935  28.703  28.165  1.00  0.00    -0.354 N 
ATOM     47  C   UNL A   1      40.966  29.922  32.352  1.00  0.00     0.074 A 
ATOM     48  C   UNL A   1      39.730  29.186  32.409  1.00  0.00     0.031 C 
ATOM     49  C   UNL A   1      41.307  28.117  26.101  1.00  0.00     0.029 A 
ATOM     50  C   UNL A   1      42.308  27.863  27.118  1.00  0.00     0.049 A 
ATOM     51  H   UNL A   1      42.493  28.845  28.964  1.00  0.00     0.167 HD
ATOM     52  C   UNL A   1      42.037  29.918  33.196  1.00  0.00     0.031 A 
ATOM     53  C   UNL A   1      43.346  26.991  27.091  1.00  0.00     0.031 A 
ATOM     54  C   UNL A   1      43.092  30.771  32.714  1.00  0.00     0.049 A 
ATOM     55  C   UNL A   1      44.293  27.412  28.147  1.00  0.00     0.074 A 
ATOM     56  C   UNL A   1      43.225  32.116  32.439  1.00  0.00     0.029 A 
ATOM     57  N   UNL A   1      44.133  30.141  32.074  1.00  0.00    -0.354 N 
ATOM     58  N   UNL A   1      44.943  28.542  28.121  1.00  0.00    -0.248 NA
ATOM     59  C   UNL A   1      44.208  26.774  29.450  1.00  0.00     0.031 C 
ATOM     60  C   UNL A   1      44.076  32.178  31.298  1.00  0.00     0.029 A 
ATOM     61  C   UNL A   1      44.472  30.878  30.973  1.00  0.00     0.049 A 
ATOM     62  H   UNL A   1      44.561  29.301  32.361  1.00  0.00     0.167 HD
ATOM     63  C   UNL A   1      44.960  28.971  29.439  1.00  0.00     0.074 A 
ATOM     64  C   UNL A   1      44.612  27.787  30.221  1.00  0.00     0.031 C 
ATOM     65  C   UNL A   1      44.979  30.303  29.743  1.00  0.00     0.031 A 
BRANCH  52  66
ATOM     66  C   UNL A   1      42.322  28.807  34.191  1.00  0.00    -0.014 A 
ATOM     67  C   UNL A   1      42.801  27.572  33.702  1.00  0.00     0.010 A 
ATOM     68  C   UNL A   1      41.855  28.823  35.520  1.00  0.00     0.010 A 
ATOM     69  C   UNL A   1      42.714  26.399  34.467  1.00  0.00     0.020 A 
ATOM     70  C   UNL A   1      41.806  27.670  36.308  1.00  0.00     0.020 A 
ATOM     71  C   UNL A   1      42.195  26.456  35.759  1.00  0.00     0.054 A 
BRANCH  71  72
ATOM     72  S   UNL A   1      41.961  24.922  36.690  1.00  0.00     0.124 S 
ATOM     73  O   UNL A   1      40.787  25.240  37.498  1.00  0.00    -0.237 OA
ATOM     74  O   UNL A   1      41.755  23.943  35.626  1.00  0.00    -0.237 OA
ATOM     75  O   UNL A   1      43.213  24.778  37.430  1.00  0.00    -0.744 OA
ENDBRANCH  71  72
ENDBRANCH  52  66
BRANCH  53  76
ATOM     76  C   UNL A   1      43.439  25.679  26.403  1.00  0.00    -0.014 A 
ATOM     77  C   UNL A   1      44.354  25.467  25.354  1.00  0.00     0.010 A 
ATOM     78  C   UNL A   1      42.817  24.545  26.967  1.00  0.00     0.010 A 
ATOM     79  C   UNL A   1      44.677  24.167  24.925  1.00  0.00     0.020 A 
ATOM     80  C   UNL A   1      43.130  23.247  26.540  1.00  0.00     0.020 A 
ATOM     81  C   UNL A   1      44.076  23.063  25.535  1.00  0.00     0.054 A 
BRANCH  81  82
ATOM     82  S   UNL A   1      44.623  21.386  25.091  1.00  0.00     0.124 S 
ATOM     83  O   UNL A   1      43.653  20.546  25.788  1.00  0.00    -0.237 OA
ATOM     84  O   UNL A   1      44.519  21.392  23.634  1.00  0.00    -0.237 OA
ATOM     85  O   UNL A   1      45.987  21.318  25.611  1.00  0.00    -0.744 OA
ENDBRANCH  81  82
ENDBRANCH  53  76
BRANCH  65  86
ATOM     86  C   UNL A   1      45.347  31.282  28.652  1.00  0.00    -0.014 A 
ATOM     87  C   UNL A   1      44.432  31.821  27.727  1.00  0.00     0.010 A 
ATOM     88  C   UNL A   1      46.661  31.784  28.664  1.00  0.00     0.010 A 
ATOM     89  C   UNL A   1      44.830  32.821  26.825  1.00  0.00     0.020 A 
ATOM     90  C   UNL A   1      47.058  32.791  27.784  1.00  0.00     0.020 A 
ATOM     91  C   UNL A   1      46.144  33.300  26.861  1.00  0.00     0.054 A 
BRANCH  91  92
ATOM     92  S   UNL A   1      46.648  34.626  25.729  1.00  0.00     0.124 S 
ATOM     93  O   UNL A   1      46.450  35.826  26.537  1.00  0.00    -0.237 OA
ATOM     94  O   UNL A   1      48.040  34.289  25.433  1.00  0.00    -0.237 OA
ATOM     95  O   UNL A   1      45.734  34.485  24.597  1.00  0.00    -0.744 OA
ENDBRANCH  91  92
ENDBRANCH  65  86
ENDBRANCH  39  40
ENDBRANCH  31  34
ENDBRANCH  29  30
ENDBRANCH   1  29
TORSDOF 17
ENDMDL
MODEL 3
REMARK VINA RESULT:     -12.3      1.285      2.833
REMARK SMILES COc1ccc(-c2nc(C(C)C)cc3nn(CC(=O)NCCCNC(=O)c4ccc(-c5c6nc(c(-c7ccc(S(=O)(=O)[O-])cc7)c7ccc([nH]7)c(-c7ccc(S(=O)(=O)[O-])cc7)c7nc(c(-c8ccc(S(=O)(=O)[O-])cc8)c8ccc5[nH]8)C=C7)C=C6)cc4)c(=O)n23)cc1
REMARK SMILES IDX 22 1 21 2 20 3 18 4 19 5 17 7 16 8 7 9 8 10 89 11 9 12 14 13
REMARK SMILES IDX 87 14 13 15 15 16 88 17 6 18 3 19 4 20 91 21 5 22 90 23 2 24
REMARK SMILES IDX 1 25 10 26 11 27 12 28 23 29 24 30 25 31 26 33 27 34 28 35
REMARK SMILES IDX 86 36 29 37 85 38 30 39 31 40 32 41 79 42 33 43 84 44 78 45
REMARK SMILES IDX 80 46 34 47 83 48 77 49 76 50 35 52 65 53 46 54 64 55 47 56
REMARK SMILES IDX 50 57 63 58 81 59 48 60 49 61 62 63 82 64 51 65 36 66 37 67
REMARK SMILES IDX 45 68 38 69 44 70 39 71 40 72 41 73 42 74 43 75 66 76 67 77
REMARK SMILES IDX 75 78 68 79 74 80 69 81 70 82 71 83 72 84 73 85 52 86 53 87
REMARK SMILES IDX 61 88 54 89 60 90 55 91 56 92 57 93 58 94 59 95
REMARK H PARENT 20 6 24 32 80 51 50 62
REMARK Flexibility Score: inf
ROOT
ATOM      1  C   UNL A   1      35.584  22.999  26.459  1.00  0.00     0.042 C 
ENDROOT
BRANCH   1   2
ATOM      2  C   UNL A   1      34.816  21.746  26.029  1.00  0.00     0.117 C 
BRANCH   2   3
ATOM      3  N   UNL A   1      34.267  21.836  24.687  1.00  0.00    -0.354 N 
ATOM      4  C   UNL A   1      33.112  22.434  24.264  1.00  0.00     0.241 C 
ATOM      5  O   UNL A   1      32.998  22.656  23.056  1.00  0.00    -0.273 OA
ATOM      6  H   UNL A   1      34.802  21.404  23.982  1.00  0.00     0.163 HD
BRANCH   4   7
ATOM      7  C   UNL A   1      32.083  22.962  25.261  1.00  0.00     0.249 C 
BRANCH   7   8
ATOM      8  N   UNL A   1      31.610  24.277  24.903  1.00  0.00    -0.203 N 
ATOM      9  C   UNL A   1      31.412  27.861  24.794  1.00  0.00     0.150 A 
ATOM     10  N   UNL A   1      30.513  28.577  24.180  1.00  0.00    -0.234 NA
ATOM     11  N   UNL A   1      31.394  26.472  24.759  1.00  0.00    -0.226 N 
ATOM     12  C   UNL A   1      29.537  27.927  23.451  1.00  0.00     0.049 A 
ATOM     13  C   UNL A   1      30.434  25.807  24.085  1.00  0.00     0.165 A 
ATOM     14  C   UNL A   1      32.176  25.482  25.353  1.00  0.00     0.352 A 
ATOM     15  C   UNL A   1      29.439  26.591  23.367  1.00  0.00     0.073 A 
ATOM     16  N   UNL A   1      30.494  24.510  24.137  1.00  0.00    -0.149 NA
ATOM     17  O   UNL A   1      33.123  25.591  26.100  1.00  0.00    -0.245 OA
BRANCH   9  18
ATOM     18  C   UNL A   1      32.448  28.524  25.611  1.00  0.00     0.018 A 
ATOM     19  C   UNL A   1      34.346  29.716  27.268  1.00  0.00     0.118 A 
ATOM     20  C   UNL A   1      34.743  29.100  26.080  1.00  0.00     0.047 A 
ATOM     21  C   UNL A   1      32.992  29.788  27.600  1.00  0.00     0.047 A 
ATOM     22  C   UNL A   1      33.797  28.498  25.247  1.00  0.00     0.016 A 
ATOM     23  C   UNL A   1      32.040  29.195  26.768  1.00  0.00     0.016 A 
BRANCH  19  24
ATOM     24  O   UNL A   1      35.338  30.287  28.017  1.00  0.00    -0.497 OA
ATOM     25  C   UNL A   1      34.949  31.492  28.673  1.00  0.00     0.278 C 
ENDBRANCH  19  24
ENDBRANCH   9  18
BRANCH  12  26
ATOM     26  C   UNL A   1      28.538  28.838  22.746  1.00  0.00     0.032 C 
ATOM     27  C   UNL A   1      27.102  28.605  23.228  1.00  0.00     0.014 C 
ATOM     28  C   UNL A   1      28.927  30.311  22.896  1.00  0.00     0.014 C 
ENDBRANCH  12  26
ENDBRANCH   7   8
ENDBRANCH   4   7
ENDBRANCH   2   3
ENDBRANCH   1   2
BRANCH   1  29
ATOM     29  C   UNL A   1      36.940  23.120  25.781  1.00  0.00     0.118 C 
BRANCH  29  30
ATOM     30  N   UNL A   1      37.877  22.069  26.171  1.00  0.00    -0.352 N 
ATOM     31  C   UNL A   1      39.192  22.205  26.571  1.00  0.00     0.251 C 
ATOM     32  H   UNL A   1      37.526  21.149  26.147  1.00  0.00     0.163 HD
ATOM     33  O   UNL A   1      39.942  21.234  26.569  1.00  0.00    -0.269 OA
BRANCH  31  34
ATOM     34  C   UNL A   1      39.685  23.534  26.979  1.00  0.00     0.039 A 
ATOM     35  C   UNL A   1      38.904  24.679  26.797  1.00  0.00     0.014 A 
ATOM     36  C   UNL A   1      40.937  23.623  27.581  1.00  0.00     0.014 A 
ATOM     37  C   UNL A   1      39.353  25.896  27.309  1.00  0.00     0.010 A 
ATOM     38  C   UNL A   1      41.312  24.786  28.208  1.00  0.00     0.010 A 
ATOM     39  C   UNL A   1      40.550  25.939  28.040  1.00  0.00    -0.014 A 
BRANCH  39  40
ATOM     40  C   UNL A   1      40.949  27.151  28.758  1.00  0.00     0.031 A 
ATOM     41  C   UNL A   1      42.118  27.868  28.167  1.00  0.00     0.074 A 
ATOM     42  C   UNL A   1      40.168  27.728  29.699  1.00  0.00     0.049 A 
ATOM     43  N   UNL A   1      43.273  28.090  28.701  1.00  0.00    -0.248 NA
ATOM     44  C   UNL A   1      42.032  28.274  26.753  1.00  0.00     0.031 C 
ATOM     45  C   UNL A   1      38.834  27.298  30.142  1.00  0.00     0.029 A 
ATOM     46  N   UNL A   1      40.328  28.912  30.357  1.00  0.00    -0.354 N 
ATOM     47  C   UNL A   1      43.978  28.866  27.782  1.00  0.00     0.074 A 
ATOM     48  C   UNL A   1      43.250  28.779  26.543  1.00  0.00     0.031 C 
ATOM     49  C   UNL A   1      38.210  28.321  30.763  1.00  0.00     0.029 A 
ATOM     50  C   UNL A   1      39.157  29.405  30.931  1.00  0.00     0.049 A 
ATOM     51  H   UNL A   1      41.193  29.376  30.421  1.00  0.00     0.167 HD
ATOM     52  C   UNL A   1      44.949  29.738  28.177  1.00  0.00     0.031 A 
ATOM     53  C   UNL A   1      38.961  30.630  31.478  1.00  0.00     0.031 A 
ATOM     54  C   UNL A   1      45.357  29.493  29.536  1.00  0.00     0.049 A 
ATOM     55  C   UNL A   1      40.297  31.179  31.801  1.00  0.00     0.074 A 
ATOM     56  C   UNL A   1      45.925  28.440  30.221  1.00  0.00     0.029 A 
ATOM     57  N   UNL A   1      44.818  30.326  30.488  1.00  0.00    -0.354 N 
ATOM     58  N   UNL A   1      41.093  30.656  32.692  1.00  0.00    -0.248 NA
ATOM     59  C   UNL A   1      40.935  32.063  30.841  1.00  0.00     0.031 C 
ATOM     60  C   UNL A   1      45.321  28.468  31.512  1.00  0.00     0.029 A 
ATOM     61  C   UNL A   1      44.467  29.572  31.574  1.00  0.00     0.049 A 
ATOM     62  H   UNL A   1      44.703  31.301  30.401  1.00  0.00     0.167 HD
ATOM     63  C   UNL A   1      42.362  30.781  32.149  1.00  0.00     0.074 A 
ATOM     64  C   UNL A   1      42.214  31.766  31.079  1.00  0.00     0.031 C 
ATOM     65  C   UNL A   1      43.341  29.872  32.434  1.00  0.00     0.031 A 
BRANCH  52  66
ATOM     66  C   UNL A   1      45.195  31.082  27.518  1.00  0.00    -0.014 A 
ATOM     67  C   UNL A   1      46.522  31.443  27.197  1.00  0.00     0.010 A 
ATOM     68  C   UNL A   1      44.235  32.114  27.485  1.00  0.00     0.010 A 
ATOM     69  C   UNL A   1      46.882  32.778  26.964  1.00  0.00     0.020 A 
ATOM     70  C   UNL A   1      44.574  33.441  27.209  1.00  0.00     0.020 A 
ATOM     71  C   UNL A   1      45.905  33.771  26.994  1.00  0.00     0.054 A 
BRANCH  71  72
ATOM     72  S   UNL A   1      46.394  35.505  26.827  1.00  0.00     0.124 S 
ATOM     73  O   UNL A   1      47.230  35.464  25.630  1.00  0.00    -0.237 OA
ATOM     74  O   UNL A   1      45.106  36.177  26.679  1.00  0.00    -0.237 OA
ATOM     75  O   UNL A   1      47.098  35.783  28.076  1.00  0.00    -0.744 OA
ENDBRANCH  71  72
ENDBRANCH  52  66
BRANCH  53  76
ATOM     76  C   UNL A   1      37.727  31.456  31.490  1.00  0.00    -0.014 A 
ATOM     77  C   UNL A   1      36.670  31.177  32.377  1.00  0.00     0.010 A 
ATOM     78  C   UNL A   1      37.705  32.694  30.815  1.00  0.00     0.010 A 
ATOM     79  C   UNL A   1      35.660  32.125  32.622  1.00  0.00     0.020 A 
ATOM     80  C   UNL A   1      36.700  33.641  31.050  1.00  0.00     0.020 A 
ATOM     81  C   UNL A   1      35.693  33.361  31.970  1.00  0.00     0.054 A 
BRANCH  81  82
ATOM     82  S   UNL A   1      34.481  34.641  32.418  1.00  0.00     0.124 S 
ATOM     83  O   UNL A   1      34.092  35.173  31.115  1.00  0.00    -0.237 OA
ATOM     84  O   UNL A   1      33.453  33.878  33.119  1.00  0.00    -0.237 OA
ATOM     85  O   UNL A   1      35.246  35.561  33.259  1.00  0.00    -0.744 OA
ENDBRANCH  81  82
ENDBRANCH  53  76
BRANCH  65  86
ATOM     86  C   UNL A   1      43.140  28.951  33.616  1.00  0.00    -0.014 A 
ATOM     87  C   UNL A   1      43.584  29.231  34.923  1.00  0.00     0.010 A 
ATOM     88  C   UNL A   1      42.336  27.816  33.410  1.00  0.00     0.010 A 
ATOM     89  C   UNL A   1      43.247  28.382  35.990  1.00  0.00     0.020 A 
ATOM     90  C   UNL A   1      41.981  26.979  34.469  1.00  0.00     0.020 A 
ATOM     91  C   UNL A   1      42.446  27.260  35.754  1.00  0.00     0.054 A 
BRANCH  91  92
ATOM     92  S   UNL A   1      41.969  26.188  37.139  1.00  0.00     0.124 S 
ATOM     93  O   UNL A   1      43.041  26.419  38.103  1.00  0.00    -0.237 OA
ATOM     94  O   UNL A   1      40.658  26.711  37.519  1.00  0.00    -0.237 OA
ATOM     95  O   UNL A   1      41.944  24.850  36.552  1.00  0.00    -0.744 OA
ENDBRANCH  91  92
ENDBRANCH  65  86
ENDBRANCH  39  40
ENDBRANCH  31  34
ENDBRANCH  29  30
ENDBRANCH   1  29
TORSDOF 17
ENDMDL
