MODEL 1
REMARK VINA RESULT:     -12.6      0.000      0.000
REMARK SMILES C[NH+]1CCC(NC(=O)N[C@@H]2C=C[C@H](C(=O)NCCCNC(=O)c3ccc(-c4c5nc(c(-c6ccc(S(=O)(=O)[O-])cc6)c6ccc([nH]6)c(-c6ccc(S(=O)(=O)[O-])cc6)c6nc(c(-c7ccc(S(=O)(=O)[O-])cc7)c7ccc4[nH]7)C=C6)C=C5)cc3)C2)CC1
REMARK SMILES IDX 18 1 17 2 16 3 14 4 15 5 13 7 10 8 11 9 83 10 12 11 9 12
REMARK SMILES IDX 6 13 7 14 8 16 5 18 1 19 2 20 3 21 85 22 4 24 84 25 19 26
REMARK SMILES IDX 20 27 21 28 22 30 23 31 24 32 82 33 25 34 81 35 26 36 27 37
REMARK SMILES IDX 28 38 75 39 29 40 80 41 74 42 76 43 30 44 79 45 73 46 72 47
REMARK SMILES IDX 31 49 61 50 42 51 60 52 43 53 46 54 59 55 77 56 44 57 45 58
REMARK SMILES IDX 58 60 78 61 47 62 32 63 33 64 41 65 34 66 40 67 35 68 36 69
REMARK SMILES IDX 37 70 38 71 39 72 62 73 63 74 71 75 64 76 70 77 65 78 66 79
REMARK SMILES IDX 67 80 68 81 69 82 48 83 49 84 57 85 50 86 56 87 51 88 52 89
REMARK SMILES IDX 53 90 54 91 55 92
REMARK H PARENT 16 6 6 15 9 17 2 23 20 29 76 48 46 59
REMARK Flexibility Score: inf
ROOT
ATOM      1  C   UNL A   1      37.483  23.735  25.437  1.00  0.00     0.042 C 
ENDROOT
BRANCH   1   2
ATOM      2  C   UNL A   1      37.179  22.245  25.331  1.00  0.00     0.117 C 
BRANCH   2   3
ATOM      3  N   UNL A   1      36.324  21.795  26.413  1.00  0.00    -0.356 N 
ATOM      4  C   UNL A   1      34.964  21.870  26.513  1.00  0.00     0.227 C 
ATOM      5  O   UNL A   1      34.424  21.462  27.541  1.00  0.00    -0.274 OA
ATOM      6  H   UNL A   1      36.785  21.379  27.176  1.00  0.00     0.163 HD
BRANCH   4   7
ATOM      7  C   UNL A   1      34.183  22.398  25.317  1.00  0.00     0.103 C 
ATOM      8  C   UNL A   1      31.744  22.737  25.262  1.00  0.00     0.107 C 
ATOM      9  C   UNL A   1      32.145  21.417  24.690  1.00  0.00    -0.006 C 
ATOM     10  C   UNL A   1      33.061  23.359  25.734  1.00  0.00     0.047 C 
ATOM     11  C   UNL A   1      33.466  21.240  24.692  1.00  0.00    -0.016 C 
BRANCH   8  12
ATOM     12  N   UNL A   1      30.778  22.510  26.309  1.00  0.00    -0.332 N 
ATOM     13  N   UNL A   1      29.704  24.603  26.622  1.00  0.00    -0.335 N 
ATOM     14  C   UNL A   1      29.891  23.305  26.934  1.00  0.00     0.315 C 
ATOM     15  H   UNL A   1      29.021  25.052  27.170  1.00  0.00     0.165 HD
ATOM     16  O   UNL A   1      29.200  22.824  27.834  1.00  0.00    -0.249 OA
ATOM     17  H   UNL A   1      30.766  21.581  26.634  1.00  0.00     0.165 HD
BRANCH  13  18
ATOM     18  C   UNL A   1      30.321  25.459  25.631  1.00  0.00     0.095 C 
ATOM     19  C   UNL A   1      31.945  28.287  22.990  1.00  0.00     0.332 C 
ATOM     20  N   UNL A   1      31.081  27.752  24.048  1.00  0.00    -0.337 N 
ATOM     21  C   UNL A   1      31.918  27.302  25.174  1.00  0.00     0.264 C 
ATOM     22  C   UNL A   1      30.216  26.693  23.503  1.00  0.00     0.264 C 
ATOM     23  H   UNL A   1      30.458  28.476  24.406  1.00  0.00     0.347 HD
ATOM     24  C   UNL A   1      31.105  26.603  26.263  1.00  0.00     0.086 C 
ATOM     25  C   UNL A   1      29.363  26.022  24.590  1.00  0.00     0.086 C 
ENDBRANCH  13  18
ENDBRANCH   8  12
ENDBRANCH   4   7
ENDBRANCH   2   3
ENDBRANCH   1   2
BRANCH   1  26
ATOM     26  C   UNL A   1      38.440  24.081  26.574  1.00  0.00     0.118 C 
BRANCH  26  27
ATOM     27  N   UNL A   1      39.833  24.095  26.143  1.00  0.00    -0.352 N 
ATOM     28  C   UNL A   1      40.836  24.988  26.422  1.00  0.00     0.251 C 
ATOM     29  H   UNL A   1      40.094  23.346  25.561  1.00  0.00     0.163 HD
ATOM     30  O   UNL A   1      41.883  24.936  25.785  1.00  0.00    -0.269 OA
BRANCH  28  31
ATOM     31  C   UNL A   1      40.651  26.012  27.470  1.00  0.00     0.039 A 
ATOM     32  C   UNL A   1      39.773  25.750  28.524  1.00  0.00     0.014 A 
ATOM     33  C   UNL A   1      41.324  27.234  27.405  1.00  0.00     0.014 A 
ATOM     34  C   UNL A   1      39.618  26.689  29.544  1.00  0.00     0.010 A 
ATOM     35  C   UNL A   1      41.234  28.133  28.463  1.00  0.00     0.010 A 
ATOM     36  C   UNL A   1      40.374  27.874  29.540  1.00  0.00    -0.014 A 
BRANCH  36  37
ATOM     37  C   UNL A   1      40.282  28.851  30.653  1.00  0.00     0.031 A 
ATOM     38  C   UNL A   1      41.182  28.723  31.852  1.00  0.00     0.074 A 
ATOM     39  C   UNL A   1      39.345  29.819  30.611  1.00  0.00     0.049 A 
ATOM     40  N   UNL A   1      41.215  29.450  32.939  1.00  0.00    -0.248 NA
ATOM     41  C   UNL A   1      42.154  27.617  31.837  1.00  0.00     0.031 C 
ATOM     42  C   UNL A   1      38.390  30.028  29.519  1.00  0.00     0.029 A 
ATOM     43  N   UNL A   1      39.039  30.808  31.511  1.00  0.00    -0.354 N 
ATOM     44  C   UNL A   1      42.198  28.883  33.742  1.00  0.00     0.074 A 
ATOM     45  C   UNL A   1      42.693  27.717  33.043  1.00  0.00     0.031 C 
ATOM     46  C   UNL A   1      37.632  31.100  29.797  1.00  0.00     0.029 A 
ATOM     47  C   UNL A   1      38.011  31.624  31.105  1.00  0.00     0.049 A 
ATOM     48  H   UNL A   1      39.511  30.922  32.368  1.00  0.00     0.167 HD
ATOM     49  C   UNL A   1      42.662  29.304  34.944  1.00  0.00     0.031 A 
ATOM     50  C   UNL A   1      37.433  32.677  31.718  1.00  0.00     0.031 A 
ATOM     51  C   UNL A   1      42.160  30.462  35.636  1.00  0.00     0.049 A 
ATOM     52  C   UNL A   1      37.940  33.108  33.066  1.00  0.00     0.074 A 
ATOM     53  C   UNL A   1      42.591  31.001  36.836  1.00  0.00     0.029 A 
ATOM     54  N   UNL A   1      41.110  31.255  35.197  1.00  0.00    -0.354 N 
ATOM     55  N   UNL A   1      38.912  32.597  33.782  1.00  0.00    -0.248 NA
ATOM     56  C   UNL A   1      37.277  34.265  33.682  1.00  0.00     0.031 C 
ATOM     57  C   UNL A   1      41.762  32.082  37.152  1.00  0.00     0.029 A 
ATOM     58  C   UNL A   1      40.859  32.261  36.115  1.00  0.00     0.049 A 
ATOM     59  H   UNL A   1      40.616  31.123  34.356  1.00  0.00     0.167 HD
ATOM     60  C   UNL A   1      38.999  33.389  34.922  1.00  0.00     0.074 A 
ATOM     61  C   UNL A   1      37.989  34.419  34.791  1.00  0.00     0.031 C 
ATOM     62  C   UNL A   1      39.843  33.276  35.977  1.00  0.00     0.031 A 
BRANCH  49  63
ATOM     63  C   UNL A   1      43.756  28.490  35.587  1.00  0.00    -0.014 A 
ATOM     64  C   UNL A   1      45.114  28.764  35.337  1.00  0.00     0.010 A 
ATOM     65  C   UNL A   1      43.423  27.439  36.462  1.00  0.00     0.010 A 
ATOM     66  C   UNL A   1      46.114  27.966  35.898  1.00  0.00     0.020 A 
ATOM     67  C   UNL A   1      44.423  26.661  37.053  1.00  0.00     0.020 A 
ATOM     68  C   UNL A   1      45.761  26.914  36.748  1.00  0.00     0.054 A 
BRANCH  68  69
ATOM     69  S   UNL A   1      47.080  25.889  37.455  1.00  0.00     0.124 S 
ATOM     70  O   UNL A   1      47.434  25.034  36.324  1.00  0.00    -0.237 OA
ATOM     71  O   UNL A   1      48.085  26.878  37.834  1.00  0.00    -0.237 OA
ATOM     72  O   UNL A   1      46.430  25.206  38.570  1.00  0.00    -0.744 OA
ENDBRANCH  68  69
ENDBRANCH  49  63
BRANCH  50  73
ATOM     73  C   UNL A   1      36.328  33.408  31.040  1.00  0.00    -0.014 A 
ATOM     74  C   UNL A   1      35.147  33.718  31.738  1.00  0.00     0.010 A 
ATOM     75  C   UNL A   1      36.465  33.834  29.705  1.00  0.00     0.010 A 
ATOM     76  C   UNL A   1      34.121  34.433  31.113  1.00  0.00     0.020 A 
ATOM     77  C   UNL A   1      35.453  34.575  29.087  1.00  0.00     0.020 A 
ATOM     78  C   UNL A   1      34.285  34.864  29.793  1.00  0.00     0.054 A 
BRANCH  78  79
ATOM     79  S   UNL A   1      32.971  35.856  29.031  1.00  0.00     0.124 S 
ATOM     80  O   UNL A   1      32.350  34.895  28.125  1.00  0.00    -0.237 OA
ATOM     81  O   UNL A   1      32.167  36.252  30.184  1.00  0.00    -0.237 OA
ATOM     82  O   UNL A   1      33.698  36.947  28.384  1.00  0.00    -0.744 OA
ENDBRANCH  78  79
ENDBRANCH  50  73
BRANCH  62  83
ATOM     83  C   UNL A   1      39.737  34.314  37.065  1.00  0.00    -0.014 A 
ATOM     84  C   UNL A   1      38.937  34.104  38.203  1.00  0.00     0.010 A 
ATOM     85  C   UNL A   1      40.495  35.495  36.969  1.00  0.00     0.010 A 
ATOM     86  C   UNL A   1      38.874  35.071  39.210  1.00  0.00     0.020 A 
ATOM     87  C   UNL A   1      40.460  36.450  37.989  1.00  0.00     0.020 A 
ATOM     88  C   UNL A   1      39.638  36.238  39.097  1.00  0.00     0.054 A 
BRANCH  88  89
ATOM     89  S   UNL A   1      39.572  37.456  40.439  1.00  0.00     0.124 S 
ATOM     90  O   UNL A   1      38.985  36.678  41.527  1.00  0.00    -0.237 OA
ATOM     91  O   UNL A   1      40.976  37.817  40.611  1.00  0.00    -0.237 OA
ATOM     92  O   UNL A   1      38.722  38.516  39.904  1.00  0.00    -0.744 OA
ENDBRANCH  88  89
ENDBRANCH  62  83
ENDBRANCH  36  37
ENDBRANCH  28  31
ENDBRANCH  26  27
ENDBRANCH   1  26
TORSDOF 15
ENDMDL
MODEL 2
REMARK VINA RESULT:     -12.5      6.345     10.993
REMARK SMILES C[NH+]1CCC(NC(=O)N[C@@H]2C=C[C@H](C(=O)NCCCNC(=O)c3ccc(-c4c5nc(c(-c6ccc(S(=O)(=O)[O-])cc6)c6ccc([nH]6)c(-c6ccc(S(=O)(=O)[O-])cc6)c6nc(c(-c7ccc(S(=O)(=O)[O-])cc7)c7ccc4[nH]7)C=C6)C=C5)cc3)C2)CC1
REMARK SMILES IDX 18 1 17 2 16 3 14 4 15 5 13 7 10 8 11 9 83 10 12 11 9 12
REMARK SMILES IDX 6 13 7 14 8 16 5 18 1 19 2 20 3 21 85 22 4 24 84 25 19 26
REMARK SMILES IDX 20 27 21 28 22 30 23 31 24 32 82 33 25 34 81 35 26 36 27 37
REMARK SMILES IDX 28 38 75 39 29 40 80 41 74 42 76 43 30 44 79 45 73 46 72 47
REMARK SMILES IDX 31 49 61 50 42 51 60 52 43 53 46 54 59 55 77 56 44 57 45 58
REMARK SMILES IDX 58 60 78 61 47 62 32 63 33 64 41 65 34 66 40 67 35 68 36 69
REMARK SMILES IDX 37 70 38 71 39 72 62 73 63 74 71 75 64 76 70 77 65 78 66 79
REMARK SMILES IDX 67 80 68 81 69 82 48 83 49 84 57 85 50 86 56 87 51 88 52 89
REMARK SMILES IDX 53 90 54 91 55 92
REMARK H PARENT 16 6 6 15 9 17 2 23 20 29 76 48 46 59
REMARK Flexibility Score: inf
ROOT
ATOM      1  C   UNL A   1      38.135  19.893  24.944  1.00  0.00     0.042 C 
ENDROOT
BRANCH   1   2
ATOM      2  C   UNL A   1      36.885  20.753  25.093  1.00  0.00     0.117 C 
BRANCH   2   3
ATOM      3  N   UNL A   1      35.676  19.951  25.066  1.00  0.00    -0.356 N 
ATOM      4  C   UNL A   1      34.389  20.354  24.856  1.00  0.00     0.227 C 
ATOM      5  O   UNL A   1      33.491  19.515  24.912  1.00  0.00    -0.274 OA
ATOM      6  H   UNL A   1      35.802  18.987  25.220  1.00  0.00     0.163 HD
BRANCH   4   7
ATOM      7  C   UNL A   1      34.142  21.814  24.500  1.00  0.00     0.103 C 
ATOM      8  C   UNL A   1      32.303  23.192  25.386  1.00  0.00     0.107 C 
ATOM      9  C   UNL A   1      31.971  22.589  24.060  1.00  0.00    -0.006 C 
ATOM     10  C   UNL A   1      33.694  22.640  25.713  1.00  0.00     0.047 C 
ATOM     11  C   UNL A   1      32.973  21.865  23.563  1.00  0.00    -0.016 C 
BRANCH   8  12
ATOM     12  N   UNL A   1      31.275  22.825  26.329  1.00  0.00    -0.332 N 
ATOM     13  N   UNL A   1      29.889  24.744  26.508  1.00  0.00    -0.335 N 
ATOM     14  C   UNL A   1      30.224  23.483  26.850  1.00  0.00     0.315 C 
ATOM     15  H   UNL A   1      29.097  25.090  26.978  1.00  0.00     0.165 HD
ATOM     16  O   UNL A   1      29.518  22.905  27.678  1.00  0.00    -0.249 OA
ATOM     17  H   UNL A   1      31.360  21.902  26.660  1.00  0.00     0.165 HD
BRANCH  13  18
ATOM     18  C   UNL A   1      30.480  25.684  25.578  1.00  0.00     0.095 C 
ATOM     19  C   UNL A   1      31.965  28.729  23.101  1.00  0.00     0.332 C 
ATOM     20  N   UNL A   1      31.085  28.076  24.076  1.00  0.00    -0.337 N 
ATOM     21  C   UNL A   1      31.867  27.718  25.272  1.00  0.00     0.264 C 
ATOM     22  C   UNL A   1      30.411  26.924  23.453  1.00  0.00     0.264 C 
ATOM     23  H   UNL A   1      30.346  28.711  24.378  1.00  0.00     0.347 HD
ATOM     24  C   UNL A   1      31.055  26.909  26.281  1.00  0.00     0.086 C 
ATOM     25  C   UNL A   1      29.556  26.138  24.457  1.00  0.00     0.086 C 
ENDBRANCH  13  18
ENDBRANCH   8  12
ENDBRANCH   4   7
ENDBRANCH   2   3
ENDBRANCH   1   2
BRANCH   1  26
ATOM     26  C   UNL A   1      39.296  20.352  25.823  1.00  0.00     0.118 C 
BRANCH  26  27
ATOM     27  N   UNL A   1      40.282  19.298  26.034  1.00  0.00    -0.352 N 
ATOM     28  C   UNL A   1      41.639  19.380  26.209  1.00  0.00     0.251 C 
ATOM     29  H   UNL A   1      39.914  18.386  26.055  1.00  0.00     0.163 HD
ATOM     30  O   UNL A   1      42.316  18.358  26.157  1.00  0.00    -0.269 OA
BRANCH  28  31
ATOM     31  C   UNL A   1      42.282  20.689  26.444  1.00  0.00     0.039 A 
ATOM     32  C   UNL A   1      42.729  21.431  25.349  1.00  0.00     0.014 A 
ATOM     33  C   UNL A   1      42.461  21.176  27.742  1.00  0.00     0.014 A 
ATOM     34  C   UNL A   1      43.301  22.687  25.551  1.00  0.00     0.010 A 
ATOM     35  C   UNL A   1      42.953  22.463  27.937  1.00  0.00     0.010 A 
ATOM     36  C   UNL A   1      43.385  23.229  26.845  1.00  0.00    -0.014 A 
BRANCH  36  37
ATOM     37  C   UNL A   1      43.919  24.594  27.076  1.00  0.00     0.031 A 
ATOM     38  C   UNL A   1      43.002  25.703  27.515  1.00  0.00     0.074 A 
ATOM     39  C   UNL A   1      45.219  24.849  26.831  1.00  0.00     0.049 A 
ATOM     40  N   UNL A   1      43.275  26.966  27.720  1.00  0.00    -0.248 NA
ATOM     41  C   UNL A   1      41.588  25.351  27.726  1.00  0.00     0.031 C 
ATOM     42  C   UNL A   1      46.203  23.867  26.369  1.00  0.00     0.029 A 
ATOM     43  N   UNL A   1      45.938  26.014  26.933  1.00  0.00    -0.354 N 
ATOM     44  C   UNL A   1      42.068  27.561  28.070  1.00  0.00     0.074 A 
ATOM     45  C   UNL A   1      41.053  26.534  27.990  1.00  0.00     0.031 C 
ATOM     46  C   UNL A   1      47.402  24.461  26.264  1.00  0.00     0.029 A 
ATOM     47  C   UNL A   1      47.264  25.874  26.602  1.00  0.00     0.049 A 
ATOM     48  H   UNL A   1      45.540  26.869  27.217  1.00  0.00     0.167 HD
ATOM     49  C   UNL A   1      41.828  28.841  28.444  1.00  0.00     0.031 A 
ATOM     50  C   UNL A   1      48.260  26.781  26.571  1.00  0.00     0.031 A 
ATOM     51  C   UNL A   1      42.843  29.860  28.516  1.00  0.00     0.049 A 
ATOM     52  C   UNL A   1      47.966  28.204  26.957  1.00  0.00     0.074 A 
ATOM     53  C   UNL A   1      42.714  31.175  28.926  1.00  0.00     0.029 A 
ATOM     54  N   UNL A   1      44.172  29.681  28.160  1.00  0.00    -0.354 N 
ATOM     55  N   UNL A   1      46.831  28.734  27.344  1.00  0.00    -0.248 NA
ATOM     56  C   UNL A   1      49.091  29.148  26.910  1.00  0.00     0.031 C 
ATOM     57  C   UNL A   1      43.951  31.807  28.760  1.00  0.00     0.029 A 
ATOM     58  C   UNL A   1      44.868  30.868  28.314  1.00  0.00     0.049 A 
ATOM     59  H   UNL A   1      44.564  28.834  27.847  1.00  0.00     0.167 HD
ATOM     60  C   UNL A   1      47.111  30.069  27.619  1.00  0.00     0.074 A 
ATOM     61  C   UNL A   1      48.525  30.259  27.363  1.00  0.00     0.031 C 
ATOM     62  C   UNL A   1      46.274  31.046  28.048  1.00  0.00     0.031 A 
BRANCH  49  63
ATOM     63  C   UNL A   1      40.405  29.208  28.784  1.00  0.00    -0.014 A 
ATOM     64  C   UNL A   1      39.440  29.397  27.777  1.00  0.00     0.010 A 
ATOM     65  C   UNL A   1      40.024  29.359  30.130  1.00  0.00     0.010 A 
ATOM     66  C   UNL A   1      38.140  29.790  28.106  1.00  0.00     0.020 A 
ATOM     67  C   UNL A   1      38.715  29.717  30.464  1.00  0.00     0.020 A 
ATOM     68  C   UNL A   1      37.787  29.954  29.448  1.00  0.00     0.054 A 
BRANCH  68  69
ATOM     69  S   UNL A   1      36.095  30.473  29.845  1.00  0.00     0.124 S 
ATOM     70  O   UNL A   1      35.938  29.963  31.206  1.00  0.00    -0.237 OA
ATOM     71  O   UNL A   1      36.171  31.927  29.725  1.00  0.00    -0.237 OA
ATOM     72  O   UNL A   1      35.280  29.808  28.834  1.00  0.00    -0.744 OA
ENDBRANCH  68  69
ENDBRANCH  49  63
BRANCH  50  73
ATOM     73  C   UNL A   1      49.633  26.356  26.184  1.00  0.00    -0.014 A 
ATOM     74  C   UNL A   1      50.131  26.642  24.900  1.00  0.00     0.010 A 
ATOM     75  C   UNL A   1      50.465  25.697  27.109  1.00  0.00     0.010 A 
ATOM     76  C   UNL A   1      51.431  26.271  24.546  1.00  0.00     0.020 A 
ATOM     77  C   UNL A   1      51.776  25.352  26.768  1.00  0.00     0.020 A 
ATOM     78  C   UNL A   1      52.249  25.636  25.486  1.00  0.00     0.054 A 
BRANCH  78  79
ATOM     79  S   UNL A   1      53.957  25.235  25.026  1.00  0.00     0.124 S 
ATOM     80  O   UNL A   1      54.709  25.749  26.167  1.00  0.00    -0.237 OA
ATOM     81  O   UNL A   1      53.915  23.781  24.896  1.00  0.00    -0.237 OA
ATOM     82  O   UNL A   1      54.152  25.959  23.770  1.00  0.00    -0.744 OA
ENDBRANCH  78  79
ENDBRANCH  50  73
BRANCH  62  83
ATOM     83  C   UNL A   1      46.870  32.407  28.304  1.00  0.00    -0.014 A 
ATOM     84  C   UNL A   1      47.391  32.754  29.563  1.00  0.00     0.010 A 
ATOM     85  C   UNL A   1      46.955  33.333  27.248  1.00  0.00     0.010 A 
ATOM     86  C   UNL A   1      47.958  34.015  29.769  1.00  0.00     0.020 A 
ATOM     87  C   UNL A   1      47.552  34.582  27.441  1.00  0.00     0.020 A 
ATOM     88  C   UNL A   1      48.037  34.920  28.705  1.00  0.00     0.054 A 
BRANCH  88  89
ATOM     89  S   UNL A   1      48.820  36.531  28.988  1.00  0.00     0.124 S 
ATOM     90  O   UNL A   1      50.191  36.284  28.550  1.00  0.00    -0.237 OA
ATOM     91  O   UNL A   1      48.038  37.421  28.134  1.00  0.00    -0.237 OA
ATOM     92  O   UNL A   1      48.655  36.750  30.423  1.00  0.00    -0.744 OA
ENDBRANCH  88  89
ENDBRANCH  62  83
ENDBRANCH  36  37
ENDBRANCH  28  31
ENDBRANCH  26  27
ENDBRANCH   1  26
TORSDOF 15
ENDMDL
MODEL 3
REMARK VINA RESULT:     -12.4      6.156      8.104
REMARK SMILES C[NH+]1CCC(NC(=O)N[C@@H]2C=C[C@H](C(=O)NCCCNC(=O)c3ccc(-c4c5nc(c(-c6ccc(S(=O)(=O)[O-])cc6)c6ccc([nH]6)c(-c6ccc(S(=O)(=O)[O-])cc6)c6nc(c(-c7ccc(S(=O)(=O)[O-])cc7)c7ccc4[nH]7)C=C6)C=C5)cc3)C2)CC1
REMARK SMILES IDX 18 1 17 2 16 3 14 4 15 5 13 7 10 8 11 9 83 10 12 11 9 12
REMARK SMILES IDX 6 13 7 14 8 16 5 18 1 19 2 20 3 21 85 22 4 24 84 25 19 26
REMARK SMILES IDX 20 27 21 28 22 30 23 31 24 32 82 33 25 34 81 35 26 36 27 37
REMARK SMILES IDX 28 38 75 39 29 40 80 41 74 42 76 43 30 44 79 45 73 46 72 47
REMARK SMILES IDX 31 49 61 50 42 51 60 52 43 53 46 54 59 55 77 56 44 57 45 58
REMARK SMILES IDX 58 60 78 61 47 62 32 63 33 64 41 65 34 66 40 67 35 68 36 69
REMARK SMILES IDX 37 70 38 71 39 72 62 73 63 74 71 75 64 76 70 77 65 78 66 79
REMARK SMILES IDX 67 80 68 81 69 82 48 83 49 84 57 85 50 86 56 87 51 88 52 89
REMARK SMILES IDX 53 90 54 91 55 92
REMARK H PARENT 16 6 6 15 9 17 2 23 20 29 76 48 46 59
REMARK Flexibility Score: inf
ROOT
ATOM      1  C   UNL A   1      38.224  19.696  25.064  1.00  0.00     0.042 C 
ENDROOT
BRANCH   1   2
ATOM      2  C   UNL A   1      36.993  20.590  24.964  1.00  0.00     0.117 C 
BRANCH   2   3
ATOM      3  N   UNL A   1      35.765  19.825  25.070  1.00  0.00    -0.356 N 
ATOM      4  C   UNL A   1      34.475  20.266  24.988  1.00  0.00     0.227 C 
ATOM      5  O   UNL A   1      33.563  19.456  25.145  1.00  0.00    -0.274 OA
ATOM      6  H   UNL A   1      35.876  18.859  25.222  1.00  0.00     0.163 HD
BRANCH   4   7
ATOM      7  C   UNL A   1      34.237  21.730  24.640  1.00  0.00     0.103 C 
ATOM      8  C   UNL A   1      32.390  23.106  25.513  1.00  0.00     0.107 C 
ATOM      9  C   UNL A   1      32.074  22.514  24.178  1.00  0.00    -0.006 C 
ATOM     10  C   UNL A   1      33.775  22.547  25.854  1.00  0.00     0.047 C 
ATOM     11  C   UNL A   1      33.081  21.792  23.689  1.00  0.00    -0.016 C 
BRANCH   8  12
ATOM     12  N   UNL A   1      31.349  22.733  26.440  1.00  0.00    -0.332 N 
ATOM     13  N   UNL A   1      29.872  24.591  26.486  1.00  0.00    -0.335 N 
ATOM     14  C   UNL A   1      30.252  23.364  26.896  1.00  0.00     0.315 C 
ATOM     15  H   UNL A   1      29.049  24.920  26.914  1.00  0.00     0.165 HD
ATOM     16  O   UNL A   1      29.545  22.792  27.728  1.00  0.00    -0.249 OA
ATOM     17  H   UNL A   1      31.464  21.831  26.816  1.00  0.00     0.165 HD
BRANCH  13  18
ATOM     18  C   UNL A   1      30.450  25.515  25.532  1.00  0.00     0.095 C 
ATOM     19  C   UNL A   1      31.941  28.522  23.013  1.00  0.00     0.332 C 
ATOM     20  N   UNL A   1      31.100  27.903  24.043  1.00  0.00    -0.337 N 
ATOM     21  C   UNL A   1      31.951  27.455  25.159  1.00  0.00     0.264 C 
ATOM     22  C   UNL A   1      30.295  26.821  23.451  1.00  0.00     0.264 C 
ATOM     23  H   UNL A   1      30.437  28.579  24.422  1.00  0.00     0.347 HD
ATOM     24  C   UNL A   1      31.169  26.675  26.214  1.00  0.00     0.086 C 
ATOM     25  C   UNL A   1      29.472  26.066  24.505  1.00  0.00     0.086 C 
ENDBRANCH  13  18
ENDBRANCH   8  12
ENDBRANCH   4   7
ENDBRANCH   2   3
ENDBRANCH   1   2
BRANCH   1  26
ATOM     26  C   UNL A   1      39.276  20.218  26.038  1.00  0.00     0.118 C 
BRANCH  26  27
ATOM     27  N   UNL A   1      40.462  19.370  26.081  1.00  0.00    -0.352 N 
ATOM     28  C   UNL A   1      41.789  19.709  26.151  1.00  0.00     0.251 C 
ATOM     29  H   UNL A   1      40.281  18.404  26.057  1.00  0.00     0.163 HD
ATOM     30  O   UNL A   1      42.641  18.848  25.960  1.00  0.00    -0.269 OA
BRANCH  28  31
ATOM     31  C   UNL A   1      42.187  21.102  26.440  1.00  0.00     0.039 A 
ATOM     32  C   UNL A   1      42.460  21.468  27.759  1.00  0.00     0.014 A 
ATOM     33  C   UNL A   1      42.272  22.049  25.416  1.00  0.00     0.014 A 
ATOM     34  C   UNL A   1      42.876  22.769  28.044  1.00  0.00     0.010 A 
ATOM     35  C   UNL A   1      42.769  23.321  25.688  1.00  0.00     0.010 A 
ATOM     36  C   UNL A   1      43.069  23.697  27.005  1.00  0.00    -0.014 A 
BRANCH  36  37
ATOM     37  C   UNL A   1      43.584  25.061  27.276  1.00  0.00     0.031 A 
ATOM     38  C   UNL A   1      45.035  25.385  27.042  1.00  0.00     0.074 A 
ATOM     39  C   UNL A   1      42.759  25.993  27.791  1.00  0.00     0.049 A 
ATOM     40  N   UNL A   1      45.677  26.502  27.264  1.00  0.00    -0.248 NA
ATOM     41  C   UNL A   1      45.880  24.301  26.512  1.00  0.00     0.031 C 
ATOM     42  C   UNL A   1      41.339  25.794  28.095  1.00  0.00     0.029 A 
ATOM     43  N   UNL A   1      42.994  27.296  28.154  1.00  0.00    -0.354 N 
ATOM     44  C   UNL A   1      47.000  26.254  26.917  1.00  0.00     0.074 A 
ATOM     45  C   UNL A   1      47.079  24.863  26.526  1.00  0.00     0.031 C 
ATOM     46  C   UNL A   1      40.823  26.942  28.561  1.00  0.00     0.029 A 
ATOM     47  C   UNL A   1      41.882  27.943  28.637  1.00  0.00     0.049 A 
ATOM     48  H   UNL A   1      43.876  27.726  28.075  1.00  0.00     0.167 HD
ATOM     49  C   UNL A   1      48.051  27.110  26.904  1.00  0.00     0.031 A 
ATOM     50  C   UNL A   1      41.731  29.201  29.094  1.00  0.00     0.031 A 
ATOM     51  C   UNL A   1      47.966  28.491  27.299  1.00  0.00     0.049 A 
ATOM     52  C   UNL A   1      42.916  30.126  29.103  1.00  0.00     0.074 A 
ATOM     53  C   UNL A   1      48.959  29.454  27.280  1.00  0.00     0.029 A 
ATOM     54  N   UNL A   1      46.824  29.104  27.794  1.00  0.00    -0.354 N 
ATOM     55  N   UNL A   1      44.146  29.890  28.712  1.00  0.00    -0.248 NA
ATOM     56  C   UNL A   1      42.690  31.487  29.605  1.00  0.00     0.031 C 
ATOM     57  C   UNL A   1      48.435  30.632  27.821  1.00  0.00     0.029 A 
ATOM     58  C   UNL A   1      47.096  30.425  28.112  1.00  0.00     0.049 A 
ATOM     59  H   UNL A   1      45.950  28.667  27.903  1.00  0.00     0.167 HD
ATOM     60  C   UNL A   1      44.835  31.085  28.892  1.00  0.00     0.074 A 
ATOM     61  C   UNL A   1      43.881  32.041  29.415  1.00  0.00     0.031 C 
ATOM     62  C   UNL A   1      46.138  31.365  28.641  1.00  0.00     0.031 A 
BRANCH  49  63
ATOM     63  C   UNL A   1      49.385  26.560  26.463  1.00  0.00    -0.014 A 
ATOM     64  C   UNL A   1      50.177  25.784  27.329  1.00  0.00     0.010 A 
ATOM     65  C   UNL A   1      49.851  26.818  25.161  1.00  0.00     0.010 A 
ATOM     66  C   UNL A   1      51.434  25.329  26.924  1.00  0.00     0.020 A 
ATOM     67  C   UNL A   1      51.093  26.333  24.740  1.00  0.00     0.020 A 
ATOM     68  C   UNL A   1      51.887  25.613  25.633  1.00  0.00     0.054 A 
BRANCH  68  69
ATOM     69  S   UNL A   1      53.527  25.017  25.137  1.00  0.00     0.124 S 
ATOM     70  O   UNL A   1      54.377  25.568  26.190  1.00  0.00    -0.237 OA
ATOM     71  O   UNL A   1      53.360  23.566  25.160  1.00  0.00    -0.237 OA
ATOM     72  O   UNL A   1      53.723  25.598  23.812  1.00  0.00    -0.744 OA
ENDBRANCH  68  69
ENDBRANCH  49  63
BRANCH  50  73
ATOM     73  C   UNL A   1      40.392  29.662  29.554  1.00  0.00    -0.014 A 
ATOM     74  C   UNL A   1      40.092  29.721  30.926  1.00  0.00     0.010 A 
ATOM     75  C   UNL A   1      39.422  30.082  28.624  1.00  0.00     0.010 A 
ATOM     76  C   UNL A   1      38.847  30.183  31.361  1.00  0.00     0.020 A 
ATOM     77  C   UNL A   1      38.187  30.574  29.056  1.00  0.00     0.020 A 
ATOM     78  C   UNL A   1      37.905  30.615  30.423  1.00  0.00     0.054 A 
BRANCH  78  79
ATOM     79  S   UNL A   1      36.326  31.283  31.016  1.00  0.00     0.124 S 
ATOM     80  O   UNL A   1      35.946  30.309  32.035  1.00  0.00    -0.237 OA
ATOM     81  O   UNL A   1      36.709  32.602  31.512  1.00  0.00    -0.237 OA
ATOM     82  O   UNL A   1      35.488  31.295  29.818  1.00  0.00    -0.744 OA
ENDBRANCH  78  79
ENDBRANCH  50  73
BRANCH  62  83
ATOM     83  C   UNL A   1      46.607  32.775  28.896  1.00  0.00    -0.014 A 
ATOM     84  C   UNL A   1      46.461  33.783  27.927  1.00  0.00     0.010 A 
ATOM     85  C   UNL A   1      47.155  33.103  30.150  1.00  0.00     0.010 A 
ATOM     86  C   UNL A   1      46.882  35.088  28.197  1.00  0.00     0.020 A 
ATOM     87  C   UNL A   1      47.548  34.413  30.435  1.00  0.00     0.020 A 
ATOM     88  C   UNL A   1      47.422  35.395  29.451  1.00  0.00     0.054 A 
BRANCH  88  89
ATOM     89  S   UNL A   1      47.918  37.106  29.791  1.00  0.00     0.124 S 
ATOM     90  O   UNL A   1      47.412  37.809  28.615  1.00  0.00    -0.237 OA
ATOM     91  O   UNL A   1      47.226  37.397  31.043  1.00  0.00    -0.237 OA
ATOM     92  O   UNL A   1      49.374  37.031  29.892  1.00  0.00    -0.744 OA
ENDBRANCH  88  89
ENDBRANCH  62  83
ENDBRANCH  36  37
ENDBRANCH  28  31
ENDBRANCH  26  27
ENDBRANCH   1  26
TORSDOF 15
ENDMDL
