MODEL 1
REMARK VINA RESULT:      -9.9      0.000      0.000
REMARK SMILES CC(C)C[C@H](NC(N)=O)C(=O)N[C@@H](C(=O)NCCCNC(=O)c1ccc(-c2c3nc(c(-c4ccc(S(=O)(=O)[O-])cc4)c4ccc([nH]4)c(-c4ccc(S(=O)(=O)[O-])cc4)c4nc(c(-c5ccc(S(=O)(=O)[O-])cc5)c5ccc2[nH]5)C=C4)C=C3)cc1)C(C)C
REMARK SMILES IDX 17 1 16 2 14 3 15 4 13 6 12 7 10 8 11 9 5 11 4 12 2 13 1 14
REMARK SMILES IDX 3 15 6 16 7 17 8 19 9 20 83 23 84 24 85 25 18 26 19 27 20 28
REMARK SMILES IDX 21 29 22 31 23 32 24 33 82 34 25 35 81 36 26 37 27 38 28 39
REMARK SMILES IDX 75 40 29 41 80 42 74 43 76 44 30 45 79 46 73 47 72 48 31 50
REMARK SMILES IDX 61 51 42 52 60 53 43 54 46 55 59 56 77 57 44 58 45 59 58 61
REMARK SMILES IDX 78 62 47 63 32 64 33 65 41 66 34 67 40 68 35 69 36 70 37 71
REMARK SMILES IDX 38 72 39 73 62 74 63 75 71 76 64 77 70 78 65 79 66 80 67 81
REMARK SMILES IDX 68 82 69 83 48 84 49 85 57 86 50 87 56 88 51 89 52 90 53 91
REMARK SMILES IDX 54 92 55 93
REMARK H PARENT 16 5 12 10 6 18 8 21 8 22 20 30 76 49 46 60
REMARK Flexibility Score: inf
ROOT
ATOM      1  C   UNL A   1      35.413  24.372  24.649  1.00  0.00     0.117 C 
ENDROOT
BRANCH   1   2
ATOM      2  N   UNL A   1      34.364  24.700  25.572  1.00  0.00    -0.354 N 
ATOM      3  C   UNL A   1      33.022  24.519  25.461  1.00  0.00     0.242 C 
ATOM      4  O   UNL A   1      32.388  24.762  26.494  1.00  0.00    -0.273 OA
ATOM      5  H   UNL A   1      34.662  25.120  26.411  1.00  0.00     0.163 HD
BRANCH   3   6
ATOM      6  C   UNL A   1      32.335  23.951  24.156  1.00  0.00     0.173 C 
BRANCH   6   7
ATOM      7  N   UNL A   1      30.961  24.467  24.071  1.00  0.00    -0.342 N 
ATOM      8  C   UNL A   1      30.441  25.641  23.615  1.00  0.00     0.243 C 
ATOM      9  O   UNL A   1      29.331  25.940  24.078  1.00  0.00    -0.273 OA
ATOM     10  H   UNL A   1      30.282  23.841  24.411  1.00  0.00     0.164 HD
BRANCH   8  11
ATOM     11  C   UNL A   1      31.143  26.646  22.650  1.00  0.00     0.173 C 
BRANCH  11  12
ATOM     12  C   UNL A   1      30.687  28.105  22.723  1.00  0.00     0.038 C 
BRANCH  12  13
ATOM     13  C   UNL A   1      31.567  29.057  23.544  1.00  0.00    -0.015 C 
ATOM     14  C   UNL A   1      31.382  29.000  25.054  1.00  0.00     0.007 C 
ATOM     15  C   UNL A   1      33.032  28.832  23.164  1.00  0.00     0.007 C 
ENDBRANCH  12  13
ENDBRANCH  11  12
BRANCH  11  16
ATOM     16  N   UNL A   1      31.358  26.113  21.293  1.00  0.00    -0.327 N 
ATOM     17  C   UNL A   1      32.535  25.708  20.740  1.00  0.00     0.312 C 
ATOM     18  H   UNL A   1      30.560  26.040  20.721  1.00  0.00     0.166 HD
ATOM     19  N   UNL A   1      32.445  25.492  19.404  1.00  0.00    -0.352 N 
ATOM     20  O   UNL A   1      33.601  25.568  21.307  1.00  0.00    -0.249 OA
ATOM     21  H   UNL A   1      31.581  25.606  18.944  1.00  0.00     0.161 HD
ATOM     22  H   UNL A   1      33.242  25.223  18.893  1.00  0.00     0.161 HD
ENDBRANCH  11  16
ENDBRANCH   8  11
ENDBRANCH   6   7
BRANCH   6  23
ATOM     23  C   UNL A   1      32.400  22.390  24.280  1.00  0.00     0.015 C 
ATOM     24  C   UNL A   1      31.480  21.721  25.294  1.00  0.00     0.010 C 
ATOM     25  C   UNL A   1      32.146  21.750  22.907  1.00  0.00     0.010 C 
ENDBRANCH   6  23
ENDBRANCH   3   6
ENDBRANCH   1   2
BRANCH   1  26
ATOM     26  C   UNL A   1      36.028  23.010  24.907  1.00  0.00     0.042 C 
BRANCH  26  27
ATOM     27  C   UNL A   1      36.843  22.972  26.190  1.00  0.00     0.118 C 
BRANCH  27  28
ATOM     28  N   UNL A   1      37.933  22.001  26.125  1.00  0.00    -0.352 N 
ATOM     29  C   UNL A   1      39.282  22.184  26.298  1.00  0.00     0.251 C 
ATOM     30  H   UNL A   1      37.658  21.078  25.927  1.00  0.00     0.163 HD
ATOM     31  O   UNL A   1      40.061  21.291  25.979  1.00  0.00    -0.269 OA
BRANCH  29  32
ATOM     32  C   UNL A   1      39.780  23.460  26.850  1.00  0.00     0.039 A 
ATOM     33  C   UNL A   1      40.473  23.459  28.062  1.00  0.00     0.014 A 
ATOM     34  C   UNL A   1      39.582  24.653  26.152  1.00  0.00     0.014 A 
ATOM     35  C   UNL A   1      41.041  24.645  28.528  1.00  0.00     0.010 A 
ATOM     36  C   UNL A   1      40.234  25.806  26.562  1.00  0.00     0.010 A 
ATOM     37  C   UNL A   1      40.968  25.816  27.756  1.00  0.00    -0.014 A 
BRANCH  37  38
ATOM     38  C   UNL A   1      41.665  27.062  28.159  1.00  0.00     0.031 A 
ATOM     39  C   UNL A   1      40.884  28.216  28.722  1.00  0.00     0.074 A 
ATOM     40  C   UNL A   1      42.988  27.183  27.933  1.00  0.00     0.049 A 
ATOM     41  N   UNL A   1      41.304  29.406  29.069  1.00  0.00    -0.248 NA
ATOM     42  C   UNL A   1      39.435  28.019  28.887  1.00  0.00     0.031 C 
ATOM     43  C   UNL A   1      43.847  26.149  27.350  1.00  0.00     0.029 A 
ATOM     44  N   UNL A   1      43.842  28.231  28.163  1.00  0.00    -0.354 N 
ATOM     45  C   UNL A   1      40.171  30.103  29.469  1.00  0.00     0.074 A 
ATOM     46  C   UNL A   1      39.040  29.224  29.265  1.00  0.00     0.031 C 
ATOM     47  C   UNL A   1      45.112  26.598  27.312  1.00  0.00     0.029 A 
ATOM     48  C   UNL A   1      45.146  27.966  27.818  1.00  0.00     0.049 A 
ATOM     49  H   UNL A   1      43.549  29.093  28.539  1.00  0.00     0.167 HD
ATOM     50  C   UNL A   1      40.080  31.355  29.978  1.00  0.00     0.031 A 
ATOM     51  C   UNL A   1      46.247  28.738  27.898  1.00  0.00     0.031 A 
ATOM     52  C   UNL A   1      41.210  32.223  30.176  1.00  0.00     0.049 A 
ATOM     53  C   UNL A   1      46.121  30.134  28.439  1.00  0.00     0.074 A 
ATOM     54  C   UNL A   1      41.239  33.484  30.744  1.00  0.00     0.029 A 
ATOM     55  N   UNL A   1      42.512  31.922  29.799  1.00  0.00    -0.354 N 
ATOM     56  N   UNL A   1      45.053  30.751  28.886  1.00  0.00    -0.248 NA
ATOM     57  C   UNL A   1      47.350  30.935  28.491  1.00  0.00     0.031 C 
ATOM     58  C   UNL A   1      42.548  33.971  30.653  1.00  0.00     0.029 A 
ATOM     59  C   UNL A   1      43.346  32.989  30.088  1.00  0.00     0.049 A 
ATOM     60  H   UNL A   1      42.799  31.076  29.387  1.00  0.00     0.167 HD
ATOM     61  C   UNL A   1      45.485  32.007  29.295  1.00  0.00     0.074 A 
ATOM     62  C   UNL A   1      46.914  32.055  29.053  1.00  0.00     0.031 C 
ATOM     63  C   UNL A   1      44.765  33.026  29.826  1.00  0.00     0.031 A 
BRANCH  50  64
ATOM     64  C   UNL A   1      38.702  31.855  30.330  1.00  0.00    -0.014 A 
ATOM     65  C   UNL A   1      37.882  32.476  29.369  1.00  0.00     0.010 A 
ATOM     66  C   UNL A   1      38.224  31.719  31.646  1.00  0.00     0.010 A 
ATOM     67  C   UNL A   1      36.646  33.018  29.733  1.00  0.00     0.020 A 
ATOM     68  C   UNL A   1      36.973  32.229  32.007  1.00  0.00     0.020 A 
ATOM     69  C   UNL A   1      36.206  32.902  31.054  1.00  0.00     0.054 A 
BRANCH  69  70
ATOM     70  S   UNL A   1      34.615  33.643  31.509  1.00  0.00     0.124 S 
ATOM     71  O   UNL A   1      34.022  32.595  32.336  1.00  0.00    -0.237 OA
ATOM     72  O   UNL A   1      35.015  34.853  32.221  1.00  0.00    -0.237 OA
ATOM     73  O   UNL A   1      33.957  33.869  30.224  1.00  0.00    -0.744 OA
ENDBRANCH  69  70
ENDBRANCH  50  64
BRANCH  51  74
ATOM     74  C   UNL A   1      47.565  28.180  27.495  1.00  0.00    -0.014 A 
ATOM     75  C   UNL A   1      48.353  27.492  28.434  1.00  0.00     0.010 A 
ATOM     76  C   UNL A   1      48.015  28.277  26.165  1.00  0.00     0.010 A 
ATOM     77  C   UNL A   1      49.565  26.909  28.051  1.00  0.00     0.020 A 
ATOM     78  C   UNL A   1      49.214  27.673  25.772  1.00  0.00     0.020 A 
ATOM     79  C   UNL A   1      49.982  26.994  26.720  1.00  0.00     0.054 A 
BRANCH  79  80
ATOM     80  S   UNL A   1      51.513  26.151  26.233  1.00  0.00     0.124 S 
ATOM     81  O   UNL A   1      51.292  24.801  26.742  1.00  0.00    -0.237 OA
ATOM     82  O   UNL A   1      51.498  26.290  24.778  1.00  0.00    -0.237 OA
ATOM     83  O   UNL A   1      52.557  26.914  26.912  1.00  0.00    -0.744 OA
ENDBRANCH  79  80
ENDBRANCH  51  74
BRANCH  63  84
ATOM     84  C   UNL A   1      45.512  34.279  30.201  1.00  0.00    -0.014 A 
ATOM     85  C   UNL A   1      45.648  35.344  29.294  1.00  0.00     0.010 A 
ATOM     86  C   UNL A   1      46.031  34.413  31.501  1.00  0.00     0.010 A 
ATOM     87  C   UNL A   1      46.312  36.513  29.674  1.00  0.00     0.020 A 
ATOM     88  C   UNL A   1      46.670  35.593  31.894  1.00  0.00     0.020 A 
ATOM     89  C   UNL A   1      46.816  36.631  30.973  1.00  0.00     0.054 A 
BRANCH  89  90
ATOM     90  S   UNL A   1      47.624  38.181  31.457  1.00  0.00     0.124 S 
ATOM     91  O   UNL A   1      46.495  38.979  31.926  1.00  0.00    -0.237 OA
ATOM     92  O   UNL A   1      48.559  37.745  32.491  1.00  0.00    -0.237 OA
ATOM     93  O   UNL A   1      48.246  38.648  30.220  1.00  0.00    -0.744 OA
ENDBRANCH  89  90
ENDBRANCH  63  84
ENDBRANCH  37  38
ENDBRANCH  29  32
ENDBRANCH  27  28
ENDBRANCH  26  27
ENDBRANCH   1  26
TORSDOF 19
ENDMDL
MODEL 2
REMARK VINA RESULT:      -9.8      2.394      3.478
REMARK SMILES CC(C)C[C@H](NC(N)=O)C(=O)N[C@@H](C(=O)NCCCNC(=O)c1ccc(-c2c3nc(c(-c4ccc(S(=O)(=O)[O-])cc4)c4ccc([nH]4)c(-c4ccc(S(=O)(=O)[O-])cc4)c4nc(c(-c5ccc(S(=O)(=O)[O-])cc5)c5ccc2[nH]5)C=C4)C=C3)cc1)C(C)C
REMARK SMILES IDX 17 1 16 2 14 3 15 4 13 6 12 7 10 8 11 9 5 11 4 12 2 13 1 14
REMARK SMILES IDX 3 15 6 16 7 17 8 19 9 20 83 23 84 24 85 25 18 26 19 27 20 28
REMARK SMILES IDX 21 29 22 31 23 32 24 33 82 34 25 35 81 36 26 37 27 38 28 39
REMARK SMILES IDX 75 40 29 41 80 42 74 43 76 44 30 45 79 46 73 47 72 48 31 50
REMARK SMILES IDX 61 51 42 52 60 53 43 54 46 55 59 56 77 57 44 58 45 59 58 61
REMARK SMILES IDX 78 62 47 63 32 64 33 65 41 66 34 67 40 68 35 69 36 70 37 71
REMARK SMILES IDX 38 72 39 73 62 74 63 75 71 76 64 77 70 78 65 79 66 80 67 81
REMARK SMILES IDX 68 82 69 83 48 84 49 85 57 86 50 87 56 88 51 89 52 90 53 91
REMARK SMILES IDX 54 92 55 93
REMARK H PARENT 16 5 12 10 6 18 8 21 8 22 20 30 76 49 46 60
REMARK Flexibility Score: inf
ROOT
ATOM      1  C   UNL A   1      36.747  22.060  25.725  1.00  0.00     0.117 C 
ENDROOT
BRANCH   1   2
ATOM      2  N   UNL A   1      35.680  21.358  26.378  1.00  0.00    -0.354 N 
ATOM      3  C   UNL A   1      34.340  21.581  26.336  1.00  0.00     0.242 C 
ATOM      4  O   UNL A   1      33.660  20.705  26.883  1.00  0.00    -0.273 OA
ATOM      5  H   UNL A   1      35.961  20.601  26.942  1.00  0.00     0.163 HD
BRANCH   3   6
ATOM      6  C   UNL A   1      33.695  22.802  25.567  1.00  0.00     0.173 C 
BRANCH   6   7
ATOM      7  N   UNL A   1      32.399  23.127  26.182  1.00  0.00    -0.342 N 
ATOM      8  C   UNL A   1      31.710  24.293  26.323  1.00  0.00     0.243 C 
ATOM      9  O   UNL A   1      30.887  24.310  27.250  1.00  0.00    -0.273 OA
ATOM     10  H   UNL A   1      31.938  22.347  26.568  1.00  0.00     0.164 HD
BRANCH   8  11
ATOM     11  C   UNL A   1      31.922  25.595  25.490  1.00  0.00     0.173 C 
BRANCH  11  12
ATOM     12  C   UNL A   1      33.044  26.530  25.945  1.00  0.00     0.038 C 
BRANCH  12  13
ATOM     13  C   UNL A   1      32.627  27.946  26.365  1.00  0.00    -0.015 C 
ATOM     14  C   UNL A   1      31.723  28.038  27.587  1.00  0.00     0.007 C 
ATOM     15  C   UNL A   1      33.882  28.801  26.549  1.00  0.00     0.007 C 
ENDBRANCH  12  13
ENDBRANCH  11  12
BRANCH  11  16
ATOM     16  N   UNL A   1      30.664  26.254  25.092  1.00  0.00    -0.327 N 
ATOM     17  C   UNL A   1      29.934  26.030  23.964  1.00  0.00     0.312 C 
ATOM     18  H   UNL A   1      30.313  26.934  25.711  1.00  0.00     0.166 HD
ATOM     19  N   UNL A   1      28.962  26.957  23.772  1.00  0.00    -0.352 N 
ATOM     20  O   UNL A   1      30.097  25.144  23.150  1.00  0.00    -0.249 OA
ATOM     21  H   UNL A   1      28.830  27.676  24.432  1.00  0.00     0.161 HD
ATOM     22  H   UNL A   1      28.389  26.911  22.973  1.00  0.00     0.161 HD
ENDBRANCH  11  16
ENDBRANCH   8  11
ENDBRANCH   6   7
BRANCH   6  23
ATOM     23  C   UNL A   1      33.570  22.351  24.071  1.00  0.00     0.015 C 
ATOM     24  C   UNL A   1      32.169  22.150  23.505  1.00  0.00     0.010 C 
ATOM     25  C   UNL A   1      34.314  23.345  23.167  1.00  0.00     0.010 C 
ENDBRANCH   6  23
ENDBRANCH   3   6
ENDBRANCH   1   2
BRANCH   1  26
ATOM     26  C   UNL A   1      37.860  21.145  25.251  1.00  0.00     0.042 C 
BRANCH  26  27
ATOM     27  C   UNL A   1      39.152  21.350  26.027  1.00  0.00     0.118 C 
BRANCH  27  28
ATOM     28  N   UNL A   1      39.995  20.156  26.022  1.00  0.00    -0.352 N 
ATOM     29  C   UNL A   1      41.363  20.048  26.040  1.00  0.00     0.251 C 
ATOM     30  H   UNL A   1      39.508  19.301  26.001  1.00  0.00     0.163 HD
ATOM     31  O   UNL A   1      41.890  18.967  25.800  1.00  0.00    -0.269 OA
BRANCH  29  32
ATOM     32  C   UNL A   1      42.184  21.241  26.331  1.00  0.00     0.039 A 
ATOM     33  C   UNL A   1      42.569  22.081  25.285  1.00  0.00     0.014 A 
ATOM     34  C   UNL A   1      42.550  21.539  27.646  1.00  0.00     0.014 A 
ATOM     35  C   UNL A   1      43.249  23.266  25.570  1.00  0.00     0.010 A 
ATOM     36  C   UNL A   1      43.130  22.764  27.937  1.00  0.00     0.010 A 
ATOM     37  C   UNL A   1      43.489  23.640  26.903  1.00  0.00    -0.014 A 
BRANCH  37  38
ATOM     38  C   UNL A   1      44.096  24.949  27.248  1.00  0.00     0.031 A 
ATOM     39  C   UNL A   1      43.242  26.052  27.809  1.00  0.00     0.074 A 
ATOM     40  C   UNL A   1      45.396  25.169  26.971  1.00  0.00     0.049 A 
ATOM     41  N   UNL A   1      43.576  27.281  28.108  1.00  0.00    -0.248 NA
ATOM     42  C   UNL A   1      41.821  25.744  28.031  1.00  0.00     0.031 C 
ATOM     43  C   UNL A   1      46.316  24.191  26.385  1.00  0.00     0.029 A 
ATOM     44  N   UNL A   1      46.169  26.289  27.142  1.00  0.00    -0.354 N 
ATOM     45  C   UNL A   1      42.404  27.897  28.531  1.00  0.00     0.074 A 
ATOM     46  C   UNL A   1      41.343  26.924  28.391  1.00  0.00     0.031 C 
ATOM     47  C   UNL A   1      47.537  24.738  26.289  1.00  0.00     0.029 A 
ATOM     48  C   UNL A   1      47.478  26.119  26.757  1.00  0.00     0.049 A 
ATOM     49  H   UNL A   1      45.820  27.134  27.506  1.00  0.00     0.167 HD
ATOM     50  C   UNL A   1      42.229  29.151  29.010  1.00  0.00     0.031 A 
ATOM     51  C   UNL A   1      48.514  26.979  26.777  1.00  0.00     0.031 A 
ATOM     52  C   UNL A   1      43.291  30.113  29.144  1.00  0.00     0.049 A 
ATOM     53  C   UNL A   1      48.294  28.375  27.286  1.00  0.00     0.074 A 
ATOM     54  C   UNL A   1      43.237  31.388  29.677  1.00  0.00     0.029 A 
ATOM     55  N   UNL A   1      44.599  29.907  28.728  1.00  0.00    -0.354 N 
ATOM     56  N   UNL A   1      47.195  28.917  27.754  1.00  0.00    -0.248 NA
ATOM     57  C   UNL A   1      49.455  29.274  27.272  1.00  0.00     0.031 C 
ATOM     58  C   UNL A   1      44.498  31.976  29.526  1.00  0.00     0.029 A 
ATOM     59  C   UNL A   1      45.354  31.045  28.958  1.00  0.00     0.049 A 
ATOM     60  H   UNL A   1      44.940  29.075  28.328  1.00  0.00     0.167 HD
ATOM     61  C   UNL A   1      47.537  30.216  28.114  1.00  0.00     0.074 A 
ATOM     62  C   UNL A   1      48.948  30.371  27.820  1.00  0.00     0.031 C 
ATOM     63  C   UNL A   1      46.755  31.189  28.644  1.00  0.00     0.031 A 
BRANCH  50  64
ATOM     64  C   UNL A   1      40.827  29.550  29.398  1.00  0.00    -0.014 A 
ATOM     65  C   UNL A   1      40.428  29.603  30.746  1.00  0.00     0.010 A 
ATOM     66  C   UNL A   1      39.888  29.858  28.397  1.00  0.00     0.010 A 
ATOM     67  C   UNL A   1      39.101  29.883  31.083  1.00  0.00     0.020 A 
ATOM     68  C   UNL A   1      38.568  30.173  28.732  1.00  0.00     0.020 A 
ATOM     69  C   UNL A   1      38.176  30.153  30.072  1.00  0.00     0.054 A 
BRANCH  69  70
ATOM     70  S   UNL A   1      36.453  30.479  30.534  1.00  0.00     0.124 S 
ATOM     71  O   UNL A   1      36.348  29.777  31.811  1.00  0.00    -0.237 OA
ATOM     72  O   UNL A   1      36.412  31.937  30.614  1.00  0.00    -0.237 OA
ATOM     73  O   UNL A   1      35.683  29.896  29.438  1.00  0.00    -0.744 OA
ENDBRANCH  69  70
ENDBRANCH  50  64
BRANCH  51  74
ATOM     74  C   UNL A   1      49.859  26.517  26.341  1.00  0.00    -0.014 A 
ATOM     75  C   UNL A   1      50.293  26.761  25.027  1.00  0.00     0.010 A 
ATOM     76  C   UNL A   1      50.736  25.889  27.245  1.00  0.00     0.010 A 
ATOM     77  C   UNL A   1      51.579  26.388  24.624  1.00  0.00     0.020 A 
ATOM     78  C   UNL A   1      52.031  25.538  26.853  1.00  0.00     0.020 A 
ATOM     79  C   UNL A   1      52.443  25.788  25.543  1.00  0.00     0.054 A 
BRANCH  79  80
ATOM     80  S   UNL A   1      54.136  25.398  25.018  1.00  0.00     0.124 S 
ATOM     81  O   UNL A   1      54.930  25.978  26.096  1.00  0.00    -0.237 OA
ATOM     82  O   UNL A   1      54.118  23.938  24.960  1.00  0.00    -0.237 OA
ATOM     83  O   UNL A   1      54.255  26.063  23.723  1.00  0.00    -0.744 OA
ENDBRANCH  79  80
ENDBRANCH  51  74
BRANCH  63  84
ATOM     84  C   UNL A   1      47.410  32.508  28.959  1.00  0.00    -0.014 A 
ATOM     85  C   UNL A   1      48.044  32.730  30.193  1.00  0.00     0.010 A 
ATOM     86  C   UNL A   1      47.442  33.516  27.979  1.00  0.00     0.010 A 
ATOM     87  C   UNL A   1      48.679  33.948  30.451  1.00  0.00     0.020 A 
ATOM     88  C   UNL A   1      48.101  34.724  28.222  1.00  0.00     0.020 A 
ATOM     89  C   UNL A   1      48.706  34.936  29.462  1.00  0.00     0.054 A 
BRANCH  89  90
ATOM     90  S   UNL A   1      49.585  36.485  29.802  1.00  0.00     0.124 S 
ATOM     91  O   UNL A   1      50.411  36.636  28.608  1.00  0.00    -0.237 OA
ATOM     92  O   UNL A   1      48.495  37.448  29.940  1.00  0.00    -0.237 OA
ATOM     93  O   UNL A   1      50.319  36.204  31.034  1.00  0.00    -0.744 OA
ENDBRANCH  89  90
ENDBRANCH  63  84
ENDBRANCH  37  38
ENDBRANCH  29  32
ENDBRANCH  27  28
ENDBRANCH  26  27
ENDBRANCH   1  26
TORSDOF 19
ENDMDL
MODEL 3
REMARK VINA RESULT:      -9.6      1.401      2.163
REMARK SMILES CC(C)C[C@H](NC(N)=O)C(=O)N[C@@H](C(=O)NCCCNC(=O)c1ccc(-c2c3nc(c(-c4ccc(S(=O)(=O)[O-])cc4)c4ccc([nH]4)c(-c4ccc(S(=O)(=O)[O-])cc4)c4nc(c(-c5ccc(S(=O)(=O)[O-])cc5)c5ccc2[nH]5)C=C4)C=C3)cc1)C(C)C
REMARK SMILES IDX 17 1 16 2 14 3 15 4 13 6 12 7 10 8 11 9 5 11 4 12 2 13 1 14
REMARK SMILES IDX 3 15 6 16 7 17 8 19 9 20 83 23 84 24 85 25 18 26 19 27 20 28
REMARK SMILES IDX 21 29 22 31 23 32 24 33 82 34 25 35 81 36 26 37 27 38 28 39
REMARK SMILES IDX 75 40 29 41 80 42 74 43 76 44 30 45 79 46 73 47 72 48 31 50
REMARK SMILES IDX 61 51 42 52 60 53 43 54 46 55 59 56 77 57 44 58 45 59 58 61
REMARK SMILES IDX 78 62 47 63 32 64 33 65 41 66 34 67 40 68 35 69 36 70 37 71
REMARK SMILES IDX 38 72 39 73 62 74 63 75 71 76 64 77 70 78 65 79 66 80 67 81
REMARK SMILES IDX 68 82 69 83 48 84 49 85 57 86 50 87 56 88 51 89 52 90 53 91
REMARK SMILES IDX 54 92 55 93
REMARK H PARENT 16 5 12 10 6 18 8 21 8 22 20 30 76 49 46 60
REMARK Flexibility Score: inf
ROOT
ATOM      1  C   UNL A   1      34.314  23.701  26.185  1.00  0.00     0.117 C 
ENDROOT
BRANCH   1   2
ATOM      2  N   UNL A   1      33.080  23.414  26.859  1.00  0.00    -0.354 N 
ATOM      3  C   UNL A   1      31.865  24.006  26.735  1.00  0.00     0.242 C 
ATOM      4  O   UNL A   1      30.953  23.431  27.340  1.00  0.00    -0.273 OA
ATOM      5  H   UNL A   1      33.123  22.676  27.511  1.00  0.00     0.163 HD
BRANCH   3   6
ATOM      6  C   UNL A   1      31.612  25.268  25.816  1.00  0.00     0.173 C 
BRANCH   6   7
ATOM      7  N   UNL A   1      31.489  26.463  26.664  1.00  0.00    -0.342 N 
ATOM      8  C   UNL A   1      32.176  27.638  26.710  1.00  0.00     0.243 C 
ATOM      9  O   UNL A   1      32.122  28.237  27.794  1.00  0.00    -0.273 OA
ATOM     10  H   UNL A   1      30.765  26.403  27.330  1.00  0.00     0.164 HD
BRANCH   8  11
ATOM     11  C   UNL A   1      33.063  28.232  25.572  1.00  0.00     0.173 C 
BRANCH  11  12
ATOM     12  C   UNL A   1      34.246  29.102  26.002  1.00  0.00     0.038 C 
BRANCH  12  13
ATOM     13  C   UNL A   1      34.209  29.647  27.436  1.00  0.00    -0.015 C 
ATOM     14  C   UNL A   1      35.510  29.547  28.220  1.00  0.00     0.007 C 
ATOM     15  C   UNL A   1      33.697  31.089  27.408  1.00  0.00     0.007 C 
ENDBRANCH  12  13
ENDBRANCH  11  12
BRANCH  11  16
ATOM     16  N   UNL A   1      32.291  28.731  24.419  1.00  0.00    -0.327 N 
ATOM     17  C   UNL A   1      32.697  28.802  23.120  1.00  0.00     0.312 C 
ATOM     18  H   UNL A   1      31.379  29.048  24.609  1.00  0.00     0.166 HD
ATOM     19  N   UNL A   1      31.851  29.523  22.342  1.00  0.00    -0.352 N 
ATOM     20  O   UNL A   1      33.709  28.332  22.643  1.00  0.00    -0.249 OA
ATOM     21  H   UNL A   1      31.030  29.905  22.730  1.00  0.00     0.161 HD
ATOM     22  H   UNL A   1      32.058  29.666  21.390  1.00  0.00     0.161 HD
ENDBRANCH  11  16
ENDBRANCH   8  11
ENDBRANCH   6   7
BRANCH   6  23
ATOM     23  C   UNL A   1      30.310  24.953  25.002  1.00  0.00     0.015 C 
ATOM     24  C   UNL A   1      29.474  26.132  24.518  1.00  0.00     0.010 C 
ATOM     25  C   UNL A   1      30.658  24.081  23.787  1.00  0.00     0.010 C 
ENDBRANCH   6  23
ENDBRANCH   3   6
ENDBRANCH   1   2
BRANCH   1  26
ATOM     26  C   UNL A   1      35.419  22.718  26.519  1.00  0.00     0.042 C 
BRANCH  26  27
ATOM     27  C   UNL A   1      36.701  23.000  25.751  1.00  0.00     0.118 C 
BRANCH  27  28
ATOM     28  N   UNL A   1      37.671  21.914  25.877  1.00  0.00    -0.352 N 
ATOM     29  C   UNL A   1      38.996  21.958  26.234  1.00  0.00     0.251 C 
ATOM     30  H   UNL A   1      37.322  21.017  25.674  1.00  0.00     0.163 HD
ATOM     31  O   UNL A   1      39.704  20.971  26.061  1.00  0.00    -0.269 OA
BRANCH  29  32
ATOM     32  C   UNL A   1      39.556  23.199  26.807  1.00  0.00     0.039 A 
ATOM     33  C   UNL A   1      40.459  23.118  27.868  1.00  0.00     0.014 A 
ATOM     34  C   UNL A   1      39.205  24.441  26.272  1.00  0.00     0.014 A 
ATOM     35  C   UNL A   1      41.074  24.281  28.335  1.00  0.00     0.010 A 
ATOM     36  C   UNL A   1      39.893  25.578  26.667  1.00  0.00     0.010 A 
ATOM     37  C   UNL A   1      40.832  25.512  27.704  1.00  0.00    -0.014 A 
BRANCH  37  38
ATOM     38  C   UNL A   1      41.561  26.744  28.093  1.00  0.00     0.031 A 
ATOM     39  C   UNL A   1      40.811  27.921  28.650  1.00  0.00     0.074 A 
ATOM     40  C   UNL A   1      42.886  26.832  27.857  1.00  0.00     0.049 A 
ATOM     41  N   UNL A   1      41.261  29.103  28.984  1.00  0.00    -0.248 NA
ATOM     42  C   UNL A   1      39.359  27.760  28.826  1.00  0.00     0.031 C 
ATOM     43  C   UNL A   1      43.716  25.773  27.278  1.00  0.00     0.029 A 
ATOM     44  N   UNL A   1      43.765  27.861  28.072  1.00  0.00    -0.354 N 
ATOM     45  C   UNL A   1      40.148  29.831  29.385  1.00  0.00     0.074 A 
ATOM     46  C   UNL A   1      38.996  28.978  29.196  1.00  0.00     0.031 C 
ATOM     47  C   UNL A   1      44.990  26.190  27.228  1.00  0.00     0.029 A 
ATOM     48  C   UNL A   1      45.060  27.562  27.721  1.00  0.00     0.049 A 
ATOM     49  H   UNL A   1      43.495  28.733  28.443  1.00  0.00     0.167 HD
ATOM     50  C   UNL A   1      40.090  31.089  29.884  1.00  0.00     0.031 A 
ATOM     51  C   UNL A   1      46.180  28.308  27.788  1.00  0.00     0.031 A 
ATOM     52  C   UNL A   1      41.242  31.931  30.067  1.00  0.00     0.049 A 
ATOM     53  C   UNL A   1      46.091  29.711  28.318  1.00  0.00     0.074 A 
ATOM     54  C   UNL A   1      41.304  33.196  30.623  1.00  0.00     0.029 A 
ATOM     55  N   UNL A   1      42.534  31.596  29.684  1.00  0.00    -0.354 N 
ATOM     56  N   UNL A   1      45.040  30.357  28.766  1.00  0.00    -0.248 NA
ATOM     57  C   UNL A   1      47.339  30.483  28.355  1.00  0.00     0.031 C 
ATOM     58  C   UNL A   1      42.624  33.651  30.521  1.00  0.00     0.029 A 
ATOM     59  C   UNL A   1      43.395  32.645  29.959  1.00  0.00     0.049 A 
ATOM     60  H   UNL A   1      42.798  30.741  29.278  1.00  0.00     0.167 HD
ATOM     61  C   UNL A   1      45.505  31.606  29.161  1.00  0.00     0.074 A 
ATOM     62  C   UNL A   1      46.933  31.618  28.910  1.00  0.00     0.031 C 
ATOM     63  C   UNL A   1      44.812  32.647  29.688  1.00  0.00     0.031 A 
BRANCH  50  64
ATOM     64  C   UNL A   1      38.726  31.625  30.239  1.00  0.00    -0.014 A 
ATOM     65  C   UNL A   1      37.912  32.249  29.276  1.00  0.00     0.010 A 
ATOM     66  C   UNL A   1      38.258  31.520  31.562  1.00  0.00     0.010 A 
ATOM     67  C   UNL A   1      36.691  32.823  29.643  1.00  0.00     0.020 A 
ATOM     68  C   UNL A   1      37.022  32.063  31.925  1.00  0.00     0.020 A 
ATOM     69  C   UNL A   1      36.261  32.738  30.969  1.00  0.00     0.054 A 
BRANCH  69  70
ATOM     70  S   UNL A   1      34.691  33.521  31.426  1.00  0.00     0.124 S 
ATOM     71  O   UNL A   1      34.036  33.659  30.127  1.00  0.00    -0.237 OA
ATOM     72  O   UNL A   1      34.092  32.540  32.327  1.00  0.00    -0.237 OA
ATOM     73  O   UNL A   1      35.098  34.775  32.055  1.00  0.00    -0.744 OA
ENDBRANCH  69  70
ENDBRANCH  50  64
BRANCH  51  74
ATOM     74  C   UNL A   1      47.482  27.715  27.381  1.00  0.00    -0.014 A 
ATOM     75  C   UNL A   1      47.894  27.781  26.039  1.00  0.00     0.010 A 
ATOM     76  C   UNL A   1      48.342  27.139  28.334  1.00  0.00     0.010 A 
ATOM     77  C   UNL A   1      49.144  27.284  25.656  1.00  0.00     0.020 A 
ATOM     78  C   UNL A   1      49.603  26.664  27.959  1.00  0.00     0.020 A 
ATOM     79  C   UNL A   1      49.994  26.738  26.621  1.00  0.00     0.054 A 
BRANCH  79  80
ATOM     80  S   UNL A   1      51.646  26.184  26.111  1.00  0.00     0.124 S 
ATOM     81  O   UNL A   1      52.514  27.051  26.900  1.00  0.00    -0.237 OA
ATOM     82  O   UNL A   1      51.637  24.775  26.497  1.00  0.00    -0.237 OA
ATOM     83  O   UNL A   1      51.659  26.427  24.670  1.00  0.00    -0.744 OA
ENDBRANCH  79  80
ENDBRANCH  51  74
BRANCH  63  84
ATOM     84  C   UNL A   1      45.591  33.885  30.047  1.00  0.00    -0.014 A 
ATOM     85  C   UNL A   1      46.322  33.963  31.245  1.00  0.00     0.010 A 
ATOM     86  C   UNL A   1      45.640  34.960  29.141  1.00  0.00     0.010 A 
ATOM     87  C   UNL A   1      47.069  35.106  31.542  1.00  0.00     0.020 A 
ATOM     88  C   UNL A   1      46.410  36.092  29.421  1.00  0.00     0.020 A 
ATOM     89  C   UNL A   1      47.110  36.162  30.626  1.00  0.00     0.054 A 
BRANCH  89  90
ATOM     90  S   UNL A   1      48.133  37.610  31.012  1.00  0.00     0.124 S 
ATOM     91  O   UNL A   1      47.133  38.667  31.124  1.00  0.00    -0.237 OA
ATOM     92  O   UNL A   1      48.780  37.220  32.261  1.00  0.00    -0.237 OA
ATOM     93  O   UNL A   1      49.027  37.718  29.861  1.00  0.00    -0.744 OA
ENDBRANCH  89  90
ENDBRANCH  63  84
ENDBRANCH  37  38
ENDBRANCH  29  32
ENDBRANCH  27  28
ENDBRANCH  26  27
ENDBRANCH   1  26
TORSDOF 19
ENDMDL
