MODEL 1
REMARK VINA RESULT:      -9.8      0.000      0.000
REMARK SMILES O=C(NCCCNC(=O)c1ccc(-c2c3nc(c(-c4ccc(S(=O)(=O)[O-])cc4)c4ccc([nH]4)c(-c4ccc(S(=O)(=O)[O-])cc4)c4nc(c(-c5ccc(S(=O)(=O)[O-])cc5)c5ccc2[nH]5)C=C4)C=C3)cc1)c1ccc(C[C@H]2SC(=O)N(c3ccccc3)C2=O)cc1
REMARK SMILES IDX 5 1 4 2 3 3 1 4 2 5 70 7 71 8 89 9 72 10 88 11 73 12 74 13
REMARK SMILES IDX 75 14 76 15 86 16 77 17 79 18 87 19 78 20 80 21 81 22 85 23
REMARK SMILES IDX 82 24 84 25 83 26 6 27 7 28 8 29 9 31 10 32 11 33 69 34
REMARK SMILES IDX 12 35 68 36 13 37 14 38 15 39 62 40 16 41 67 42 61 43 63 44
REMARK SMILES IDX 17 45 66 46 60 47 59 48 18 50 48 51 29 52 47 53 30 54 33 55
REMARK SMILES IDX 46 56 64 57 31 58 32 59 45 61 65 62 34 63 19 64 20 65 28 66
REMARK SMILES IDX 21 67 27 68 22 69 23 70 24 71 25 72 26 73 49 74 50 75 58 76
REMARK SMILES IDX 51 77 57 78 52 79 53 80 54 81 55 82 56 83 35 84 36 85 44 86
REMARK SMILES IDX 37 87 43 88 38 89 39 90 40 91 41 92 42 93
REMARK H PARENT 3 6 7 30 63 49 33 60
REMARK Flexibility Score: inf
ROOT
ATOM      1  C   UNL A   1      34.850  33.111  30.187  1.00  0.00     0.042 C 
ENDROOT
BRANCH   1   2
ATOM      2  C   UNL A   1      36.126  33.328  30.985  1.00  0.00     0.118 C 
BRANCH   2   3
ATOM      3  N   UNL A   1      35.862  33.675  32.376  1.00  0.00    -0.352 N 
ATOM      4  O   UNL A   1      35.836  33.360  34.615  1.00  0.00    -0.269 OA
ATOM      5  C   UNL A   1      36.279  33.038  33.518  1.00  0.00     0.251 C 
ATOM      6  H   UNL A   1      35.307  34.476  32.515  1.00  0.00     0.163 HD
BRANCH   5   7
ATOM      7  C   UNL A   1      37.267  31.947  33.414  1.00  0.00     0.039 A 
ATOM      8  C   UNL A   1      36.884  30.702  32.912  1.00  0.00     0.014 A 
ATOM      9  C   UNL A   1      38.579  32.169  33.834  1.00  0.00     0.014 A 
ATOM     10  C   UNL A   1      37.792  29.648  32.918  1.00  0.00     0.004 A 
ATOM     11  C   UNL A   1      39.489  31.108  33.841  1.00  0.00     0.004 A 
ATOM     12  C   UNL A   1      39.094  29.831  33.410  1.00  0.00    -0.046 A 
BRANCH  12  13
ATOM     13  C   UNL A   1      40.047  28.660  33.480  1.00  0.00     0.060 C 
BRANCH  13  14
ATOM     14  C   UNL A   1      41.448  28.984  34.031  1.00  0.00     0.151 C 
ATOM     15  S   UNL A   1      41.500  29.147  35.834  1.00  0.00    -0.050 SA
ATOM     16  C   UNL A   1      42.360  27.812  33.720  1.00  0.00     0.248 C 
ATOM     17  C   UNL A   1      42.214  27.566  36.055  1.00  0.00     0.293 C 
ATOM     18  N   UNL A   1      42.645  27.057  34.850  1.00  0.00    -0.240 N 
ATOM     19  O   UNL A   1      42.672  27.548  32.561  1.00  0.00    -0.273 OA
ATOM     20  O   UNL A   1      42.301  27.080  37.169  1.00  0.00    -0.261 OA
BRANCH  18  21
ATOM     21  C   UNL A   1      43.325  25.806  34.770  1.00  0.00     0.053 A 
ATOM     22  C   UNL A   1      42.645  24.598  34.980  1.00  0.00     0.027 A 
ATOM     23  C   UNL A   1      44.700  25.752  34.488  1.00  0.00     0.027 A 
ATOM     24  C   UNL A   1      43.317  23.374  34.906  1.00  0.00     0.002 A 
ATOM     25  C   UNL A   1      45.378  24.530  34.445  1.00  0.00     0.002 A 
ATOM     26  C   UNL A   1      44.685  23.340  34.649  1.00  0.00     0.000 A 
ENDBRANCH  18  21
ENDBRANCH  13  14
ENDBRANCH  12  13
ENDBRANCH   5   7
ENDBRANCH   2   3
ENDBRANCH   1   2
BRANCH   1  27
ATOM     27  C   UNL A   1      35.071  32.995  28.687  1.00  0.00     0.118 C 
BRANCH  27  28
ATOM     28  N   UNL A   1      34.208  31.999  28.061  1.00  0.00    -0.352 N 
ATOM     29  C   UNL A   1      34.498  30.717  27.655  1.00  0.00     0.251 C 
ATOM     30  H   UNL A   1      33.280  32.289  27.905  1.00  0.00     0.163 HD
ATOM     31  O   UNL A   1      33.680  30.086  26.992  1.00  0.00    -0.269 OA
BRANCH  29  32
ATOM     32  C   UNL A   1      35.804  30.119  27.997  1.00  0.00     0.039 A 
ATOM     33  C   UNL A   1      36.843  30.156  27.061  1.00  0.00     0.014 A 
ATOM     34  C   UNL A   1      36.011  29.541  29.251  1.00  0.00     0.014 A 
ATOM     35  C   UNL A   1      38.111  29.691  27.418  1.00  0.00     0.010 A 
ATOM     36  C   UNL A   1      37.293  29.170  29.636  1.00  0.00     0.010 A 
ATOM     37  C   UNL A   1      38.357  29.237  28.723  1.00  0.00    -0.014 A 
BRANCH  37  38
ATOM     38  C   UNL A   1      39.705  28.806  29.174  1.00  0.00     0.031 A 
ATOM     39  C   UNL A   1      40.590  29.782  29.902  1.00  0.00     0.074 A 
ATOM     40  C   UNL A   1      40.173  27.585  28.844  1.00  0.00     0.049 A 
ATOM     41  N   UNL A   1      41.847  29.664  30.243  1.00  0.00    -0.248 NA
ATOM     42  C   UNL A   1      39.987  31.075  30.266  1.00  0.00     0.031 C 
ATOM     43  C   UNL A   1      39.423  26.552  28.125  1.00  0.00     0.029 A 
ATOM     44  N   UNL A   1      41.403  27.014  29.055  1.00  0.00    -0.354 N 
ATOM     45  C   UNL A   1      42.191  30.875  30.834  1.00  0.00     0.074 A 
ATOM     46  C   UNL A   1      41.028  31.730  30.754  1.00  0.00     0.031 C 
ATOM     47  C   UNL A   1      40.201  25.469  27.977  1.00  0.00     0.029 A 
ATOM     48  C   UNL A   1      41.521  25.747  28.534  1.00  0.00     0.049 A 
ATOM     49  H   UNL A   1      42.133  27.468  29.534  1.00  0.00     0.167 HD
ATOM     50  C   UNL A   1      43.364  31.235  31.408  1.00  0.00     0.031 A 
ATOM     51  C   UNL A   1      42.575  24.909  28.492  1.00  0.00     0.031 A 
ATOM     52  C   UNL A   1      44.516  30.379  31.485  1.00  0.00     0.049 A 
ATOM     53  C   UNL A   1      43.883  25.346  29.097  1.00  0.00     0.074 A 
ATOM     54  C   UNL A   1      45.739  30.633  32.080  1.00  0.00     0.029 A 
ATOM     55  N   UNL A   1      44.590  29.102  30.947  1.00  0.00    -0.354 N 
ATOM     56  N   UNL A   1      44.180  26.479  29.688  1.00  0.00    -0.248 NA
ATOM     57  C   UNL A   1      44.995  24.388  29.036  1.00  0.00     0.031 C 
ATOM     58  C   UNL A   1      46.573  29.536  31.848  1.00  0.00     0.029 A 
ATOM     59  C   UNL A   1      45.846  28.564  31.177  1.00  0.00     0.049 A 
ATOM     60  H   UNL A   1      43.859  28.645  30.473  1.00  0.00     0.167 HD
ATOM     61  C   UNL A   1      45.500  26.353  30.108  1.00  0.00     0.074 A 
ATOM     62  C   UNL A   1      45.944  25.034  29.703  1.00  0.00     0.031 C 
ATOM     63  C   UNL A   1      46.271  27.246  30.777  1.00  0.00     0.031 A 
BRANCH  50  64
ATOM     64  C   UNL A   1      43.455  32.629  31.979  1.00  0.00    -0.014 A 
ATOM     65  C   UNL A   1      43.032  32.909  33.292  1.00  0.00     0.010 A 
ATOM     66  C   UNL A   1      43.982  33.671  31.195  1.00  0.00     0.010 A 
ATOM     67  C   UNL A   1      43.077  34.216  33.787  1.00  0.00     0.020 A 
ATOM     68  C   UNL A   1      44.063  34.972  31.699  1.00  0.00     0.020 A 
ATOM     69  C   UNL A   1      43.587  35.240  32.985  1.00  0.00     0.054 A 
BRANCH  69  70
ATOM     70  S   UNL A   1      43.630  36.925  33.653  1.00  0.00     0.124 S 
ATOM     71  O   UNL A   1      44.838  36.890  34.476  1.00  0.00    -0.237 OA
ATOM     72  O   UNL A   1      43.715  37.745  32.448  1.00  0.00    -0.237 OA
ATOM     73  O   UNL A   1      42.376  37.037  34.393  1.00  0.00    -0.744 OA
ENDBRANCH  69  70
ENDBRANCH  50  64
BRANCH  51  74
ATOM     74  C   UNL A   1      42.430  23.563  27.872  1.00  0.00    -0.014 A 
ATOM     75  C   UNL A   1      42.824  23.349  26.539  1.00  0.00     0.010 A 
ATOM     76  C   UNL A   1      41.922  22.481  28.614  1.00  0.00     0.010 A 
ATOM     77  C   UNL A   1      42.704  22.083  25.957  1.00  0.00     0.020 A 
ATOM     78  C   UNL A   1      41.828  21.208  28.046  1.00  0.00     0.020 A 
ATOM     79  C   UNL A   1      42.212  21.018  26.717  1.00  0.00     0.054 A 
BRANCH  79  80
ATOM     80  S   UNL A   1      42.128  19.372  25.959  1.00  0.00     0.124 S 
ATOM     81  O   UNL A   1      42.629  18.518  27.032  1.00  0.00    -0.237 OA
ATOM     82  O   UNL A   1      40.706  19.239  25.655  1.00  0.00    -0.237 OA
ATOM     83  O   UNL A   1      43.000  19.487  24.792  1.00  0.00    -0.744 OA
ENDBRANCH  79  80
ENDBRANCH  51  74
BRANCH  63  84
ATOM     84  C   UNL A   1      47.658  26.816  31.177  1.00  0.00    -0.014 A 
ATOM     85  C   UNL A   1      47.906  26.158  32.395  1.00  0.00     0.010 A 
ATOM     86  C   UNL A   1      48.720  27.003  30.271  1.00  0.00     0.010 A 
ATOM     87  C   UNL A   1      49.195  25.713  32.706  1.00  0.00     0.020 A 
ATOM     88  C   UNL A   1      50.001  26.532  30.565  1.00  0.00     0.020 A 
ATOM     89  C   UNL A   1      50.233  25.898  31.785  1.00  0.00     0.054 A 
BRANCH  89  90
ATOM     90  S   UNL A   1      51.879  25.250  32.185  1.00  0.00     0.124 S 
ATOM     91  O   UNL A   1      51.651  23.808  32.173  1.00  0.00    -0.237 OA
ATOM     92  O   UNL A   1      52.699  25.765  31.090  1.00  0.00    -0.237 OA
ATOM     93  O   UNL A   1      52.171  25.824  33.496  1.00  0.00    -0.744 OA
ENDBRANCH  89  90
ENDBRANCH  63  84
ENDBRANCH  37  38
ENDBRANCH  29  32
ENDBRANCH  27  28
ENDBRANCH   1  27
TORSDOF 16
ENDMDL
MODEL 2
REMARK VINA RESULT:      -9.7      2.050      3.247
REMARK SMILES O=C(NCCCNC(=O)c1ccc(-c2c3nc(c(-c4ccc(S(=O)(=O)[O-])cc4)c4ccc([nH]4)c(-c4ccc(S(=O)(=O)[O-])cc4)c4nc(c(-c5ccc(S(=O)(=O)[O-])cc5)c5ccc2[nH]5)C=C4)C=C3)cc1)c1ccc(C[C@H]2SC(=O)N(c3ccccc3)C2=O)cc1
REMARK SMILES IDX 5 1 4 2 3 3 1 4 2 5 70 7 71 8 89 9 72 10 88 11 73 12 74 13
REMARK SMILES IDX 75 14 76 15 86 16 77 17 79 18 87 19 78 20 80 21 81 22 85 23
REMARK SMILES IDX 82 24 84 25 83 26 6 27 7 28 8 29 9 31 10 32 11 33 69 34
REMARK SMILES IDX 12 35 68 36 13 37 14 38 15 39 62 40 16 41 67 42 61 43 63 44
REMARK SMILES IDX 17 45 66 46 60 47 59 48 18 50 48 51 29 52 47 53 30 54 33 55
REMARK SMILES IDX 46 56 64 57 31 58 32 59 45 61 65 62 34 63 19 64 20 65 28 66
REMARK SMILES IDX 21 67 27 68 22 69 23 70 24 71 25 72 26 73 49 74 50 75 58 76
REMARK SMILES IDX 51 77 57 78 52 79 53 80 54 81 55 82 56 83 35 84 36 85 44 86
REMARK SMILES IDX 37 87 43 88 38 89 39 90 40 91 41 92 42 93
REMARK H PARENT 3 6 7 30 63 49 33 60
REMARK Flexibility Score: inf
ROOT
ATOM      1  C   UNL A   1      33.614  33.837  28.027  1.00  0.00     0.042 C 
ENDROOT
BRANCH   1   2
ATOM      2  C   UNL A   1      34.145  35.130  28.625  1.00  0.00     0.118 C 
BRANCH   2   3
ATOM      3  N   UNL A   1      33.117  35.880  29.335  1.00  0.00    -0.352 N 
ATOM      4  O   UNL A   1      31.850  36.478  31.111  1.00  0.00    -0.269 OA
ATOM      5  C   UNL A   1      32.858  35.926  30.682  1.00  0.00     0.251 C 
ATOM      6  H   UNL A   1      32.525  36.428  28.770  1.00  0.00     0.163 HD
BRANCH   5   7
ATOM      7  C   UNL A   1      33.805  35.293  31.619  1.00  0.00     0.039 A 
ATOM      8  C   UNL A   1      34.069  33.925  31.530  1.00  0.00     0.014 A 
ATOM      9  C   UNL A   1      34.423  36.071  32.600  1.00  0.00     0.014 A 
ATOM     10  C   UNL A   1      34.878  33.316  32.484  1.00  0.00     0.004 A 
ATOM     11  C   UNL A   1      35.234  35.456  33.557  1.00  0.00     0.004 A 
ATOM     12  C   UNL A   1      35.444  34.068  33.524  1.00  0.00    -0.046 A 
BRANCH  12  13
ATOM     13  C   UNL A   1      36.261  33.382  34.595  1.00  0.00     0.060 C 
BRANCH  13  14
ATOM     14  C   UNL A   1      37.757  33.750  34.619  1.00  0.00     0.151 C 
ATOM     15  S   UNL A   1      38.499  33.663  36.269  1.00  0.00    -0.050 SA
ATOM     16  C   UNL A   1      38.510  32.719  33.799  1.00  0.00     0.248 C 
ATOM     17  C   UNL A   1      39.288  32.137  35.941  1.00  0.00     0.293 C 
ATOM     18  N   UNL A   1      39.232  31.843  34.597  1.00  0.00    -0.240 N 
ATOM     19  O   UNL A   1      38.355  32.649  32.581  1.00  0.00    -0.273 OA
ATOM     20  O   UNL A   1      39.814  31.510  36.843  1.00  0.00    -0.261 OA
BRANCH  18  21
ATOM     21  C   UNL A   1      39.863  30.681  34.061  1.00  0.00     0.053 A 
ATOM     22  C   UNL A   1      41.259  30.547  34.070  1.00  0.00     0.027 A 
ATOM     23  C   UNL A   1      39.102  29.643  33.500  1.00  0.00     0.027 A 
ATOM     24  C   UNL A   1      41.875  29.410  33.539  1.00  0.00     0.002 A 
ATOM     25  C   UNL A   1      39.719  28.520  32.941  1.00  0.00     0.002 A 
ATOM     26  C   UNL A   1      41.106  28.401  32.966  1.00  0.00     0.000 A 
ENDBRANCH  18  21
ENDBRANCH  13  14
ENDBRANCH  12  13
ENDBRANCH   5   7
ENDBRANCH   2   3
ENDBRANCH   1   2
BRANCH   1  27
ATOM     27  C   UNL A   1      34.564  32.658  28.156  1.00  0.00     0.118 C 
BRANCH  27  28
ATOM     28  N   UNL A   1      33.932  31.380  27.847  1.00  0.00    -0.352 N 
ATOM     29  C   UNL A   1      34.489  30.126  27.751  1.00  0.00     0.251 C 
ATOM     30  H   UNL A   1      32.962  31.422  27.683  1.00  0.00     0.163 HD
ATOM     31  O   UNL A   1      33.821  29.193  27.316  1.00  0.00    -0.269 OA
BRANCH  29  32
ATOM     32  C   UNL A   1      35.897  29.917  28.147  1.00  0.00     0.039 A 
ATOM     33  C   UNL A   1      36.193  29.563  29.466  1.00  0.00     0.014 A 
ATOM     34  C   UNL A   1      36.922  30.046  27.208  1.00  0.00     0.014 A 
ATOM     35  C   UNL A   1      37.509  29.257  29.820  1.00  0.00     0.010 A 
ATOM     36  C   UNL A   1      38.211  29.647  27.537  1.00  0.00     0.010 A 
ATOM     37  C   UNL A   1      38.521  29.253  28.848  1.00  0.00    -0.014 A 
BRANCH  37  38
ATOM     38  C   UNL A   1      39.920  28.858  29.156  1.00  0.00     0.031 A 
ATOM     39  C   UNL A   1      40.864  29.874  29.744  1.00  0.00     0.074 A 
ATOM     40  C   UNL A   1      40.369  27.633  28.819  1.00  0.00     0.049 A 
ATOM     41  N   UNL A   1      42.153  29.786  29.942  1.00  0.00    -0.248 NA
ATOM     42  C   UNL A   1      40.282  31.170  30.128  1.00  0.00     0.031 C 
ATOM     43  C   UNL A   1      39.562  26.563  28.228  1.00  0.00     0.029 A 
ATOM     44  N   UNL A   1      41.626  27.088  28.908  1.00  0.00    -0.354 N 
ATOM     45  C   UNL A   1      42.540  31.023  30.447  1.00  0.00     0.074 A 
ATOM     46  C   UNL A   1      41.360  31.859  30.470  1.00  0.00     0.031 C 
ATOM     47  C   UNL A   1      40.337  25.486  28.030  1.00  0.00     0.029 A 
ATOM     48  C   UNL A   1      41.707  25.803  28.422  1.00  0.00     0.049 A 
ATOM     49  H   UNL A   1      42.397  27.570  29.284  1.00  0.00     0.167 HD
ATOM     50  C   UNL A   1      43.764  31.422  30.870  1.00  0.00     0.031 A 
ATOM     51  C   UNL A   1      42.765  24.980  28.290  1.00  0.00     0.031 A 
ATOM     52  C   UNL A   1      44.933  30.585  30.844  1.00  0.00     0.049 A 
ATOM     53  C   UNL A   1      44.125  25.458  28.725  1.00  0.00     0.074 A 
ATOM     54  C   UNL A   1      46.210  30.879  31.286  1.00  0.00     0.029 A 
ATOM     55  N   UNL A   1      44.968  29.290  30.348  1.00  0.00    -0.354 N 
ATOM     56  N   UNL A   1      44.466  26.616  29.238  1.00  0.00    -0.248 NA
ATOM     57  C   UNL A   1      45.241  24.514  28.572  1.00  0.00     0.031 C 
ATOM     58  C   UNL A   1      47.033  29.786  31.000  1.00  0.00     0.029 A 
ATOM     59  C   UNL A   1      46.252  28.780  30.451  1.00  0.00     0.049 A 
ATOM     60  H   UNL A   1      44.196  28.805  29.977  1.00  0.00     0.167 HD
ATOM     61  C   UNL A   1      45.828  26.525  29.508  1.00  0.00     0.074 A 
ATOM     62  C   UNL A   1      46.246  25.199  29.102  1.00  0.00     0.031 C 
ATOM     63  C   UNL A   1      46.653  27.454  30.052  1.00  0.00     0.031 A 
BRANCH  50  64
ATOM     64  C   UNL A   1      43.893  32.837  31.377  1.00  0.00    -0.014 A 
ATOM     65  C   UNL A   1      43.578  33.168  32.707  1.00  0.00     0.010 A 
ATOM     66  C   UNL A   1      44.348  33.849  30.511  1.00  0.00     0.010 A 
ATOM     67  C   UNL A   1      43.656  34.493  33.146  1.00  0.00     0.020 A 
ATOM     68  C   UNL A   1      44.463  35.169  30.956  1.00  0.00     0.020 A 
ATOM     69  C   UNL A   1      44.093  35.486  32.265  1.00  0.00     0.054 A 
BRANCH  69  70
ATOM     70  S   UNL A   1      44.181  37.196  32.862  1.00  0.00     0.124 S 
ATOM     71  O   UNL A   1      43.192  37.190  33.937  1.00  0.00    -0.237 OA
ATOM     72  O   UNL A   1      45.572  37.314  33.289  1.00  0.00    -0.237 OA
ATOM     73  O   UNL A   1      43.822  37.992  31.690  1.00  0.00    -0.744 OA
ENDBRANCH  69  70
ENDBRANCH  50  64
BRANCH  51  74
ATOM     74  C   UNL A   1      42.575  23.610  27.739  1.00  0.00    -0.014 A 
ATOM     75  C   UNL A   1      42.686  23.379  26.356  1.00  0.00     0.010 A 
ATOM     76  C   UNL A   1      42.307  22.523  28.591  1.00  0.00     0.010 A 
ATOM     77  C   UNL A   1      42.524  22.091  25.835  1.00  0.00     0.020 A 
ATOM     78  C   UNL A   1      42.173  21.230  28.079  1.00  0.00     0.020 A 
ATOM     79  C   UNL A   1      42.275  21.023  26.702  1.00  0.00     0.054 A 
BRANCH  79  80
ATOM     80  S   UNL A   1      42.134  19.352  26.008  1.00  0.00     0.124 S 
ATOM     81  O   UNL A   1      40.704  19.258  25.730  1.00  0.00    -0.237 OA
ATOM     82  O   UNL A   1      43.004  19.425  24.838  1.00  0.00    -0.237 OA
ATOM     83  O   UNL A   1      42.620  18.493  27.085  1.00  0.00    -0.744 OA
ENDBRANCH  79  80
ENDBRANCH  51  74
BRANCH  63  84
ATOM     84  C   UNL A   1      48.084  27.058  30.306  1.00  0.00    -0.014 A 
ATOM     85  C   UNL A   1      49.076  27.197  29.320  1.00  0.00     0.010 A 
ATOM     86  C   UNL A   1      48.454  26.616  31.592  1.00  0.00     0.010 A 
ATOM     87  C   UNL A   1      50.408  26.882  29.610  1.00  0.00     0.020 A 
ATOM     88  C   UNL A   1      49.787  26.332  31.893  1.00  0.00     0.020 A 
ATOM     89  C   UNL A   1      50.755  26.457  30.897  1.00  0.00     0.054 A 
BRANCH  89  90
ATOM     90  S   UNL A   1      52.499  26.123  31.265  1.00  0.00     0.124 S 
ATOM     91  O   UNL A   1      53.108  26.185  29.939  1.00  0.00    -0.237 OA
ATOM     92  O   UNL A   1      52.850  27.215  32.170  1.00  0.00    -0.237 OA
ATOM     93  O   UNL A   1      52.478  24.797  31.879  1.00  0.00    -0.744 OA
ENDBRANCH  89  90
ENDBRANCH  63  84
ENDBRANCH  37  38
ENDBRANCH  29  32
ENDBRANCH  27  28
ENDBRANCH   1  27
TORSDOF 16
ENDMDL
MODEL 3
REMARK VINA RESULT:      -9.6      3.371     10.789
REMARK SMILES O=C(NCCCNC(=O)c1ccc(-c2c3nc(c(-c4ccc(S(=O)(=O)[O-])cc4)c4ccc([nH]4)c(-c4ccc(S(=O)(=O)[O-])cc4)c4nc(c(-c5ccc(S(=O)(=O)[O-])cc5)c5ccc2[nH]5)C=C4)C=C3)cc1)c1ccc(C[C@H]2SC(=O)N(c3ccccc3)C2=O)cc1
REMARK SMILES IDX 5 1 4 2 3 3 1 4 2 5 70 7 71 8 89 9 72 10 88 11 73 12 74 13
REMARK SMILES IDX 75 14 76 15 86 16 77 17 79 18 87 19 78 20 80 21 81 22 85 23
REMARK SMILES IDX 82 24 84 25 83 26 6 27 7 28 8 29 9 31 10 32 11 33 69 34
REMARK SMILES IDX 12 35 68 36 13 37 14 38 15 39 62 40 16 41 67 42 61 43 63 44
REMARK SMILES IDX 17 45 66 46 60 47 59 48 18 50 48 51 29 52 47 53 30 54 33 55
REMARK SMILES IDX 46 56 64 57 31 58 32 59 45 61 65 62 34 63 19 64 20 65 28 66
REMARK SMILES IDX 21 67 27 68 22 69 23 70 24 71 25 72 26 73 49 74 50 75 58 76
REMARK SMILES IDX 51 77 57 78 52 79 53 80 54 81 55 82 56 83 35 84 36 85 44 86
REMARK SMILES IDX 37 87 43 88 38 89 39 90 40 91 41 92 42 93
REMARK H PARENT 3 6 7 30 63 49 33 60
REMARK Flexibility Score: inf
ROOT
ATOM      1  C   UNL A   1      42.346  22.266  26.331  1.00  0.00     0.042 C 
ENDROOT
BRANCH   1   2
ATOM      2  C   UNL A   1      43.350  23.044  27.168  1.00  0.00     0.118 C 
BRANCH   2   3
ATOM      3  N   UNL A   1      44.728  22.787  26.767  1.00  0.00    -0.352 N 
ATOM      4  O   UNL A   1      46.722  23.253  25.807  1.00  0.00    -0.269 OA
ATOM      5  C   UNL A   1      45.652  23.659  26.248  1.00  0.00     0.251 C 
ATOM      6  H   UNL A   1      45.037  21.859  26.883  1.00  0.00     0.163 HD
BRANCH   5   7
ATOM      7  C   UNL A   1      45.343  25.101  26.218  1.00  0.00     0.039 A 
ATOM      8  C   UNL A   1      46.089  25.994  26.990  1.00  0.00     0.014 A 
ATOM      9  C   UNL A   1      44.290  25.560  25.425  1.00  0.00     0.014 A 
ATOM     10  C   UNL A   1      45.723  27.334  27.041  1.00  0.00     0.004 A 
ATOM     11  C   UNL A   1      43.923  26.907  25.479  1.00  0.00     0.004 A 
ATOM     12  C   UNL A   1      44.618  27.800  26.311  1.00  0.00    -0.046 A 
BRANCH  12  13
ATOM     13  C   UNL A   1      44.186  29.243  26.433  1.00  0.00     0.060 C 
BRANCH  13  14
ATOM     14  C   UNL A   1      44.983  30.085  27.447  1.00  0.00     0.151 C 
ATOM     15  S   UNL A   1      46.521  30.766  26.776  1.00  0.00    -0.050 SA
ATOM     16  C   UNL A   1      44.148  31.298  27.813  1.00  0.00     0.248 C 
ATOM     17  C   UNL A   1      45.843  32.366  26.581  1.00  0.00     0.293 C 
ATOM     18  N   UNL A   1      44.633  32.461  27.232  1.00  0.00    -0.240 N 
ATOM     19  O   UNL A   1      43.105  31.173  28.452  1.00  0.00    -0.273 OA
ATOM     20  O   UNL A   1      46.451  33.222  25.963  1.00  0.00    -0.261 OA
BRANCH  18  21
ATOM     21  C   UNL A   1      43.906  33.688  27.280  1.00  0.00     0.053 A 
ATOM     22  C   UNL A   1      43.641  34.324  28.502  1.00  0.00     0.027 A 
ATOM     23  C   UNL A   1      43.427  34.287  26.104  1.00  0.00     0.027 A 
ATOM     24  C   UNL A   1      42.925  35.524  28.546  1.00  0.00     0.002 A 
ATOM     25  C   UNL A   1      42.683  35.470  26.151  1.00  0.00     0.002 A 
ATOM     26  C   UNL A   1      42.437  36.091  27.372  1.00  0.00     0.000 A 
ENDBRANCH  18  21
ENDBRANCH  13  14
ENDBRANCH  12  13
ENDBRANCH   5   7
ENDBRANCH   2   3
ENDBRANCH   1   2
BRANCH   1  27
ATOM     27  C   UNL A   1      41.165  21.730  27.123  1.00  0.00     0.118 C 
BRANCH  27  28
ATOM     28  N   UNL A   1      39.912  21.773  26.376  1.00  0.00    -0.352 N 
ATOM     29  C   UNL A   1      38.980  22.780  26.281  1.00  0.00     0.251 C 
ATOM     30  H   UNL A   1      39.703  20.959  25.863  1.00  0.00     0.163 HD
ATOM     31  O   UNL A   1      37.902  22.567  25.734  1.00  0.00    -0.269 OA
BRANCH  29  32
ATOM     32  C   UNL A   1      39.273  24.106  26.864  1.00  0.00     0.039 A 
ATOM     33  C   UNL A   1      38.832  24.400  28.157  1.00  0.00     0.014 A 
ATOM     34  C   UNL A   1      40.005  25.050  26.140  1.00  0.00     0.014 A 
ATOM     35  C   UNL A   1      39.199  25.609  28.754  1.00  0.00     0.010 A 
ATOM     36  C   UNL A   1      40.450  26.206  26.770  1.00  0.00     0.010 A 
ATOM     37  C   UNL A   1      40.049  26.501  28.082  1.00  0.00    -0.014 A 
BRANCH  37  38
ATOM     38  C   UNL A   1      40.532  27.761  28.704  1.00  0.00     0.031 A 
ATOM     39  C   UNL A   1      41.916  27.813  29.293  1.00  0.00     0.074 A 
ATOM     40  C   UNL A   1      39.702  28.815  28.831  1.00  0.00     0.049 A 
ATOM     41  N   UNL A   1      42.473  28.752  30.013  1.00  0.00    -0.248 NA
ATOM     42  C   UNL A   1      42.774  26.638  29.069  1.00  0.00     0.031 C 
ATOM     43  C   UNL A   1      38.332  28.887  28.319  1.00  0.00     0.029 A 
ATOM     44  N   UNL A   1      39.887  30.026  29.451  1.00  0.00    -0.354 N 
ATOM     45  C   UNL A   1      43.733  28.269  30.350  1.00  0.00     0.074 A 
ATOM     46  C   UNL A   1      43.835  26.934  29.804  1.00  0.00     0.031 C 
ATOM     47  C   UNL A   1      37.810  30.085  28.625  1.00  0.00     0.029 A 
ATOM     48  C   UNL A   1      38.782  30.845  29.404  1.00  0.00     0.049 A 
ATOM     49  H   UNL A   1      40.730  30.285  29.887  1.00  0.00     0.167 HD
ATOM     50  C   UNL A   1      44.723  28.889  31.037  1.00  0.00     0.031 A 
ATOM     51  C   UNL A   1      38.568  32.061  29.943  1.00  0.00     0.031 A 
ATOM     52  C   UNL A   1      44.615  30.217  31.577  1.00  0.00     0.049 A 
ATOM     53  C   UNL A   1      39.666  32.714  30.741  1.00  0.00     0.074 A 
ATOM     54  C   UNL A   1      45.573  30.950  32.254  1.00  0.00     0.029 A 
ATOM     55  N   UNL A   1      43.480  31.011  31.504  1.00  0.00    -0.354 N 
ATOM     56  N   UNL A   1      40.866  32.260  31.015  1.00  0.00    -0.248 NA
ATOM     57  C   UNL A   1      39.383  34.046  31.293  1.00  0.00     0.031 C 
ATOM     58  C   UNL A   1      44.998  32.162  32.645  1.00  0.00     0.029 A 
ATOM     59  C   UNL A   1      43.706  32.218  32.143  1.00  0.00     0.049 A 
ATOM     60  H   UNL A   1      42.638  30.755  31.062  1.00  0.00     0.167 HD
ATOM     61  C   UNL A   1      41.496  33.269  31.736  1.00  0.00     0.074 A 
ATOM     62  C   UNL A   1      40.545  34.356  31.854  1.00  0.00     0.031 C 
ATOM     63  C   UNL A   1      42.753  33.296  32.245  1.00  0.00     0.031 A 
BRANCH  50  64
ATOM     64  C   UNL A   1      46.001  28.117  31.255  1.00  0.00    -0.014 A 
ATOM     65  C   UNL A   1      47.065  28.192  30.338  1.00  0.00     0.010 A 
ATOM     66  C   UNL A   1      46.144  27.313  32.402  1.00  0.00     0.010 A 
ATOM     67  C   UNL A   1      48.222  27.430  30.530  1.00  0.00     0.020 A 
ATOM     68  C   UNL A   1      47.314  26.579  32.617  1.00  0.00     0.020 A 
ATOM     69  C   UNL A   1      48.336  26.624  31.666  1.00  0.00     0.054 A 
BRANCH  69  70
ATOM     70  S   UNL A   1      49.847  25.647  31.888  1.00  0.00     0.124 S 
ATOM     71  O   UNL A   1      49.411  24.634  32.847  1.00  0.00    -0.237 OA
ATOM     72  O   UNL A   1      50.113  25.160  30.538  1.00  0.00    -0.237 OA
ATOM     73  O   UNL A   1      50.814  26.614  32.400  1.00  0.00    -0.744 OA
ENDBRANCH  69  70
ENDBRANCH  50  64
BRANCH  51  74
ATOM     74  C   UNL A   1      37.265  32.749  29.727  1.00  0.00    -0.014 A 
ATOM     75  C   UNL A   1      36.283  32.742  30.734  1.00  0.00     0.010 A 
ATOM     76  C   UNL A   1      37.006  33.437  28.527  1.00  0.00     0.010 A 
ATOM     77  C   UNL A   1      35.064  33.400  30.542  1.00  0.00     0.020 A 
ATOM     78  C   UNL A   1      35.801  34.121  28.343  1.00  0.00     0.020 A 
ATOM     79  C   UNL A   1      34.834  34.092  29.349  1.00  0.00     0.054 A 
BRANCH  79  80
ATOM     80  S   UNL A   1      33.271  34.992  29.151  1.00  0.00     0.124 S 
ATOM     81  O   UNL A   1      33.731  36.305  28.710  1.00  0.00    -0.237 OA
ATOM     82  O   UNL A   1      32.574  34.193  28.147  1.00  0.00    -0.237 OA
ATOM     83  O   UNL A   1      32.682  34.953  30.488  1.00  0.00    -0.744 OA
ENDBRANCH  79  80
ENDBRANCH  51  74
BRANCH  63  84
ATOM     84  C   UNL A   1      43.209  34.561  32.924  1.00  0.00    -0.014 A 
ATOM     85  C   UNL A   1      43.736  35.642  32.198  1.00  0.00     0.010 A 
ATOM     86  C   UNL A   1      43.027  34.693  34.315  1.00  0.00     0.010 A 
ATOM     87  C   UNL A   1      44.088  36.827  32.852  1.00  0.00     0.020 A 
ATOM     88  C   UNL A   1      43.348  35.886  34.966  1.00  0.00     0.020 A 
ATOM     89  C   UNL A   1      43.886  36.942  34.232  1.00  0.00     0.054 A 
BRANCH  89  90
ATOM     90  S   UNL A   1      44.287  38.514  35.044  1.00  0.00     0.124 S 
ATOM     91  O   UNL A   1      43.771  38.301  36.393  1.00  0.00    -0.237 OA
ATOM     92  O   UNL A   1      45.743  38.570  34.930  1.00  0.00    -0.237 OA
ATOM     93  O   UNL A   1      43.569  39.509  34.252  1.00  0.00    -0.744 OA
ENDBRANCH  89  90
ENDBRANCH  63  84
ENDBRANCH  37  38
ENDBRANCH  29  32
ENDBRANCH  27  28
ENDBRANCH   1  27
TORSDOF 16
ENDMDL
