MODEL 1
REMARK VINA RESULT:     -12.1      0.000      0.000
REMARK SMILES O=C(NCCCNC(=O)c1conc1-c1ccc(Cl)cc1)c1ccc(-c2c3nc(c(-c4ccc(S(=O)(=O)[O-])cc4)c4ccc([nH]4)c(-c4ccc(S(=O)(=O)[O-])cc4)c4nc(c(-c5ccc(S(=O)(=O)[O-])cc5)c5ccc2[nH]5)C=C4)C=C3)cc1
REMARK SMILES IDX 4 1 3 2 1 3 2 4 22 6 23 7 81 8 24 9 80 10 25 11 26 12 27 13
REMARK SMILES IDX 74 14 28 15 79 16 73 17 75 18 29 19 78 20 72 21 71 22 30 24
REMARK SMILES IDX 60 25 41 26 59 27 42 28 45 29 58 30 76 31 43 32 44 33 57 35
REMARK SMILES IDX 77 36 46 37 31 38 32 39 40 40 33 41 39 42 34 43 35 44 36 45
REMARK SMILES IDX 37 46 38 47 61 48 62 49 70 50 63 51 69 52 64 53 65 54 66 55
REMARK SMILES IDX 67 56 68 57 47 58 48 59 56 60 49 61 55 62 50 63 51 64 52 65
REMARK SMILES IDX 53 66 54 67 5 68 6 69 7 70 8 71 9 73 10 74 11 75 14 76 12 77
REMARK SMILES IDX 13 78 15 79 16 80 21 81 17 82 20 83 18 84 19 85
REMARK H PARENT 3 5 75 23 45 34 7 72
REMARK Flexibility Score: inf
ROOT
ATOM      1  C   UNL A   1      39.702  23.507  26.745  1.00  0.00     0.118 C 
ENDROOT
BRANCH   1   2
ATOM      2  N   UNL A   1      40.651  24.191  25.881  1.00  0.00    -0.352 N 
ATOM      3  O   UNL A   1      41.879  25.859  25.033  1.00  0.00    -0.269 OA
ATOM      4  C   UNL A   1      41.217  25.438  25.980  1.00  0.00     0.251 C 
ATOM      5  H   UNL A   1      40.936  23.673  25.093  1.00  0.00     0.163 HD
BRANCH   4   6
ATOM      6  C   UNL A   1      41.043  26.283  27.185  1.00  0.00     0.039 A 
ATOM      7  C   UNL A   1      41.714  27.499  27.337  1.00  0.00     0.014 A 
ATOM      8  C   UNL A   1      40.109  25.883  28.149  1.00  0.00     0.014 A 
ATOM      9  C   UNL A   1      41.518  28.265  28.486  1.00  0.00     0.010 A 
ATOM     10  C   UNL A   1      39.882  26.670  29.283  1.00  0.00     0.010 A 
ATOM     11  C   UNL A   1      40.601  27.857  29.470  1.00  0.00    -0.014 A 
BRANCH  11  12
ATOM     12  C   UNL A   1      40.385  28.711  30.662  1.00  0.00     0.031 A 
ATOM     13  C   UNL A   1      41.307  28.634  31.845  1.00  0.00     0.074 A 
ATOM     14  C   UNL A   1      39.374  29.600  30.661  1.00  0.00     0.049 A 
ATOM     15  N   UNL A   1      41.328  29.383  32.919  1.00  0.00    -0.248 NA
ATOM     16  C   UNL A   1      42.333  27.580  31.822  1.00  0.00     0.031 C 
ATOM     17  C   UNL A   1      38.386  29.755  29.590  1.00  0.00     0.029 A 
ATOM     18  N   UNL A   1      39.032  30.563  31.576  1.00  0.00    -0.354 N 
ATOM     19  C   UNL A   1      42.353  28.880  33.710  1.00  0.00     0.074 A 
ATOM     20  C   UNL A   1      42.930  27.762  32.992  1.00  0.00     0.031 C 
ATOM     21  C   UNL A   1      37.584  30.791  29.884  1.00  0.00     0.029 A 
ATOM     22  C   UNL A   1      37.999  31.366  31.161  1.00  0.00     0.049 A 
ATOM     23  H   UNL A   1      39.482  30.668  32.445  1.00  0.00     0.167 HD
ATOM     24  C   UNL A   1      42.777  29.309  34.924  1.00  0.00     0.031 A 
ATOM     25  C   UNL A   1      37.464  32.465  31.725  1.00  0.00     0.031 A 
ATOM     26  C   UNL A   1      42.224  30.425  35.641  1.00  0.00     0.049 A 
ATOM     27  C   UNL A   1      38.012  32.980  33.022  1.00  0.00     0.074 A 
ATOM     28  C   UNL A   1      42.582  30.919  36.884  1.00  0.00     0.029 A 
ATOM     29  N   UNL A   1      41.203  31.233  35.169  1.00  0.00    -0.354 N 
ATOM     30  N   UNL A   1      38.984  32.492  33.752  1.00  0.00    -0.248 NA
ATOM     31  C   UNL A   1      37.395  34.200  33.562  1.00  0.00     0.031 C 
ATOM     32  C   UNL A   1      41.778  32.033  37.161  1.00  0.00     0.029 A 
ATOM     33  C   UNL A   1      40.924  32.231  36.088  1.00  0.00     0.049 A 
ATOM     34  H   UNL A   1      40.741  31.115  34.308  1.00  0.00     0.167 HD
ATOM     35  C   UNL A   1      39.093  33.343  34.845  1.00  0.00     0.074 A 
ATOM     36  C   UNL A   1      38.101  34.385  34.671  1.00  0.00     0.031 C 
ATOM     37  C   UNL A   1      39.937  33.260  35.902  1.00  0.00     0.031 A 
BRANCH  24  38
ATOM     38  C   UNL A   1      43.900  28.537  35.550  1.00  0.00    -0.014 A 
ATOM     39  C   UNL A   1      45.237  28.888  35.291  1.00  0.00     0.010 A 
ATOM     40  C   UNL A   1      43.621  27.441  36.384  1.00  0.00     0.010 A 
ATOM     41  C   UNL A   1      46.280  28.127  35.825  1.00  0.00     0.020 A 
ATOM     42  C   UNL A   1      44.663  26.682  36.924  1.00  0.00     0.020 A 
ATOM     43  C   UNL A   1      45.985  27.017  36.622  1.00  0.00     0.054 A 
BRANCH  43  44
ATOM     44  S   UNL A   1      47.338  26.011  37.293  1.00  0.00     0.124 S 
ATOM     45  O   UNL A   1      48.475  26.476  36.500  1.00  0.00    -0.237 OA
ATOM     46  O   UNL A   1      47.367  26.385  38.704  1.00  0.00    -0.237 OA
ATOM     47  O   UNL A   1      46.906  24.643  37.024  1.00  0.00    -0.744 OA
ENDBRANCH  43  44
ENDBRANCH  24  38
BRANCH  25  48
ATOM     48  C   UNL A   1      36.379  33.182  31.016  1.00  0.00    -0.014 A 
ATOM     49  C   UNL A   1      35.103  33.271  31.599  1.00  0.00     0.010 A 
ATOM     50  C   UNL A   1      36.633  33.834  29.798  1.00  0.00     0.010 A 
ATOM     51  C   UNL A   1      34.095  34.013  30.978  1.00  0.00     0.020 A 
ATOM     52  C   UNL A   1      35.629  34.581  29.179  1.00  0.00     0.020 A 
ATOM     53  C   UNL A   1      34.365  34.666  29.774  1.00  0.00     0.054 A 
BRANCH  53  54
ATOM     54  S   UNL A   1      33.096  35.713  29.009  1.00  0.00     0.124 S 
ATOM     55  O   UNL A   1      33.904  36.696  28.294  1.00  0.00    -0.237 OA
ATOM     56  O   UNL A   1      32.351  34.778  28.170  1.00  0.00    -0.237 OA
ATOM     57  O   UNL A   1      32.357  36.222  30.163  1.00  0.00    -0.744 OA
ENDBRANCH  53  54
ENDBRANCH  25  48
BRANCH  37  58
ATOM     58  C   UNL A   1      39.810  34.324  36.952  1.00  0.00    -0.014 A 
ATOM     59  C   UNL A   1      39.012  34.106  38.088  1.00  0.00     0.010 A 
ATOM     60  C   UNL A   1      40.495  35.542  36.808  1.00  0.00     0.010 A 
ATOM     61  C   UNL A   1      38.881  35.103  39.058  1.00  0.00     0.020 A 
ATOM     62  C   UNL A   1      40.370  36.539  37.779  1.00  0.00     0.020 A 
ATOM     63  C   UNL A   1      39.551  36.319  38.891  1.00  0.00     0.054 A 
BRANCH  63  64
ATOM     64  S   UNL A   1      39.398  37.609  40.158  1.00  0.00     0.124 S 
ATOM     65  O   UNL A   1      38.471  38.544  39.526  1.00  0.00    -0.237 OA
ATOM     66  O   UNL A   1      38.870  36.887  41.313  1.00  0.00    -0.237 OA
ATOM     67  O   UNL A   1      40.769  38.092  40.309  1.00  0.00    -0.744 OA
ENDBRANCH  63  64
ENDBRANCH  37  58
ENDBRANCH  11  12
ENDBRANCH   4   6
ENDBRANCH   1   2
BRANCH   1  68
ATOM     68  C   UNL A   1      39.341  22.108  26.240  1.00  0.00     0.042 C 
BRANCH  68  69
ATOM     69  C   UNL A   1      37.890  21.939  25.795  1.00  0.00     0.118 C 
BRANCH  69  70
ATOM     70  N   UNL A   1      37.645  22.441  24.455  1.00  0.00    -0.352 N 
ATOM     71  C   UNL A   1      36.517  22.957  23.868  1.00  0.00     0.256 C 
ATOM     72  H   UNL A   1      38.429  22.405  23.860  1.00  0.00     0.163 HD
ATOM     73  O   UNL A   1      36.540  23.132  22.650  1.00  0.00    -0.269 OA
BRANCH  71  74
ATOM     74  C   UNL A   1      35.349  23.275  24.654  1.00  0.00     0.107 A 
ATOM     75  C   UNL A   1      34.995  24.500  25.169  1.00  0.00     0.245 A 
ATOM     76  C   UNL A   1      34.214  22.453  24.942  1.00  0.00     0.126 A 
ATOM     77  O   UNL A   1      33.785  24.423  25.764  1.00  0.00    -0.363 OA
ATOM     78  N   UNL A   1      33.287  23.149  25.622  1.00  0.00    -0.079 NA
BRANCH  76  79
ATOM     79  C   UNL A   1      33.968  21.056  24.590  1.00  0.00     0.005 A 
ATOM     80  C   UNL A   1      34.886  20.049  24.923  1.00  0.00     0.012 A 
ATOM     81  C   UNL A   1      32.788  20.704  23.915  1.00  0.00     0.012 A 
ATOM     82  C   UNL A   1      34.633  18.717  24.577  1.00  0.00     0.021 A 
ATOM     83  C   UNL A   1      32.537  19.374  23.565  1.00  0.00     0.021 A 
ATOM     84  C   UNL A   1      33.462  18.387  23.896  1.00  0.00     0.041 A 
ATOM     85  Cl  UNL A   1      33.155  16.751  23.463  1.00  0.00    -0.084 Cl
ENDBRANCH  76  79
ENDBRANCH  71  74
ENDBRANCH  69  70
ENDBRANCH  68  69
ENDBRANCH   1  68
TORSDOF 14
ENDMDL
MODEL 2
REMARK VINA RESULT:     -12.1      5.203     11.958
REMARK SMILES O=C(NCCCNC(=O)c1conc1-c1ccc(Cl)cc1)c1ccc(-c2c3nc(c(-c4ccc(S(=O)(=O)[O-])cc4)c4ccc([nH]4)c(-c4ccc(S(=O)(=O)[O-])cc4)c4nc(c(-c5ccc(S(=O)(=O)[O-])cc5)c5ccc2[nH]5)C=C4)C=C3)cc1
REMARK SMILES IDX 4 1 3 2 1 3 2 4 22 6 23 7 81 8 24 9 80 10 25 11 26 12 27 13
REMARK SMILES IDX 74 14 28 15 79 16 73 17 75 18 29 19 78 20 72 21 71 22 30 24
REMARK SMILES IDX 60 25 41 26 59 27 42 28 45 29 58 30 76 31 43 32 44 33 57 35
REMARK SMILES IDX 77 36 46 37 31 38 32 39 40 40 33 41 39 42 34 43 35 44 36 45
REMARK SMILES IDX 37 46 38 47 61 48 62 49 70 50 63 51 69 52 64 53 65 54 66 55
REMARK SMILES IDX 67 56 68 57 47 58 48 59 56 60 49 61 55 62 50 63 51 64 52 65
REMARK SMILES IDX 53 66 54 67 5 68 6 69 7 70 8 71 9 73 10 74 11 75 14 76 12 77
REMARK SMILES IDX 13 78 15 79 16 80 21 81 17 82 20 83 18 84 19 85
REMARK H PARENT 3 5 75 23 45 34 7 72
REMARK Flexibility Score: inf
ROOT
ATOM      1  C   UNL A   1      34.548  32.841  28.018  1.00  0.00     0.118 C 
ENDROOT
BRANCH   1   2
ATOM      2  N   UNL A   1      33.869  31.583  27.752  1.00  0.00    -0.352 N 
ATOM      3  O   UNL A   1      33.600  29.412  27.279  1.00  0.00    -0.269 OA
ATOM      4  C   UNL A   1      34.352  30.300  27.676  1.00  0.00     0.251 C 
ATOM      5  H   UNL A   1      32.898  31.665  27.602  1.00  0.00     0.163 HD
BRANCH   4   6
ATOM      6  C   UNL A   1      35.747  29.967  28.047  1.00  0.00     0.039 A 
ATOM      7  C   UNL A   1      36.075  29.464  29.309  1.00  0.00     0.014 A 
ATOM      8  C   UNL A   1      36.742  30.080  27.067  1.00  0.00     0.014 A 
ATOM      9  C   UNL A   1      37.402  29.160  29.615  1.00  0.00     0.010 A 
ATOM     10  C   UNL A   1      38.066  29.738  27.361  1.00  0.00     0.010 A 
ATOM     11  C   UNL A   1      38.409  29.294  28.645  1.00  0.00    -0.014 A 
BRANCH  11  12
ATOM     12  C   UNL A   1      39.804  28.927  28.987  1.00  0.00     0.031 A 
ATOM     13  C   UNL A   1      40.654  29.827  29.837  1.00  0.00     0.074 A 
ATOM     14  C   UNL A   1      40.296  27.746  28.566  1.00  0.00     0.049 A 
ATOM     15  N   UNL A   1      41.850  29.609  30.321  1.00  0.00    -0.248 NA
ATOM     16  C   UNL A   1      40.091  31.141  30.185  1.00  0.00     0.031 C 
ATOM     17  C   UNL A   1      39.588  26.793  27.708  1.00  0.00     0.029 A 
ATOM     18  N   UNL A   1      41.494  27.134  28.833  1.00  0.00    -0.354 N 
ATOM     19  C   UNL A   1      42.195  30.763  31.012  1.00  0.00     0.074 A 
ATOM     20  C   UNL A   1      41.080  31.679  30.886  1.00  0.00     0.031 C 
ATOM     21  C   UNL A   1      40.342  25.692  27.566  1.00  0.00     0.029 A 
ATOM     22  C   UNL A   1      41.583  25.865  28.317  1.00  0.00     0.049 A 
ATOM     23  H   UNL A   1      42.218  27.562  29.344  1.00  0.00     0.167 HD
ATOM     24  C   UNL A   1      43.335  31.038  31.692  1.00  0.00     0.031 A 
ATOM     25  C   UNL A   1      42.539  24.928  28.458  1.00  0.00     0.031 A 
ATOM     26  C   UNL A   1      44.442  30.135  31.839  1.00  0.00     0.049 A 
ATOM     27  C   UNL A   1      43.749  25.217  29.295  1.00  0.00     0.074 A 
ATOM     28  C   UNL A   1      45.643  30.336  32.498  1.00  0.00     0.029 A 
ATOM     29  N   UNL A   1      44.477  28.846  31.331  1.00  0.00    -0.354 N 
ATOM     30  N   UNL A   1      44.054  26.314  29.944  1.00  0.00    -0.248 NA
ATOM     31  C   UNL A   1      44.737  24.136  29.425  1.00  0.00     0.031 C 
ATOM     32  C   UNL A   1      46.404  29.164  32.392  1.00  0.00     0.029 A 
ATOM     33  C   UNL A   1      45.673  28.235  31.670  1.00  0.00     0.049 A 
ATOM     34  H   UNL A   1      43.759  28.427  30.804  1.00  0.00     0.167 HD
ATOM     35  C   UNL A   1      45.275  26.058  30.556  1.00  0.00     0.074 A 
ATOM     36  C   UNL A   1      45.643  24.699  30.215  1.00  0.00     0.031 C 
ATOM     37  C   UNL A   1      46.025  26.884  31.326  1.00  0.00     0.031 A 
BRANCH  24  38
ATOM     38  C   UNL A   1      43.427  32.397  32.320  1.00  0.00    -0.014 A 
ATOM     39  C   UNL A   1      42.990  32.604  33.640  1.00  0.00     0.010 A 
ATOM     40  C   UNL A   1      43.933  33.480  31.580  1.00  0.00     0.010 A 
ATOM     41  C   UNL A   1      43.019  33.885  34.198  1.00  0.00     0.020 A 
ATOM     42  C   UNL A   1      43.969  34.761  32.137  1.00  0.00     0.020 A 
ATOM     43  C   UNL A   1      43.491  34.958  33.435  1.00  0.00     0.054 A 
BRANCH  43  44
ATOM     44  S   UNL A   1      43.502  36.627  34.149  1.00  0.00     0.124 S 
ATOM     45  O   UNL A   1      42.300  36.602  34.980  1.00  0.00    -0.237 OA
ATOM     46  O   UNL A   1      44.766  36.670  34.879  1.00  0.00    -0.237 OA
ATOM     47  O   UNL A   1      43.435  37.494  32.977  1.00  0.00    -0.744 OA
ENDBRANCH  43  44
ENDBRANCH  24  38
BRANCH  25  48
ATOM     48  C   UNL A   1      42.346  23.601  27.830  1.00  0.00    -0.014 A 
ATOM     49  C   UNL A   1      42.908  23.335  26.569  1.00  0.00     0.010 A 
ATOM     50  C   UNL A   1      41.663  22.582  28.514  1.00  0.00     0.010 A 
ATOM     51  C   UNL A   1      42.800  22.063  26.003  1.00  0.00     0.020 A 
ATOM     52  C   UNL A   1      41.559  21.308  27.953  1.00  0.00     0.020 A 
ATOM     53  C   UNL A   1      42.128  21.056  26.700  1.00  0.00     0.054 A 
BRANCH  53  54
ATOM     54  S   UNL A   1      42.067  19.374  26.022  1.00  0.00     0.124 S 
ATOM     55  O   UNL A   1      40.647  19.220  25.722  1.00  0.00    -0.237 OA
ATOM     56  O   UNL A   1      42.953  19.448  24.863  1.00  0.00    -0.237 OA
ATOM     57  O   UNL A   1      42.571  18.560  27.127  1.00  0.00    -0.744 OA
ENDBRANCH  53  54
ENDBRANCH  25  48
BRANCH  37  58
ATOM     58  C   UNL A   1      47.322  26.332  31.840  1.00  0.00    -0.014 A 
ATOM     59  C   UNL A   1      47.371  25.686  33.087  1.00  0.00     0.010 A 
ATOM     60  C   UNL A   1      48.493  26.450  31.073  1.00  0.00     0.010 A 
ATOM     61  C   UNL A   1      48.582  25.186  33.574  1.00  0.00     0.020 A 
ATOM     62  C   UNL A   1      49.704  25.947  31.555  1.00  0.00     0.020 A 
ATOM     63  C   UNL A   1      49.743  25.331  32.810  1.00  0.00     0.054 A 
BRANCH  63  64
ATOM     64  S   UNL A   1      51.314  24.666  33.430  1.00  0.00     0.124 S 
ATOM     65  O   UNL A   1      51.641  25.608  34.496  1.00  0.00    -0.237 OA
ATOM     66  O   UNL A   1      50.959  23.319  33.871  1.00  0.00    -0.237 OA
ATOM     67  O   UNL A   1      52.185  24.719  32.257  1.00  0.00    -0.744 OA
ENDBRANCH  63  64
ENDBRANCH  37  58
ENDBRANCH  11  12
ENDBRANCH   4   6
ENDBRANCH   1   2
BRANCH   1  68
ATOM     68  C   UNL A   1      34.324  33.346  29.445  1.00  0.00     0.042 C 
BRANCH  68  69
ATOM     69  C   UNL A   1      35.254  32.743  30.495  1.00  0.00     0.118 C 
BRANCH  69  70
ATOM     70  N   UNL A   1      36.562  33.374  30.525  1.00  0.00    -0.352 N 
ATOM     71  C   UNL A   1      37.261  33.972  31.542  1.00  0.00     0.256 C 
ATOM     72  H   UNL A   1      37.032  33.371  29.659  1.00  0.00     0.163 HD
ATOM     73  O   UNL A   1      38.278  34.596  31.241  1.00  0.00    -0.269 OA
BRANCH  71  74
ATOM     74  C   UNL A   1      36.813  33.874  32.911  1.00  0.00     0.107 A 
ATOM     75  C   UNL A   1      35.867  34.647  33.539  1.00  0.00     0.245 A 
ATOM     76  C   UNL A   1      37.113  32.863  33.878  1.00  0.00     0.126 A 
ATOM     77  O   UNL A   1      35.648  34.189  34.791  1.00  0.00    -0.363 OA
ATOM     78  N   UNL A   1      36.419  33.071  35.010  1.00  0.00    -0.079 NA
BRANCH  76  79
ATOM     79  C   UNL A   1      38.009  31.713  33.770  1.00  0.00     0.005 A 
ATOM     80  C   UNL A   1      37.633  30.561  33.065  1.00  0.00     0.012 A 
ATOM     81  C   UNL A   1      39.277  31.758  34.372  1.00  0.00     0.012 A 
ATOM     82  C   UNL A   1      38.505  29.470  32.973  1.00  0.00     0.021 A 
ATOM     83  C   UNL A   1      40.146  30.668  34.284  1.00  0.00     0.021 A 
ATOM     84  C   UNL A   1      39.755  29.528  33.586  1.00  0.00     0.041 A 
ATOM     85  Cl  UNL A   1      40.824  28.183  33.481  1.00  0.00    -0.084 Cl
ENDBRANCH  76  79
ENDBRANCH  71  74
ENDBRANCH  69  70
ENDBRANCH  68  69
ENDBRANCH   1  68
TORSDOF 14
ENDMDL
MODEL 3
REMARK VINA RESULT:     -12.1      4.398     10.228
REMARK SMILES O=C(NCCCNC(=O)c1conc1-c1ccc(Cl)cc1)c1ccc(-c2c3nc(c(-c4ccc(S(=O)(=O)[O-])cc4)c4ccc([nH]4)c(-c4ccc(S(=O)(=O)[O-])cc4)c4nc(c(-c5ccc(S(=O)(=O)[O-])cc5)c5ccc2[nH]5)C=C4)C=C3)cc1
REMARK SMILES IDX 4 1 3 2 1 3 2 4 22 6 23 7 81 8 24 9 80 10 25 11 26 12 27 13
REMARK SMILES IDX 74 14 28 15 79 16 73 17 75 18 29 19 78 20 72 21 71 22 30 24
REMARK SMILES IDX 60 25 41 26 59 27 42 28 45 29 58 30 76 31 43 32 44 33 57 35
REMARK SMILES IDX 77 36 46 37 31 38 32 39 40 40 33 41 39 42 34 43 35 44 36 45
REMARK SMILES IDX 37 46 38 47 61 48 62 49 70 50 63 51 69 52 64 53 65 54 66 55
REMARK SMILES IDX 67 56 68 57 47 58 48 59 56 60 49 61 55 62 50 63 51 64 52 65
REMARK SMILES IDX 53 66 54 67 5 68 6 69 7 70 8 71 9 73 10 74 11 75 14 76 12 77
REMARK SMILES IDX 13 78 15 79 16 80 21 81 17 82 20 83 18 84 19 85
REMARK H PARENT 3 5 75 23 45 34 7 72
REMARK Flexibility Score: inf
ROOT
ATOM      1  C   UNL A   1      33.411  28.290  27.237  1.00  0.00     0.118 C 
ENDROOT
BRANCH   1   2
ATOM      2  N   UNL A   1      33.329  29.719  27.494  1.00  0.00    -0.352 N 
ATOM      3  O   UNL A   1      33.896  31.737  28.280  1.00  0.00    -0.269 OA
ATOM      4  C   UNL A   1      34.256  30.593  28.008  1.00  0.00     0.251 C 
ATOM      5  H   UNL A   1      32.465  30.129  27.261  1.00  0.00     0.163 HD
BRANCH   4   6
ATOM      6  C   UNL A   1      35.661  30.190  28.248  1.00  0.00     0.039 A 
ATOM      7  C   UNL A   1      36.654  30.361  27.279  1.00  0.00     0.014 A 
ATOM      8  C   UNL A   1      36.008  29.709  29.516  1.00  0.00     0.014 A 
ATOM      9  C   UNL A   1      37.966  29.971  27.549  1.00  0.00     0.010 A 
ATOM     10  C   UNL A   1      37.332  29.355  29.801  1.00  0.00     0.010 A 
ATOM     11  C   UNL A   1      38.317  29.464  28.811  1.00  0.00    -0.014 A 
BRANCH  11  12
ATOM     12  C   UNL A   1      39.727  29.094  29.082  1.00  0.00     0.031 A 
ATOM     13  C   UNL A   1      40.625  30.001  29.874  1.00  0.00     0.074 A 
ATOM     14  C   UNL A   1      40.190  27.907  28.650  1.00  0.00     0.049 A 
ATOM     15  N   UNL A   1      41.845  29.783  30.294  1.00  0.00    -0.248 NA
ATOM     16  C   UNL A   1      40.088  31.321  30.235  1.00  0.00     0.031 C 
ATOM     17  C   UNL A   1      39.432  26.947  27.843  1.00  0.00     0.029 A 
ATOM     18  N   UNL A   1      41.398  27.292  28.859  1.00  0.00    -0.354 N 
ATOM     19  C   UNL A   1      42.232  30.943  30.952  1.00  0.00     0.074 A 
ATOM     20  C   UNL A   1      41.115  31.863  30.875  1.00  0.00     0.031 C 
ATOM     21  C   UNL A   1      40.173  25.840  27.674  1.00  0.00     0.029 A 
ATOM     22  C   UNL A   1      41.454  26.016  28.354  1.00  0.00     0.049 A 
ATOM     23  H   UNL A   1      42.151  27.722  29.324  1.00  0.00     0.167 HD
ATOM     24  C   UNL A   1      43.408  31.221  31.565  1.00  0.00     0.031 A 
ATOM     25  C   UNL A   1      42.412  25.076  28.454  1.00  0.00     0.031 A 
ATOM     26  C   UNL A   1      44.518  30.314  31.663  1.00  0.00     0.049 A 
ATOM     27  C   UNL A   1      43.667  25.369  29.221  1.00  0.00     0.074 A 
ATOM     28  C   UNL A   1      45.754  30.517  32.253  1.00  0.00     0.029 A 
ATOM     29  N   UNL A   1      44.520  29.019  31.169  1.00  0.00    -0.354 N 
ATOM     30  N   UNL A   1      44.012  26.472  29.838  1.00  0.00    -0.248 NA
ATOM     31  C   UNL A   1      44.656  24.286  29.309  1.00  0.00     0.031 C 
ATOM     32  C   UNL A   1      46.504  29.340  32.119  1.00  0.00     0.029 A 
ATOM     33  C   UNL A   1      45.730  28.406  31.451  1.00  0.00     0.049 A 
ATOM     34  H   UNL A   1      43.773  28.597  30.687  1.00  0.00     0.167 HD
ATOM     35  C   UNL A   1      45.262  26.218  30.386  1.00  0.00     0.074 A 
ATOM     36  C   UNL A   1      45.606  24.853  30.043  1.00  0.00     0.031 C 
ATOM     37  C   UNL A   1      46.058  27.049  31.104  1.00  0.00     0.031 A 
BRANCH  24  38
ATOM     38  C   UNL A   1      43.540  32.587  32.170  1.00  0.00    -0.014 A 
ATOM     39  C   UNL A   1      43.196  32.808  33.515  1.00  0.00     0.010 A 
ATOM     40  C   UNL A   1      43.990  33.662  31.385  1.00  0.00     0.010 A 
ATOM     41  C   UNL A   1      43.260  34.094  34.056  1.00  0.00     0.020 A 
ATOM     42  C   UNL A   1      44.062  34.949  31.925  1.00  0.00     0.020 A 
ATOM     43  C   UNL A   1      43.674  35.160  33.250  1.00  0.00     0.054 A 
BRANCH  43  44
ATOM     44  S   UNL A   1      43.731  36.836  33.943  1.00  0.00     0.124 S 
ATOM     45  O   UNL A   1      44.031  37.637  32.758  1.00  0.00    -0.237 OA
ATOM     46  O   UNL A   1      42.391  37.016  34.496  1.00  0.00    -0.237 OA
ATOM     47  O   UNL A   1      44.802  36.756  34.931  1.00  0.00    -0.744 OA
ENDBRANCH  43  44
ENDBRANCH  24  38
BRANCH  25  48
ATOM     48  C   UNL A   1      42.179  23.743  27.854  1.00  0.00    -0.014 A 
ATOM     49  C   UNL A   1      42.626  23.476  26.548  1.00  0.00     0.010 A 
ATOM     50  C   UNL A   1      41.576  22.720  28.603  1.00  0.00     0.010 A 
ATOM     51  C   UNL A   1      42.483  22.198  26.002  1.00  0.00     0.020 A 
ATOM     52  C   UNL A   1      41.437  21.440  28.062  1.00  0.00     0.020 A 
ATOM     53  C   UNL A   1      41.892  21.188  26.763  1.00  0.00     0.054 A 
BRANCH  53  54
ATOM     54  S   UNL A   1      41.791  19.500  26.103  1.00  0.00     0.124 S 
ATOM     55  O   UNL A   1      42.285  18.706  27.223  1.00  0.00    -0.237 OA
ATOM     56  O   UNL A   1      40.372  19.345  25.796  1.00  0.00    -0.237 OA
ATOM     57  O   UNL A   1      42.668  19.557  24.934  1.00  0.00    -0.744 OA
ENDBRANCH  53  54
ENDBRANCH  25  48
BRANCH  37  58
ATOM     58  C   UNL A   1      47.378  26.498  31.553  1.00  0.00    -0.014 A 
ATOM     59  C   UNL A   1      47.496  25.882  32.811  1.00  0.00     0.010 A 
ATOM     60  C   UNL A   1      48.502  26.586  30.715  1.00  0.00     0.010 A 
ATOM     61  C   UNL A   1      48.729  25.382  33.237  1.00  0.00     0.020 A 
ATOM     62  C   UNL A   1      49.735  26.083  31.137  1.00  0.00     0.020 A 
ATOM     63  C   UNL A   1      49.844  25.496  32.402  1.00  0.00     0.054 A 
BRANCH  63  64
ATOM     64  S   UNL A   1      51.444  24.831  32.944  1.00  0.00     0.124 S 
ATOM     65  O   UNL A   1      51.771  25.708  34.065  1.00  0.00    -0.237 OA
ATOM     66  O   UNL A   1      51.131  23.449  33.299  1.00  0.00    -0.237 OA
ATOM     67  O   UNL A   1      52.288  24.986  31.760  1.00  0.00    -0.744 OA
ENDBRANCH  63  64
ENDBRANCH  37  58
ENDBRANCH  11  12
ENDBRANCH   4   6
ENDBRANCH   1   2
BRANCH   1  68
ATOM     68  C   UNL A   1      33.876  27.969  25.815  1.00  0.00     0.042 C 
BRANCH  68  69
ATOM     69  C   UNL A   1      32.860  27.216  24.959  1.00  0.00     0.118 C 
BRANCH  69  70
ATOM     70  N   UNL A   1      33.280  27.068  23.577  1.00  0.00    -0.352 N 
ATOM     71  C   UNL A   1      33.310  25.976  22.747  1.00  0.00     0.256 C 
ATOM     72  H   UNL A   1      33.601  27.900  23.161  1.00  0.00     0.163 HD
ATOM     73  O   UNL A   1      33.896  26.096  21.672  1.00  0.00    -0.269 OA
BRANCH  71  74
ATOM     74  C   UNL A   1      32.680  24.734  23.128  1.00  0.00     0.107 A 
ATOM     75  C   UNL A   1      31.420  24.298  22.793  1.00  0.00     0.245 A 
ATOM     76  C   UNL A   1      33.258  23.605  23.791  1.00  0.00     0.126 A 
ATOM     77  O   UNL A   1      31.224  23.044  23.255  1.00  0.00    -0.363 OA
ATOM     78  N   UNL A   1      32.369  22.601  23.875  1.00  0.00    -0.079 NA
BRANCH  76  79
ATOM     79  C   UNL A   1      34.606  23.437  24.329  1.00  0.00     0.005 A 
ATOM     80  C   UNL A   1      35.632  22.871  23.559  1.00  0.00     0.012 A 
ATOM     81  C   UNL A   1      34.892  23.858  25.638  1.00  0.00     0.012 A 
ATOM     82  C   UNL A   1      36.916  22.717  24.092  1.00  0.00     0.021 A 
ATOM     83  C   UNL A   1      36.174  23.701  26.173  1.00  0.00     0.021 A 
ATOM     84  C   UNL A   1      37.180  23.129  25.397  1.00  0.00     0.041 A 
ATOM     85  Cl  UNL A   1      38.757  22.933  26.056  1.00  0.00    -0.084 Cl
ENDBRANCH  76  79
ENDBRANCH  71  74
ENDBRANCH  69  70
ENDBRANCH  68  69
ENDBRANCH   1  68
TORSDOF 14
ENDMDL
