MODEL 1
REMARK VINA RESULT:     -11.9      0.000      0.000
REMARK SMILES O=C(NCCCNC(=O)c1ccc(-n2cc(CSc3nc4ccccc4c(=O)n3-c3ccccc3)nn2)cc1)c1ccc(-c2c3nc(c(-c4ccc(S(=O)(=O)[O-])cc4)c4ccc([nH]4)c(-c4ccc(S(=O)(=O)[O-])cc4)c4nc(c(-c5ccc(S(=O)(=O)[O-])cc5)c5ccc2[nH]5)C=C4)C=C3)cc1
REMARK SMILES IDX 6 1 5 2 4 3 3 4 1 5 2 6 40 8 41 9 99 10 42 11 98 12 43 13
REMARK SMILES IDX 44 14 45 15 92 16 46 17 97 18 91 19 93 20 47 21 96 22 90 23
REMARK SMILES IDX 89 24 48 26 78 27 59 28 77 29 60 30 63 31 76 32 94 33 61 34
REMARK SMILES IDX 62 35 75 37 95 38 64 39 49 40 50 41 58 42 51 43 57 44 52 45
REMARK SMILES IDX 53 46 54 47 55 48 56 49 79 50 80 51 88 52 81 53 87 54 82 55
REMARK SMILES IDX 83 56 84 57 85 58 86 59 65 60 66 61 74 62 67 63 73 64 68 65
REMARK SMILES IDX 69 66 70 67 71 68 72 69 7 70 8 71 9 73 10 74 11 75 39 76
REMARK SMILES IDX 12 77 38 78 13 79 14 80 15 81 37 82 16 83 36 84 17 85 18 86
REMARK SMILES IDX 19 87 20 88 29 89 21 90 27 91 22 92 26 93 28 94 23 95 25 96
REMARK SMILES IDX 24 97 30 98 31 99 35 100 32 101 34 102 33 103
REMARK H PARENT 3 7 93 25 63 36 7 72
REMARK Flexibility Score: inf
ROOT
ATOM      1  C   UNL A   1      43.543  40.558  29.660  1.00  0.00     0.118 C 
ENDROOT
BRANCH   1   2
ATOM      2  C   UNL A   1      43.885  41.694  30.621  1.00  0.00     0.042 C 
BRANCH   2   3
ATOM      3  C   UNL A   1      43.762  41.358  32.106  1.00  0.00     0.118 C 
BRANCH   3   4
ATOM      4  N   UNL A   1      44.892  40.665  32.691  1.00  0.00    -0.352 N 
ATOM      5  O   UNL A   1      46.318  39.087  33.266  1.00  0.00    -0.269 OA
ATOM      6  C   UNL A   1      45.132  39.377  33.083  1.00  0.00     0.251 C 
ATOM      7  H   UNL A   1      45.664  41.257  32.841  1.00  0.00     0.163 HD
BRANCH   6   8
ATOM      8  C   UNL A   1      44.089  38.361  33.392  1.00  0.00     0.039 A 
ATOM      9  C   UNL A   1      43.420  38.210  34.606  1.00  0.00     0.014 A 
ATOM     10  C   UNL A   1      43.822  37.442  32.358  1.00  0.00     0.014 A 
ATOM     11  C   UNL A   1      42.590  37.108  34.821  1.00  0.00     0.010 A 
ATOM     12  C   UNL A   1      42.994  36.347  32.563  1.00  0.00     0.010 A 
ATOM     13  C   UNL A   1      42.409  36.159  33.811  1.00  0.00    -0.014 A 
BRANCH  13  14
ATOM     14  C   UNL A   1      41.441  35.080  34.012  1.00  0.00     0.031 A 
ATOM     15  C   UNL A   1      41.764  33.844  33.247  1.00  0.00     0.074 A 
ATOM     16  C   UNL A   1      40.460  35.110  34.936  1.00  0.00     0.049 A 
ATOM     17  N   UNL A   1      41.101  33.311  32.274  1.00  0.00    -0.248 NA
ATOM     18  C   UNL A   1      43.070  33.206  33.499  1.00  0.00     0.031 C 
ATOM     19  C   UNL A   1      40.225  36.145  35.947  1.00  0.00     0.029 A 
ATOM     20  N   UNL A   1      39.532  34.159  35.257  1.00  0.00    -0.354 N 
ATOM     21  C   UNL A   1      41.779  32.133  31.960  1.00  0.00     0.074 A 
ATOM     22  C   UNL A   1      43.071  32.235  32.586  1.00  0.00     0.031 C 
ATOM     23  C   UNL A   1      39.396  35.660  36.901  1.00  0.00     0.029 A 
ATOM     24  C   UNL A   1      38.943  34.335  36.508  1.00  0.00     0.049 A 
ATOM     25  H   UNL A   1      39.299  33.415  34.656  1.00  0.00     0.167 HD
ATOM     26  C   UNL A   1      41.122  31.043  31.472  1.00  0.00     0.031 A 
ATOM     27  C   UNL A   1      38.199  33.434  37.206  1.00  0.00     0.031 A 
ATOM     28  C   UNL A   1      39.813  31.388  30.975  1.00  0.00     0.049 A 
ATOM     29  C   UNL A   1      37.705  32.425  36.241  1.00  0.00     0.074 A 
ATOM     30  C   UNL A   1      39.317  32.259  30.026  1.00  0.00     0.029 A 
ATOM     31  N   UNL A   1      38.743  31.036  31.761  1.00  0.00    -0.354 N 
ATOM     32  N   UNL A   1      36.844  32.691  35.301  1.00  0.00    -0.248 NA
ATOM     33  C   UNL A   1      38.498  31.223  36.040  1.00  0.00     0.031 C 
ATOM     34  C   UNL A   1      38.093  32.742  30.574  1.00  0.00     0.029 A 
ATOM     35  C   UNL A   1      37.876  32.092  31.789  1.00  0.00     0.049 A 
ATOM     36  H   UNL A   1      38.622  30.175  32.223  1.00  0.00     0.167 HD
ATOM     37  C   UNL A   1      37.291  31.973  34.202  1.00  0.00     0.074 A 
ATOM     38  C   UNL A   1      38.249  31.010  34.745  1.00  0.00     0.031 C 
ATOM     39  C   UNL A   1      37.053  32.416  32.932  1.00  0.00     0.031 A 
BRANCH  26  40
ATOM     40  C   UNL A   1      41.449  29.623  31.901  1.00  0.00    -0.014 A 
ATOM     41  C   UNL A   1      40.951  29.167  33.141  1.00  0.00     0.010 A 
ATOM     42  C   UNL A   1      42.477  28.856  31.312  1.00  0.00     0.010 A 
ATOM     43  C   UNL A   1      41.546  28.095  33.816  1.00  0.00     0.020 A 
ATOM     44  C   UNL A   1      43.043  27.753  31.954  1.00  0.00     0.020 A 
ATOM     45  C   UNL A   1      42.608  27.411  33.224  1.00  0.00     0.054 A 
BRANCH  45  46
ATOM     46  S   UNL A   1      43.463  26.121  34.159  1.00  0.00     0.124 S 
ATOM     47  O   UNL A   1      43.925  25.241  33.091  1.00  0.00    -0.237 OA
ATOM     48  O   UNL A   1      44.502  26.881  34.850  1.00  0.00    -0.237 OA
ATOM     49  O   UNL A   1      42.417  25.575  35.020  1.00  0.00    -0.744 OA
ENDBRANCH  45  46
ENDBRANCH  26  40
BRANCH  27  50
ATOM     50  C   UNL A   1      38.145  33.213  38.678  1.00  0.00    -0.014 A 
ATOM     51  C   UNL A   1      38.781  34.093  39.579  1.00  0.00     0.010 A 
ATOM     52  C   UNL A   1      37.222  32.293  39.216  1.00  0.00     0.010 A 
ATOM     53  C   UNL A   1      38.456  34.095  40.949  1.00  0.00     0.020 A 
ATOM     54  C   UNL A   1      36.901  32.283  40.580  1.00  0.00     0.020 A 
ATOM     55  C   UNL A   1      37.500  33.201  41.437  1.00  0.00     0.054 A 
BRANCH  55  56
ATOM     56  S   UNL A   1      36.946  33.322  43.167  1.00  0.00     0.124 S 
ATOM     57  O   UNL A   1      36.082  34.498  43.137  1.00  0.00    -0.237 OA
ATOM     58  O   UNL A   1      36.267  32.045  43.376  1.00  0.00    -0.237 OA
ATOM     59  O   UNL A   1      38.191  33.487  43.916  1.00  0.00    -0.744 OA
ENDBRANCH  55  56
ENDBRANCH  27  50
BRANCH  39  60
ATOM     60  C   UNL A   1      36.007  33.481  32.723  1.00  0.00    -0.014 A 
ATOM     61  C   UNL A   1      36.129  34.811  33.171  1.00  0.00     0.010 A 
ATOM     62  C   UNL A   1      34.908  33.143  31.913  1.00  0.00     0.010 A 
ATOM     63  C   UNL A   1      35.156  35.767  32.842  1.00  0.00     0.020 A 
ATOM     64  C   UNL A   1      33.948  34.093  31.566  1.00  0.00     0.020 A 
ATOM     65  C   UNL A   1      34.069  35.398  32.042  1.00  0.00     0.054 A 
BRANCH  65  66
ATOM     66  S   UNL A   1      32.829  36.643  31.590  1.00  0.00     0.124 S 
ATOM     67  O   UNL A   1      33.353  37.854  32.216  1.00  0.00    -0.237 OA
ATOM     68  O   UNL A   1      32.867  36.624  30.130  1.00  0.00    -0.237 OA
ATOM     69  O   UNL A   1      31.591  36.131  32.177  1.00  0.00    -0.744 OA
ENDBRANCH  65  66
ENDBRANCH  39  60
ENDBRANCH  13  14
ENDBRANCH   6   8
ENDBRANCH   3   4
ENDBRANCH   2   3
ENDBRANCH   1   2
BRANCH   1  70
ATOM     70  N   UNL A   1      42.995  41.020  28.394  1.00  0.00    -0.352 N 
ATOM     71  C   UNL A   1      42.791  40.356  27.215  1.00  0.00     0.251 C 
ATOM     72  H   UNL A   1      42.727  41.967  28.384  1.00  0.00     0.163 HD
ATOM     73  O   UNL A   1      42.406  40.984  26.224  1.00  0.00    -0.269 OA
BRANCH  71  74
ATOM     74  C   UNL A   1      43.038  38.905  27.093  1.00  0.00     0.039 A 
ATOM     75  C   UNL A   1      44.362  38.464  26.975  1.00  0.00     0.016 A 
ATOM     76  C   UNL A   1      41.986  37.990  27.006  1.00  0.00     0.016 A 
ATOM     77  C   UNL A   1      44.643  37.104  26.827  1.00  0.00     0.029 A 
ATOM     78  C   UNL A   1      42.260  36.631  26.834  1.00  0.00     0.029 A 
ATOM     79  C   UNL A   1      43.591  36.189  26.733  1.00  0.00     0.066 A 
BRANCH  79  80
ATOM     80  N   UNL A   1      43.876  34.836  26.434  1.00  0.00    -0.220 N 
ATOM     81  C   UNL A   1      44.184  33.848  27.330  1.00  0.00     0.141 A 
ATOM     82  N   UNL A   1      43.792  34.300  25.193  1.00  0.00    -0.062 NA
ATOM     83  C   UNL A   1      44.212  32.679  26.603  1.00  0.00     0.093 A 
ATOM     84  N   UNL A   1      44.035  32.994  25.284  1.00  0.00    -0.134 NA
BRANCH  83  85
ATOM     85  C   UNL A   1      44.584  31.323  27.059  1.00  0.00     0.138 C 
BRANCH  85  86
ATOM     86  S   UNL A   1      43.453  30.269  27.974  1.00  0.00    -0.081 SA
BRANCH  86  87
ATOM     87  C   UNL A   1      43.401  28.628  27.382  1.00  0.00     0.176 A 
ATOM     88  N   UNL A   1      44.596  28.123  27.248  1.00  0.00    -0.223 NA
ATOM     89  N   UNL A   1      42.266  27.886  27.089  1.00  0.00    -0.255 N 
ATOM     90  C   UNL A   1      44.728  26.848  26.688  1.00  0.00     0.079 A 
ATOM     91  C   UNL A   1      42.416  27.021  25.996  1.00  0.00     0.266 A 
ATOM     92  C   UNL A   1      45.910  26.118  26.814  1.00  0.00     0.029 A 
ATOM     93  C   UNL A   1      43.708  26.328  25.907  1.00  0.00     0.066 A 
ATOM     94  O   UNL A   1      41.580  26.793  25.124  1.00  0.00    -0.268 OA
ATOM     95  C   UNL A   1      46.079  24.917  26.112  1.00  0.00     0.002 A 
ATOM     96  C   UNL A   1      43.878  25.161  25.155  1.00  0.00     0.016 A 
ATOM     97  C   UNL A   1      45.076  24.458  25.255  1.00  0.00     0.001 A 
BRANCH  89  98
ATOM     98  C   UNL A   1      40.980  27.924  27.761  1.00  0.00     0.051 A 
ATOM     99  C   UNL A   1      39.986  28.829  27.330  1.00  0.00     0.027 A 
ATOM    100  C   UNL A   1      40.614  27.094  28.825  1.00  0.00     0.027 A 
ATOM    101  C   UNL A   1      38.818  29.062  28.060  1.00  0.00     0.002 A 
ATOM    102  C   UNL A   1      39.477  27.363  29.604  1.00  0.00     0.002 A 
ATOM    103  C   UNL A   1      38.598  28.374  29.242  1.00  0.00     0.000 A 
ENDBRANCH  89  98
ENDBRANCH  86  87
ENDBRANCH  85  86
ENDBRANCH  83  85
ENDBRANCH  79  80
ENDBRANCH  71  74
ENDBRANCH   1  70
TORSDOF 18
ENDMDL
MODEL 2
REMARK VINA RESULT:     -11.8      0.876      2.577
REMARK SMILES O=C(NCCCNC(=O)c1ccc(-n2cc(CSc3nc4ccccc4c(=O)n3-c3ccccc3)nn2)cc1)c1ccc(-c2c3nc(c(-c4ccc(S(=O)(=O)[O-])cc4)c4ccc([nH]4)c(-c4ccc(S(=O)(=O)[O-])cc4)c4nc(c(-c5ccc(S(=O)(=O)[O-])cc5)c5ccc2[nH]5)C=C4)C=C3)cc1
REMARK SMILES IDX 6 1 5 2 4 3 3 4 1 5 2 6 40 8 41 9 99 10 42 11 98 12 43 13
REMARK SMILES IDX 44 14 45 15 92 16 46 17 97 18 91 19 93 20 47 21 96 22 90 23
REMARK SMILES IDX 89 24 48 26 78 27 59 28 77 29 60 30 63 31 76 32 94 33 61 34
REMARK SMILES IDX 62 35 75 37 95 38 64 39 49 40 50 41 58 42 51 43 57 44 52 45
REMARK SMILES IDX 53 46 54 47 55 48 56 49 79 50 80 51 88 52 81 53 87 54 82 55
REMARK SMILES IDX 83 56 84 57 85 58 86 59 65 60 66 61 74 62 67 63 73 64 68 65
REMARK SMILES IDX 69 66 70 67 71 68 72 69 7 70 8 71 9 73 10 74 11 75 39 76
REMARK SMILES IDX 12 77 38 78 13 79 14 80 15 81 37 82 16 83 36 84 17 85 18 86
REMARK SMILES IDX 19 87 20 88 29 89 21 90 27 91 22 92 26 93 28 94 23 95 25 96
REMARK SMILES IDX 24 97 30 98 31 99 35 100 32 101 34 102 33 103
REMARK H PARENT 3 7 93 25 63 36 7 72
REMARK Flexibility Score: inf
ROOT
ATOM      1  C   UNL A   1      42.609  40.289  29.475  1.00  0.00     0.118 C 
ENDROOT
BRANCH   1   2
ATOM      2  C   UNL A   1      43.908  40.736  30.141  1.00  0.00     0.042 C 
BRANCH   2   3
ATOM      3  C   UNL A   1      43.794  41.108  31.618  1.00  0.00     0.118 C 
BRANCH   3   4
ATOM      4  N   UNL A   1      44.848  40.610  32.477  1.00  0.00    -0.352 N 
ATOM      5  O   UNL A   1      46.243  39.262  33.524  1.00  0.00    -0.269 OA
ATOM      6  C   UNL A   1      45.088  39.425  33.117  1.00  0.00     0.251 C 
ATOM      7  H   UNL A   1      45.555  41.277  32.637  1.00  0.00     0.163 HD
BRANCH   6   8
ATOM      8  C   UNL A   1      44.064  38.394  33.436  1.00  0.00     0.039 A 
ATOM      9  C   UNL A   1      43.392  38.248  34.650  1.00  0.00     0.014 A 
ATOM     10  C   UNL A   1      43.817  37.456  32.415  1.00  0.00     0.014 A 
ATOM     11  C   UNL A   1      42.582  37.134  34.878  1.00  0.00     0.010 A 
ATOM     12  C   UNL A   1      43.009  36.349  32.632  1.00  0.00     0.010 A 
ATOM     13  C   UNL A   1      42.423  36.167  33.881  1.00  0.00    -0.014 A 
BRANCH  13  14
ATOM     14  C   UNL A   1      41.474  35.074  34.093  1.00  0.00     0.031 A 
ATOM     15  C   UNL A   1      41.801  33.846  33.316  1.00  0.00     0.074 A 
ATOM     16  C   UNL A   1      40.510  35.085  35.036  1.00  0.00     0.049 A 
ATOM     17  N   UNL A   1      41.128  33.309  32.352  1.00  0.00    -0.248 NA
ATOM     18  C   UNL A   1      43.120  33.226  33.540  1.00  0.00     0.031 C 
ATOM     19  C   UNL A   1      40.278  36.111  36.056  1.00  0.00     0.029 A 
ATOM     20  N   UNL A   1      39.601  34.119  35.368  1.00  0.00    -0.354 N 
ATOM     21  C   UNL A   1      41.816  32.143  32.020  1.00  0.00     0.074 A 
ATOM     22  C   UNL A   1      43.119  32.260  32.623  1.00  0.00     0.031 C 
ATOM     23  C   UNL A   1      39.474  35.609  37.022  1.00  0.00     0.029 A 
ATOM     24  C   UNL A   1      39.033  34.280  36.631  1.00  0.00     0.049 A 
ATOM     25  H   UNL A   1      39.369  33.374  34.767  1.00  0.00     0.167 HD
ATOM     26  C   UNL A   1      41.166  31.046  31.538  1.00  0.00     0.031 A 
ATOM     27  C   UNL A   1      38.315  33.365  37.337  1.00  0.00     0.031 A 
ATOM     28  C   UNL A   1      39.844  31.375  31.066  1.00  0.00     0.049 A 
ATOM     29  C   UNL A   1      37.818  32.353  36.375  1.00  0.00     0.074 A 
ATOM     30  C   UNL A   1      39.318  32.243  30.132  1.00  0.00     0.029 A 
ATOM     31  N   UNL A   1      38.793  31.003  31.870  1.00  0.00    -0.354 N 
ATOM     32  N   UNL A   1      36.936  32.612  35.453  1.00  0.00    -0.248 NA
ATOM     33  C   UNL A   1      38.624  31.164  36.154  1.00  0.00     0.031 C 
ATOM     34  C   UNL A   1      38.097  32.706  30.704  1.00  0.00     0.029 A 
ATOM     35  C   UNL A   1      37.913  32.046  31.919  1.00  0.00     0.049 A 
ATOM     36  H   UNL A   1      38.693  30.138  32.329  1.00  0.00     0.167 HD
ATOM     37  C   UNL A   1      37.373  31.906  34.343  1.00  0.00     0.074 A 
ATOM     38  C   UNL A   1      38.355  30.955  34.862  1.00  0.00     0.031 C 
ATOM     39  C   UNL A   1      37.105  32.352  33.080  1.00  0.00     0.031 A 
BRANCH  26  40
ATOM     40  C   UNL A   1      41.522  29.628  31.952  1.00  0.00    -0.014 A 
ATOM     41  C   UNL A   1      40.949  29.115  33.136  1.00  0.00     0.010 A 
ATOM     42  C   UNL A   1      42.625  28.923  31.426  1.00  0.00     0.010 A 
ATOM     43  C   UNL A   1      41.537  28.048  33.828  1.00  0.00     0.020 A 
ATOM     44  C   UNL A   1      43.187  27.826  32.081  1.00  0.00     0.020 A 
ATOM     45  C   UNL A   1      42.670  27.428  33.303  1.00  0.00     0.054 A 
BRANCH  45  46
ATOM     46  S   UNL A   1      43.507  26.148  34.267  1.00  0.00     0.124 S 
ATOM     47  O   UNL A   1      43.977  25.249  33.219  1.00  0.00    -0.237 OA
ATOM     48  O   UNL A   1      44.540  26.912  34.961  1.00  0.00    -0.237 OA
ATOM     49  O   UNL A   1      42.447  25.619  35.123  1.00  0.00    -0.744 OA
ENDBRANCH  45  46
ENDBRANCH  26  40
BRANCH  27  50
ATOM     50  C   UNL A   1      38.291  33.135  38.809  1.00  0.00    -0.014 A 
ATOM     51  C   UNL A   1      37.123  32.695  39.466  1.00  0.00     0.010 A 
ATOM     52  C   UNL A   1      39.501  33.071  39.529  1.00  0.00     0.010 A 
ATOM     53  C   UNL A   1      37.176  32.152  40.764  1.00  0.00     0.020 A 
ATOM     54  C   UNL A   1      39.560  32.541  40.825  1.00  0.00     0.020 A 
ATOM     55  C   UNL A   1      38.402  32.060  41.428  1.00  0.00     0.054 A 
BRANCH  55  56
ATOM     56  S   UNL A   1      38.504  31.196  43.027  1.00  0.00     0.124 S 
ATOM     57  O   UNL A   1      38.908  29.851  42.630  1.00  0.00    -0.237 OA
ATOM     58  O   UNL A   1      39.511  31.972  43.746  1.00  0.00    -0.237 OA
ATOM     59  O   UNL A   1      37.147  31.302  43.562  1.00  0.00    -0.744 OA
ENDBRANCH  55  56
ENDBRANCH  27  50
BRANCH  39  60
ATOM     60  C   UNL A   1      36.041  33.404  32.895  1.00  0.00    -0.014 A 
ATOM     61  C   UNL A   1      36.240  34.781  33.113  1.00  0.00     0.010 A 
ATOM     62  C   UNL A   1      34.818  32.981  32.343  1.00  0.00     0.010 A 
ATOM     63  C   UNL A   1      35.227  35.704  32.817  1.00  0.00     0.020 A 
ATOM     64  C   UNL A   1      33.814  33.895  32.027  1.00  0.00     0.020 A 
ATOM     65  C   UNL A   1      34.018  35.252  32.277  1.00  0.00     0.054 A 
BRANCH  65  66
ATOM     66  S   UNL A   1      32.721  36.451  31.863  1.00  0.00     0.124 S 
ATOM     67  O   UNL A   1      32.970  36.713  30.447  1.00  0.00    -0.237 OA
ATOM     68  O   UNL A   1      31.493  35.717  32.159  1.00  0.00    -0.237 OA
ATOM     69  O   UNL A   1      32.990  37.578  32.755  1.00  0.00    -0.744 OA
ENDBRANCH  65  66
ENDBRANCH  39  60
ENDBRANCH  13  14
ENDBRANCH   6   8
ENDBRANCH   3   4
ENDBRANCH   2   3
ENDBRANCH   1   2
BRANCH   1  70
ATOM     70  N   UNL A   1      42.507  40.696  28.081  1.00  0.00    -0.352 N 
ATOM     71  C   UNL A   1      42.709  39.987  26.928  1.00  0.00     0.251 C 
ATOM     72  H   UNL A   1      42.250  41.636  27.947  1.00  0.00     0.163 HD
ATOM     73  O   UNL A   1      42.668  40.573  25.841  1.00  0.00    -0.269 OA
BRANCH  71  74
ATOM     74  C   UNL A   1      42.995  38.539  26.952  1.00  0.00     0.039 A 
ATOM     75  C   UNL A   1      44.332  38.124  26.921  1.00  0.00     0.016 A 
ATOM     76  C   UNL A   1      41.967  37.592  26.915  1.00  0.00     0.016 A 
ATOM     77  C   UNL A   1      44.650  36.764  26.912  1.00  0.00     0.029 A 
ATOM     78  C   UNL A   1      42.279  36.231  26.880  1.00  0.00     0.029 A 
ATOM     79  C   UNL A   1      43.623  35.816  26.868  1.00  0.00     0.066 A 
BRANCH  79  80
ATOM     80  N   UNL A   1      43.950  34.449  26.707  1.00  0.00    -0.220 N 
ATOM     81  C   UNL A   1      44.307  33.572  27.695  1.00  0.00     0.141 A 
ATOM     82  N   UNL A   1      43.865  33.782  25.531  1.00  0.00    -0.062 NA
ATOM     83  C   UNL A   1      44.364  32.335  27.096  1.00  0.00     0.093 A 
ATOM     84  N   UNL A   1      44.154  32.502  25.754  1.00  0.00    -0.134 NA
BRANCH  83  85
ATOM     85  C   UNL A   1      44.791  31.048  27.683  1.00  0.00     0.138 C 
BRANCH  85  86
ATOM     86  S   UNL A   1      44.672  29.493  26.790  1.00  0.00    -0.081 SA
BRANCH  86  87
ATOM     87  C   UNL A   1      43.298  28.526  27.261  1.00  0.00     0.176 A 
ATOM     88  N   UNL A   1      42.262  29.263  27.550  1.00  0.00    -0.223 NA
ATOM     89  N   UNL A   1      43.239  27.140  27.322  1.00  0.00    -0.255 N 
ATOM     90  C   UNL A   1      41.111  28.640  28.043  1.00  0.00     0.079 A 
ATOM     91  C   UNL A   1      42.446  26.649  28.367  1.00  0.00     0.266 A 
ATOM     92  C   UNL A   1      39.881  29.298  28.060  1.00  0.00     0.029 A 
ATOM     93  C   UNL A   1      41.197  27.382  28.617  1.00  0.00     0.066 A 
ATOM     94  O   UNL A   1      42.695  25.678  29.079  1.00  0.00    -0.268 OA
ATOM     95  C   UNL A   1      38.777  28.720  28.702  1.00  0.00     0.002 A 
ATOM     96  C   UNL A   1      40.125  26.813  29.310  1.00  0.00     0.016 A 
ATOM     97  C   UNL A   1      38.910  27.493  29.358  1.00  0.00     0.001 A 
BRANCH  89  98
ATOM     98  C   UNL A   1      43.905  26.183  26.458  1.00  0.00     0.051 A 
ATOM     99  C   UNL A   1      43.142  25.283  25.684  1.00  0.00     0.027 A 
ATOM    100  C   UNL A   1      45.291  26.085  26.298  1.00  0.00     0.027 A 
ATOM    101  C   UNL A   1      43.717  24.208  25.001  1.00  0.00     0.002 A 
ATOM    102  C   UNL A   1      45.878  24.974  25.673  1.00  0.00     0.002 A 
ATOM    103  C   UNL A   1      45.087  24.013  25.056  1.00  0.00     0.000 A 
ENDBRANCH  89  98
ENDBRANCH  86  87
ENDBRANCH  85  86
ENDBRANCH  83  85
ENDBRANCH  79  80
ENDBRANCH  71  74
ENDBRANCH   1  70
TORSDOF 18
ENDMDL
MODEL 3
REMARK VINA RESULT:     -11.7      3.536     10.966
REMARK SMILES O=C(NCCCNC(=O)c1ccc(-n2cc(CSc3nc4ccccc4c(=O)n3-c3ccccc3)nn2)cc1)c1ccc(-c2c3nc(c(-c4ccc(S(=O)(=O)[O-])cc4)c4ccc([nH]4)c(-c4ccc(S(=O)(=O)[O-])cc4)c4nc(c(-c5ccc(S(=O)(=O)[O-])cc5)c5ccc2[nH]5)C=C4)C=C3)cc1
REMARK SMILES IDX 6 1 5 2 4 3 3 4 1 5 2 6 40 8 41 9 99 10 42 11 98 12 43 13
REMARK SMILES IDX 44 14 45 15 92 16 46 17 97 18 91 19 93 20 47 21 96 22 90 23
REMARK SMILES IDX 89 24 48 26 78 27 59 28 77 29 60 30 63 31 76 32 94 33 61 34
REMARK SMILES IDX 62 35 75 37 95 38 64 39 49 40 50 41 58 42 51 43 57 44 52 45
REMARK SMILES IDX 53 46 54 47 55 48 56 49 79 50 80 51 88 52 81 53 87 54 82 55
REMARK SMILES IDX 83 56 84 57 85 58 86 59 65 60 66 61 74 62 67 63 73 64 68 65
REMARK SMILES IDX 69 66 70 67 71 68 72 69 7 70 8 71 9 73 10 74 11 75 39 76
REMARK SMILES IDX 12 77 38 78 13 79 14 80 15 81 37 82 16 83 36 84 17 85 18 86
REMARK SMILES IDX 19 87 20 88 29 89 21 90 27 91 22 92 26 93 28 94 23 95 25 96
REMARK SMILES IDX 24 97 30 98 31 99 35 100 32 101 34 102 33 103
REMARK H PARENT 3 7 93 25 63 36 7 72
REMARK Flexibility Score: inf
ROOT
ATOM      1  C   UNL A   1      35.026  35.305  33.522  1.00  0.00     0.118 C 
ENDROOT
BRANCH   1   2
ATOM      2  C   UNL A   1      33.633  35.334  32.899  1.00  0.00     0.042 C 
BRANCH   2   3
ATOM      3  C   UNL A   1      33.391  36.448  31.883  1.00  0.00     0.118 C 
BRANCH   3   4
ATOM      4  N   UNL A   1      32.957  36.020  30.569  1.00  0.00    -0.352 N 
ATOM      5  O   UNL A   1      32.484  34.765  28.820  1.00  0.00    -0.269 OA
ATOM      6  C   UNL A   1      33.274  34.975  29.745  1.00  0.00     0.251 C 
ATOM      7  H   UNL A   1      32.278  36.617  30.180  1.00  0.00     0.163 HD
BRANCH   6   8
ATOM      8  C   UNL A   1      34.519  34.163  29.822  1.00  0.00     0.039 A 
ATOM      9  C   UNL A   1      34.746  33.083  30.677  1.00  0.00     0.014 A 
ATOM     10  C   UNL A   1      35.567  34.588  28.984  1.00  0.00     0.014 A 
ATOM     11  C   UNL A   1      36.019  32.516  30.772  1.00  0.00     0.010 A 
ATOM     12  C   UNL A   1      36.832  34.025  29.068  1.00  0.00     0.010 A 
ATOM     13  C   UNL A   1      37.068  33.014  29.994  1.00  0.00    -0.014 A 
BRANCH  13  14
ATOM     14  C   UNL A   1      38.359  32.327  30.016  1.00  0.00     0.031 A 
ATOM     15  C   UNL A   1      38.284  30.907  29.575  1.00  0.00     0.074 A 
ATOM     16  C   UNL A   1      39.539  32.947  30.223  1.00  0.00     0.049 A 
ATOM     17  N   UNL A   1      38.496  29.841  30.275  1.00  0.00    -0.248 NA
ATOM     18  C   UNL A   1      37.757  30.638  28.224  1.00  0.00     0.031 C 
ATOM     19  C   UNL A   1      39.771  34.386  30.374  1.00  0.00     0.029 A 
ATOM     20  N   UNL A   1      40.807  32.437  30.219  1.00  0.00    -0.354 N 
ATOM     21  C   UNL A   1      38.373  28.777  29.383  1.00  0.00     0.074 A 
ATOM     22  C   UNL A   1      37.717  29.306  28.215  1.00  0.00     0.031 C 
ATOM     23  C   UNL A   1      41.087  34.649  30.203  1.00  0.00     0.029 A 
ATOM     24  C   UNL A   1      41.808  33.394  30.057  1.00  0.00     0.049 A 
ATOM     25  H   UNL A   1      40.997  31.476  30.321  1.00  0.00     0.167 HD
ATOM     26  C   UNL A   1      39.085  27.626  29.545  1.00  0.00     0.031 A 
ATOM     27  C   UNL A   1      43.117  33.180  29.754  1.00  0.00     0.031 A 
ATOM     28  C   UNL A   1      39.617  27.513  30.881  1.00  0.00     0.049 A 
ATOM     29  C   UNL A   1      43.425  31.771  30.094  1.00  0.00     0.074 A 
ATOM     30  C   UNL A   1      39.089  27.506  32.156  1.00  0.00     0.029 A 
ATOM     31  N   UNL A   1      40.962  27.755  31.030  1.00  0.00    -0.354 N 
ATOM     32  N   UNL A   1      43.438  31.313  31.313  1.00  0.00    -0.248 NA
ATOM     33  C   UNL A   1      43.288  30.768  29.051  1.00  0.00     0.031 C 
ATOM     34  C   UNL A   1      40.043  28.201  32.954  1.00  0.00     0.029 A 
ATOM     35  C   UNL A   1      41.127  28.532  32.142  1.00  0.00     0.049 A 
ATOM     36  H   UNL A   1      41.679  27.427  30.441  1.00  0.00     0.167 HD
ATOM     37  C   UNL A   1      42.865  30.054  31.221  1.00  0.00     0.074 A 
ATOM     38  C   UNL A   1      42.888  29.732  29.795  1.00  0.00     0.031 C 
ATOM     39  C   UNL A   1      42.175  29.521  32.272  1.00  0.00     0.031 A 
BRANCH  26  40
ATOM     40  C   UNL A   1      39.711  26.873  28.385  1.00  0.00    -0.014 A 
ATOM     41  C   UNL A   1      39.473  25.485  28.282  1.00  0.00     0.010 A 
ATOM     42  C   UNL A   1      40.769  27.392  27.608  1.00  0.00     0.010 A 
ATOM     43  C   UNL A   1      40.334  24.649  27.559  1.00  0.00     0.020 A 
ATOM     44  C   UNL A   1      41.602  26.573  26.843  1.00  0.00     0.020 A 
ATOM     45  C   UNL A   1      41.409  25.201  26.865  1.00  0.00     0.054 A 
BRANCH  45  46
ATOM     46  S   UNL A   1      42.596  24.106  26.053  1.00  0.00     0.124 S 
ATOM     47  O   UNL A   1      43.685  24.079  27.024  1.00  0.00    -0.237 OA
ATOM     48  O   UNL A   1      41.832  22.868  25.919  1.00  0.00    -0.237 OA
ATOM     49  O   UNL A   1      42.888  24.793  24.797  1.00  0.00    -0.744 OA
ENDBRANCH  45  46
ENDBRANCH  26  40
BRANCH  27  50
ATOM     50  C   UNL A   1      44.024  34.005  28.909  1.00  0.00    -0.014 A 
ATOM     51  C   UNL A   1      45.258  34.481  29.401  1.00  0.00     0.010 A 
ATOM     52  C   UNL A   1      43.809  34.086  27.518  1.00  0.00     0.010 A 
ATOM     53  C   UNL A   1      46.258  34.953  28.530  1.00  0.00     0.020 A 
ATOM     54  C   UNL A   1      44.795  34.564  26.646  1.00  0.00     0.020 A 
ATOM     55  C   UNL A   1      46.026  34.972  27.152  1.00  0.00     0.054 A 
BRANCH  55  56
ATOM     56  S   UNL A   1      47.375  35.409  26.012  1.00  0.00     0.124 S 
ATOM     57  O   UNL A   1      47.218  34.422  24.948  1.00  0.00    -0.237 OA
ATOM     58  O   UNL A   1      47.053  36.786  25.648  1.00  0.00    -0.237 OA
ATOM     59  O   UNL A   1      48.579  35.254  26.827  1.00  0.00    -0.744 OA
ENDBRANCH  55  56
ENDBRANCH  27  50
BRANCH  39  60
ATOM     60  C   UNL A   1      42.342  30.141  33.636  1.00  0.00    -0.014 A 
ATOM     61  C   UNL A   1      43.463  29.941  34.466  1.00  0.00     0.010 A 
ATOM     62  C   UNL A   1      41.371  31.078  34.032  1.00  0.00     0.010 A 
ATOM     63  C   UNL A   1      43.588  30.639  35.676  1.00  0.00     0.020 A 
ATOM     64  C   UNL A   1      41.500  31.790  35.225  1.00  0.00     0.020 A 
ATOM     65  C   UNL A   1      42.601  31.558  36.048  1.00  0.00     0.054 A 
BRANCH  65  66
ATOM     66  S   UNL A   1      42.781  32.485  37.597  1.00  0.00     0.124 S 
ATOM     67  O   UNL A   1      41.598  32.078  38.350  1.00  0.00    -0.237 OA
ATOM     68  O   UNL A   1      44.057  31.999  38.120  1.00  0.00    -0.237 OA
ATOM     69  O   UNL A   1      42.790  33.883  37.169  1.00  0.00    -0.744 OA
ENDBRANCH  65  66
ENDBRANCH  39  60
ENDBRANCH  13  14
ENDBRANCH   6   8
ENDBRANCH   3   4
ENDBRANCH   2   3
ENDBRANCH   1   2
BRANCH   1  70
ATOM     70  N   UNL A   1      35.131  34.402  34.658  1.00  0.00    -0.352 N 
ATOM     71  C   UNL A   1      36.228  33.935  35.329  1.00  0.00     0.251 C 
ATOM     72  H   UNL A   1      34.269  34.073  35.001  1.00  0.00     0.163 HD
ATOM     73  O   UNL A   1      36.083  33.081  36.210  1.00  0.00    -0.269 OA
BRANCH  71  74
ATOM     74  C   UNL A   1      37.588  34.414  35.011  1.00  0.00     0.039 A 
ATOM     75  C   UNL A   1      38.070  34.231  33.709  1.00  0.00     0.016 A 
ATOM     76  C   UNL A   1      38.420  34.956  35.995  1.00  0.00     0.016 A 
ATOM     77  C   UNL A   1      39.362  34.640  33.370  1.00  0.00     0.029 A 
ATOM     78  C   UNL A   1      39.721  35.345  35.667  1.00  0.00     0.029 A 
ATOM     79  C   UNL A   1      40.196  35.176  34.355  1.00  0.00     0.066 A 
BRANCH  79  80
ATOM     80  N   UNL A   1      41.549  35.449  34.042  1.00  0.00    -0.220 N 
ATOM     81  C   UNL A   1      42.250  36.580  34.363  1.00  0.00     0.141 A 
ATOM     82  N   UNL A   1      42.382  34.564  33.444  1.00  0.00    -0.062 NA
ATOM     83  C   UNL A   1      43.554  36.325  34.007  1.00  0.00     0.093 A 
ATOM     84  N   UNL A   1      43.596  35.107  33.384  1.00  0.00    -0.134 NA
BRANCH  83  85
ATOM     85  C   UNL A   1      44.714  37.240  34.050  1.00  0.00     0.138 C 
BRANCH  85  86
ATOM     86  S   UNL A   1      45.599  37.747  32.570  1.00  0.00    -0.081 SA
BRANCH  86  87
ATOM     87  C   UNL A   1      44.589  38.562  31.403  1.00  0.00     0.176 A 
ATOM     88  N   UNL A   1      44.208  37.760  30.448  1.00  0.00    -0.223 NA
ATOM     89  N   UNL A   1      44.186  39.890  31.437  1.00  0.00    -0.255 N 
ATOM     90  C   UNL A   1      43.475  38.288  29.381  1.00  0.00     0.079 A 
ATOM     91  C   UNL A   1      44.091  40.489  30.174  1.00  0.00     0.266 A 
ATOM     92  C   UNL A   1      42.761  37.463  28.511  1.00  0.00     0.029 A 
ATOM     93  C   UNL A   1      43.527  39.646  29.111  1.00  0.00     0.066 A 
ATOM     94  O   UNL A   1      44.430  41.634  29.881  1.00  0.00    -0.268 OA
ATOM     95  C   UNL A   1      42.167  37.993  27.358  1.00  0.00     0.002 A 
ATOM     96  C   UNL A   1      42.989  40.186  27.938  1.00  0.00     0.016 A 
ATOM     97  C   UNL A   1      42.312  39.349  27.054  1.00  0.00     0.001 A 
BRANCH  89  98
ATOM     98  C   UNL A   1      43.881  40.697  32.604  1.00  0.00     0.051 A 
ATOM     99  C   UNL A   1      42.577  41.203  32.789  1.00  0.00     0.027 A 
ATOM    100  C   UNL A   1      44.796  41.010  33.615  1.00  0.00     0.027 A 
ATOM    101  C   UNL A   1      42.274  42.152  33.770  1.00  0.00     0.002 A 
ATOM    102  C   UNL A   1      44.524  42.011  34.561  1.00  0.00     0.002 A 
ATOM    103  C   UNL A   1      43.272  42.610  34.613  1.00  0.00     0.000 A 
ENDBRANCH  89  98
ENDBRANCH  86  87
ENDBRANCH  85  86
ENDBRANCH  83  85
ENDBRANCH  79  80
ENDBRANCH  71  74
ENDBRANCH   1  70
TORSDOF 18
ENDMDL
