MODEL 1
REMARK VINA RESULT:      -9.5      0.000      0.000
REMARK SMILES COCCOCC[C@@H]1CCC[C@]1([NH3+])C(=O)NCCCNC(=O)c1ccc(-c2c3nc(c(-c4ccc(S(=O)(=O)[O-])cc4)c4ccc([nH]4)c(-c4ccc(S(=O)(=O)[O-])cc4)c4nc(c(-c5ccc(S(=O)(=O)[O-])cc5)c5ccc2[nH]5)C=C4)C=C3)cc1
REMARK SMILES IDX 14 1 15 2 16 3 12 5 8 6 9 7 10 8 11 9 7 10 6 11 5 12 4 13
REMARK SMILES IDX 3 14 2 15 1 16 13 17 17 21 18 22 19 23 20 24 21 25 22 27
REMARK SMILES IDX 23 28 24 29 82 30 25 31 81 32 26 33 27 34 28 35 75 36 29 37
REMARK SMILES IDX 80 38 74 39 76 40 30 41 79 42 73 43 72 44 31 46 61 47 42 48
REMARK SMILES IDX 60 49 43 50 46 51 59 52 77 53 44 54 45 55 58 57 78 58 47 59
REMARK SMILES IDX 32 60 33 61 41 62 34 63 40 64 35 65 36 66 37 67 38 68 39 69
REMARK SMILES IDX 62 70 63 71 71 72 64 73 70 74 65 75 66 76 67 77 68 78 69 79
REMARK SMILES IDX 48 80 49 81 57 82 50 83 56 84 51 85 52 86 53 87 54 88 55 89
REMARK H PARENT 16 4 13 18 13 19 13 20 20 26 76 45 46 56
REMARK Flexibility Score: inf
ROOT
ATOM      1  C   UNL A   1      31.922  24.373  26.339  1.00  0.00     0.281 C 
ATOM      2  O   UNL A   1      31.716  23.838  27.438  1.00  0.00    -0.268 OA
ATOM      3  N   UNL A   1      32.640  25.534  26.385  1.00  0.00    -0.351 N 
ATOM      4  H   UNL A   1      32.657  25.948  27.278  1.00  0.00     0.163 HD
ENDROOT
BRANCH   1   5
ATOM      5  C   UNL A   1      31.442  23.683  25.012  1.00  0.00     0.176 C 
ATOM      6  C   UNL A   1      32.508  23.103  24.034  1.00  0.00     0.063 C 
ATOM      7  C   UNL A   1      32.521  23.945  22.753  1.00  0.00     0.011 C 
ATOM      8  C   UNL A   1      31.483  25.035  22.909  1.00  0.00     0.008 C 
ATOM      9  C   UNL A   1      30.636  24.677  24.119  1.00  0.00     0.079 C 
BRANCH   6  10
ATOM     10  C   UNL A   1      33.913  22.727  24.513  1.00  0.00     0.039 C 
BRANCH  10  11
ATOM     11  C   UNL A   1      34.312  21.272  24.800  1.00  0.00     0.161 C 
BRANCH  11  12
ATOM     12  O   UNL A   1      33.249  20.332  24.874  1.00  0.00    -0.379 OA
BRANCH  12  13
ATOM     13  C   UNL A   1      33.607  18.985  24.556  1.00  0.00     0.188 C 
BRANCH  13  14
ATOM     14  C   UNL A   1      32.709  17.895  25.141  1.00  0.00     0.188 C 
BRANCH  14  15
ATOM     15  O   UNL A   1      33.087  16.590  24.703  1.00  0.00    -0.382 OA
ATOM     16  C   UNL A   1      33.844  16.642  23.499  1.00  0.00     0.195 C 
ENDBRANCH  14  15
ENDBRANCH  13  14
ENDBRANCH  12  13
ENDBRANCH  11  12
ENDBRANCH  10  11
ENDBRANCH   6  10
BRANCH   5  17
ATOM     17  N   UNL A   1      30.469  22.628  25.421  1.00  0.00    -0.345 N 
ATOM     18  H   UNL A   1      29.568  23.058  25.630  1.00  0.00     0.345 HD
ATOM     19  H   UNL A   1      30.818  22.149  26.252  1.00  0.00     0.345 HD
ATOM     20  H   UNL A   1      30.358  21.955  24.662  1.00  0.00     0.345 HD
ENDBRANCH   5  17
ENDBRANCH   1   5
BRANCH   3  21
ATOM     21  C   UNL A   1      33.385  26.289  25.385  1.00  0.00     0.118 C 
BRANCH  21  22
ATOM     22  C   UNL A   1      33.619  27.773  25.714  1.00  0.00     0.042 C 
BRANCH  22  23
ATOM     23  C   UNL A   1      33.531  28.172  27.183  1.00  0.00     0.118 C 
BRANCH  23  24
ATOM     24  N   UNL A   1      33.454  29.613  27.348  1.00  0.00    -0.352 N 
ATOM     25  C   UNL A   1      34.360  30.472  27.917  1.00  0.00     0.251 C 
ATOM     26  H   UNL A   1      32.635  30.036  27.001  1.00  0.00     0.163 HD
ATOM     27  O   UNL A   1      34.001  31.616  28.214  1.00  0.00    -0.269 OA
BRANCH  25  28
ATOM     28  C   UNL A   1      35.757  30.054  28.194  1.00  0.00     0.039 A 
ATOM     29  C   UNL A   1      36.100  29.643  29.488  1.00  0.00     0.014 A 
ATOM     30  C   UNL A   1      36.751  30.146  27.216  1.00  0.00     0.014 A 
ATOM     31  C   UNL A   1      37.421  29.289  29.789  1.00  0.00     0.010 A 
ATOM     32  C   UNL A   1      38.057  29.741  27.503  1.00  0.00     0.010 A 
ATOM     33  C   UNL A   1      38.411  29.320  28.795  1.00  0.00    -0.014 A 
BRANCH  33  34
ATOM     34  C   UNL A   1      39.826  28.958  29.083  1.00  0.00     0.031 A 
ATOM     35  C   UNL A   1      40.770  29.993  29.640  1.00  0.00     0.074 A 
ATOM     36  C   UNL A   1      40.290  27.728  28.784  1.00  0.00     0.049 A 
ATOM     37  N   UNL A   1      42.064  29.919  29.827  1.00  0.00    -0.248 NA
ATOM     38  C   UNL A   1      40.183  31.290  30.016  1.00  0.00     0.031 C 
ATOM     39  C   UNL A   1      39.492  26.630  28.240  1.00  0.00     0.029 A 
ATOM     40  N   UNL A   1      41.557  27.201  28.881  1.00  0.00    -0.354 N 
ATOM     41  C   UNL A   1      42.449  31.163  30.315  1.00  0.00     0.074 A 
ATOM     42  C   UNL A   1      41.257  31.982  30.367  1.00  0.00     0.031 C 
ATOM     43  C   UNL A   1      40.283  25.560  28.054  1.00  0.00     0.029 A 
ATOM     44  C   UNL A   1      41.653  25.908  28.423  1.00  0.00     0.049 A 
ATOM     45  H   UNL A   1      42.321  27.703  29.244  1.00  0.00     0.167 HD
ATOM     46  C   UNL A   1      43.681  31.585  30.692  1.00  0.00     0.031 A 
ATOM     47  C   UNL A   1      42.723  25.098  28.292  1.00  0.00     0.031 A 
ATOM     48  C   UNL A   1      44.864  30.768  30.658  1.00  0.00     0.049 A 
ATOM     49  C   UNL A   1      44.084  25.594  28.701  1.00  0.00     0.074 A 
ATOM     50  C   UNL A   1      46.149  31.099  31.056  1.00  0.00     0.029 A 
ATOM     51  N   UNL A   1      44.910  29.459  30.207  1.00  0.00    -0.354 N 
ATOM     52  N   UNL A   1      44.423  26.766  29.182  1.00  0.00    -0.248 NA
ATOM     53  C   UNL A   1      45.207  24.654  28.556  1.00  0.00     0.031 C 
ATOM     54  C   UNL A   1      46.980  30.002  30.807  1.00  0.00     0.029 A 
ATOM     55  C   UNL A   1      46.203  28.971  30.304  1.00  0.00     0.049 A 
ATOM     56  H   UNL A   1      44.139  28.951  29.867  1.00  0.00     0.167 HD
ATOM     57  C   UNL A   1      45.790  26.691  29.432  1.00  0.00     0.074 A 
ATOM     58  C   UNL A   1      46.216  25.361  29.049  1.00  0.00     0.031 C 
ATOM     59  C   UNL A   1      46.614  27.639  29.939  1.00  0.00     0.031 A 
BRANCH  46  60
ATOM     60  C   UNL A   1      43.814  33.010  31.163  1.00  0.00    -0.014 A 
ATOM     61  C   UNL A   1      43.538  33.365  32.496  1.00  0.00     0.010 A 
ATOM     62  C   UNL A   1      44.262  34.001  30.270  1.00  0.00     0.010 A 
ATOM     63  C   UNL A   1      43.665  34.692  32.915  1.00  0.00     0.020 A 
ATOM     64  C   UNL A   1      44.414  35.325  30.692  1.00  0.00     0.020 A 
ATOM     65  C   UNL A   1      44.095  35.665  32.008  1.00  0.00     0.054 A 
BRANCH  65  66
ATOM     66  S   UNL A   1      44.261  37.379  32.580  1.00  0.00     0.124 S 
ATOM     67  O   UNL A   1      43.886  38.131  31.384  1.00  0.00    -0.237 OA
ATOM     68  O   UNL A   1      43.306  37.444  33.685  1.00  0.00    -0.237 OA
ATOM     69  O   UNL A   1      45.664  37.481  32.966  1.00  0.00    -0.744 OA
ENDBRANCH  65  66
ENDBRANCH  46  60
BRANCH  47  70
ATOM     70  C   UNL A   1      42.548  23.724  27.749  1.00  0.00    -0.014 A 
ATOM     71  C   UNL A   1      42.395  22.628  28.616  1.00  0.00     0.010 A 
ATOM     72  C   UNL A   1      42.522  23.506  26.359  1.00  0.00     0.010 A 
ATOM     73  C   UNL A   1      42.231  21.338  28.104  1.00  0.00     0.020 A 
ATOM     74  C   UNL A   1      42.333  22.220  25.843  1.00  0.00     0.020 A 
ATOM     75  C   UNL A   1      42.200  21.142  26.721  1.00  0.00     0.054 A 
BRANCH  75  76
ATOM     76  S   UNL A   1      41.928  19.467  26.078  1.00  0.00     0.124 S 
ATOM     77  O   UNL A   1      40.489  19.466  25.837  1.00  0.00    -0.237 OA
ATOM     78  O   UNL A   1      42.771  19.444  24.884  1.00  0.00    -0.237 OA
ATOM     79  O   UNL A   1      42.383  18.606  27.167  1.00  0.00    -0.744 OA
ENDBRANCH  75  76
ENDBRANCH  47  70
BRANCH  59  80
ATOM     80  C   UNL A   1      48.054  27.269  30.172  1.00  0.00    -0.014 A 
ATOM     81  C   UNL A   1      49.049  27.566  29.225  1.00  0.00     0.010 A 
ATOM     82  C   UNL A   1      48.425  26.693  31.401  1.00  0.00     0.010 A 
ATOM     83  C   UNL A   1      50.390  27.281  29.500  1.00  0.00     0.020 A 
ATOM     84  C   UNL A   1      49.767  26.428  31.687  1.00  0.00     0.020 A 
ATOM     85  C   UNL A   1      50.741  26.717  30.730  1.00  0.00     0.054 A 
BRANCH  85  86
ATOM     86  S   UNL A   1      52.495  26.425  31.093  1.00  0.00     0.124 S 
ATOM     87  O   UNL A   1      52.442  25.201  31.885  1.00  0.00    -0.237 OA
ATOM     88  O   UNL A   1      53.080  26.288  29.761  1.00  0.00    -0.237 OA
ATOM     89  O   UNL A   1      52.902  27.623  31.824  1.00  0.00    -0.744 OA
ENDBRANCH  85  86
ENDBRANCH  59  80
ENDBRANCH  33  34
ENDBRANCH  25  28
ENDBRANCH  23  24
ENDBRANCH  22  23
ENDBRANCH  21  22
ENDBRANCH   3  21
TORSDOF 20
ENDMDL
MODEL 2
REMARK VINA RESULT:      -9.4      1.291      3.011
REMARK SMILES COCCOCC[C@@H]1CCC[C@]1([NH3+])C(=O)NCCCNC(=O)c1ccc(-c2c3nc(c(-c4ccc(S(=O)(=O)[O-])cc4)c4ccc([nH]4)c(-c4ccc(S(=O)(=O)[O-])cc4)c4nc(c(-c5ccc(S(=O)(=O)[O-])cc5)c5ccc2[nH]5)C=C4)C=C3)cc1
REMARK SMILES IDX 14 1 15 2 16 3 12 5 8 6 9 7 10 8 11 9 7 10 6 11 5 12 4 13
REMARK SMILES IDX 3 14 2 15 1 16 13 17 17 21 18 22 19 23 20 24 21 25 22 27
REMARK SMILES IDX 23 28 24 29 82 30 25 31 81 32 26 33 27 34 28 35 75 36 29 37
REMARK SMILES IDX 80 38 74 39 76 40 30 41 79 42 73 43 72 44 31 46 61 47 42 48
REMARK SMILES IDX 60 49 43 50 46 51 59 52 77 53 44 54 45 55 58 57 78 58 47 59
REMARK SMILES IDX 32 60 33 61 41 62 34 63 40 64 35 65 36 66 37 67 38 68 39 69
REMARK SMILES IDX 62 70 63 71 71 72 64 73 70 74 65 75 66 76 67 77 68 78 69 79
REMARK SMILES IDX 48 80 49 81 57 82 50 83 56 84 51 85 52 86 53 87 54 88 55 89
REMARK H PARENT 16 4 13 18 13 19 13 20 20 26 76 45 46 56
REMARK Flexibility Score: inf
ROOT
ATOM      1  C   UNL A   1      33.715  23.969  25.817  1.00  0.00     0.281 C 
ATOM      2  O   UNL A   1      33.928  23.378  26.886  1.00  0.00    -0.268 OA
ATOM      3  N   UNL A   1      33.455  25.305  25.935  1.00  0.00    -0.351 N 
ATOM      4  H   UNL A   1      33.187  25.572  26.844  1.00  0.00     0.163 HD
ENDROOT
BRANCH   1   5
ATOM      5  C   UNL A   1      33.830  23.210  24.447  1.00  0.00     0.176 C 
ATOM      6  C   UNL A   1      32.526  22.818  23.688  1.00  0.00     0.063 C 
ATOM      7  C   UNL A   1      32.376  21.292  23.709  1.00  0.00     0.011 C 
ATOM      8  C   UNL A   1      33.560  20.724  24.459  1.00  0.00     0.008 C 
ATOM      9  C   UNL A   1      34.572  21.848  24.617  1.00  0.00     0.079 C 
BRANCH   6  10
ATOM     10  C   UNL A   1      31.204  23.550  23.939  1.00  0.00     0.039 C 
BRANCH  10  11
ATOM     11  C   UNL A   1      30.817  24.818  23.164  1.00  0.00     0.161 C 
BRANCH  11  12
ATOM     12  O   UNL A   1      29.744  25.580  23.701  1.00  0.00    -0.379 OA
BRANCH  12  13
ATOM     13  C   UNL A   1      29.936  26.996  23.683  1.00  0.00     0.188 C 
BRANCH  13  14
ATOM     14  C   UNL A   1      30.620  27.565  22.441  1.00  0.00     0.188 C 
BRANCH  14  15
ATOM     15  O   UNL A   1      30.965  28.942  22.596  1.00  0.00    -0.382 OA
ATOM     16  C   UNL A   1      30.230  29.549  23.653  1.00  0.00     0.195 C 
ENDBRANCH  14  15
ENDBRANCH  13  14
ENDBRANCH  12  13
ENDBRANCH  11  12
ENDBRANCH  10  11
ENDBRANCH   6  10
BRANCH   5  17
ATOM     17  N   UNL A   1      34.714  24.045  23.582  1.00  0.00    -0.345 N 
ATOM     18  H   UNL A   1      34.209  24.879  23.284  1.00  0.00     0.345 HD
ATOM     19  H   UNL A   1      34.995  23.506  22.762  1.00  0.00     0.345 HD
ATOM     20  H   UNL A   1      35.544  24.320  24.109  1.00  0.00     0.345 HD
ENDBRANCH   5  17
ENDBRANCH   1   5
BRANCH   3  21
ATOM     21  C   UNL A   1      33.489  26.418  24.994  1.00  0.00     0.118 C 
BRANCH  21  22
ATOM     22  C   UNL A   1      33.103  27.788  25.574  1.00  0.00     0.042 C 
BRANCH  22  23
ATOM     23  C   UNL A   1      33.665  28.134  26.948  1.00  0.00     0.118 C 
BRANCH  23  24
ATOM     24  N   UNL A   1      33.564  29.555  27.232  1.00  0.00    -0.352 N 
ATOM     25  C   UNL A   1      34.438  30.371  27.905  1.00  0.00     0.251 C 
ATOM     26  H   UNL A   1      32.753  29.997  26.892  1.00  0.00     0.163 HD
ATOM     27  O   UNL A   1      34.054  31.482  28.284  1.00  0.00    -0.269 OA
BRANCH  25  28
ATOM     28  C   UNL A   1      35.829  29.945  28.196  1.00  0.00     0.039 A 
ATOM     29  C   UNL A   1      36.145  29.487  29.480  1.00  0.00     0.014 A 
ATOM     30  C   UNL A   1      36.844  30.075  27.243  1.00  0.00     0.014 A 
ATOM     31  C   UNL A   1      37.461  29.124  29.796  1.00  0.00     0.010 A 
ATOM     32  C   UNL A   1      38.145  29.661  27.543  1.00  0.00     0.010 A 
ATOM     33  C   UNL A   1      38.472  29.193  28.826  1.00  0.00    -0.014 A 
BRANCH  33  34
ATOM     34  C   UNL A   1      39.881  28.822  29.131  1.00  0.00     0.031 A 
ATOM     35  C   UNL A   1      40.819  29.846  29.719  1.00  0.00     0.074 A 
ATOM     36  C   UNL A   1      40.346  27.595  28.820  1.00  0.00     0.049 A 
ATOM     37  N   UNL A   1      42.109  29.764  29.926  1.00  0.00    -0.248 NA
ATOM     38  C   UNL A   1      40.229  31.137  30.107  1.00  0.00     0.031 C 
ATOM     39  C   UNL A   1      39.554  26.508  28.246  1.00  0.00     0.029 A 
ATOM     40  N   UNL A   1      41.610  27.064  28.929  1.00  0.00    -0.354 N 
ATOM     41  C   UNL A   1      42.490  31.000  30.439  1.00  0.00     0.074 A 
ATOM     42  C   UNL A   1      41.300  31.821  30.485  1.00  0.00     0.031 C 
ATOM     43  C   UNL A   1      40.345  25.439  28.056  1.00  0.00     0.029 A 
ATOM     44  C   UNL A   1      41.710  25.778  28.452  1.00  0.00     0.049 A 
ATOM     45  H   UNL A   1      42.369  27.557  29.312  1.00  0.00     0.167 HD
ATOM     46  C   UNL A   1      43.716  31.412  30.843  1.00  0.00     0.031 A 
ATOM     47  C   UNL A   1      42.779  24.966  28.326  1.00  0.00     0.031 A 
ATOM     48  C   UNL A   1      44.898  30.592  30.815  1.00  0.00     0.049 A 
ATOM     49  C   UNL A   1      44.136  25.451  28.763  1.00  0.00     0.074 A 
ATOM     50  C   UNL A   1      46.177  30.912  31.238  1.00  0.00     0.029 A 
ATOM     51  N   UNL A   1      44.948  29.290  30.344  1.00  0.00    -0.354 N 
ATOM     52  N   UNL A   1      44.470  26.614  29.269  1.00  0.00    -0.248 NA
ATOM     53  C   UNL A   1      45.258  24.510  28.622  1.00  0.00     0.031 C 
ATOM     54  C   UNL A   1      47.009  29.817  30.985  1.00  0.00     0.029 A 
ATOM     55  C   UNL A   1      46.237  28.797  30.454  1.00  0.00     0.049 A 
ATOM     56  H   UNL A   1      44.181  28.789  29.984  1.00  0.00     0.167 HD
ATOM     57  C   UNL A   1      45.832  26.532  29.539  1.00  0.00     0.074 A 
ATOM     58  C   UNL A   1      46.260  25.207  29.142  1.00  0.00     0.031 C 
ATOM     59  C   UNL A   1      46.650  27.469  30.074  1.00  0.00     0.031 A 
BRANCH  46  60
ATOM     60  C   UNL A   1      43.845  32.829  31.339  1.00  0.00    -0.014 A 
ATOM     61  C   UNL A   1      43.607  33.153  32.686  1.00  0.00     0.010 A 
ATOM     62  C   UNL A   1      44.254  33.843  30.453  1.00  0.00     0.010 A 
ATOM     63  C   UNL A   1      43.729  34.473  33.128  1.00  0.00     0.020 A 
ATOM     64  C   UNL A   1      44.402  35.160  30.897  1.00  0.00     0.020 A 
ATOM     65  C   UNL A   1      44.119  35.470  32.228  1.00  0.00     0.054 A 
BRANCH  65  66
ATOM     66  S   UNL A   1      44.281  37.174  32.829  1.00  0.00     0.124 S 
ATOM     67  O   UNL A   1      44.030  37.945  31.613  1.00  0.00    -0.237 OA
ATOM     68  O   UNL A   1      43.237  37.256  33.850  1.00  0.00    -0.237 OA
ATOM     69  O   UNL A   1      45.648  37.235  33.335  1.00  0.00    -0.744 OA
ENDBRANCH  65  66
ENDBRANCH  46  60
BRANCH  47  70
ATOM     70  C   UNL A   1      42.610  23.601  27.757  1.00  0.00    -0.014 A 
ATOM     71  C   UNL A   1      42.991  23.329  26.432  1.00  0.00     0.010 A 
ATOM     72  C   UNL A   1      42.079  22.563  28.545  1.00  0.00     0.010 A 
ATOM     73  C   UNL A   1      42.831  22.046  25.899  1.00  0.00     0.020 A 
ATOM     74  C   UNL A   1      41.942  21.273  28.023  1.00  0.00     0.020 A 
ATOM     75  C   UNL A   1      42.309  21.026  26.699  1.00  0.00     0.054 A 
BRANCH  75  76
ATOM     76  S   UNL A   1      42.166  19.355  26.006  1.00  0.00     0.124 S 
ATOM     77  O   UNL A   1      43.001  19.450  24.813  1.00  0.00    -0.237 OA
ATOM     78  O   UNL A   1      42.691  18.518  27.082  1.00  0.00    -0.237 OA
ATOM     79  O   UNL A   1      40.733  19.210  25.759  1.00  0.00    -0.744 OA
ENDBRANCH  75  76
ENDBRANCH  47  70
BRANCH  59  80
ATOM     80  C   UNL A   1      48.085  27.092  30.325  1.00  0.00    -0.014 A 
ATOM     81  C   UNL A   1      49.099  27.419  29.408  1.00  0.00     0.010 A 
ATOM     82  C   UNL A   1      48.432  26.476  31.541  1.00  0.00     0.010 A 
ATOM     83  C   UNL A   1      50.435  27.125  29.701  1.00  0.00     0.020 A 
ATOM     84  C   UNL A   1      49.767  26.201  31.846  1.00  0.00     0.020 A 
ATOM     85  C   UNL A   1      50.761  26.521  30.919  1.00  0.00     0.054 A 
BRANCH  85  86
ATOM     86  S   UNL A   1      52.507  26.217  31.307  1.00  0.00     0.124 S 
ATOM     87  O   UNL A   1      52.451  24.910  31.955  1.00  0.00    -0.237 OA
ATOM     88  O   UNL A   1      53.138  26.240  29.990  1.00  0.00    -0.237 OA
ATOM     89  O   UNL A   1      52.867  27.330  32.182  1.00  0.00    -0.744 OA
ENDBRANCH  85  86
ENDBRANCH  59  80
ENDBRANCH  33  34
ENDBRANCH  25  28
ENDBRANCH  23  24
ENDBRANCH  22  23
ENDBRANCH  21  22
ENDBRANCH   3  21
TORSDOF 20
ENDMDL
MODEL 3
REMARK VINA RESULT:      -9.2      3.346      7.846
REMARK SMILES COCCOCC[C@@H]1CCC[C@]1([NH3+])C(=O)NCCCNC(=O)c1ccc(-c2c3nc(c(-c4ccc(S(=O)(=O)[O-])cc4)c4ccc([nH]4)c(-c4ccc(S(=O)(=O)[O-])cc4)c4nc(c(-c5ccc(S(=O)(=O)[O-])cc5)c5ccc2[nH]5)C=C4)C=C3)cc1
REMARK SMILES IDX 14 1 15 2 16 3 12 5 8 6 9 7 10 8 11 9 7 10 6 11 5 12 4 13
REMARK SMILES IDX 3 14 2 15 1 16 13 17 17 21 18 22 19 23 20 24 21 25 22 27
REMARK SMILES IDX 23 28 24 29 82 30 25 31 81 32 26 33 27 34 28 35 75 36 29 37
REMARK SMILES IDX 80 38 74 39 76 40 30 41 79 42 73 43 72 44 31 46 61 47 42 48
REMARK SMILES IDX 60 49 43 50 46 51 59 52 77 53 44 54 45 55 58 57 78 58 47 59
REMARK SMILES IDX 32 60 33 61 41 62 34 63 40 64 35 65 36 66 37 67 38 68 39 69
REMARK SMILES IDX 62 70 63 71 71 72 64 73 70 74 65 75 66 76 67 77 68 78 69 79
REMARK SMILES IDX 48 80 49 81 57 82 50 83 56 84 51 85 52 86 53 87 54 88 55 89
REMARK H PARENT 16 4 13 18 13 19 13 20 20 26 76 45 46 56
REMARK Flexibility Score: inf
ROOT
ATOM      1  C   UNL A   1      35.033  22.304  24.780  1.00  0.00     0.281 C 
ATOM      2  O   UNL A   1      35.090  23.433  24.271  1.00  0.00    -0.268 OA
ATOM      3  N   UNL A   1      36.054  21.463  24.441  1.00  0.00    -0.351 N 
ATOM      4  H   UNL A   1      36.539  21.744  23.631  1.00  0.00     0.163 HD
ENDROOT
BRANCH   1   5
ATOM      5  C   UNL A   1      33.894  21.944  25.800  1.00  0.00     0.176 C 
ATOM      6  C   UNL A   1      32.589  21.275  25.270  1.00  0.00     0.063 C 
ATOM      7  C   UNL A   1      31.427  22.264  25.413  1.00  0.00     0.011 C 
ATOM      8  C   UNL A   1      31.977  23.533  26.025  1.00  0.00     0.008 C 
ATOM      9  C   UNL A   1      33.373  23.216  26.537  1.00  0.00     0.079 C 
BRANCH   6  10
ATOM     10  C   UNL A   1      32.563  20.514  23.941  1.00  0.00     0.039 C 
BRANCH  10  11
ATOM     11  C   UNL A   1      32.642  18.981  23.880  1.00  0.00     0.161 C 
BRANCH  11  12
ATOM     12  O   UNL A   1      33.672  18.373  24.648  1.00  0.00    -0.379 OA
BRANCH  12  13
ATOM     13  C   UNL A   1      34.162  17.133  24.133  1.00  0.00     0.188 C 
BRANCH  13  14
ATOM     14  C   UNL A   1      34.914  16.245  25.123  1.00  0.00     0.188 C 
BRANCH  14  15
ATOM     15  O   UNL A   1      34.255  14.997  25.339  1.00  0.00    -0.382 OA
ATOM     16  C   UNL A   1      32.839  15.144  25.324  1.00  0.00     0.195 C 
ENDBRANCH  14  15
ENDBRANCH  13  14
ENDBRANCH  12  13
ENDBRANCH  11  12
ENDBRANCH  10  11
ENDBRANCH   6  10
BRANCH   5  17
ATOM     17  N   UNL A   1      34.531  21.099  26.853  1.00  0.00    -0.345 N 
ATOM     18  H   UNL A   1      34.881  21.697  27.602  1.00  0.00     0.345 HD
ATOM     19  H   UNL A   1      35.306  20.576  26.445  1.00  0.00     0.345 HD
ATOM     20  H   UNL A   1      33.842  20.448  27.230  1.00  0.00     0.345 HD
ENDBRANCH   5  17
ENDBRANCH   1   5
BRANCH   3  21
ATOM     21  C   UNL A   1      36.575  20.234  25.028  1.00  0.00     0.118 C 
BRANCH  21  22
ATOM     22  C   UNL A   1      38.057  19.940  24.743  1.00  0.00     0.042 C 
BRANCH  22  23
ATOM     23  C   UNL A   1      39.059  20.375  25.807  1.00  0.00     0.118 C 
BRANCH  23  24
ATOM     24  N   UNL A   1      40.117  19.395  25.984  1.00  0.00    -0.352 N 
ATOM     25  C   UNL A   1      41.466  19.592  26.143  1.00  0.00     0.251 C 
ATOM     26  H   UNL A   1      39.826  18.455  25.992  1.00  0.00     0.163 HD
ATOM     27  O   UNL A   1      42.235  18.635  26.001  1.00  0.00    -0.269 OA
BRANCH  25  28
ATOM     28  C   UNL A   1      42.021  20.929  26.469  1.00  0.00     0.039 A 
ATOM     29  C   UNL A   1      42.370  21.793  25.425  1.00  0.00     0.014 A 
ATOM     30  C   UNL A   1      42.284  21.304  27.790  1.00  0.00     0.014 A 
ATOM     31  C   UNL A   1      42.942  23.042  25.703  1.00  0.00     0.010 A 
ATOM     32  C   UNL A   1      42.803  22.571  28.068  1.00  0.00     0.010 A 
ATOM     33  C   UNL A   1      43.150  23.450  27.029  1.00  0.00    -0.014 A 
BRANCH  33  34
ATOM     34  C   UNL A   1      43.762  24.767  27.360  1.00  0.00     0.031 A 
ATOM     35  C   UNL A   1      42.894  25.901  27.844  1.00  0.00     0.074 A 
ATOM     36  C   UNL A   1      45.079  24.975  27.163  1.00  0.00     0.049 A 
ATOM     37  N   UNL A   1      43.209  27.155  28.051  1.00  0.00    -0.248 NA
ATOM     38  C   UNL A   1      41.481  25.584  28.112  1.00  0.00     0.031 C 
ATOM     39  C   UNL A   1      46.036  23.971  26.697  1.00  0.00     0.029 A 
ATOM     40  N   UNL A   1      45.837  26.112  27.314  1.00  0.00    -0.354 N 
ATOM     41  C   UNL A   1      42.031  27.782  28.444  1.00  0.00     0.074 A 
ATOM     42  C   UNL A   1      40.991  26.777  28.419  1.00  0.00     0.031 C 
ATOM     43  C   UNL A   1      47.253  24.533  26.604  1.00  0.00     0.029 A 
ATOM     44  C   UNL A   1      47.155  25.947  26.959  1.00  0.00     0.049 A 
ATOM     45  H   UNL A   1      45.471  26.963  27.644  1.00  0.00     0.167 HD
ATOM     46  C   UNL A   1      41.834  29.075  28.800  1.00  0.00     0.031 A 
ATOM     47  C   UNL A   1      48.170  26.834  26.903  1.00  0.00     0.031 A 
ATOM     48  C   UNL A   1      42.870  30.072  28.842  1.00  0.00     0.049 A 
ATOM     49  C   UNL A   1      47.924  28.269  27.286  1.00  0.00     0.074 A 
ATOM     50  C   UNL A   1      42.771  31.399  29.226  1.00  0.00     0.029 A 
ATOM     51  N   UNL A   1      44.194  29.855  28.495  1.00  0.00    -0.354 N 
ATOM     52  N   UNL A   1      46.808  28.837  27.678  1.00  0.00    -0.248 NA
ATOM     53  C   UNL A   1      49.077  29.182  27.227  1.00  0.00     0.031 C 
ATOM     54  C   UNL A   1      44.027  31.994  29.072  1.00  0.00     0.029 A 
ATOM     55  C   UNL A   1      44.919  31.025  28.643  1.00  0.00     0.049 A 
ATOM     56  H   UNL A   1      44.564  28.996  28.188  1.00  0.00     0.167 HD
ATOM     57  C   UNL A   1      47.133  30.163  27.947  1.00  0.00     0.074 A 
ATOM     58  C   UNL A   1      48.547  30.313  27.673  1.00  0.00     0.031 C 
ATOM     59  C   UNL A   1      46.331  31.161  28.387  1.00  0.00     0.031 A 
BRANCH  46  60
ATOM     60  C   UNL A   1      40.432  29.491  29.160  1.00  0.00    -0.014 A 
ATOM     61  C   UNL A   1      39.495  29.828  28.167  1.00  0.00     0.010 A 
ATOM     62  C   UNL A   1      40.032  29.502  30.509  1.00  0.00     0.010 A 
ATOM     63  C   UNL A   1      38.199  30.214  28.519  1.00  0.00     0.020 A 
ATOM     64  C   UNL A   1      38.729  29.863  30.864  1.00  0.00     0.020 A 
ATOM     65  C   UNL A   1      37.826  30.237  29.866  1.00  0.00     0.054 A 
BRANCH  65  66
ATOM     66  S   UNL A   1      36.135  30.731  30.297  1.00  0.00     0.124 S 
ATOM     67  O   UNL A   1      36.130  30.548  31.747  1.00  0.00    -0.237 OA
ATOM     68  O   UNL A   1      36.079  32.118  29.840  1.00  0.00    -0.237 OA
ATOM     69  O   UNL A   1      35.299  29.797  29.549  1.00  0.00    -0.744 OA
ENDBRANCH  65  66
ENDBRANCH  46  60
BRANCH  47  70
ATOM     70  C   UNL A   1      49.520  26.387  26.466  1.00  0.00    -0.014 A 
ATOM     71  C   UNL A   1      50.412  25.810  27.387  1.00  0.00     0.010 A 
ATOM     72  C   UNL A   1      49.917  26.525  25.123  1.00  0.00     0.010 A 
ATOM     73  C   UNL A   1      51.681  25.390  26.975  1.00  0.00     0.020 A 
ATOM     74  C   UNL A   1      51.175  26.084  24.703  1.00  0.00     0.020 A 
ATOM     75  C   UNL A   1      52.054  25.529  25.635  1.00  0.00     0.054 A 
BRANCH  75  76
ATOM     76  S   UNL A   1      53.683  24.925  25.111  1.00  0.00     0.124 S 
ATOM     77  O   UNL A   1      54.552  25.451  26.159  1.00  0.00    -0.237 OA
ATOM     78  O   UNL A   1      53.498  23.475  25.109  1.00  0.00    -0.237 OA
ATOM     79  O   UNL A   1      53.859  25.523  23.790  1.00  0.00    -0.744 OA
ENDBRANCH  75  76
ENDBRANCH  47  70
BRANCH  59  80
ATOM     80  C   UNL A   1      46.959  32.500  28.664  1.00  0.00    -0.014 A 
ATOM     81  C   UNL A   1      47.014  33.501  27.679  1.00  0.00     0.010 A 
ATOM     82  C   UNL A   1      47.425  32.786  29.961  1.00  0.00     0.010 A 
ATOM     83  C   UNL A   1      47.534  34.763  27.985  1.00  0.00     0.020 A 
ATOM     84  C   UNL A   1      47.924  34.053  30.275  1.00  0.00     0.020 A 
ATOM     85  C   UNL A   1      47.983  35.032  29.282  1.00  0.00     0.054 A 
BRANCH  85  86
ATOM     86  S   UNL A   1      48.584  36.698  29.673  1.00  0.00     0.124 S 
ATOM     87  O   UNL A   1      47.507  37.222  30.507  1.00  0.00    -0.237 OA
ATOM     88  O   UNL A   1      49.842  36.431  30.366  1.00  0.00    -0.237 OA
ATOM     89  O   UNL A   1      48.724  37.333  28.364  1.00  0.00    -0.744 OA
ENDBRANCH  85  86
ENDBRANCH  59  80
ENDBRANCH  33  34
ENDBRANCH  25  28
ENDBRANCH  23  24
ENDBRANCH  22  23
ENDBRANCH  21  22
ENDBRANCH   3  21
TORSDOF 20
ENDMDL
