MODEL 1
REMARK VINA RESULT:     -12.1      0.000      0.000
REMARK SMILES O=C(NCCCNC(=O)c1ccc(-c2c3nc(c(-c4ccc(S(=O)(=O)[O-])cc4)c4ccc([nH]4)c(-c4ccc(S(=O)(=O)[O-])cc4)c4nc(c(-c5ccc(S(=O)(=O)[O-])cc5)c5ccc2[nH]5)C=C4)C=C3)cc1)C1=Cc2cc(Cl)cc(Cl)c2O[C@@H]1C(F)(F)F
REMARK SMILES IDX 6 1 5 2 4 3 3 4 1 5 2 6 70 8 71 9 81 10 72 11 80 12 73 13
REMARK SMILES IDX 79 14 74 15 77 16 75 17 76 18 78 19 82 20 83 21 84 22 85 23
REMARK SMILES IDX 7 24 8 25 9 27 10 28 11 29 69 30 12 31 68 32 13 33 14 34
REMARK SMILES IDX 15 35 62 36 16 37 67 38 61 39 63 40 17 41 66 42 60 43 59 44
REMARK SMILES IDX 18 46 48 47 29 48 47 49 30 50 33 51 46 52 64 53 31 54 32 55
REMARK SMILES IDX 45 57 65 58 34 59 19 60 20 61 28 62 21 63 27 64 22 65 23 66
REMARK SMILES IDX 24 67 25 68 26 69 49 70 50 71 58 72 51 73 57 74 52 75 53 76
REMARK SMILES IDX 54 77 55 78 56 79 35 80 36 81 44 82 37 83 43 84 38 85 39 86
REMARK SMILES IDX 40 87 41 88 42 89
REMARK H PARENT 3 7 7 26 63 45 33 56
REMARK Flexibility Score: inf
ROOT
ATOM      1  C   UNL A   1      33.242  28.823  27.259  1.00  0.00     0.118 C 
ENDROOT
BRANCH   1   2
ATOM      2  C   UNL A   1      31.789  28.458  26.965  1.00  0.00     0.042 C 
BRANCH   2   3
ATOM      3  C   UNL A   1      31.658  27.201  26.109  1.00  0.00     0.118 C 
BRANCH   3   4
ATOM      4  N   UNL A   1      31.370  25.988  26.881  1.00  0.00    -0.352 N 
ATOM      5  O   UNL A   1      31.677  23.853  27.579  1.00  0.00    -0.270 OA
ATOM      6  C   UNL A   1      31.804  24.695  26.700  1.00  0.00     0.251 C 
ATOM      7  H   UNL A   1      30.771  26.120  27.651  1.00  0.00     0.163 HD
BRANCH   6   8
ATOM      8  C   UNL A   1      32.535  24.386  25.456  1.00  0.00     0.067 C 
ATOM      9  C   UNL A   1      33.784  24.844  25.301  1.00  0.00     0.025 C 
ATOM     10  C   UNL A   1      31.982  23.289  24.604  1.00  0.00     0.314 C 
ATOM     11  C   UNL A   1      34.724  23.756  24.976  1.00  0.00     0.020 A 
ATOM     12  O   UNL A   1      32.912  22.193  24.454  1.00  0.00    -0.474 OA
ATOM     13  C   UNL A   1      36.055  23.924  25.382  1.00  0.00     0.032 A 
ATOM     14  C   UNL A   1      34.240  22.456  24.701  1.00  0.00     0.146 A 
ATOM     15  C   UNL A   1      36.866  22.807  25.584  1.00  0.00     0.043 A 
ATOM     16  C   UNL A   1      35.083  21.349  24.879  1.00  0.00     0.085 A 
ATOM     17  Cl  UNL A   1      38.435  23.013  26.256  1.00  0.00    -0.084 Cl
ATOM     18  C   UNL A   1      36.386  21.522  25.342  1.00  0.00     0.045 A 
ATOM     19  Cl  UNL A   1      34.488  19.737  24.696  1.00  0.00    -0.080 Cl
BRANCH  10  20
ATOM     20  C   UNL A   1      31.550  23.825  23.228  1.00  0.00     0.429 C 
ATOM     21  F   UNL A   1      31.683  25.172  23.165  1.00  0.00    -0.167 F 
ATOM     22  F   UNL A   1      32.301  23.312  22.226  1.00  0.00    -0.167 F 
ATOM     23  F   UNL A   1      30.256  23.540  22.947  1.00  0.00    -0.167 F 
ENDBRANCH  10  20
ENDBRANCH   6   8
ENDBRANCH   3   4
ENDBRANCH   2   3
ENDBRANCH   1   2
BRANCH   1  24
ATOM     24  N   UNL A   1      33.418  30.181  27.769  1.00  0.00    -0.352 N 
ATOM     25  C   UNL A   1      34.498  30.813  28.359  1.00  0.00     0.251 C 
ATOM     26  H   UNL A   1      32.622  30.752  27.674  1.00  0.00     0.163 HD
ATOM     27  O   UNL A   1      34.355  31.941  28.802  1.00  0.00    -0.269 OA
BRANCH  25  28
ATOM     28  C   UNL A   1      35.800  30.118  28.504  1.00  0.00     0.039 A 
ATOM     29  C   UNL A   1      36.675  30.085  27.412  1.00  0.00     0.014 A 
ATOM     30  C   UNL A   1      36.179  29.520  29.703  1.00  0.00     0.014 A 
ATOM     31  C   UNL A   1      37.971  29.584  27.572  1.00  0.00     0.010 A 
ATOM     32  C   UNL A   1      37.501  29.136  29.896  1.00  0.00     0.010 A 
ATOM     33  C   UNL A   1      38.423  29.184  28.840  1.00  0.00    -0.014 A 
BRANCH  33  34
ATOM     34  C   UNL A   1      39.852  28.866  29.109  1.00  0.00     0.031 A 
ATOM     35  C   UNL A   1      40.781  29.930  29.635  1.00  0.00     0.074 A 
ATOM     36  C   UNL A   1      40.343  27.659  28.758  1.00  0.00     0.049 A 
ATOM     37  N   UNL A   1      42.083  29.897  29.765  1.00  0.00    -0.248 NA
ATOM     38  C   UNL A   1      40.174  31.212  30.027  1.00  0.00     0.031 C 
ATOM     39  C   UNL A   1      39.566  26.557  28.181  1.00  0.00     0.029 A 
ATOM     40  N   UNL A   1      41.621  27.159  28.816  1.00  0.00    -0.354 N 
ATOM     41  C   UNL A   1      42.451  31.161  30.213  1.00  0.00     0.074 A 
ATOM     42  C   UNL A   1      41.242  31.950  30.289  1.00  0.00     0.031 C 
ATOM     43  C   UNL A   1      40.374  25.506  27.972  1.00  0.00     0.029 A 
ATOM     44  C   UNL A   1      41.735  25.873  28.342  1.00  0.00     0.049 A 
ATOM     45  H   UNL A   1      42.385  27.673  29.166  1.00  0.00     0.167 HD
ATOM     46  C   UNL A   1      43.681  31.618  30.551  1.00  0.00     0.031 A 
ATOM     47  C   UNL A   1      42.814  25.079  28.198  1.00  0.00     0.031 A 
ATOM     48  C   UNL A   1      44.876  30.818  30.512  1.00  0.00     0.049 A 
ATOM     49  C   UNL A   1      44.166  25.604  28.592  1.00  0.00     0.074 A 
ATOM     50  C   UNL A   1      46.155  31.165  30.913  1.00  0.00     0.029 A 
ATOM     51  N   UNL A   1      44.940  29.513  30.051  1.00  0.00    -0.354 N 
ATOM     52  N   UNL A   1      44.482  26.783  29.072  1.00  0.00    -0.248 NA
ATOM     53  C   UNL A   1      45.307  24.694  28.423  1.00  0.00     0.031 C 
ATOM     54  C   UNL A   1      47.002  30.081  30.652  1.00  0.00     0.029 A 
ATOM     55  C   UNL A   1      46.240  29.046  30.134  1.00  0.00     0.049 A 
ATOM     56  H   UNL A   1      44.174  28.994  29.715  1.00  0.00     0.167 HD
ATOM     57  C   UNL A   1      45.856  26.751  29.274  1.00  0.00     0.074 A 
ATOM     58  C   UNL A   1      46.308  25.430  28.885  1.00  0.00     0.031 C 
ATOM     59  C   UNL A   1      46.673  27.731  29.734  1.00  0.00     0.031 A 
BRANCH  46  60
ATOM     60  C   UNL A   1      43.792  33.051  30.999  1.00  0.00    -0.014 A 
ATOM     61  C   UNL A   1      43.631  33.404  32.352  1.00  0.00     0.010 A 
ATOM     62  C   UNL A   1      44.096  34.057  30.062  1.00  0.00     0.010 A 
ATOM     63  C   UNL A   1      43.726  34.739  32.753  1.00  0.00     0.020 A 
ATOM     64  C   UNL A   1      44.220  35.391  30.464  1.00  0.00     0.020 A 
ATOM     65  C   UNL A   1      44.016  35.726  31.805  1.00  0.00     0.054 A 
BRANCH  65  66
ATOM     66  S   UNL A   1      44.151  37.447  32.357  1.00  0.00     0.124 S 
ATOM     67  O   UNL A   1      43.844  38.181  31.131  1.00  0.00    -0.237 OA
ATOM     68  O   UNL A   1      43.140  37.529  33.407  1.00  0.00    -0.237 OA
ATOM     69  O   UNL A   1      45.533  37.556  32.817  1.00  0.00    -0.744 OA
ENDBRANCH  65  66
ENDBRANCH  46  60
BRANCH  47  70
ATOM     70  C   UNL A   1      42.659  23.700  27.658  1.00  0.00    -0.014 A 
ATOM     71  C   UNL A   1      42.390  22.626  28.523  1.00  0.00     0.010 A 
ATOM     72  C   UNL A   1      42.762  23.457  26.276  1.00  0.00     0.010 A 
ATOM     73  C   UNL A   1      42.241  21.330  28.019  1.00  0.00     0.020 A 
ATOM     74  C   UNL A   1      42.587  22.167  25.765  1.00  0.00     0.020 A 
ATOM     75  C   UNL A   1      42.339  21.109  26.642  1.00  0.00     0.054 A 
BRANCH  75  76
ATOM     76  S   UNL A   1      42.086  19.429  26.004  1.00  0.00     0.124 S 
ATOM     77  O   UNL A   1      40.644  19.401  25.787  1.00  0.00    -0.237 OA
ATOM     78  O   UNL A   1      42.910  19.421  24.798  1.00  0.00    -0.237 OA
ATOM     79  O   UNL A   1      42.575  18.578  27.087  1.00  0.00    -0.744 OA
ENDBRANCH  75  76
ENDBRANCH  47  70
BRANCH  59  80
ATOM     80  C   UNL A   1      48.136  27.409  29.852  1.00  0.00    -0.014 A 
ATOM     81  C   UNL A   1      49.050  27.835  28.872  1.00  0.00     0.010 A 
ATOM     82  C   UNL A   1      48.611  26.722  30.983  1.00  0.00     0.010 A 
ATOM     83  C   UNL A   1      50.411  27.558  29.010  1.00  0.00     0.020 A 
ATOM     84  C   UNL A   1      49.976  26.465  31.137  1.00  0.00     0.020 A 
ATOM     85  C   UNL A   1      50.866  26.876  30.143  1.00  0.00     0.054 A 
BRANCH  85  86
ATOM     86  S   UNL A   1      52.646  26.576  30.324  1.00  0.00     0.124 S 
ATOM     87  O   UNL A   1      53.136  27.891  30.725  1.00  0.00    -0.237 OA
ATOM     88  O   UNL A   1      52.695  25.544  31.357  1.00  0.00    -0.237 OA
ATOM     89  O   UNL A   1      53.059  26.136  28.993  1.00  0.00    -0.744 OA
ENDBRANCH  85  86
ENDBRANCH  59  80
ENDBRANCH  33  34
ENDBRANCH  25  28
ENDBRANCH   1  24
TORSDOF 14
ENDMDL
MODEL 2
REMARK VINA RESULT:     -11.6      3.213      9.328
REMARK SMILES O=C(NCCCNC(=O)c1ccc(-c2c3nc(c(-c4ccc(S(=O)(=O)[O-])cc4)c4ccc([nH]4)c(-c4ccc(S(=O)(=O)[O-])cc4)c4nc(c(-c5ccc(S(=O)(=O)[O-])cc5)c5ccc2[nH]5)C=C4)C=C3)cc1)C1=Cc2cc(Cl)cc(Cl)c2O[C@@H]1C(F)(F)F
REMARK SMILES IDX 6 1 5 2 4 3 3 4 1 5 2 6 70 8 71 9 81 10 72 11 80 12 73 13
REMARK SMILES IDX 79 14 74 15 77 16 75 17 76 18 78 19 82 20 83 21 84 22 85 23
REMARK SMILES IDX 7 24 8 25 9 27 10 28 11 29 69 30 12 31 68 32 13 33 14 34
REMARK SMILES IDX 15 35 62 36 16 37 67 38 61 39 63 40 17 41 66 42 60 43 59 44
REMARK SMILES IDX 18 46 48 47 29 48 47 49 30 50 33 51 46 52 64 53 31 54 32 55
REMARK SMILES IDX 45 57 65 58 34 59 19 60 20 61 28 62 21 63 27 64 22 65 23 66
REMARK SMILES IDX 24 67 25 68 26 69 49 70 50 71 58 72 51 73 57 74 52 75 53 76
REMARK SMILES IDX 54 77 55 78 56 79 35 80 36 81 44 82 37 83 43 84 38 85 39 86
REMARK SMILES IDX 40 87 41 88 42 89
REMARK H PARENT 3 7 7 26 63 45 33 56
REMARK Flexibility Score: inf
ROOT
ATOM      1  C   UNL A   1      37.185  23.227  24.878  1.00  0.00     0.118 C 
ENDROOT
BRANCH   1   2
ATOM      2  C   UNL A   1      35.914  23.089  25.713  1.00  0.00     0.042 C 
BRANCH   2   3
ATOM      3  C   UNL A   1      34.662  22.911  24.860  1.00  0.00     0.118 C 
BRANCH   3   4
ATOM      4  N   UNL A   1      34.593  23.824  23.715  1.00  0.00    -0.352 N 
ATOM      5  O   UNL A   1      34.238  25.795  22.652  1.00  0.00    -0.270 OA
ATOM      6  C   UNL A   1      33.985  25.052  23.591  1.00  0.00     0.251 C 
ATOM      7  H   UNL A   1      35.056  23.508  22.905  1.00  0.00     0.163 HD
BRANCH   6   8
ATOM      8  C   UNL A   1      33.106  25.495  24.691  1.00  0.00     0.067 C 
ATOM      9  C   UNL A   1      33.652  26.059  25.777  1.00  0.00     0.025 C 
ATOM     10  C   UNL A   1      31.649  25.619  24.382  1.00  0.00     0.314 C 
ATOM     11  C   UNL A   1      33.051  27.373  26.065  1.00  0.00     0.020 A 
ATOM     12  O   UNL A   1      31.169  26.972  24.549  1.00  0.00    -0.474 OA
ATOM     13  C   UNL A   1      33.862  28.315  26.712  1.00  0.00     0.032 A 
ATOM     14  C   UNL A   1      31.919  27.812  25.340  1.00  0.00     0.146 A 
ATOM     15  C   UNL A   1      33.592  29.676  26.574  1.00  0.00     0.043 A 
ATOM     16  C   UNL A   1      31.647  29.185  25.241  1.00  0.00     0.085 A 
ATOM     17  Cl  UNL A   1      34.696  30.826  27.218  1.00  0.00    -0.084 Cl
ATOM     18  C   UNL A   1      32.495  30.116  25.837  1.00  0.00     0.045 A 
ATOM     19  Cl  UNL A   1      30.363  29.770  24.243  1.00  0.00    -0.080 Cl
BRANCH  10  20
ATOM     20  C   UNL A   1      30.820  24.640  25.231  1.00  0.00     0.429 C 
ATOM     21  F   UNL A   1      29.692  25.231  25.694  1.00  0.00    -0.167 F 
ATOM     22  F   UNL A   1      30.429  23.558  24.519  1.00  0.00    -0.167 F 
ATOM     23  F   UNL A   1      31.502  24.187  26.309  1.00  0.00    -0.167 F 
ENDBRANCH  10  20
ENDBRANCH   6   8
ENDBRANCH   3   4
ENDBRANCH   2   3
ENDBRANCH   1   2
BRANCH   1  24
ATOM     24  N   UNL A   1      38.313  22.447  25.382  1.00  0.00    -0.352 N 
ATOM     25  C   UNL A   1      39.390  22.791  26.178  1.00  0.00     0.251 C 
ATOM     26  H   UNL A   1      38.303  21.503  25.105  1.00  0.00     0.163 HD
ATOM     27  O   UNL A   1      40.268  21.967  26.375  1.00  0.00    -0.269 OA
BRANCH  25  28
ATOM     28  C   UNL A   1      39.511  24.156  26.747  1.00  0.00     0.039 A 
ATOM     29  C   UNL A   1      38.978  24.410  28.016  1.00  0.00     0.014 A 
ATOM     30  C   UNL A   1      40.161  25.177  26.059  1.00  0.00     0.014 A 
ATOM     31  C   UNL A   1      39.223  25.637  28.642  1.00  0.00     0.010 A 
ATOM     32  C   UNL A   1      40.508  26.346  26.727  1.00  0.00     0.010 A 
ATOM     33  C   UNL A   1      40.064  26.584  28.036  1.00  0.00    -0.014 A 
BRANCH  33  34
ATOM     34  C   UNL A   1      40.543  27.795  28.756  1.00  0.00     0.031 A 
ATOM     35  C   UNL A   1      41.891  27.797  29.431  1.00  0.00     0.074 A 
ATOM     36  C   UNL A   1      39.712  28.848  28.914  1.00  0.00     0.049 A 
ATOM     37  N   UNL A   1      42.404  28.682  30.247  1.00  0.00    -0.248 NA
ATOM     38  C   UNL A   1      42.757  26.631  29.191  1.00  0.00     0.031 C 
ATOM     39  C   UNL A   1      38.357  28.954  28.364  1.00  0.00     0.029 A 
ATOM     40  N   UNL A   1      39.877  30.026  29.600  1.00  0.00    -0.354 N 
ATOM     41  C   UNL A   1      43.631  28.163  30.646  1.00  0.00     0.074 A 
ATOM     42  C   UNL A   1      43.764  26.866  30.021  1.00  0.00     0.031 C 
ATOM     43  C   UNL A   1      37.830  30.141  28.706  1.00  0.00     0.029 A 
ATOM     44  C   UNL A   1      38.782  30.857  29.546  1.00  0.00     0.049 A 
ATOM     45  H   UNL A   1      40.703  30.255  30.085  1.00  0.00     0.167 HD
ATOM     46  C   UNL A   1      44.571  28.722  31.446  1.00  0.00     0.031 A 
ATOM     47  C   UNL A   1      38.554  32.054  30.121  1.00  0.00     0.031 A 
ATOM     48  C   UNL A   1      44.453  30.029  32.034  1.00  0.00     0.049 A 
ATOM     49  C   UNL A   1      39.618  32.660  30.993  1.00  0.00     0.074 A 
ATOM     50  C   UNL A   1      45.386  30.718  32.790  1.00  0.00     0.029 A 
ATOM     51  N   UNL A   1      43.339  30.846  31.930  1.00  0.00    -0.354 N 
ATOM     52  N   UNL A   1      40.796  32.178  31.308  1.00  0.00    -0.248 NA
ATOM     53  C   UNL A   1      39.321  33.970  31.589  1.00  0.00     0.031 C 
ATOM     54  C   UNL A   1      44.816  31.936  33.180  1.00  0.00     0.029 A 
ATOM     55  C   UNL A   1      43.549  32.023  32.627  1.00  0.00     0.049 A 
ATOM     56  H   UNL A   1      42.518  30.623  31.432  1.00  0.00     0.167 HD
ATOM     57  C   UNL A   1      41.386  33.131  32.128  1.00  0.00     0.074 A 
ATOM     58  C   UNL A   1      40.445  34.227  32.243  1.00  0.00     0.031 C 
ATOM     59  C   UNL A   1      42.597  33.100  32.738  1.00  0.00     0.031 A 
BRANCH  46  60
ATOM     60  C   UNL A   1      45.815  27.920  31.723  1.00  0.00    -0.014 A 
ATOM     61  C   UNL A   1      45.890  27.056  32.830  1.00  0.00     0.010 A 
ATOM     62  C   UNL A   1      46.912  28.004  30.845  1.00  0.00     0.010 A 
ATOM     63  C   UNL A   1      47.054  26.325  33.081  1.00  0.00     0.020 A 
ATOM     64  C   UNL A   1      48.069  27.253  31.077  1.00  0.00     0.020 A 
ATOM     65  C   UNL A   1      48.140  26.432  32.205  1.00  0.00     0.054 A 
BRANCH  65  66
ATOM     66  S   UNL A   1      49.630  25.459  32.546  1.00  0.00     0.124 S 
ATOM     67  O   UNL A   1      50.044  25.062  31.202  1.00  0.00    -0.237 OA
ATOM     68  O   UNL A   1      50.500  26.425  33.211  1.00  0.00    -0.237 OA
ATOM     69  O   UNL A   1      49.149  24.372  33.395  1.00  0.00    -0.744 OA
ENDBRANCH  65  66
ENDBRANCH  46  60
BRANCH  47  70
ATOM     70  C   UNL A   1      37.264  32.759  29.889  1.00  0.00    -0.014 A 
ATOM     71  C   UNL A   1      36.251  32.724  30.863  1.00  0.00     0.010 A 
ATOM     72  C   UNL A   1      37.047  33.482  28.702  1.00  0.00     0.010 A 
ATOM     73  C   UNL A   1      35.039  33.388  30.650  1.00  0.00     0.020 A 
ATOM     74  C   UNL A   1      35.846  34.168  28.495  1.00  0.00     0.020 A 
ATOM     75  C   UNL A   1      34.845  34.107  29.467  1.00  0.00     0.054 A 
BRANCH  75  76
ATOM     76  S   UNL A   1      33.286  35.007  29.235  1.00  0.00     0.124 S 
ATOM     77  O   UNL A   1      33.754  36.313  28.784  1.00  0.00    -0.237 OA
ATOM     78  O   UNL A   1      32.599  34.198  28.232  1.00  0.00    -0.237 OA
ATOM     79  O   UNL A   1      32.679  34.983  30.564  1.00  0.00    -0.744 OA
ENDBRANCH  75  76
ENDBRANCH  47  70
BRANCH  59  80
ATOM     80  C   UNL A   1      42.978  34.288  33.576  1.00  0.00    -0.014 A 
ATOM     81  C   UNL A   1      42.669  34.332  34.947  1.00  0.00     0.010 A 
ATOM     82  C   UNL A   1      43.700  35.346  32.998  1.00  0.00     0.010 A 
ATOM     83  C   UNL A   1      43.058  35.426  35.722  1.00  0.00     0.020 A 
ATOM     84  C   UNL A   1      44.113  36.432  33.776  1.00  0.00     0.020 A 
ATOM     85  C   UNL A   1      43.779  36.469  35.131  1.00  0.00     0.054 A 
BRANCH  85  86
ATOM     86  S   UNL A   1      44.318  37.854  36.171  1.00  0.00     0.124 S 
ATOM     87  O   UNL A   1      43.448  37.716  37.335  1.00  0.00    -0.237 OA
ATOM     88  O   UNL A   1      45.730  37.554  36.400  1.00  0.00    -0.237 OA
ATOM     89  O   UNL A   1      44.065  39.030  35.340  1.00  0.00    -0.744 OA
ENDBRANCH  85  86
ENDBRANCH  59  80
ENDBRANCH  33  34
ENDBRANCH  25  28
ENDBRANCH   1  24
TORSDOF 14
ENDMDL
MODEL 3
REMARK VINA RESULT:     -11.6      2.007      2.893
REMARK SMILES O=C(NCCCNC(=O)c1ccc(-c2c3nc(c(-c4ccc(S(=O)(=O)[O-])cc4)c4ccc([nH]4)c(-c4ccc(S(=O)(=O)[O-])cc4)c4nc(c(-c5ccc(S(=O)(=O)[O-])cc5)c5ccc2[nH]5)C=C4)C=C3)cc1)C1=Cc2cc(Cl)cc(Cl)c2O[C@@H]1C(F)(F)F
REMARK SMILES IDX 6 1 5 2 4 3 3 4 1 5 2 6 70 8 71 9 81 10 72 11 80 12 73 13
REMARK SMILES IDX 79 14 74 15 77 16 75 17 76 18 78 19 82 20 83 21 84 22 85 23
REMARK SMILES IDX 7 24 8 25 9 27 10 28 11 29 69 30 12 31 68 32 13 33 14 34
REMARK SMILES IDX 15 35 62 36 16 37 67 38 61 39 63 40 17 41 66 42 60 43 59 44
REMARK SMILES IDX 18 46 48 47 29 48 47 49 30 50 33 51 46 52 64 53 31 54 32 55
REMARK SMILES IDX 45 57 65 58 34 59 19 60 20 61 28 62 21 63 27 64 22 65 23 66
REMARK SMILES IDX 24 67 25 68 26 69 49 70 50 71 58 72 51 73 57 74 52 75 53 76
REMARK SMILES IDX 54 77 55 78 56 79 35 80 36 81 44 82 37 83 43 84 38 85 39 86
REMARK SMILES IDX 40 87 41 88 42 89
REMARK H PARENT 3 7 7 26 63 45 33 56
REMARK Flexibility Score: inf
ROOT
ATOM      1  C   UNL A   1      33.660  29.393  26.253  1.00  0.00     0.118 C 
ENDROOT
BRANCH   1   2
ATOM      2  C   UNL A   1      33.221  28.095  26.927  1.00  0.00     0.042 C 
BRANCH   2   3
ATOM      3  C   UNL A   1      31.777  27.722  26.606  1.00  0.00     0.118 C 
BRANCH   3   4
ATOM      4  N   UNL A   1      31.376  26.411  27.124  1.00  0.00    -0.352 N 
ATOM      5  O   UNL A   1      31.134  24.156  27.100  1.00  0.00    -0.270 OA
ATOM      6  C   UNL A   1      31.227  25.206  26.477  1.00  0.00     0.251 C 
ATOM      7  H   UNL A   1      31.181  26.389  28.089  1.00  0.00     0.163 HD
BRANCH   6   8
ATOM      8  C   UNL A   1      31.304  25.206  25.003  1.00  0.00     0.067 C 
ATOM      9  C   UNL A   1      30.272  25.685  24.295  1.00  0.00     0.025 C 
ATOM     10  C   UNL A   1      32.656  25.011  24.398  1.00  0.00     0.314 C 
ATOM     11  C   UNL A   1      30.702  26.730  23.349  1.00  0.00     0.020 A 
ATOM     12  O   UNL A   1      33.067  26.146  23.602  1.00  0.00    -0.474 OA
ATOM     13  C   UNL A   1      29.761  27.714  23.019  1.00  0.00     0.032 A 
ATOM     14  C   UNL A   1      32.078  26.992  23.156  1.00  0.00     0.146 A 
ATOM     15  C   UNL A   1      30.189  28.965  22.575  1.00  0.00     0.043 A 
ATOM     16  C   UNL A   1      32.486  28.246  22.677  1.00  0.00     0.085 A 
ATOM     17  Cl  UNL A   1      29.038  30.221  22.348  1.00  0.00    -0.084 Cl
ATOM     18  C   UNL A   1      31.545  29.238  22.410  1.00  0.00     0.045 A 
ATOM     19  Cl  UNL A   1      34.161  28.657  22.567  1.00  0.00    -0.080 Cl
BRANCH  10  20
ATOM     20  C   UNL A   1      32.707  23.718  23.566  1.00  0.00     0.429 C 
ATOM     21  F   UNL A   1      31.895  22.769  24.091  1.00  0.00    -0.167 F 
ATOM     22  F   UNL A   1      32.298  23.920  22.292  1.00  0.00    -0.167 F 
ATOM     23  F   UNL A   1      33.952  23.189  23.510  1.00  0.00    -0.167 F 
ENDBRANCH  10  20
ENDBRANCH   6   8
ENDBRANCH   3   4
ENDBRANCH   2   3
ENDBRANCH   1   2
BRANCH   1  24
ATOM     24  N   UNL A   1      33.671  30.548  27.148  1.00  0.00    -0.352 N 
ATOM     25  C   UNL A   1      34.584  30.972  28.096  1.00  0.00     0.251 C 
ATOM     26  H   UNL A   1      32.884  31.132  27.059  1.00  0.00     0.163 HD
ATOM     27  O   UNL A   1      34.306  31.931  28.800  1.00  0.00    -0.269 OA
BRANCH  25  28
ATOM     28  C   UNL A   1      35.862  30.249  28.300  1.00  0.00     0.039 A 
ATOM     29  C   UNL A   1      36.819  30.266  27.279  1.00  0.00     0.014 A 
ATOM     30  C   UNL A   1      36.139  29.576  29.487  1.00  0.00     0.014 A 
ATOM     31  C   UNL A   1      38.093  29.735  27.508  1.00  0.00     0.010 A 
ATOM     32  C   UNL A   1      37.437  29.159  29.758  1.00  0.00     0.010 A 
ATOM     33  C   UNL A   1      38.439  29.253  28.781  1.00  0.00    -0.014 A 
BRANCH  33  34
ATOM     34  C   UNL A   1      39.839  28.897  29.141  1.00  0.00     0.031 A 
ATOM     35  C   UNL A   1      40.756  29.930  29.744  1.00  0.00     0.074 A 
ATOM     36  C   UNL A   1      40.324  27.682  28.804  1.00  0.00     0.049 A 
ATOM     37  N   UNL A   1      42.045  29.863  29.959  1.00  0.00    -0.248 NA
ATOM     38  C   UNL A   1      40.154  31.221  30.113  1.00  0.00     0.031 C 
ATOM     39  C   UNL A   1      39.562  26.608  28.161  1.00  0.00     0.029 A 
ATOM     40  N   UNL A   1      41.583  27.150  28.941  1.00  0.00    -0.354 N 
ATOM     41  C   UNL A   1      42.412  31.111  30.451  1.00  0.00     0.074 A 
ATOM     42  C   UNL A   1      41.220  31.929  30.458  1.00  0.00     0.031 C 
ATOM     43  C   UNL A   1      40.356  25.540  27.990  1.00  0.00     0.029 A 
ATOM     44  C   UNL A   1      41.698  25.868  28.456  1.00  0.00     0.049 A 
ATOM     45  H   UNL A   1      42.333  27.640  29.349  1.00  0.00     0.167 HD
ATOM     46  C   UNL A   1      43.627  31.533  30.877  1.00  0.00     0.031 A 
ATOM     47  C   UNL A   1      42.765  25.049  28.373  1.00  0.00     0.031 A 
ATOM     48  C   UNL A   1      44.802  30.705  30.906  1.00  0.00     0.049 A 
ATOM     49  C   UNL A   1      44.099  25.535  28.864  1.00  0.00     0.074 A 
ATOM     50  C   UNL A   1      46.060  31.014  31.396  1.00  0.00     0.029 A 
ATOM     51  N   UNL A   1      44.867  29.405  30.431  1.00  0.00    -0.354 N 
ATOM     52  N   UNL A   1      44.410  26.700  29.382  1.00  0.00    -0.248 NA
ATOM     53  C   UNL A   1      45.227  24.600  28.759  1.00  0.00     0.031 C 
ATOM     54  C   UNL A   1      46.896  29.913  31.176  1.00  0.00     0.029 A 
ATOM     55  C   UNL A   1      46.147  28.904  30.593  1.00  0.00     0.049 A 
ATOM     56  H   UNL A   1      44.112  28.909  30.036  1.00  0.00     0.167 HD
ATOM     57  C   UNL A   1      45.766  26.632  29.675  1.00  0.00     0.074 A 
ATOM     58  C   UNL A   1      46.211  25.305  29.298  1.00  0.00     0.031 C 
ATOM     59  C   UNL A   1      46.573  27.584  30.204  1.00  0.00     0.031 A 
BRANCH  46  60
ATOM     60  C   UNL A   1      43.742  32.957  31.353  1.00  0.00    -0.014 A 
ATOM     61  C   UNL A   1      43.434  33.306  32.681  1.00  0.00     0.010 A 
ATOM     62  C   UNL A   1      44.197  33.956  30.472  1.00  0.00     0.010 A 
ATOM     63  C   UNL A   1      43.535  34.633  33.107  1.00  0.00     0.020 A 
ATOM     64  C   UNL A   1      44.326  35.281  30.903  1.00  0.00     0.020 A 
ATOM     65  C   UNL A   1      43.976  35.614  32.213  1.00  0.00     0.054 A 
BRANCH  65  66
ATOM     66  S   UNL A   1      44.114  37.324  32.799  1.00  0.00     0.124 S 
ATOM     67  O   UNL A   1      42.996  37.411  33.736  1.00  0.00    -0.237 OA
ATOM     68  O   UNL A   1      45.443  37.350  33.403  1.00  0.00    -0.237 OA
ATOM     69  O   UNL A   1      43.970  38.120  31.583  1.00  0.00    -0.744 OA
ENDBRANCH  65  66
ENDBRANCH  46  60
BRANCH  47  70
ATOM     70  C   UNL A   1      42.613  23.682  27.803  1.00  0.00    -0.014 A 
ATOM     71  C   UNL A   1      42.282  22.600  28.635  1.00  0.00     0.010 A 
ATOM     72  C   UNL A   1      42.782  23.459  26.424  1.00  0.00     0.010 A 
ATOM     73  C   UNL A   1      42.136  21.315  28.103  1.00  0.00     0.020 A 
ATOM     74  C   UNL A   1      42.612  22.180  25.884  1.00  0.00     0.020 A 
ATOM     75  C   UNL A   1      42.300  21.114  26.729  1.00  0.00     0.054 A 
BRANCH  75  76
ATOM     76  S   UNL A   1      42.052  19.449  26.051  1.00  0.00     0.124 S 
ATOM     77  O   UNL A   1      40.615  19.436  25.800  1.00  0.00    -0.237 OA
ATOM     78  O   UNL A   1      42.904  19.458  24.866  1.00  0.00    -0.237 OA
ATOM     79  O   UNL A   1      42.508  18.573  27.129  1.00  0.00    -0.744 OA
ENDBRANCH  75  76
ENDBRANCH  47  70
BRANCH  59  80
ATOM     80  C   UNL A   1      48.018  27.224  30.415  1.00  0.00    -0.014 A 
ATOM     81  C   UNL A   1      49.001  27.618  29.490  1.00  0.00     0.010 A 
ATOM     82  C   UNL A   1      48.402  26.534  31.577  1.00  0.00     0.010 A 
ATOM     83  C   UNL A   1      50.343  27.307  29.714  1.00  0.00     0.020 A 
ATOM     84  C   UNL A   1      49.748  26.243  31.818  1.00  0.00     0.020 A 
ATOM     85  C   UNL A   1      50.709  26.622  30.878  1.00  0.00     0.054 A 
BRANCH  85  86
ATOM     86  S   UNL A   1      52.465  26.276  31.172  1.00  0.00     0.124 S 
ATOM     87  O   UNL A   1      52.408  25.012  31.899  1.00  0.00    -0.237 OA
ATOM     88  O   UNL A   1      53.008  26.200  29.817  1.00  0.00    -0.237 OA
ATOM     89  O   UNL A   1      52.918  27.426  31.953  1.00  0.00    -0.744 OA
ENDBRANCH  85  86
ENDBRANCH  59  80
ENDBRANCH  33  34
ENDBRANCH  25  28
ENDBRANCH   1  24
TORSDOF 14
ENDMDL
