MODEL 1
REMARK VINA RESULT:     -10.3      0.000      0.000
REMARK SMILES C[C@@H]1[C@@H](C(=O)NCCCNC(=O)c2ccc(-c3c4nc(c(-c5ccc(S(=O)(=O)[O-])cc5)c5ccc([nH]5)c(-c5ccc(S(=O)(=O)[O-])cc5)c5nc(c(-c6ccc(S(=O)(=O)[O-])cc6)c6ccc3[nH]6)C=C5)C=C4)cc2)CC[N@@H+]1CC(=O)N(C)C1CC1
REMARK SMILES IDX 7 1 6 2 4 3 5 4 3 6 1 7 2 8 75 9 73 10 74 11 76 13 77 14
REMARK SMILES IDX 78 15 79 16 80 17 81 18 82 19 83 20 8 21 9 22 10 23 11 24
REMARK SMILES IDX 12 26 13 27 14 28 72 29 15 30 71 31 16 32 17 33 18 34 65 35
REMARK SMILES IDX 19 36 70 37 64 38 66 39 20 40 69 41 63 42 62 43 21 45 51 46
REMARK SMILES IDX 32 47 50 48 33 49 36 50 49 51 67 52 34 53 35 54 48 56 68 57
REMARK SMILES IDX 37 58 22 59 23 60 31 61 24 62 30 63 25 64 26 65 27 66 28 67
REMARK SMILES IDX 29 68 52 69 53 70 61 71 54 72 60 73 55 74 56 75 57 76 58 77
REMARK SMILES IDX 59 78 38 79 39 80 47 81 40 82 46 83 41 84 42 85 43 86 44 87
REMARK SMILES IDX 45 88
REMARK H PARENT 6 5 75 12 10 25 66 44 36 55
REMARK Flexibility Score: inf
ROOT
ATOM      1  C   UNL A   1      31.857  28.661  25.245  1.00  0.00     0.117 C 
ENDROOT
BRANCH   1   2
ATOM      2  N   UNL A   1      30.683  28.117  24.590  1.00  0.00    -0.356 N 
ATOM      3  C   UNL A   1      30.479  26.883  24.055  1.00  0.00     0.229 C 
ATOM      4  O   UNL A   1      29.383  26.675  23.533  1.00  0.00    -0.275 OA
ATOM      5  H   UNL A   1      29.919  28.734  24.521  1.00  0.00     0.163 HD
BRANCH   3   6
ATOM      6  C   UNL A   1      31.614  25.868  24.061  1.00  0.00     0.142 C 
ATOM      7  C   UNL A   1      33.345  26.023  22.229  1.00  0.00     0.076 C 
ATOM      8  C   UNL A   1      31.995  25.434  22.629  1.00  0.00     0.194 C 
ATOM      9  N   UNL A   1      31.809  23.979  22.566  1.00  0.00    -0.324 N 
ATOM     10  C   UNL A   1      31.259  24.567  24.777  1.00  0.00     0.081 C 
ATOM     11  C   UNL A   1      30.934  23.593  23.666  1.00  0.00     0.263 C 
ATOM     12  H   UNL A   1      31.374  23.812  21.659  1.00  0.00     0.348 HD
BRANCH   9  13
ATOM     13  C   UNL A   1      32.927  23.076  22.283  1.00  0.00     0.364 C 
BRANCH  13  14
ATOM     14  C   UNL A   1      33.304  22.119  23.424  1.00  0.00     0.277 C 
ATOM     15  O   UNL A   1      32.786  20.996  23.476  1.00  0.00    -0.268 OA
BRANCH  14  16
ATOM     16  N   UNL A   1      34.238  22.511  24.381  1.00  0.00    -0.338 N 
ATOM     17  C   UNL A   1      34.168  22.252  25.814  1.00  0.00     0.147 C 
BRANCH  16  18
ATOM     18  C   UNL A   1      35.332  23.352  23.941  1.00  0.00     0.085 C 
ATOM     19  C   UNL A   1      36.658  23.432  24.653  1.00  0.00     0.027 C 
ATOM     20  C   UNL A   1      36.566  22.730  23.334  1.00  0.00     0.027 C 
ENDBRANCH  16  18
ENDBRANCH  14  16
ENDBRANCH  13  14
ENDBRANCH   9  13
ENDBRANCH   3   6
ENDBRANCH   1   2
BRANCH   1  21
ATOM     21  C   UNL A   1      32.057  28.103  26.642  1.00  0.00     0.042 C 
BRANCH  21  22
ATOM     22  C   UNL A   1      33.332  28.564  27.330  1.00  0.00     0.118 C 
BRANCH  22  23
ATOM     23  N   UNL A   1      33.342  29.987  27.644  1.00  0.00    -0.352 N 
ATOM     24  C   UNL A   1      34.349  30.764  28.174  1.00  0.00     0.251 C 
ATOM     25  H   UNL A   1      32.504  30.465  27.448  1.00  0.00     0.163 HD
ATOM     26  O   UNL A   1      34.129  31.920  28.501  1.00  0.00    -0.269 OA
BRANCH  24  27
ATOM     27  C   UNL A   1      35.685  30.167  28.378  1.00  0.00     0.039 A 
ATOM     28  C   UNL A   1      36.613  30.203  27.336  1.00  0.00     0.014 A 
ATOM     29  C   UNL A   1      36.036  29.627  29.618  1.00  0.00     0.014 A 
ATOM     30  C   UNL A   1      37.924  29.780  27.569  1.00  0.00     0.010 A 
ATOM     31  C   UNL A   1      37.363  29.319  29.878  1.00  0.00     0.010 A 
ATOM     32  C   UNL A   1      38.322  29.384  28.857  1.00  0.00    -0.014 A 
BRANCH  32  33
ATOM     33  C   UNL A   1      39.728  29.016  29.161  1.00  0.00     0.031 A 
ATOM     34  C   UNL A   1      40.644  30.029  29.796  1.00  0.00     0.074 A 
ATOM     35  C   UNL A   1      40.201  27.807  28.798  1.00  0.00     0.049 A 
ATOM     36  N   UNL A   1      41.923  29.936  30.056  1.00  0.00    -0.248 NA
ATOM     37  C   UNL A   1      40.055  31.331  30.151  1.00  0.00     0.031 C 
ATOM     38  C   UNL A   1      39.429  26.755  28.127  1.00  0.00     0.029 A 
ATOM     39  N   UNL A   1      41.451  27.257  28.937  1.00  0.00    -0.354 N 
ATOM     40  C   UNL A   1      42.292  31.172  30.575  1.00  0.00     0.074 A 
ATOM     41  C   UNL A   1      41.120  32.017  30.537  1.00  0.00     0.031 C 
ATOM     42  C   UNL A   1      40.212  25.678  27.951  1.00  0.00     0.029 A 
ATOM     43  C   UNL A   1      41.550  25.974  28.451  1.00  0.00     0.049 A 
ATOM     44  H   UNL A   1      42.207  27.737  29.347  1.00  0.00     0.167 HD
ATOM     45  C   UNL A   1      43.491  31.562  31.069  1.00  0.00     0.031 A 
ATOM     46  C   UNL A   1      42.600  25.131  28.412  1.00  0.00     0.031 A 
ATOM     47  C   UNL A   1      44.646  30.709  31.136  1.00  0.00     0.049 A 
ATOM     48  C   UNL A   1      43.919  25.582  28.978  1.00  0.00     0.074 A 
ATOM     49  C   UNL A   1      45.890  30.985  31.674  1.00  0.00     0.029 A 
ATOM     50  N   UNL A   1      44.695  29.409  30.655  1.00  0.00    -0.354 N 
ATOM     51  N   UNL A   1      44.231  26.735  29.520  1.00  0.00    -0.248 NA
ATOM     52  C   UNL A   1      45.024  24.614  28.937  1.00  0.00     0.031 C 
ATOM     53  C   UNL A   1      46.706  29.867  31.479  1.00  0.00     0.029 A 
ATOM     54  C   UNL A   1      45.953  28.875  30.870  1.00  0.00     0.049 A 
ATOM     55  H   UNL A   1      43.945  28.936  30.226  1.00  0.00     0.167 HD
ATOM     56  C   UNL A   1      45.561  26.620  29.911  1.00  0.00     0.074 A 
ATOM     57  C   UNL A   1      45.987  25.282  29.554  1.00  0.00     0.031 C 
ATOM     58  C   UNL A   1      46.356  27.539  30.511  1.00  0.00     0.031 A 
BRANCH  45  59
ATOM     59  C   UNL A   1      43.604  32.975  31.580  1.00  0.00    -0.014 A 
ATOM     60  C   UNL A   1      44.161  33.991  30.783  1.00  0.00     0.010 A 
ATOM     61  C   UNL A   1      43.124  33.296  32.863  1.00  0.00     0.010 A 
ATOM     62  C   UNL A   1      44.281  35.292  31.277  1.00  0.00     0.020 A 
ATOM     63  C   UNL A   1      43.214  34.603  33.349  1.00  0.00     0.020 A 
ATOM     64  C   UNL A   1      43.809  35.590  32.559  1.00  0.00     0.054 A 
BRANCH  64  65
ATOM     65  S   UNL A   1      43.958  37.292  33.167  1.00  0.00     0.124 S 
ATOM     66  O   UNL A   1      43.808  38.064  31.935  1.00  0.00    -0.237 OA
ATOM     67  O   UNL A   1      42.847  37.394  34.110  1.00  0.00    -0.237 OA
ATOM     68  O   UNL A   1      45.288  37.331  33.769  1.00  0.00    -0.744 OA
ENDBRANCH  64  65
ENDBRANCH  45  59
BRANCH  46  69
ATOM     69  C   UNL A   1      42.439  23.765  27.841  1.00  0.00    -0.014 A 
ATOM     70  C   UNL A   1      42.673  23.535  26.473  1.00  0.00     0.010 A 
ATOM     71  C   UNL A   1      42.066  22.684  28.661  1.00  0.00     0.010 A 
ATOM     72  C   UNL A   1      42.517  22.255  25.932  1.00  0.00     0.020 A 
ATOM     73  C   UNL A   1      41.935  21.399  28.129  1.00  0.00     0.020 A 
ATOM     74  C   UNL A   1      42.150  21.194  26.765  1.00  0.00     0.054 A 
BRANCH  74  75
ATOM     75  S   UNL A   1      42.004  19.532  26.051  1.00  0.00     0.124 S 
ATOM     76  O   UNL A   1      40.567  19.427  25.818  1.00  0.00    -0.237 OA
ATOM     77  O   UNL A   1      42.835  19.627  24.854  1.00  0.00    -0.237 OA
ATOM     78  O   UNL A   1      42.534  18.663  27.100  1.00  0.00    -0.744 OA
ENDBRANCH  74  75
ENDBRANCH  46  69
BRANCH  58  79
ATOM     79  C   UNL A   1      47.760  27.120  30.857  1.00  0.00    -0.014 A 
ATOM     80  C   UNL A   1      48.017  26.255  31.935  1.00  0.00     0.010 A 
ATOM     81  C   UNL A   1      48.828  27.551  30.050  1.00  0.00     0.010 A 
ATOM     82  C   UNL A   1      49.325  25.853  32.217  1.00  0.00     0.020 A 
ATOM     83  C   UNL A   1      50.133  27.129  30.313  1.00  0.00     0.020 A 
ATOM     84  C   UNL A   1      50.375  26.293  31.404  1.00  0.00     0.054 A 
BRANCH  84  85
ATOM     85  S   UNL A   1      52.057  25.718  31.763  1.00  0.00     0.124 S 
ATOM     86  O   UNL A   1      52.726  25.916  30.480  1.00  0.00    -0.237 OA
ATOM     87  O   UNL A   1      52.480  26.614  32.837  1.00  0.00    -0.237 OA
ATOM     88  O   UNL A   1      51.869  24.324  32.161  1.00  0.00    -0.744 OA
ENDBRANCH  84  85
ENDBRANCH  58  79
ENDBRANCH  32  33
ENDBRANCH  24  27
ENDBRANCH  22  23
ENDBRANCH  21  22
ENDBRANCH   1  21
TORSDOF 17
ENDMDL
MODEL 2
REMARK VINA RESULT:      -9.8      1.461      2.066
REMARK SMILES C[C@@H]1[C@@H](C(=O)NCCCNC(=O)c2ccc(-c3c4nc(c(-c5ccc(S(=O)(=O)[O-])cc5)c5ccc([nH]5)c(-c5ccc(S(=O)(=O)[O-])cc5)c5nc(c(-c6ccc(S(=O)(=O)[O-])cc6)c6ccc3[nH]6)C=C5)C=C4)cc2)CC[N@@H+]1CC(=O)N(C)C1CC1
REMARK SMILES IDX 7 1 6 2 4 3 5 4 3 6 1 7 2 8 75 9 73 10 74 11 76 13 77 14
REMARK SMILES IDX 78 15 79 16 80 17 81 18 82 19 83 20 8 21 9 22 10 23 11 24
REMARK SMILES IDX 12 26 13 27 14 28 72 29 15 30 71 31 16 32 17 33 18 34 65 35
REMARK SMILES IDX 19 36 70 37 64 38 66 39 20 40 69 41 63 42 62 43 21 45 51 46
REMARK SMILES IDX 32 47 50 48 33 49 36 50 49 51 67 52 34 53 35 54 48 56 68 57
REMARK SMILES IDX 37 58 22 59 23 60 31 61 24 62 30 63 25 64 26 65 27 66 28 67
REMARK SMILES IDX 29 68 52 69 53 70 61 71 54 72 60 73 55 74 56 75 57 76 58 77
REMARK SMILES IDX 59 78 38 79 39 80 47 81 40 82 46 83 41 84 42 85 43 86 44 87
REMARK SMILES IDX 45 88
REMARK H PARENT 6 5 75 12 10 25 66 44 36 55
REMARK Flexibility Score: inf
ROOT
ATOM      1  C   UNL A   1      31.931  27.367  25.956  1.00  0.00     0.117 C 
ENDROOT
BRANCH   1   2
ATOM      2  N   UNL A   1      30.906  26.435  26.387  1.00  0.00    -0.356 N 
ATOM      3  C   UNL A   1      30.859  25.081  26.275  1.00  0.00     0.229 C 
ATOM      4  O   UNL A   1      29.854  24.519  26.712  1.00  0.00    -0.275 OA
ATOM      5  H   UNL A   1      30.127  26.845  26.827  1.00  0.00     0.163 HD
BRANCH   3   6
ATOM      6  C   UNL A   1      31.989  24.349  25.563  1.00  0.00     0.142 C 
ATOM      7  C   UNL A   1      31.444  23.141  23.414  1.00  0.00     0.076 C 
ATOM      8  C   UNL A   1      31.502  23.026  24.934  1.00  0.00     0.194 C 
ATOM      9  N   UNL A   1      32.305  21.953  25.535  1.00  0.00    -0.324 N 
ATOM     10  C   UNL A   1      33.125  23.937  26.497  1.00  0.00     0.081 C 
ATOM     11  C   UNL A   1      32.887  22.469  26.768  1.00  0.00     0.263 C 
ATOM     12  H   UNL A   1      31.640  21.201  25.716  1.00  0.00     0.348 HD
BRANCH   9  13
ATOM     13  C   UNL A   1      33.170  21.097  24.721  1.00  0.00     0.364 C 
BRANCH  13  14
ATOM     14  C   UNL A   1      33.066  19.592  25.010  1.00  0.00     0.277 C 
ATOM     15  O   UNL A   1      32.027  19.135  25.506  1.00  0.00    -0.268 OA
BRANCH  14  16
ATOM     16  N   UNL A   1      34.130  18.749  24.699  1.00  0.00    -0.338 N 
ATOM     17  C   UNL A   1      35.548  19.083  24.769  1.00  0.00     0.147 C 
BRANCH  16  18
ATOM     18  C   UNL A   1      33.812  17.447  24.147  1.00  0.00     0.085 C 
ATOM     19  C   UNL A   1      33.048  17.253  22.863  1.00  0.00     0.027 C 
ATOM     20  C   UNL A   1      34.516  16.961  22.905  1.00  0.00     0.027 C 
ENDBRANCH  16  18
ENDBRANCH  14  16
ENDBRANCH  13  14
ENDBRANCH   9  13
ENDBRANCH   3   6
ENDBRANCH   1   2
BRANCH   1  21
ATOM     21  C   UNL A   1      32.713  27.953  27.117  1.00  0.00     0.042 C 
BRANCH  21  22
ATOM     22  C   UNL A   1      33.850  28.876  26.710  1.00  0.00     0.118 C 
BRANCH  22  23
ATOM     23  N   UNL A   1      33.795  30.184  27.351  1.00  0.00    -0.352 N 
ATOM     24  C   UNL A   1      34.720  30.807  28.160  1.00  0.00     0.251 C 
ATOM     25  H   UNL A   1      32.975  30.699  27.180  1.00  0.00     0.163 HD
ATOM     26  O   UNL A   1      34.441  31.853  28.723  1.00  0.00    -0.269 OA
BRANCH  24  27
ATOM     27  C   UNL A   1      36.038  30.170  28.367  1.00  0.00     0.039 A 
ATOM     28  C   UNL A   1      36.991  30.232  27.349  1.00  0.00     0.014 A 
ATOM     29  C   UNL A   1      36.347  29.568  29.588  1.00  0.00     0.014 A 
ATOM     30  C   UNL A   1      38.286  29.769  27.592  1.00  0.00     0.010 A 
ATOM     31  C   UNL A   1      37.661  29.217  29.864  1.00  0.00     0.010 A 
ATOM     32  C   UNL A   1      38.644  29.307  28.869  1.00  0.00    -0.014 A 
BRANCH  32  33
ATOM     33  C   UNL A   1      40.034  28.893  29.188  1.00  0.00     0.031 A 
ATOM     34  C   UNL A   1      40.971  29.869  29.850  1.00  0.00     0.074 A 
ATOM     35  C   UNL A   1      40.477  27.675  28.816  1.00  0.00     0.049 A 
ATOM     36  N   UNL A   1      42.242  29.735  30.127  1.00  0.00    -0.248 NA
ATOM     37  C   UNL A   1      40.415  31.184  30.214  1.00  0.00     0.031 C 
ATOM     38  C   UNL A   1      39.684  26.656  28.119  1.00  0.00     0.029 A 
ATOM     39  N   UNL A   1      41.708  27.086  28.964  1.00  0.00    -0.354 N 
ATOM     40  C   UNL A   1      42.640  30.952  30.669  1.00  0.00     0.074 A 
ATOM     41  C   UNL A   1      41.494  31.832  30.625  1.00  0.00     0.031 C 
ATOM     42  C   UNL A   1      40.437  25.559  27.939  1.00  0.00     0.029 A 
ATOM     43  C   UNL A   1      41.776  25.807  28.462  1.00  0.00     0.049 A 
ATOM     44  H   UNL A   1      42.471  27.538  29.392  1.00  0.00     0.167 HD
ATOM     45  C   UNL A   1      43.843  31.299  31.184  1.00  0.00     0.031 A 
ATOM     46  C   UNL A   1      42.801  24.934  28.427  1.00  0.00     0.031 A 
ATOM     47  C   UNL A   1      44.971  30.412  31.256  1.00  0.00     0.049 A 
ATOM     48  C   UNL A   1      44.124  25.338  29.017  1.00  0.00     0.074 A 
ATOM     49  C   UNL A   1      46.214  30.644  31.815  1.00  0.00     0.029 A 
ATOM     50  N   UNL A   1      44.988  29.117  30.758  1.00  0.00    -0.354 N 
ATOM     51  N   UNL A   1      44.463  26.474  29.579  1.00  0.00    -0.248 NA
ATOM     52  C   UNL A   1      45.200  24.338  28.978  1.00  0.00     0.031 C 
ATOM     53  C   UNL A   1      46.999  29.504  31.617  1.00  0.00     0.029 A 
ATOM     54  C   UNL A   1      46.227  28.543  30.983  1.00  0.00     0.049 A 
ATOM     55  H   UNL A   1      44.232  28.673  30.311  1.00  0.00     0.167 HD
ATOM     56  C   UNL A   1      45.782  26.314  29.987  1.00  0.00     0.074 A 
ATOM     57  C   UNL A   1      46.174  24.969  29.618  1.00  0.00     0.031 C 
ATOM     58  C   UNL A   1      46.596  27.201  30.612  1.00  0.00     0.031 A 
BRANCH  45  59
ATOM     59  C   UNL A   1      43.990  32.701  31.717  1.00  0.00    -0.014 A 
ATOM     60  C   UNL A   1      44.819  33.638  31.072  1.00  0.00     0.010 A 
ATOM     61  C   UNL A   1      43.272  33.095  32.860  1.00  0.00     0.010 A 
ATOM     62  C   UNL A   1      44.964  34.927  31.588  1.00  0.00     0.020 A 
ATOM     63  C   UNL A   1      43.391  34.394  33.362  1.00  0.00     0.020 A 
ATOM     64  C   UNL A   1      44.252  35.297  32.733  1.00  0.00     0.054 A 
BRANCH  64  65
ATOM     65  S   UNL A   1      44.443  36.984  33.369  1.00  0.00     0.124 S 
ATOM     66  O   UNL A   1      43.941  37.784  32.254  1.00  0.00    -0.237 OA
ATOM     67  O   UNL A   1      43.601  36.975  34.563  1.00  0.00    -0.237 OA
ATOM     68  O   UNL A   1      45.877  37.099  33.623  1.00  0.00    -0.744 OA
ENDBRANCH  64  65
ENDBRANCH  45  59
BRANCH  46  69
ATOM     69  C   UNL A   1      42.608  23.581  27.834  1.00  0.00    -0.014 A 
ATOM     70  C   UNL A   1      42.789  23.377  26.454  1.00  0.00     0.010 A 
ATOM     71  C   UNL A   1      42.258  22.487  28.646  1.00  0.00     0.010 A 
ATOM     72  C   UNL A   1      42.603  22.110  25.894  1.00  0.00     0.020 A 
ATOM     73  C   UNL A   1      42.097  21.213  28.093  1.00  0.00     0.020 A 
ATOM     74  C   UNL A   1      42.259  21.036  26.718  1.00  0.00     0.054 A 
BRANCH  74  75
ATOM     75  S   UNL A   1      42.073  19.389  25.976  1.00  0.00     0.124 S 
ATOM     76  O   UNL A   1      42.562  18.519  27.041  1.00  0.00    -0.237 OA
ATOM     77  O   UNL A   1      40.639  19.322  25.710  1.00  0.00    -0.237 OA
ATOM     78  O   UNL A   1      42.917  19.455  24.784  1.00  0.00    -0.744 OA
ENDBRANCH  74  75
ENDBRANCH  46  69
BRANCH  58  79
ATOM     79  C   UNL A   1      47.981  26.735  30.972  1.00  0.00    -0.014 A 
ATOM     80  C   UNL A   1      49.061  26.913  30.090  1.00  0.00     0.010 A 
ATOM     81  C   UNL A   1      48.212  26.168  32.238  1.00  0.00     0.010 A 
ATOM     82  C   UNL A   1      50.345  26.503  30.459  1.00  0.00     0.020 A 
ATOM     83  C   UNL A   1      49.499  25.783  32.620  1.00  0.00     0.020 A 
ATOM     84  C   UNL A   1      50.556  25.940  31.722  1.00  0.00     0.054 A 
BRANCH  84  85
ATOM     85  S   UNL A   1      52.240  25.461  32.194  1.00  0.00     0.124 S 
ATOM     86  O   UNL A   1      52.421  26.187  33.448  1.00  0.00    -0.237 OA
ATOM     87  O   UNL A   1      52.136  24.008  32.319  1.00  0.00    -0.237 OA
ATOM     88  O   UNL A   1      53.058  25.928  31.077  1.00  0.00    -0.744 OA
ENDBRANCH  84  85
ENDBRANCH  58  79
ENDBRANCH  32  33
ENDBRANCH  24  27
ENDBRANCH  22  23
ENDBRANCH  21  22
ENDBRANCH   1  21
TORSDOF 17
ENDMDL
MODEL 3
REMARK VINA RESULT:      -9.7      3.353      8.230
REMARK SMILES C[C@@H]1[C@@H](C(=O)NCCCNC(=O)c2ccc(-c3c4nc(c(-c5ccc(S(=O)(=O)[O-])cc5)c5ccc([nH]5)c(-c5ccc(S(=O)(=O)[O-])cc5)c5nc(c(-c6ccc(S(=O)(=O)[O-])cc6)c6ccc3[nH]6)C=C5)C=C4)cc2)CC[N@@H+]1CC(=O)N(C)C1CC1
REMARK SMILES IDX 7 1 6 2 4 3 5 4 3 6 1 7 2 8 75 9 73 10 74 11 76 13 77 14
REMARK SMILES IDX 78 15 79 16 80 17 81 18 82 19 83 20 8 21 9 22 10 23 11 24
REMARK SMILES IDX 12 26 13 27 14 28 72 29 15 30 71 31 16 32 17 33 18 34 65 35
REMARK SMILES IDX 19 36 70 37 64 38 66 39 20 40 69 41 63 42 62 43 21 45 51 46
REMARK SMILES IDX 32 47 50 48 33 49 36 50 49 51 67 52 34 53 35 54 48 56 68 57
REMARK SMILES IDX 37 58 22 59 23 60 31 61 24 62 30 63 25 64 26 65 27 66 28 67
REMARK SMILES IDX 29 68 52 69 53 70 61 71 54 72 60 73 55 74 56 75 57 76 58 77
REMARK SMILES IDX 59 78 38 79 39 80 47 81 40 82 46 83 41 84 42 85 43 86 44 87
REMARK SMILES IDX 45 88
REMARK H PARENT 6 5 75 12 10 25 66 44 36 55
REMARK Flexibility Score: inf
ROOT
ATOM      1  C   UNL A   1      36.858  21.349  25.514  1.00  0.00     0.117 C 
ENDROOT
BRANCH   1   2
ATOM      2  N   UNL A   1      35.829  20.373  25.207  1.00  0.00    -0.356 N 
ATOM      3  C   UNL A   1      34.499  20.551  24.992  1.00  0.00     0.229 C 
ATOM      4  O   UNL A   1      33.831  19.542  24.764  1.00  0.00    -0.275 OA
ATOM      5  H   UNL A   1      36.142  19.442  25.147  1.00  0.00     0.163 HD
BRANCH   3   6
ATOM      6  C   UNL A   1      33.901  21.947  25.113  1.00  0.00     0.142 C 
ATOM      7  C   UNL A   1      32.864  22.598  27.321  1.00  0.00     0.076 C 
ATOM      8  C   UNL A   1      32.614  21.940  25.967  1.00  0.00     0.194 C 
ATOM      9  N   UNL A   1      31.539  22.461  25.113  1.00  0.00    -0.324 N 
ATOM     10  C   UNL A   1      33.472  22.540  23.773  1.00  0.00     0.081 C 
ATOM     11  C   UNL A   1      31.973  22.340  23.726  1.00  0.00     0.263 C 
ATOM     12  H   UNL A   1      30.737  21.863  25.312  1.00  0.00     0.348 HD
BRANCH   9  13
ATOM     13  C   UNL A   1      30.812  23.684  25.458  1.00  0.00     0.364 C 
BRANCH  13  14
ATOM     14  C   UNL A   1      30.998  24.857  24.483  1.00  0.00     0.277 C 
ATOM     15  O   UNL A   1      30.187  25.019  23.561  1.00  0.00    -0.268 OA
BRANCH  14  16
ATOM     16  N   UNL A   1      32.063  25.739  24.652  1.00  0.00    -0.338 N 
ATOM     17  C   UNL A   1      32.837  25.938  25.871  1.00  0.00     0.147 C 
BRANCH  16  18
ATOM     18  C   UNL A   1      32.373  26.629  23.551  1.00  0.00     0.085 C 
ATOM     19  C   UNL A   1      33.677  27.374  23.425  1.00  0.00     0.027 C 
ATOM     20  C   UNL A   1      33.389  26.222  22.513  1.00  0.00     0.027 C 
ENDBRANCH  16  18
ENDBRANCH  14  16
ENDBRANCH  13  14
ENDBRANCH   9  13
ENDBRANCH   3   6
ENDBRANCH   1   2
BRANCH   1  21
ATOM     21  C   UNL A   1      38.231  20.922  25.029  1.00  0.00     0.042 C 
BRANCH  21  22
ATOM     22  C   UNL A   1      39.307  20.914  26.104  1.00  0.00     0.118 C 
BRANCH  22  23
ATOM     23  N   UNL A   1      40.160  19.733  26.064  1.00  0.00    -0.352 N 
ATOM     24  C   UNL A   1      41.532  19.637  26.134  1.00  0.00     0.251 C 
ATOM     25  H   UNL A   1      39.685  18.876  25.974  1.00  0.00     0.163 HD
ATOM     26  O   UNL A   1      42.086  18.565  25.944  1.00  0.00    -0.269 OA
BRANCH  24  27
ATOM     27  C   UNL A   1      42.325  20.855  26.403  1.00  0.00     0.039 A 
ATOM     28  C   UNL A   1      42.745  21.644  25.332  1.00  0.00     0.014 A 
ATOM     29  C   UNL A   1      42.598  21.244  27.716  1.00  0.00     0.014 A 
ATOM     30  C   UNL A   1      43.360  22.872  25.583  1.00  0.00     0.010 A 
ATOM     31  C   UNL A   1      43.102  22.513  27.963  1.00  0.00     0.010 A 
ATOM     32  C   UNL A   1      43.496  23.339  26.901  1.00  0.00    -0.014 A 
BRANCH  32  33
ATOM     33  C   UNL A   1      44.062  24.679  27.200  1.00  0.00     0.031 A 
ATOM     34  C   UNL A   1      43.152  25.788  27.661  1.00  0.00     0.074 A 
ATOM     35  C   UNL A   1      45.371  24.922  26.984  1.00  0.00     0.049 A 
ATOM     36  N   UNL A   1      43.433  27.046  27.884  1.00  0.00    -0.248 NA
ATOM     37  C   UNL A   1      41.734  25.447  27.860  1.00  0.00     0.031 C 
ATOM     38  C   UNL A   1      46.347  23.946  26.487  1.00  0.00     0.029 A 
ATOM     39  N   UNL A   1      46.108  26.068  27.149  1.00  0.00    -0.354 N 
ATOM     40  C   UNL A   1      42.225  27.647  28.221  1.00  0.00     0.074 A 
ATOM     41  C   UNL A   1      41.201  26.632  28.113  1.00  0.00     0.031 C 
ATOM     42  C   UNL A   1      47.557  24.526  26.427  1.00  0.00     0.029 A 
ATOM     43  C   UNL A   1      47.439  25.921  26.834  1.00  0.00     0.049 A 
ATOM     44  H   UNL A   1      45.719  26.916  27.463  1.00  0.00     0.167 HD
ATOM     45  C   UNL A   1      41.991  28.921  28.614  1.00  0.00     0.031 A 
ATOM     46  C   UNL A   1      48.449  26.811  26.870  1.00  0.00     0.031 A 
ATOM     47  C   UNL A   1      43.016  29.918  28.752  1.00  0.00     0.049 A 
ATOM     48  C   UNL A   1      48.167  28.218  27.322  1.00  0.00     0.074 A 
ATOM     49  C   UNL A   1      42.895  31.221  29.202  1.00  0.00     0.029 A 
ATOM     50  N   UNL A   1      44.355  29.721  28.446  1.00  0.00    -0.354 N 
ATOM     51  N   UNL A   1      47.028  28.750  27.694  1.00  0.00    -0.248 NA
ATOM     52  C   UNL A   1      49.310  29.141  27.370  1.00  0.00     0.031 C 
ATOM     53  C   UNL A   1      44.153  31.825  29.128  1.00  0.00     0.029 A 
ATOM     54  C   UNL A   1      45.068  30.882  28.684  1.00  0.00     0.049 A 
ATOM     55  H   UNL A   1      44.740  28.879  28.111  1.00  0.00     0.167 HD
ATOM     56  C   UNL A   1      47.322  30.063  28.048  1.00  0.00     0.074 A 
ATOM     57  C   UNL A   1      48.748  30.237  27.857  1.00  0.00     0.031 C 
ATOM     58  C   UNL A   1      46.488  31.035  28.492  1.00  0.00     0.031 A 
BRANCH  45  59
ATOM     59  C   UNL A   1      40.567  29.299  28.928  1.00  0.00    -0.014 A 
ATOM     60  C   UNL A   1      39.615  29.456  27.904  1.00  0.00     0.010 A 
ATOM     61  C   UNL A   1      40.167  29.474  30.266  1.00  0.00     0.010 A 
ATOM     62  C   UNL A   1      38.304  29.828  28.207  1.00  0.00     0.020 A 
ATOM     63  C   UNL A   1      38.848  29.816  30.575  1.00  0.00     0.020 A 
ATOM     64  C   UNL A   1      37.928  30.009  29.541  1.00  0.00     0.054 A 
BRANCH  64  65
ATOM     65  S   UNL A   1      36.214  30.472  29.907  1.00  0.00     0.124 S 
ATOM     66  O   UNL A   1      35.505  29.937  28.746  1.00  0.00    -0.237 OA
ATOM     67  O   UNL A   1      35.958  29.783  31.170  1.00  0.00    -0.237 OA
ATOM     68  O   UNL A   1      36.257  31.929  29.993  1.00  0.00    -0.744 OA
ENDBRANCH  64  65
ENDBRANCH  45  59
BRANCH  46  69
ATOM     69  C   UNL A   1      49.827  26.391  26.491  1.00  0.00    -0.014 A 
ATOM     70  C   UNL A   1      50.715  25.903  27.467  1.00  0.00     0.010 A 
ATOM     71  C   UNL A   1      50.255  26.462  25.153  1.00  0.00     0.010 A 
ATOM     72  C   UNL A   1      52.011  25.513  27.116  1.00  0.00     0.020 A 
ATOM     73  C   UNL A   1      51.541  26.049  24.794  1.00  0.00     0.020 A 
ATOM     74  C   UNL A   1      52.415  25.587  25.781  1.00  0.00     0.054 A 
BRANCH  74  75
ATOM     75  S   UNL A   1      54.085  25.028  25.340  1.00  0.00     0.124 S 
ATOM     76  O   UNL A   1      53.842  23.655  24.909  1.00  0.00    -0.237 OA
ATOM     77  O   UNL A   1      54.465  25.965  24.287  1.00  0.00    -0.237 OA
ATOM     78  O   UNL A   1      54.832  25.170  26.589  1.00  0.00    -0.744 OA
ENDBRANCH  74  75
ENDBRANCH  46  69
BRANCH  58  79
ATOM     79  C   UNL A   1      47.098  32.366  28.839  1.00  0.00    -0.014 A 
ATOM     80  C   UNL A   1      47.211  33.388  27.880  1.00  0.00     0.010 A 
ATOM     81  C   UNL A   1      47.507  32.615  30.162  1.00  0.00     0.010 A 
ATOM     82  C   UNL A   1      47.750  34.627  28.233  1.00  0.00     0.020 A 
ATOM     83  C   UNL A   1      48.020  33.862  30.524  1.00  0.00     0.020 A 
ATOM     84  C   UNL A   1      48.152  34.856  29.554  1.00  0.00     0.054 A 
BRANCH  84  85
ATOM     85  S   UNL A   1      48.804  36.489  29.996  1.00  0.00     0.124 S 
ATOM     86  O   UNL A   1      48.679  37.217  28.737  1.00  0.00    -0.237 OA
ATOM     87  O   UNL A   1      47.900  36.917  31.062  1.00  0.00    -0.237 OA
ATOM     88  O   UNL A   1      50.173  36.210  30.424  1.00  0.00    -0.744 OA
ENDBRANCH  84  85
ENDBRANCH  58  79
ENDBRANCH  32  33
ENDBRANCH  24  27
ENDBRANCH  22  23
ENDBRANCH  21  22
ENDBRANCH   1  21
TORSDOF 17
ENDMDL
