MODEL 1
REMARK VINA RESULT:     -12.0      0.000      0.000
REMARK SMILES Cc1cc(C(=O)N[C@H](C(=O)NCCCNC(=O)c2ccc(-c3c4nc(c(-c5ccc(S(=O)(=O)[O-])cc5)c5ccc([nH]5)c(-c5ccc(S(=O)(=O)[O-])cc5)c5nc(c(-c6ccc(S(=O)(=O)[O-])cc6)c6ccc3[nH]6)C=C5)C=C4)cc2)c2c(C)n[nH]c2C)c2ccc(C)c(C)c2n1
REMARK SMILES IDX 13 1 12 2 11 3 9 4 10 5 8 7 7 8 5 9 6 10 4 12 1 13 2 14 3 15
REMARK SMILES IDX 93 16 92 17 85 18 90 19 86 20 88 21 91 22 87 23 89 24 78 25
REMARK SMILES IDX 79 26 83 27 80 28 81 29 82 30 84 31 14 33 15 34 16 35 17 37
REMARK SMILES IDX 18 38 19 39 77 40 20 41 76 42 21 43 22 44 23 45 70 46 24 47
REMARK SMILES IDX 75 48 69 49 71 50 25 51 74 52 68 53 67 54 26 56 56 57 37 58
REMARK SMILES IDX 55 59 38 60 41 61 54 62 72 63 39 64 40 65 53 67 73 68 42 69
REMARK SMILES IDX 27 70 28 71 36 72 29 73 35 74 30 75 31 76 32 77 33 78 34 79
REMARK SMILES IDX 57 80 58 81 66 82 59 83 65 84 60 85 61 86 62 87 63 88 64 89
REMARK SMILES IDX 43 90 44 91 52 92 45 93 51 94 46 95 47 96 48 97 49 98 50 99
REMARK H PARENT 11 6 7 11 82 32 15 36 71 55 41 66
REMARK Flexibility Score: inf
ROOT
ATOM      1  C   UNL A   1      35.764  23.829  26.497  1.00  0.00     0.042 C 
ENDROOT
BRANCH   1   2
ATOM      2  C   UNL A   1      34.659  22.787  26.353  1.00  0.00     0.117 C 
BRANCH   2   3
ATOM      3  N   UNL A   1      34.428  22.500  24.949  1.00  0.00    -0.354 N 
ATOM      4  C   UNL A   1      33.618  23.154  24.063  1.00  0.00     0.247 C 
ATOM      5  O   UNL A   1      33.296  22.526  23.047  1.00  0.00    -0.272 OA
ATOM      6  H   UNL A   1      34.923  21.731  24.585  1.00  0.00     0.163 HD
BRANCH   4   7
ATOM      7  C   UNL A   1      33.272  24.656  24.240  1.00  0.00     0.206 C 
BRANCH   7   8
ATOM      8  N   UNL A   1      33.412  25.302  22.936  1.00  0.00    -0.336 N 
ATOM      9  C   UNL A   1      33.043  26.449  22.297  1.00  0.00     0.252 C 
ATOM     10  O   UNL A   1      33.447  26.520  21.135  1.00  0.00    -0.269 OA
ATOM     11  H   UNL A   1      33.937  24.731  22.330  1.00  0.00     0.165 HD
BRANCH   9  12
ATOM     12  C   UNL A   1      32.276  27.602  22.889  1.00  0.00     0.051 A 
ATOM     13  C   UNL A   1      28.868  29.198  22.585  1.00  0.00     0.067 C 
ATOM     14  C   UNL A   1      30.240  28.863  23.087  1.00  0.00     0.039 A 
ATOM     15  C   UNL A   1      30.981  27.880  22.466  1.00  0.00     0.038 A 
ATOM     16  N   UNL A   1      30.698  29.538  24.148  1.00  0.00    -0.253 NA
ATOM     17  C   UNL A   1      31.931  29.288  24.617  1.00  0.00     0.074 A 
ATOM     18  C   UNL A   1      32.801  28.356  23.997  1.00  0.00     0.013 A 
ATOM     19  C   UNL A   1      32.333  29.986  25.772  1.00  0.00    -0.022 A 
ATOM     20  C   UNL A   1      34.106  28.247  24.543  1.00  0.00     0.011 A 
ATOM     21  C   UNL A   1      33.629  29.838  26.302  1.00  0.00    -0.046 A 
ATOM     22  C   UNL A   1      31.312  30.888  26.434  1.00  0.00     0.047 C 
ATOM     23  C   UNL A   1      34.511  28.968  25.668  1.00  0.00     0.004 A 
ATOM     24  C   UNL A   1      34.091  30.579  27.525  1.00  0.00     0.044 C 
ENDBRANCH   9  12
ENDBRANCH   7   8
BRANCH   7  25
ATOM     25  C   UNL A   1      31.911  24.969  24.771  1.00  0.00     0.027 A 
ATOM     26  C   UNL A   1      31.551  25.682  25.951  1.00  0.00     0.065 A 
ATOM     27  C   UNL A   1      30.689  24.601  24.215  1.00  0.00     0.038 A 
ATOM     28  C   UNL A   1      32.423  26.272  26.999  1.00  0.00     0.069 C 
ATOM     29  N   UNL A   1      30.226  25.815  26.060  1.00  0.00    -0.180 NA
ATOM     30  N   UNL A   1      29.730  25.131  25.030  1.00  0.00    -0.282 N 
ATOM     31  C   UNL A   1      30.331  23.804  23.016  1.00  0.00     0.066 C 
ATOM     32  H   UNL A   1      28.765  25.018  24.872  1.00  0.00     0.190 HD
ENDBRANCH   7  25
ENDBRANCH   4   7
ENDBRANCH   2   3
ENDBRANCH   1   2
BRANCH   1  33
ATOM     33  C   UNL A   1      36.785  23.744  25.370  1.00  0.00     0.118 C 
BRANCH  33  34
ATOM     34  N   UNL A   1      37.760  22.695  25.615  1.00  0.00    -0.352 N 
ATOM     35  C   UNL A   1      39.027  22.828  26.137  1.00  0.00     0.251 C 
ATOM     36  H   UNL A   1      37.482  21.781  25.381  1.00  0.00     0.163 HD
ATOM     37  O   UNL A   1      39.830  21.913  26.058  1.00  0.00    -0.269 OA
BRANCH  35  38
ATOM     38  C   UNL A   1      39.393  24.107  26.782  1.00  0.00     0.039 A 
ATOM     39  C   UNL A   1      39.029  24.331  28.109  1.00  0.00     0.014 A 
ATOM     40  C   UNL A   1      40.129  25.063  26.071  1.00  0.00     0.014 A 
ATOM     41  C   UNL A   1      39.436  25.506  28.741  1.00  0.00     0.010 A 
ATOM     42  C   UNL A   1      40.591  26.200  26.724  1.00  0.00     0.010 A 
ATOM     43  C   UNL A   1      40.232  26.441  28.057  1.00  0.00    -0.014 A 
BRANCH  43  44
ATOM     44  C   UNL A   1      40.656  27.696  28.720  1.00  0.00     0.031 A 
ATOM     45  C   UNL A   1      42.070  27.838  29.211  1.00  0.00     0.074 A 
ATOM     46  C   UNL A   1      39.771  28.696  28.894  1.00  0.00     0.049 A 
ATOM     47  N   UNL A   1      42.646  28.874  29.762  1.00  0.00    -0.248 NA
ATOM     48  C   UNL A   1      42.945  26.660  29.085  1.00  0.00     0.031 C 
ATOM     49  C   UNL A   1      38.359  28.653  28.506  1.00  0.00     0.029 A 
ATOM     50  N   UNL A   1      39.931  29.949  29.432  1.00  0.00    -0.354 N 
ATOM     51  C   UNL A   1      43.943  28.473  30.048  1.00  0.00     0.074 A 
ATOM     52  C   UNL A   1      44.059  27.086  29.664  1.00  0.00     0.031 C 
ATOM     53  C   UNL A   1      37.793  29.839  28.781  1.00  0.00     0.029 A 
ATOM     54  C   UNL A   1      38.793  30.720  29.381  1.00  0.00     0.049 A 
ATOM     55  H   UNL A   1      40.779  30.265  29.818  1.00  0.00     0.167 HD
ATOM     56  C   UNL A   1      44.960  29.206  30.557  1.00  0.00     0.031 A 
ATOM     57  C   UNL A   1      38.582  31.996  29.757  1.00  0.00     0.031 A 
ATOM     58  C   UNL A   1      44.849  30.591  30.915  1.00  0.00     0.049 A 
ATOM     59  C   UNL A   1      39.725  32.798  30.313  1.00  0.00     0.074 A 
ATOM     60  C   UNL A   1      45.840  31.440  31.373  1.00  0.00     0.029 A 
ATOM     61  N   UNL A   1      43.677  31.330  30.853  1.00  0.00    -0.354 N 
ATOM     62  N   UNL A   1      40.968  32.424  30.505  1.00  0.00    -0.248 NA
ATOM     63  C   UNL A   1      39.447  34.190  30.694  1.00  0.00     0.031 C 
ATOM     64  C   UNL A   1      45.258  32.684  31.629  1.00  0.00     0.029 A 
ATOM     65  C   UNL A   1      43.914  32.620  31.288  1.00  0.00     0.049 A 
ATOM     66  H   UNL A   1      42.807  30.986  30.547  1.00  0.00     0.167 HD
ATOM     67  C   UNL A   1      41.626  33.539  31.011  1.00  0.00     0.074 A 
ATOM     68  C   UNL A   1      40.645  34.602  31.097  1.00  0.00     0.031 C 
ATOM     69  C   UNL A   1      42.926  33.666  31.364  1.00  0.00     0.031 A 
BRANCH  56  70
ATOM     70  C   UNL A   1      46.286  28.525  30.742  1.00  0.00    -0.014 A 
ATOM     71  C   UNL A   1      46.597  27.873  31.950  1.00  0.00     0.010 A 
ATOM     72  C   UNL A   1      47.211  28.490  29.684  1.00  0.00     0.010 A 
ATOM     73  C   UNL A   1      47.822  27.224  32.105  1.00  0.00     0.020 A 
ATOM     74  C   UNL A   1      48.430  27.822  29.829  1.00  0.00     0.020 A 
ATOM     75  C   UNL A   1      48.730  27.201  31.043  1.00  0.00     0.054 A 
BRANCH  75  76
ATOM     76  S   UNL A   1      50.307  26.335  31.276  1.00  0.00     0.124 S 
ATOM     77  O   UNL A   1      50.207  25.252  30.300  1.00  0.00    -0.237 OA
ATOM     78  O   UNL A   1      51.285  27.373  30.963  1.00  0.00    -0.237 OA
ATOM     79  O   UNL A   1      50.270  25.912  32.674  1.00  0.00    -0.744 OA
ENDBRANCH  75  76
ENDBRANCH  56  70
BRANCH  57  80
ATOM     80  C   UNL A   1      37.236  32.594  29.555  1.00  0.00    -0.014 A 
ATOM     81  C   UNL A   1      36.339  32.694  30.631  1.00  0.00     0.010 A 
ATOM     82  C   UNL A   1      36.884  33.153  28.313  1.00  0.00     0.010 A 
ATOM     83  C   UNL A   1      35.119  33.360  30.475  1.00  0.00     0.020 A 
ATOM     84  C   UNL A   1      35.672  33.833  28.157  1.00  0.00     0.020 A 
ATOM     85  C   UNL A   1      34.801  33.939  29.242  1.00  0.00     0.054 A 
BRANCH  85  86
ATOM     86  S   UNL A   1      33.252  34.874  29.099  1.00  0.00     0.124 S 
ATOM     87  O   UNL A   1      32.758  34.866  30.472  1.00  0.00    -0.237 OA
ATOM     88  O   UNL A   1      33.719  36.167  28.604  1.00  0.00    -0.237 OA
ATOM     89  O   UNL A   1      32.464  34.094  28.147  1.00  0.00    -0.744 OA
ENDBRANCH  85  86
ENDBRANCH  57  80
BRANCH  69  90
ATOM     90  C   UNL A   1      43.403  34.996  31.875  1.00  0.00    -0.014 A 
ATOM     91  C   UNL A   1      43.888  35.968  30.984  1.00  0.00     0.010 A 
ATOM     92  C   UNL A   1      43.183  35.338  33.222  1.00  0.00     0.010 A 
ATOM     93  C   UNL A   1      44.121  37.271  31.428  1.00  0.00     0.020 A 
ATOM     94  C   UNL A   1      43.400  36.645  33.665  1.00  0.00     0.020 A 
ATOM     95  C   UNL A   1      43.857  37.606  32.760  1.00  0.00     0.054 A 
BRANCH  95  96
ATOM     96  S   UNL A   1      44.054  39.335  33.273  1.00  0.00     0.124 S 
ATOM     97  O   UNL A   1      44.836  39.896  32.174  1.00  0.00    -0.237 OA
ATOM     98  O   UNL A   1      42.670  39.795  33.358  1.00  0.00    -0.237 OA
ATOM     99  O   UNL A   1      44.757  39.243  34.551  1.00  0.00    -0.744 OA
ENDBRANCH  95  96
ENDBRANCH  69  90
ENDBRANCH  43  44
ENDBRANCH  35  38
ENDBRANCH  33  34
ENDBRANCH   1  33
TORSDOF 16
ENDMDL
MODEL 2
REMARK VINA RESULT:     -11.7      2.640      9.269
REMARK SMILES Cc1cc(C(=O)N[C@H](C(=O)NCCCNC(=O)c2ccc(-c3c4nc(c(-c5ccc(S(=O)(=O)[O-])cc5)c5ccc([nH]5)c(-c5ccc(S(=O)(=O)[O-])cc5)c5nc(c(-c6ccc(S(=O)(=O)[O-])cc6)c6ccc3[nH]6)C=C5)C=C4)cc2)c2c(C)n[nH]c2C)c2ccc(C)c(C)c2n1
REMARK SMILES IDX 13 1 12 2 11 3 9 4 10 5 8 7 7 8 5 9 6 10 4 12 1 13 2 14 3 15
REMARK SMILES IDX 93 16 92 17 85 18 90 19 86 20 88 21 91 22 87 23 89 24 78 25
REMARK SMILES IDX 79 26 83 27 80 28 81 29 82 30 84 31 14 33 15 34 16 35 17 37
REMARK SMILES IDX 18 38 19 39 77 40 20 41 76 42 21 43 22 44 23 45 70 46 24 47
REMARK SMILES IDX 75 48 69 49 71 50 25 51 74 52 68 53 67 54 26 56 56 57 37 58
REMARK SMILES IDX 55 59 38 60 41 61 54 62 72 63 39 64 40 65 53 67 73 68 42 69
REMARK SMILES IDX 27 70 28 71 36 72 29 73 35 74 30 75 31 76 32 77 33 78 34 79
REMARK SMILES IDX 57 80 58 81 66 82 59 83 65 84 60 85 61 86 62 87 63 88 64 89
REMARK SMILES IDX 43 90 44 91 52 92 45 93 51 94 46 95 47 96 48 97 49 98 50 99
REMARK H PARENT 11 6 7 11 82 32 15 36 71 55 41 66
REMARK Flexibility Score: inf
ROOT
ATOM      1  C   UNL A   1      33.803  27.660  25.812  1.00  0.00     0.042 C 
ENDROOT
BRANCH   1   2
ATOM      2  C   UNL A   1      33.655  26.143  25.737  1.00  0.00     0.117 C 
BRANCH   2   3
ATOM      3  N   UNL A   1      34.295  25.642  24.534  1.00  0.00    -0.354 N 
ATOM      4  C   UNL A   1      33.838  24.708  23.646  1.00  0.00     0.247 C 
ATOM      5  O   UNL A   1      34.688  24.176  22.923  1.00  0.00    -0.272 OA
ATOM      6  H   UNL A   1      35.176  26.029  24.328  1.00  0.00     0.163 HD
BRANCH   4   7
ATOM      7  C   UNL A   1      32.320  24.462  23.441  1.00  0.00     0.206 C 
BRANCH   7   8
ATOM      8  N   UNL A   1      31.779  23.946  24.698  1.00  0.00    -0.336 N 
ATOM      9  C   UNL A   1      31.891  22.857  25.512  1.00  0.00     0.252 C 
ATOM     10  O   UNL A   1      31.182  22.917  26.518  1.00  0.00    -0.269 OA
ATOM     11  H   UNL A   1      31.131  24.584  25.074  1.00  0.00     0.165 HD
BRANCH   9  12
ATOM     12  C   UNL A   1      32.812  21.681  25.319  1.00  0.00     0.051 A 
ATOM     13  C   UNL A   1      32.668  18.153  23.984  1.00  0.00     0.067 C 
ATOM     14  C   UNL A   1      33.199  19.454  24.503  1.00  0.00     0.039 A 
ATOM     15  C   UNL A   1      32.333  20.490  24.783  1.00  0.00     0.038 A 
ATOM     16  N   UNL A   1      34.523  19.567  24.665  1.00  0.00    -0.253 NA
ATOM     17  C   UNL A   1      35.041  20.706  25.151  1.00  0.00     0.074 A 
ATOM     18  C   UNL A   1      34.228  21.798  25.547  1.00  0.00     0.013 A 
ATOM     19  C   UNL A   1      36.444  20.786  25.242  1.00  0.00    -0.022 A 
ATOM     20  C   UNL A   1      34.897  22.911  26.121  1.00  0.00     0.011 A 
ATOM     21  C   UNL A   1      37.078  21.916  25.796  1.00  0.00    -0.046 A 
ATOM     22  C   UNL A   1      37.246  19.620  24.705  1.00  0.00     0.047 C 
ATOM     23  C   UNL A   1      36.287  22.970  26.241  1.00  0.00     0.004 A 
ATOM     24  C   UNL A   1      38.571  22.024  25.919  1.00  0.00     0.044 C 
ENDBRANCH   9  12
ENDBRANCH   7   8
BRANCH   7  25
ATOM     25  C   UNL A   1      31.501  25.643  23.032  1.00  0.00     0.027 A 
ATOM     26  C   UNL A   1      30.504  26.342  23.772  1.00  0.00     0.065 A 
ATOM     27  C   UNL A   1      31.534  26.302  21.807  1.00  0.00     0.038 A 
ATOM     28  C   UNL A   1      29.973  26.068  25.133  1.00  0.00     0.069 C 
ATOM     29  N   UNL A   1      30.032  27.391  23.092  1.00  0.00    -0.180 NA
ATOM     30  N   UNL A   1      30.637  27.327  21.907  1.00  0.00    -0.282 N 
ATOM     31  C   UNL A   1      32.304  26.068  20.562  1.00  0.00     0.066 C 
ATOM     32  H   UNL A   1      30.454  27.958  21.173  1.00  0.00     0.190 HD
ENDBRANCH   7  25
ENDBRANCH   4   7
ENDBRANCH   2   3
ENDBRANCH   1   2
BRANCH   1  33
ATOM     33  C   UNL A   1      33.817  28.166  27.248  1.00  0.00     0.118 C 
BRANCH  33  34
ATOM     34  N   UNL A   1      33.576  29.598  27.309  1.00  0.00    -0.352 N 
ATOM     35  C   UNL A   1      34.382  30.564  27.868  1.00  0.00     0.251 C 
ATOM     36  H   UNL A   1      32.739  29.915  26.901  1.00  0.00     0.163 HD
ATOM     37  O   UNL A   1      33.952  31.687  28.074  1.00  0.00    -0.269 OA
BRANCH  35  38
ATOM     38  C   UNL A   1      35.771  30.205  28.222  1.00  0.00     0.039 A 
ATOM     39  C   UNL A   1      36.043  29.707  29.496  1.00  0.00     0.014 A 
ATOM     40  C   UNL A   1      36.791  30.333  27.272  1.00  0.00     0.014 A 
ATOM     41  C   UNL A   1      37.339  29.298  29.808  1.00  0.00     0.010 A 
ATOM     42  C   UNL A   1      38.066  29.862  27.563  1.00  0.00     0.010 A 
ATOM     43  C   UNL A   1      38.356  29.359  28.839  1.00  0.00    -0.014 A 
BRANCH  43  44
ATOM     44  C   UNL A   1      39.737  28.940  29.171  1.00  0.00     0.031 A 
ATOM     45  C   UNL A   1      40.632  29.869  29.943  1.00  0.00     0.074 A 
ATOM     46  C   UNL A   1      40.190  27.737  28.767  1.00  0.00     0.049 A 
ATOM     47  N   UNL A   1      41.848  29.662  30.377  1.00  0.00    -0.248 NA
ATOM     48  C   UNL A   1      40.104  31.209  30.250  1.00  0.00     0.031 C 
ATOM     49  C   UNL A   1      39.430  26.773  27.968  1.00  0.00     0.029 A 
ATOM     50  N   UNL A   1      41.395  27.116  28.983  1.00  0.00    -0.354 N 
ATOM     51  C   UNL A   1      42.227  30.841  31.005  1.00  0.00     0.074 A 
ATOM     52  C   UNL A   1      41.139  31.779  30.849  1.00  0.00     0.031 C 
ATOM     53  C   UNL A   1      40.172  25.667  27.796  1.00  0.00     0.029 A 
ATOM     54  C   UNL A   1      41.464  25.848  28.454  1.00  0.00     0.049 A 
ATOM     55  H   UNL A   1      42.139  27.538  29.470  1.00  0.00     0.167 HD
ATOM     56  C   UNL A   1      43.368  31.109  31.680  1.00  0.00     0.031 A 
ATOM     57  C   UNL A   1      42.447  24.928  28.509  1.00  0.00     0.031 A 
ATOM     58  C   UNL A   1      44.436  30.166  31.854  1.00  0.00     0.049 A 
ATOM     59  C   UNL A   1      43.705  25.240  29.270  1.00  0.00     0.074 A 
ATOM     60  C   UNL A   1      45.602  30.319  32.581  1.00  0.00     0.029 A 
ATOM     61  N   UNL A   1      44.466  28.898  31.297  1.00  0.00    -0.354 N 
ATOM     62  N   UNL A   1      44.013  26.335  29.925  1.00  0.00    -0.248 NA
ATOM     63  C   UNL A   1      44.740  24.199  29.312  1.00  0.00     0.031 C 
ATOM     64  C   UNL A   1      46.360  29.154  32.429  1.00  0.00     0.029 A 
ATOM     65  C   UNL A   1      45.643  28.263  31.644  1.00  0.00     0.049 A 
ATOM     66  H   UNL A   1      43.756  28.508  30.737  1.00  0.00     0.167 HD
ATOM     67  C   UNL A   1      45.270  26.107  30.472  1.00  0.00     0.074 A 
ATOM     68  C   UNL A   1      45.667  24.772  30.073  1.00  0.00     0.031 C 
ATOM     69  C   UNL A   1      46.020  26.931  31.240  1.00  0.00     0.031 A 
BRANCH  56  70
ATOM     70  C   UNL A   1      43.511  32.473  32.294  1.00  0.00    -0.014 A 
ATOM     71  C   UNL A   1      43.088  32.713  33.615  1.00  0.00     0.010 A 
ATOM     72  C   UNL A   1      44.120  33.510  31.566  1.00  0.00     0.010 A 
ATOM     73  C   UNL A   1      43.245  33.977  34.185  1.00  0.00     0.020 A 
ATOM     74  C   UNL A   1      44.299  34.770  32.143  1.00  0.00     0.020 A 
ATOM     75  C   UNL A   1      43.852  34.997  33.446  1.00  0.00     0.054 A 
BRANCH  75  76
ATOM     76  S   UNL A   1      44.054  36.622  34.226  1.00  0.00     0.124 S 
ATOM     77  O   UNL A   1      42.919  36.662  35.145  1.00  0.00    -0.237 OA
ATOM     78  O   UNL A   1      45.367  36.509  34.855  1.00  0.00    -0.237 OA
ATOM     79  O   UNL A   1      43.977  37.559  33.107  1.00  0.00    -0.744 OA
ENDBRANCH  75  76
ENDBRANCH  56  70
BRANCH  57  80
ATOM     80  C   UNL A   1      42.234  23.607  27.863  1.00  0.00    -0.014 A 
ATOM     81  C   UNL A   1      42.748  23.356  26.580  1.00  0.00     0.010 A 
ATOM     82  C   UNL A   1      41.602  22.564  28.565  1.00  0.00     0.010 A 
ATOM     83  C   UNL A   1      42.652  22.080  26.016  1.00  0.00     0.020 A 
ATOM     84  C   UNL A   1      41.519  21.282  28.011  1.00  0.00     0.020 A 
ATOM     85  C   UNL A   1      42.052  21.047  26.743  1.00  0.00     0.054 A 
BRANCH  85  86
ATOM     86  S   UNL A   1      42.026  19.382  26.021  1.00  0.00     0.124 S 
ATOM     87  O   UNL A   1      42.558  18.566  27.107  1.00  0.00    -0.237 OA
ATOM     88  O   UNL A   1      40.606  19.197  25.728  1.00  0.00    -0.237 OA
ATOM     89  O   UNL A   1      42.890  19.500  24.848  1.00  0.00    -0.744 OA
ENDBRANCH  85  86
ENDBRANCH  57  80
BRANCH  69  90
ATOM     90  C   UNL A   1      47.354  26.440  31.728  1.00  0.00    -0.014 A 
ATOM     91  C   UNL A   1      47.446  25.690  32.911  1.00  0.00     0.010 A 
ATOM     92  C   UNL A   1      48.483  26.569  30.897  1.00  0.00     0.010 A 
ATOM     93  C   UNL A   1      48.642  25.051  33.243  1.00  0.00     0.020 A 
ATOM     94  C   UNL A   1      49.676  25.918  31.220  1.00  0.00     0.020 A 
ATOM     95  C   UNL A   1      49.743  25.152  32.387  1.00  0.00     0.054 A 
BRANCH  95  96
ATOM     96  S   UNL A   1      51.241  24.211  32.786  1.00  0.00     0.124 S 
ATOM     97  O   UNL A   1      52.225  24.797  31.879  1.00  0.00    -0.237 OA
ATOM     98  O   UNL A   1      51.433  24.515  34.203  1.00  0.00    -0.237 OA
ATOM     99  O   UNL A   1      50.874  22.827  32.494  1.00  0.00    -0.744 OA
ENDBRANCH  95  96
ENDBRANCH  69  90
ENDBRANCH  43  44
ENDBRANCH  35  38
ENDBRANCH  33  34
ENDBRANCH   1  33
TORSDOF 16
ENDMDL
MODEL 3
REMARK VINA RESULT:     -11.2      3.632      4.245
REMARK SMILES Cc1cc(C(=O)N[C@H](C(=O)NCCCNC(=O)c2ccc(-c3c4nc(c(-c5ccc(S(=O)(=O)[O-])cc5)c5ccc([nH]5)c(-c5ccc(S(=O)(=O)[O-])cc5)c5nc(c(-c6ccc(S(=O)(=O)[O-])cc6)c6ccc3[nH]6)C=C5)C=C4)cc2)c2c(C)n[nH]c2C)c2ccc(C)c(C)c2n1
REMARK SMILES IDX 13 1 12 2 11 3 9 4 10 5 8 7 7 8 5 9 6 10 4 12 1 13 2 14 3 15
REMARK SMILES IDX 93 16 92 17 85 18 90 19 86 20 88 21 91 22 87 23 89 24 78 25
REMARK SMILES IDX 79 26 83 27 80 28 81 29 82 30 84 31 14 33 15 34 16 35 17 37
REMARK SMILES IDX 18 38 19 39 77 40 20 41 76 42 21 43 22 44 23 45 70 46 24 47
REMARK SMILES IDX 75 48 69 49 71 50 25 51 74 52 68 53 67 54 26 56 56 57 37 58
REMARK SMILES IDX 55 59 38 60 41 61 54 62 72 63 39 64 40 65 53 67 73 68 42 69
REMARK SMILES IDX 27 70 28 71 36 72 29 73 35 74 30 75 31 76 32 77 33 78 34 79
REMARK SMILES IDX 57 80 58 81 66 82 59 83 65 84 60 85 61 86 62 87 63 88 64 89
REMARK SMILES IDX 43 90 44 91 52 92 45 93 51 94 46 95 47 96 48 97 49 98 50 99
REMARK H PARENT 11 6 7 11 82 32 15 36 71 55 41 66
REMARK Flexibility Score: inf
ROOT
ATOM      1  C   UNL A   1      37.281  23.961  25.557  1.00  0.00     0.042 C 
ENDROOT
BRANCH   1   2
ATOM      2  C   UNL A   1      35.907  23.534  26.066  1.00  0.00     0.117 C 
BRANCH   2   3
ATOM      3  N   UNL A   1      35.155  22.909  24.994  1.00  0.00    -0.354 N 
ATOM      4  C   UNL A   1      33.945  23.272  24.471  1.00  0.00     0.247 C 
ATOM      5  O   UNL A   1      33.335  22.401  23.840  1.00  0.00    -0.272 OA
ATOM      6  H   UNL A   1      35.572  22.115  24.588  1.00  0.00     0.163 HD
BRANCH   4   7
ATOM      7  C   UNL A   1      33.454  24.743  24.517  1.00  0.00     0.206 C 
BRANCH   7   8
ATOM      8  N   UNL A   1      33.599  25.304  23.174  1.00  0.00    -0.336 N 
ATOM      9  C   UNL A   1      33.227  26.404  22.458  1.00  0.00     0.252 C 
ATOM     10  O   UNL A   1      33.638  26.400  21.297  1.00  0.00    -0.269 OA
ATOM     11  H   UNL A   1      34.130  24.697  22.610  1.00  0.00     0.165 HD
BRANCH   9  12
ATOM     12  C   UNL A   1      32.450  27.589  22.969  1.00  0.00     0.051 A 
ATOM     13  C   UNL A   1      29.108  29.249  22.400  1.00  0.00     0.067 C 
ATOM     14  C   UNL A   1      30.436  28.899  23.000  1.00  0.00     0.039 A 
ATOM     15  C   UNL A   1      31.192  27.883  22.454  1.00  0.00     0.038 A 
ATOM     16  N   UNL A   1      30.839  29.591  24.072  1.00  0.00    -0.253 NA
ATOM     17  C   UNL A   1      32.032  29.327  24.627  1.00  0.00     0.074 A 
ATOM     18  C   UNL A   1      32.918  28.360  24.090  1.00  0.00     0.013 A 
ATOM     19  C   UNL A   1      32.373  30.047  25.789  1.00  0.00    -0.022 A 
ATOM     20  C   UNL A   1      34.182  28.238  24.724  1.00  0.00     0.011 A 
ATOM     21  C   UNL A   1      33.628  29.885  26.407  1.00  0.00    -0.046 A 
ATOM     22  C   UNL A   1      31.332  30.988  26.358  1.00  0.00     0.047 C 
ATOM     23  C   UNL A   1      34.529  28.980  25.855  1.00  0.00     0.004 A 
ATOM     24  C   UNL A   1      34.025  30.648  27.638  1.00  0.00     0.044 C 
ENDBRANCH   9  12
ENDBRANCH   7   8
BRANCH   7  25
ATOM     25  C   UNL A   1      32.045  24.964  24.964  1.00  0.00     0.027 A 
ATOM     26  C   UNL A   1      31.567  25.660  26.112  1.00  0.00     0.065 A 
ATOM     27  C   UNL A   1      30.888  24.504  24.343  1.00  0.00     0.038 A 
ATOM     28  C   UNL A   1      32.332  26.320  27.201  1.00  0.00     0.069 C 
ATOM     29  N   UNL A   1      30.232  25.699  26.143  1.00  0.00    -0.180 NA
ATOM     30  N   UNL A   1      29.847  24.972  25.094  1.00  0.00    -0.282 N 
ATOM     31  C   UNL A   1      30.658  23.673  23.136  1.00  0.00     0.066 C 
ATOM     32  H   UNL A   1      28.903  24.789  24.882  1.00  0.00     0.190 HD
ENDBRANCH   7  25
ENDBRANCH   4   7
ENDBRANCH   2   3
ENDBRANCH   1   2
BRANCH   1  33
ATOM     33  C   UNL A   1      38.298  24.089  26.684  1.00  0.00     0.118 C 
BRANCH  33  34
ATOM     34  N   UNL A   1      39.657  24.117  26.171  1.00  0.00    -0.352 N 
ATOM     35  C   UNL A   1      40.629  25.063  26.412  1.00  0.00     0.251 C 
ATOM     36  H   UNL A   1      39.915  23.372  25.582  1.00  0.00     0.163 HD
ATOM     37  O   UNL A   1      41.637  25.105  25.727  1.00  0.00    -0.269 OA
BRANCH  35  38
ATOM     38  C   UNL A   1      40.414  26.030  27.508  1.00  0.00     0.039 A 
ATOM     39  C   UNL A   1      39.492  25.731  28.511  1.00  0.00     0.014 A 
ATOM     40  C   UNL A   1      41.158  27.215  27.552  1.00  0.00     0.014 A 
ATOM     41  C   UNL A   1      39.341  26.608  29.584  1.00  0.00     0.010 A 
ATOM     42  C   UNL A   1      41.055  28.053  28.657  1.00  0.00     0.010 A 
ATOM     43  C   UNL A   1      40.132  27.767  29.672  1.00  0.00    -0.014 A 
BRANCH  43  44
ATOM     44  C   UNL A   1      39.966  28.708  30.803  1.00  0.00     0.031 A 
ATOM     45  C   UNL A   1      40.849  28.582  32.013  1.00  0.00     0.074 A 
ATOM     46  C   UNL A   1      39.016  29.661  30.751  1.00  0.00     0.049 A 
ATOM     47  N   UNL A   1      40.896  29.341  33.076  1.00  0.00    -0.248 NA
ATOM     48  C   UNL A   1      41.787  27.446  32.044  1.00  0.00     0.031 C 
ATOM     49  C   UNL A   1      38.065  29.849  29.651  1.00  0.00     0.029 A 
ATOM     50  N   UNL A   1      38.699  30.660  31.638  1.00  0.00    -0.354 N 
ATOM     51  C   UNL A   1      41.863  28.776  33.898  1.00  0.00     0.074 A 
ATOM     52  C   UNL A   1      42.338  27.581  33.241  1.00  0.00     0.031 C 
ATOM     53  C   UNL A   1      37.301  30.921  29.912  1.00  0.00     0.029 A 
ATOM     54  C   UNL A   1      37.692  31.487  31.201  1.00  0.00     0.049 A 
ATOM     55  H   UNL A   1      39.151  30.773  32.506  1.00  0.00     0.167 HD
ATOM     56  C   UNL A   1      42.335  29.230  35.080  1.00  0.00     0.031 A 
ATOM     57  C   UNL A   1      37.155  32.587  31.764  1.00  0.00     0.031 A 
ATOM     58  C   UNL A   1      41.877  30.432  35.718  1.00  0.00     0.049 A 
ATOM     59  C   UNL A   1      37.697  33.082  33.076  1.00  0.00     0.074 A 
ATOM     60  C   UNL A   1      42.342  31.013  36.883  1.00  0.00     0.029 A 
ATOM     61  N   UNL A   1      40.851  31.234  35.244  1.00  0.00    -0.354 N 
ATOM     62  N   UNL A   1      38.667  32.577  33.801  1.00  0.00    -0.248 NA
ATOM     63  C   UNL A   1      37.088  34.294  33.640  1.00  0.00     0.031 C 
ATOM     64  C   UNL A   1      41.568  32.149  37.137  1.00  0.00     0.029 A 
ATOM     65  C   UNL A   1      40.651  32.295  36.106  1.00  0.00     0.049 A 
ATOM     66  H   UNL A   1      40.341  31.071  34.418  1.00  0.00     0.167 HD
ATOM     67  C   UNL A   1      38.797  33.419  34.899  1.00  0.00     0.074 A 
ATOM     68  C   UNL A   1      37.808  34.467  34.744  1.00  0.00     0.031 C 
ATOM     69  C   UNL A   1      39.664  33.331  35.935  1.00  0.00     0.031 A 
BRANCH  56  70
ATOM     70  C   UNL A   1      43.414  28.431  35.754  1.00  0.00    -0.014 A 
ATOM     71  C   UNL A   1      44.772  28.724  35.526  1.00  0.00     0.010 A 
ATOM     72  C   UNL A   1      43.073  27.413  36.661  1.00  0.00     0.010 A 
ATOM     73  C   UNL A   1      45.768  27.991  36.173  1.00  0.00     0.020 A 
ATOM     74  C   UNL A   1      44.068  26.692  37.326  1.00  0.00     0.020 A 
ATOM     75  C   UNL A   1      45.410  26.981  37.071  1.00  0.00     0.054 A 
BRANCH  75  76
ATOM     76  S   UNL A   1      46.731  26.061  37.904  1.00  0.00     0.124 S 
ATOM     77  O   UNL A   1      46.616  26.538  39.280  1.00  0.00    -0.237 OA
ATOM     78  O   UNL A   1      46.333  24.672  37.686  1.00  0.00    -0.237 OA
ATOM     79  O   UNL A   1      47.944  26.479  37.204  1.00  0.00    -0.744 OA
ENDBRANCH  75  76
ENDBRANCH  56  70
BRANCH  57  80
ATOM     80  C   UNL A   1      36.079  33.315  31.042  1.00  0.00    -0.014 A 
ATOM     81  C   UNL A   1      34.857  33.586  31.681  1.00  0.00     0.010 A 
ATOM     82  C   UNL A   1      36.306  33.822  29.749  1.00  0.00     0.010 A 
ATOM     83  C   UNL A   1      33.887  34.370  31.048  1.00  0.00     0.020 A 
ATOM     84  C   UNL A   1      35.344  34.620  29.120  1.00  0.00     0.020 A 
ATOM     85  C   UNL A   1      34.144  34.895  29.777  1.00  0.00     0.054 A 
BRANCH  85  86
ATOM     86  S   UNL A   1      32.903  35.984  29.023  1.00  0.00     0.124 S 
ATOM     87  O   UNL A   1      32.157  36.454  30.185  1.00  0.00    -0.237 OA
ATOM     88  O   UNL A   1      33.736  36.984  28.359  1.00  0.00    -0.237 OA
ATOM     89  O   UNL A   1      32.166  35.097  28.125  1.00  0.00    -0.744 OA
ENDBRANCH  85  86
ENDBRANCH  57  80
BRANCH  69  90
ATOM     90  C   UNL A   1      39.616  34.388  37.001  1.00  0.00    -0.014 A 
ATOM     91  C   UNL A   1      38.856  34.190  38.166  1.00  0.00     0.010 A 
ATOM     92  C   UNL A   1      40.484  35.492  36.918  1.00  0.00     0.010 A 
ATOM     93  C   UNL A   1      38.987  35.067  39.245  1.00  0.00     0.020 A 
ATOM     94  C   UNL A   1      40.628  36.362  38.002  1.00  0.00     0.020 A 
ATOM     95  C   UNL A   1      39.886  36.135  39.164  1.00  0.00     0.054 A 
BRANCH  95  96
ATOM     96  S   UNL A   1      40.121  37.182  40.626  1.00  0.00     0.124 S 
ATOM     97  O   UNL A   1      41.445  36.773  41.089  1.00  0.00    -0.237 OA
ATOM     98  O   UNL A   1      40.040  38.528  40.063  1.00  0.00    -0.237 OA
ATOM     99  O   UNL A   1      39.015  36.810  41.505  1.00  0.00    -0.744 OA
ENDBRANCH  95  96
ENDBRANCH  69  90
ENDBRANCH  43  44
ENDBRANCH  35  38
ENDBRANCH  33  34
ENDBRANCH   1  33
TORSDOF 16
ENDMDL
