MODEL 1
REMARK VINA RESULT:     -10.7      0.000      0.000
REMARK SMILES O=C(C[C@H]1CN(c2nc(C3CC3)ns2)CCO1)NCCCNC(=O)c1ccc(-c2c3nc(c(-c4ccc(S(=O)(=O)[O-])cc4)c4ccc([nH]4)c(-c4ccc(S(=O)(=O)[O-])cc4)c4nc(c(-c5ccc(S(=O)(=O)[O-])cc5)c5ccc2[nH]5)C=C4)C=C3)cc1
REMARK SMILES IDX 20 1 19 2 18 3 1 4 2 5 3 7 4 8 5 9 17 10 6 11 16 12 15 13
REMARK SMILES IDX 7 14 8 15 14 16 9 17 13 18 10 19 11 20 12 21 21 22 22 23
REMARK SMILES IDX 23 24 24 26 25 27 26 28 84 29 27 30 83 31 28 32 29 33 30 34
REMARK SMILES IDX 77 35 31 36 82 37 76 38 78 39 32 40 81 41 75 42 74 43 33 45
REMARK SMILES IDX 63 46 44 47 62 48 45 49 48 50 61 51 79 52 46 53 47 54 60 56
REMARK SMILES IDX 80 57 49 58 34 59 35 60 43 61 36 62 42 63 37 64 38 65 39 66
REMARK SMILES IDX 40 67 41 68 64 69 65 70 73 71 66 72 72 73 67 74 68 75 69 76
REMARK SMILES IDX 70 77 71 78 50 79 51 80 59 81 52 82 58 83 53 84 54 85 55 86
REMARK SMILES IDX 56 87 57 88
REMARK H PARENT 18 6 22 25 78 44 48 55
REMARK Flexibility Score: inf
ROOT
ATOM      1  C   UNL A   1      32.734  27.844  26.049  1.00  0.00     0.042 C 
ENDROOT
BRANCH   1   2
ATOM      2  C   UNL A   1      33.696  27.822  24.871  1.00  0.00     0.117 C 
BRANCH   2   3
ATOM      3  N   UNL A   1      33.452  26.719  23.970  1.00  0.00    -0.356 N 
ATOM      4  O   UNL A   1      34.819  25.217  25.033  1.00  0.00    -0.275 OA
ATOM      5  C   UNL A   1      33.987  25.468  24.166  1.00  0.00     0.222 C 
ATOM      6  H   UNL A   1      32.880  26.870  23.182  1.00  0.00     0.163 HD
BRANCH   5   7
ATOM      7  C   UNL A   1      33.501  24.415  23.197  1.00  0.00     0.133 C 
BRANCH   7   8
ATOM      8  C   UNL A   1      32.025  23.986  23.296  1.00  0.00     0.147 C 
ATOM      9  C   UNL A   1      31.818  22.469  23.107  1.00  0.00     0.151 C 
ATOM     10  O   UNL A   1      31.301  24.474  24.445  1.00  0.00    -0.374 OA
ATOM     11  N   UNL A   1      32.047  21.736  24.349  1.00  0.00    -0.342 N 
ATOM     12  C   UNL A   1      31.598  23.749  25.653  1.00  0.00     0.182 C 
ATOM     13  C   UNL A   1      31.336  22.244  25.516  1.00  0.00     0.147 C 
BRANCH  11  14
ATOM     14  C   UNL A   1      33.085  20.870  24.451  1.00  0.00     0.205 A 
ATOM     15  N   UNL A   1      32.995  19.565  24.320  1.00  0.00    -0.203 NA
ATOM     16  S   UNL A   1      34.705  21.334  24.867  1.00  0.00     0.004 S 
ATOM     17  C   UNL A   1      34.240  18.994  24.551  1.00  0.00     0.147 A 
ATOM     18  N   UNL A   1      35.260  19.765  24.929  1.00  0.00    -0.174 NA
BRANCH  17  19
ATOM     19  C   UNL A   1      34.462  17.491  24.379  1.00  0.00     0.059 C 
ATOM     20  C   UNL A   1      33.269  16.573  24.207  1.00  0.00     0.012 C 
ATOM     21  C   UNL A   1      34.141  16.872  23.033  1.00  0.00     0.012 C 
ENDBRANCH  17  19
ENDBRANCH  11  14
ENDBRANCH   7   8
ENDBRANCH   5   7
ENDBRANCH   2   3
ENDBRANCH   1   2
BRANCH   1  22
ATOM     22  C   UNL A   1      33.358  28.322  27.356  1.00  0.00     0.118 C 
BRANCH  22  23
ATOM     23  N   UNL A   1      33.335  29.770  27.513  1.00  0.00    -0.352 N 
ATOM     24  C   UNL A   1      34.307  30.625  27.976  1.00  0.00     0.251 C 
ATOM     25  H   UNL A   1      32.492  30.204  27.246  1.00  0.00     0.163 HD
ATOM     26  O   UNL A   1      34.032  31.810  28.158  1.00  0.00    -0.269 OA
BRANCH  24  27
ATOM     27  C   UNL A   1      35.665  30.125  28.284  1.00  0.00     0.039 A 
ATOM     28  C   UNL A   1      36.638  30.157  27.279  1.00  0.00     0.014 A 
ATOM     29  C   UNL A   1      35.986  29.621  29.546  1.00  0.00     0.014 A 
ATOM     30  C   UNL A   1      37.946  29.756  27.565  1.00  0.00     0.010 A 
ATOM     31  C   UNL A   1      37.308  29.302  29.852  1.00  0.00     0.010 A 
ATOM     32  C   UNL A   1      38.303  29.364  28.866  1.00  0.00    -0.014 A 
BRANCH  32  33
ATOM     33  C   UNL A   1      39.711  29.031  29.213  1.00  0.00     0.031 A 
ATOM     34  C   UNL A   1      40.594  30.051  29.879  1.00  0.00     0.074 A 
ATOM     35  C   UNL A   1      40.213  27.825  28.875  1.00  0.00     0.049 A 
ATOM     36  N   UNL A   1      41.857  29.956  30.213  1.00  0.00    -0.248 NA
ATOM     37  C   UNL A   1      39.990  31.356  30.192  1.00  0.00     0.031 C 
ATOM     38  C   UNL A   1      39.474  26.761  28.189  1.00  0.00     0.029 A 
ATOM     39  N   UNL A   1      41.466  27.292  29.055  1.00  0.00    -0.354 N 
ATOM     40  C   UNL A   1      42.199  31.189  30.759  1.00  0.00     0.074 A 
ATOM     41  C   UNL A   1      41.028  32.031  30.664  1.00  0.00     0.031 C 
ATOM     42  C   UNL A   1      40.277  25.696  28.037  1.00  0.00     0.029 A 
ATOM     43  C   UNL A   1      41.599  26.014  28.568  1.00  0.00     0.049 A 
ATOM     44  H   UNL A   1      42.200  27.781  29.492  1.00  0.00     0.167 HD
ATOM     45  C   UNL A   1      43.376  31.578  31.308  1.00  0.00     0.031 A 
ATOM     46  C   UNL A   1      42.664  25.189  28.541  1.00  0.00     0.031 A 
ATOM     47  C   UNL A   1      44.539  30.736  31.404  1.00  0.00     0.049 A 
ATOM     48  C   UNL A   1      43.966  25.652  29.137  1.00  0.00     0.074 A 
ATOM     49  C   UNL A   1      45.760  31.023  31.990  1.00  0.00     0.029 A 
ATOM     50  N   UNL A   1      44.632  29.448  30.900  1.00  0.00    -0.354 N 
ATOM     51  N   UNL A   1      44.249  26.799  29.709  1.00  0.00    -0.248 NA
ATOM     52  C   UNL A   1      45.088  24.705  29.095  1.00  0.00     0.031 C 
ATOM     53  C   UNL A   1      46.610  29.931  31.785  1.00  0.00     0.029 A 
ATOM     54  C   UNL A   1      45.898  28.937  31.135  1.00  0.00     0.049 A 
ATOM     55  H   UNL A   1      43.905  28.967  30.442  1.00  0.00     0.167 HD
ATOM     56  C   UNL A   1      45.573  26.698  30.123  1.00  0.00     0.074 A 
ATOM     57  C   UNL A   1      46.028  25.374  29.750  1.00  0.00     0.031 C 
ATOM     58  C   UNL A   1      46.341  27.618  30.757  1.00  0.00     0.031 A 
BRANCH  45  59
ATOM     59  C   UNL A   1      43.465  32.986  31.840  1.00  0.00    -0.014 A 
ATOM     60  C   UNL A   1      43.826  34.060  31.005  1.00  0.00     0.010 A 
ATOM     61  C   UNL A   1      43.141  33.247  33.184  1.00  0.00     0.010 A 
ATOM     62  C   UNL A   1      43.902  35.360  31.514  1.00  0.00     0.020 A 
ATOM     63  C   UNL A   1      43.185  34.550  33.689  1.00  0.00     0.020 A 
ATOM     64  C   UNL A   1      43.582  35.596  32.855  1.00  0.00     0.054 A 
BRANCH  64  65
ATOM     65  S   UNL A   1      43.670  37.295  33.480  1.00  0.00     0.124 S 
ATOM     66  O   UNL A   1      43.794  38.066  32.245  1.00  0.00    -0.237 OA
ATOM     67  O   UNL A   1      42.399  37.442  34.186  1.00  0.00    -0.237 OA
ATOM     68  O   UNL A   1      44.856  37.292  34.333  1.00  0.00    -0.744 OA
ENDBRANCH  64  65
ENDBRANCH  45  59
BRANCH  46  69
ATOM     69  C   UNL A   1      42.541  23.832  27.937  1.00  0.00    -0.014 A 
ATOM     70  C   UNL A   1      42.907  23.609  26.597  1.00  0.00     0.010 A 
ATOM     71  C   UNL A   1      42.060  22.753  28.700  1.00  0.00     0.010 A 
ATOM     72  C   UNL A   1      42.776  22.339  26.028  1.00  0.00     0.020 A 
ATOM     73  C   UNL A   1      41.959  21.474  28.145  1.00  0.00     0.020 A 
ATOM     74  C   UNL A   1      42.305  21.279  26.807  1.00  0.00     0.054 A 
BRANCH  74  75
ATOM     75  S   UNL A   1      42.190  19.629  26.060  1.00  0.00     0.124 S 
ATOM     76  O   UNL A   1      42.662  18.771  27.144  1.00  0.00    -0.237 OA
ATOM     77  O   UNL A   1      40.767  19.526  25.744  1.00  0.00    -0.237 OA
ATOM     78  O   UNL A   1      43.074  19.716  24.900  1.00  0.00    -0.744 OA
ENDBRANCH  74  75
ENDBRANCH  46  69
BRANCH  58  79
ATOM     79  C   UNL A   1      47.746  27.215  31.128  1.00  0.00    -0.014 A 
ATOM     80  C   UNL A   1      48.839  27.511  30.296  1.00  0.00     0.010 A 
ATOM     81  C   UNL A   1      47.977  26.569  32.357  1.00  0.00     0.010 A 
ATOM     82  C   UNL A   1      50.133  27.135  30.668  1.00  0.00     0.020 A 
ATOM     83  C   UNL A   1      49.273  26.222  32.748  1.00  0.00     0.020 A 
ATOM     84  C   UNL A   1      50.341  26.493  31.893  1.00  0.00     0.054 A 
BRANCH  84  85
ATOM     85  S   UNL A   1      52.034  26.049  32.368  1.00  0.00     0.124 S 
ATOM     86  O   UNL A   1      51.806  25.049  33.408  1.00  0.00    -0.237 OA
ATOM     87  O   UNL A   1      52.593  25.539  31.118  1.00  0.00    -0.237 OA
ATOM     88  O   UNL A   1      52.608  27.310  32.831  1.00  0.00    -0.744 OA
ENDBRANCH  84  85
ENDBRANCH  58  79
ENDBRANCH  32  33
ENDBRANCH  24  27
ENDBRANCH  22  23
ENDBRANCH   1  22
TORSDOF 16
ENDMDL
MODEL 2
REMARK VINA RESULT:     -10.4      4.410     10.353
REMARK SMILES O=C(C[C@H]1CN(c2nc(C3CC3)ns2)CCO1)NCCCNC(=O)c1ccc(-c2c3nc(c(-c4ccc(S(=O)(=O)[O-])cc4)c4ccc([nH]4)c(-c4ccc(S(=O)(=O)[O-])cc4)c4nc(c(-c5ccc(S(=O)(=O)[O-])cc5)c5ccc2[nH]5)C=C4)C=C3)cc1
REMARK SMILES IDX 20 1 19 2 18 3 1 4 2 5 3 7 4 8 5 9 17 10 6 11 16 12 15 13
REMARK SMILES IDX 7 14 8 15 14 16 9 17 13 18 10 19 11 20 12 21 21 22 22 23
REMARK SMILES IDX 23 24 24 26 25 27 26 28 84 29 27 30 83 31 28 32 29 33 30 34
REMARK SMILES IDX 77 35 31 36 82 37 76 38 78 39 32 40 81 41 75 42 74 43 33 45
REMARK SMILES IDX 63 46 44 47 62 48 45 49 48 50 61 51 79 52 46 53 47 54 60 56
REMARK SMILES IDX 80 57 49 58 34 59 35 60 43 61 36 62 42 63 37 64 38 65 39 66
REMARK SMILES IDX 40 67 41 68 64 69 65 70 73 71 66 72 72 73 67 74 68 75 69 76
REMARK SMILES IDX 70 77 71 78 50 79 51 80 59 81 52 82 58 83 53 84 54 85 55 86
REMARK SMILES IDX 56 87 57 88
REMARK H PARENT 18 6 22 25 78 44 48 55
REMARK Flexibility Score: inf
ROOT
ATOM      1  C   UNL A   1      40.538  22.370  27.658  1.00  0.00     0.042 C 
ENDROOT
BRANCH   1   2
ATOM      2  C   UNL A   1      39.781  21.877  26.435  1.00  0.00     0.117 C 
BRANCH   2   3
ATOM      3  N   UNL A   1      38.468  22.467  26.313  1.00  0.00    -0.356 N 
ATOM      4  O   UNL A   1      37.671  20.990  24.752  1.00  0.00    -0.275 OA
ATOM      5  C   UNL A   1      37.482  21.927  25.522  1.00  0.00     0.222 C 
ATOM      6  H   UNL A   1      38.271  23.291  26.817  1.00  0.00     0.163 HD
BRANCH   5   7
ATOM      7  C   UNL A   1      36.136  22.606  25.639  1.00  0.00     0.133 C 
BRANCH   7   8
ATOM      8  C   UNL A   1      34.997  21.814  26.307  1.00  0.00     0.147 C 
ATOM      9  C   UNL A   1      33.851  22.711  26.820  1.00  0.00     0.151 C 
ATOM     10  O   UNL A   1      34.487  20.689  25.560  1.00  0.00    -0.374 OA
ATOM     11  N   UNL A   1      32.910  23.042  25.754  1.00  0.00    -0.342 N 
ATOM     12  C   UNL A   1      33.602  21.071  24.491  1.00  0.00     0.182 C 
ATOM     13  C   UNL A   1      32.413  21.909  24.982  1.00  0.00     0.147 C 
BRANCH  11  14
ATOM     14  C   UNL A   1      32.779  24.323  25.329  1.00  0.00     0.205 A 
ATOM     15  N   UNL A   1      31.668  25.023  25.371  1.00  0.00    -0.203 NA
ATOM     16  S   UNL A   1      34.047  25.229  24.564  1.00  0.00     0.004 S 
ATOM     17  C   UNL A   1      31.888  26.268  24.794  1.00  0.00     0.147 A 
ATOM     18  N   UNL A   1      33.070  26.539  24.240  1.00  0.00    -0.174 NA
BRANCH  17  19
ATOM     19  C   UNL A   1      30.794  27.336  24.784  1.00  0.00     0.059 C 
ATOM     20  C   UNL A   1      30.897  28.504  23.824  1.00  0.00     0.012 C 
ATOM     21  C   UNL A   1      29.896  27.427  23.567  1.00  0.00     0.012 C 
ENDBRANCH  17  19
ENDBRANCH  11  14
ENDBRANCH   7   8
ENDBRANCH   5   7
ENDBRANCH   2   3
ENDBRANCH   1   2
BRANCH   1  22
ATOM     22  C   UNL A   1      41.847  23.082  27.338  1.00  0.00     0.118 C 
BRANCH  22  23
ATOM     23  N   UNL A   1      41.759  23.961  26.179  1.00  0.00    -0.352 N 
ATOM     24  C   UNL A   1      41.496  25.309  26.110  1.00  0.00     0.251 C 
ATOM     25  H   UNL A   1      41.911  23.522  25.312  1.00  0.00     0.163 HD
ATOM     26  O   UNL A   1      41.332  25.836  25.012  1.00  0.00    -0.269 OA
BRANCH  24  27
ATOM     27  C   UNL A   1      41.382  26.118  27.344  1.00  0.00     0.039 A 
ATOM     28  C   UNL A   1      42.419  26.999  27.669  1.00  0.00     0.014 A 
ATOM     29  C   UNL A   1      40.270  26.014  28.182  1.00  0.00     0.014 A 
ATOM     30  C   UNL A   1      42.303  27.825  28.791  1.00  0.00     0.010 A 
ATOM     31  C   UNL A   1      40.118  26.896  29.250  1.00  0.00     0.010 A 
ATOM     32  C   UNL A   1      41.132  27.811  29.568  1.00  0.00    -0.014 A 
BRANCH  32  33
ATOM     33  C   UNL A   1      40.949  28.753  30.705  1.00  0.00     0.031 A 
ATOM     34  C   UNL A   1      41.799  28.631  31.941  1.00  0.00     0.074 A 
ATOM     35  C   UNL A   1      39.974  29.684  30.649  1.00  0.00     0.049 A 
ATOM     36  N   UNL A   1      41.751  29.330  33.047  1.00  0.00    -0.248 NA
ATOM     37  C   UNL A   1      42.823  27.574  31.946  1.00  0.00     0.031 C 
ATOM     38  C   UNL A   1      39.054  29.880  29.526  1.00  0.00     0.029 A 
ATOM     39  N   UNL A   1      39.589  30.636  31.561  1.00  0.00    -0.354 N 
ATOM     40  C   UNL A   1      42.723  28.788  33.881  1.00  0.00     0.074 A 
ATOM     41  C   UNL A   1      43.308  27.671  33.175  1.00  0.00     0.031 C 
ATOM     42  C   UNL A   1      38.236  30.909  29.802  1.00  0.00     0.029 A 
ATOM     43  C   UNL A   1      38.538  31.414  31.138  1.00  0.00     0.049 A 
ATOM     44  H   UNL A   1      40.027  30.751  32.435  1.00  0.00     0.167 HD
ATOM     45  C   UNL A   1      43.108  29.196  35.116  1.00  0.00     0.031 A 
ATOM     46  C   UNL A   1      37.881  32.416  31.755  1.00  0.00     0.031 A 
ATOM     47  C   UNL A   1      42.525  30.312  35.815  1.00  0.00     0.049 A 
ATOM     48  C   UNL A   1      38.311  32.836  33.134  1.00  0.00     0.074 A 
ATOM     49  C   UNL A   1      42.882  30.834  37.046  1.00  0.00     0.029 A 
ATOM     50  N   UNL A   1      41.463  31.073  35.351  1.00  0.00    -0.354 N 
ATOM     51  N   UNL A   1      39.279  32.354  33.878  1.00  0.00    -0.248 NA
ATOM     52  C   UNL A   1      37.571  33.945  33.751  1.00  0.00     0.031 C 
ATOM     53  C   UNL A   1      41.996  31.871  37.354  1.00  0.00     0.029 A 
ATOM     54  C   UNL A   1      41.133  32.043  36.284  1.00  0.00     0.049 A 
ATOM     55  H   UNL A   1      41.010  30.943  34.487  1.00  0.00     0.167 HD
ATOM     56  C   UNL A   1      39.281  33.121  35.038  1.00  0.00     0.074 A 
ATOM     57  C   UNL A   1      38.232  34.109  34.889  1.00  0.00     0.031 C 
ATOM     58  C   UNL A   1      40.084  33.019  36.127  1.00  0.00     0.031 A 
BRANCH  45  59
ATOM     59  C   UNL A   1      44.209  28.422  35.795  1.00  0.00    -0.014 A 
ATOM     60  C   UNL A   1      43.933  27.255  36.530  1.00  0.00     0.010 A 
ATOM     61  C   UNL A   1      45.545  28.843  35.660  1.00  0.00     0.010 A 
ATOM     62  C   UNL A   1      44.966  26.547  37.152  1.00  0.00     0.020 A 
ATOM     63  C   UNL A   1      46.584  28.121  36.254  1.00  0.00     0.020 A 
ATOM     64  C   UNL A   1      46.286  26.986  37.011  1.00  0.00     0.054 A 
BRANCH  64  65
ATOM     65  S   UNL A   1      47.607  26.036  37.811  1.00  0.00     0.124 S 
ATOM     66  O   UNL A   1      46.853  24.984  38.489  1.00  0.00    -0.237 OA
ATOM     67  O   UNL A   1      48.416  25.596  36.677  1.00  0.00    -0.237 OA
ATOM     68  O   UNL A   1      48.250  27.007  38.692  1.00  0.00    -0.744 OA
ENDBRANCH  64  65
ENDBRANCH  45  59
BRANCH  46  69
ATOM     69  C   UNL A   1      36.750  33.100  31.066  1.00  0.00    -0.014 A 
ATOM     70  C   UNL A   1      36.988  33.952  29.972  1.00  0.00     0.010 A 
ATOM     71  C   UNL A   1      35.426  32.900  31.498  1.00  0.00     0.010 A 
ATOM     72  C   UNL A   1      35.927  34.605  29.338  1.00  0.00     0.020 A 
ATOM     73  C   UNL A   1      34.359  33.525  30.845  1.00  0.00     0.020 A 
ATOM     74  C   UNL A   1      34.619  34.384  29.777  1.00  0.00     0.054 A 
BRANCH  74  75
ATOM     75  S   UNL A   1      33.255  35.205  28.906  1.00  0.00     0.124 S 
ATOM     76  O   UNL A   1      32.717  34.119  28.091  1.00  0.00    -0.237 OA
ATOM     77  O   UNL A   1      32.403  35.652  30.006  1.00  0.00    -0.237 OA
ATOM     78  O   UNL A   1      33.917  36.276  28.166  1.00  0.00    -0.744 OA
ENDBRANCH  74  75
ENDBRANCH  46  69
BRANCH  58  79
ATOM     79  C   UNL A   1      39.888  34.026  37.231  1.00  0.00    -0.014 A 
ATOM     80  C   UNL A   1      40.450  35.313  37.160  1.00  0.00     0.010 A 
ATOM     81  C   UNL A   1      39.086  33.691  38.337  1.00  0.00     0.010 A 
ATOM     82  C   UNL A   1      40.245  36.232  38.194  1.00  0.00     0.020 A 
ATOM     83  C   UNL A   1      38.851  34.618  39.356  1.00  0.00     0.020 A 
ATOM     84  C   UNL A   1      39.445  35.879  39.284  1.00  0.00     0.054 A 
BRANCH  84  85
ATOM     85  S   UNL A   1      39.165  37.101  40.594  1.00  0.00     0.124 S 
ATOM     86  O   UNL A   1      38.546  36.292  41.640  1.00  0.00    -0.237 OA
ATOM     87  O   UNL A   1      40.516  37.576  40.883  1.00  0.00    -0.237 OA
ATOM     88  O   UNL A   1      38.287  38.087  39.967  1.00  0.00    -0.744 OA
ENDBRANCH  84  85
ENDBRANCH  58  79
ENDBRANCH  32  33
ENDBRANCH  24  27
ENDBRANCH  22  23
ENDBRANCH   1  22
TORSDOF 16
ENDMDL
MODEL 3
REMARK VINA RESULT:     -10.4      1.074      8.429
REMARK SMILES O=C(C[C@H]1CN(c2nc(C3CC3)ns2)CCO1)NCCCNC(=O)c1ccc(-c2c3nc(c(-c4ccc(S(=O)(=O)[O-])cc4)c4ccc([nH]4)c(-c4ccc(S(=O)(=O)[O-])cc4)c4nc(c(-c5ccc(S(=O)(=O)[O-])cc5)c5ccc2[nH]5)C=C4)C=C3)cc1
REMARK SMILES IDX 20 1 19 2 18 3 1 4 2 5 3 7 4 8 5 9 17 10 6 11 16 12 15 13
REMARK SMILES IDX 7 14 8 15 14 16 9 17 13 18 10 19 11 20 12 21 21 22 22 23
REMARK SMILES IDX 23 24 24 26 25 27 26 28 84 29 27 30 83 31 28 32 29 33 30 34
REMARK SMILES IDX 77 35 31 36 82 37 76 38 78 39 32 40 81 41 75 42 74 43 33 45
REMARK SMILES IDX 63 46 44 47 62 48 45 49 48 50 61 51 79 52 46 53 47 54 60 56
REMARK SMILES IDX 80 57 49 58 34 59 35 60 43 61 36 62 42 63 37 64 38 65 39 66
REMARK SMILES IDX 40 67 41 68 64 69 65 70 73 71 66 72 72 73 67 74 68 75 69 76
REMARK SMILES IDX 70 77 71 78 50 79 51 80 59 81 52 82 58 83 53 84 54 85 55 86
REMARK SMILES IDX 56 87 57 88
REMARK H PARENT 18 6 22 25 78 44 48 55
REMARK Flexibility Score: inf
ROOT
ATOM      1  C   UNL A   1      33.768  28.274  24.884  1.00  0.00     0.042 C 
ENDROOT
BRANCH   1   2
ATOM      2  C   UNL A   1      32.762  27.299  24.294  1.00  0.00     0.117 C 
BRANCH   2   3
ATOM      3  N   UNL A   1      33.182  25.921  24.412  1.00  0.00    -0.356 N 
ATOM      4  O   UNL A   1      33.668  25.614  22.194  1.00  0.00    -0.275 OA
ATOM      5  C   UNL A   1      33.673  25.201  23.350  1.00  0.00     0.222 C 
ATOM      6  H   UNL A   1      33.113  25.479  25.290  1.00  0.00     0.163 HD
BRANCH   5   7
ATOM      7  C   UNL A   1      34.193  23.827  23.704  1.00  0.00     0.133 C 
BRANCH   7   8
ATOM      8  C   UNL A   1      35.015  23.690  24.999  1.00  0.00     0.147 C 
ATOM      9  C   UNL A   1      34.548  22.524  25.896  1.00  0.00     0.151 C 
ATOM     10  O   UNL A   1      36.449  23.686  24.839  1.00  0.00    -0.374 OA
ATOM     11  N   UNL A   1      35.128  21.253  25.469  1.00  0.00    -0.342 N 
ATOM     12  C   UNL A   1      36.965  22.426  24.372  1.00  0.00     0.182 C 
ATOM     13  C   UNL A   1      36.574  21.255  25.283  1.00  0.00     0.147 C 
BRANCH  11  14
ATOM     14  C   UNL A   1      34.334  20.268  24.981  1.00  0.00     0.205 A 
ATOM     15  N   UNL A   1      34.702  19.018  24.809  1.00  0.00    -0.203 NA
ATOM     16  S   UNL A   1      32.715  20.517  24.408  1.00  0.00     0.004 S 
ATOM     17  C   UNL A   1      33.656  18.308  24.231  1.00  0.00     0.147 A 
ATOM     18  N   UNL A   1      32.542  18.948  23.875  1.00  0.00    -0.174 NA
BRANCH  17  19
ATOM     19  C   UNL A   1      33.762  16.801  23.997  1.00  0.00     0.059 C 
ATOM     20  C   UNL A   1      34.558  15.948  24.963  1.00  0.00     0.012 C 
ATOM     21  C   UNL A   1      33.067  15.876  24.976  1.00  0.00     0.012 C 
ENDBRANCH  17  19
ENDBRANCH  11  14
ENDBRANCH   7   8
ENDBRANCH   5   7
ENDBRANCH   2   3
ENDBRANCH   1   2
BRANCH   1  22
ATOM     22  C   UNL A   1      33.839  28.253  26.407  1.00  0.00     0.118 C 
BRANCH  22  23
ATOM     23  N   UNL A   1      33.603  29.556  27.016  1.00  0.00    -0.352 N 
ATOM     24  C   UNL A   1      34.417  30.317  27.820  1.00  0.00     0.251 C 
ATOM     25  H   UNL A   1      32.723  29.952  26.821  1.00  0.00     0.163 HD
ATOM     26  O   UNL A   1      33.969  31.335  28.343  1.00  0.00    -0.269 OA
BRANCH  24  27
ATOM     27  C   UNL A   1      35.815  29.905  28.082  1.00  0.00     0.039 A 
ATOM     28  C   UNL A   1      36.752  30.007  27.049  1.00  0.00     0.014 A 
ATOM     29  C   UNL A   1      36.206  29.415  29.330  1.00  0.00     0.014 A 
ATOM     30  C   UNL A   1      38.092  29.691  27.291  1.00  0.00     0.010 A 
ATOM     31  C   UNL A   1      37.555  29.181  29.593  1.00  0.00     0.010 A 
ATOM     32  C   UNL A   1      38.513  29.315  28.578  1.00  0.00    -0.014 A 
BRANCH  32  33
ATOM     33  C   UNL A   1      39.949  29.072  28.879  1.00  0.00     0.031 A 
ATOM     34  C   UNL A   1      40.580  27.741  28.568  1.00  0.00     0.074 A 
ATOM     35  C   UNL A   1      40.674  30.032  29.489  1.00  0.00     0.049 A 
ATOM     36  N   UNL A   1      41.801  27.332  28.802  1.00  0.00    -0.248 NA
ATOM     37  C   UNL A   1      39.722  26.729  27.930  1.00  0.00     0.031 C 
ATOM     38  C   UNL A   1      40.172  31.352  29.883  1.00  0.00     0.029 A 
ATOM     39  N   UNL A   1      41.987  30.046  29.893  1.00  0.00    -0.354 N 
ATOM     40  C   UNL A   1      41.853  26.016  28.356  1.00  0.00     0.074 A 
ATOM     41  C   UNL A   1      40.528  25.678  27.886  1.00  0.00     0.031 C 
ATOM     42  C   UNL A   1      41.172  32.055  30.439  1.00  0.00     0.029 A 
ATOM     43  C   UNL A   1      42.371  31.224  30.488  1.00  0.00     0.049 A 
ATOM     44  H   UNL A   1      42.596  29.283  29.766  1.00  0.00     0.167 HD
ATOM     45  C   UNL A   1      42.913  25.171  28.322  1.00  0.00     0.031 A 
ATOM     46  C   UNL A   1      43.551  31.596  31.023  1.00  0.00     0.031 A 
ATOM     47  C   UNL A   1      44.232  25.512  28.787  1.00  0.00     0.049 A 
ATOM     48  C   UNL A   1      44.706  30.633  30.993  1.00  0.00     0.074 A 
ATOM     49  C   UNL A   1      45.381  24.742  28.746  1.00  0.00     0.029 A 
ATOM     50  N   UNL A   1      44.578  26.715  29.382  1.00  0.00    -0.354 N 
ATOM     51  N   UNL A   1      44.752  29.415  30.504  1.00  0.00    -0.248 NA
ATOM     52  C   UNL A   1      45.972  31.098  31.574  1.00  0.00     0.031 C 
ATOM     53  C   UNL A   1      46.408  25.456  29.373  1.00  0.00     0.029 A 
ATOM     54  C   UNL A   1      45.917  26.698  29.739  1.00  0.00     0.049 A 
ATOM     55  H   UNL A   1      43.963  27.470  29.529  1.00  0.00     0.167 HD
ATOM     56  C   UNL A   1      46.060  28.982  30.693  1.00  0.00     0.074 A 
ATOM     57  C   UNL A   1      46.776  30.073  31.324  1.00  0.00     0.031 C 
ATOM     58  C   UNL A   1      46.619  27.789  30.369  1.00  0.00     0.031 A 
BRANCH  45  59
ATOM     59  C   UNL A   1      42.684  23.787  27.768  1.00  0.00    -0.014 A 
ATOM     60  C   UNL A   1      43.201  23.409  26.515  1.00  0.00     0.010 A 
ATOM     61  C   UNL A   1      41.980  22.837  28.530  1.00  0.00     0.010 A 
ATOM     62  C   UNL A   1      42.982  22.121  26.017  1.00  0.00     0.020 A 
ATOM     63  C   UNL A   1      41.786  21.538  28.050  1.00  0.00     0.020 A 
ATOM     64  C   UNL A   1      42.274  21.194  26.788  1.00  0.00     0.054 A 
BRANCH  64  65
ATOM     65  S   UNL A   1      42.025  19.525  26.125  1.00  0.00     0.124 S 
ATOM     66  O   UNL A   1      42.937  19.514  24.984  1.00  0.00    -0.237 OA
ATOM     67  O   UNL A   1      42.414  18.674  27.247  1.00  0.00    -0.237 OA
ATOM     68  O   UNL A   1      40.604  19.493  25.786  1.00  0.00    -0.744 OA
ENDBRANCH  64  65
ENDBRANCH  45  59
BRANCH  46  69
ATOM     69  C   UNL A   1      43.702  32.952  31.623  1.00  0.00    -0.014 A 
ATOM     70  C   UNL A   1      43.468  33.158  32.995  1.00  0.00     0.010 A 
ATOM     71  C   UNL A   1      44.087  34.045  30.826  1.00  0.00     0.010 A 
ATOM     72  C   UNL A   1      43.596  34.434  33.552  1.00  0.00     0.020 A 
ATOM     73  C   UNL A   1      44.248  35.316  31.386  1.00  0.00     0.020 A 
ATOM     74  C   UNL A   1      43.989  35.504  32.744  1.00  0.00     0.054 A 
BRANCH  74  75
ATOM     75  S   UNL A   1      44.195  37.140  33.501  1.00  0.00     0.124 S 
ATOM     76  O   UNL A   1      42.993  37.248  34.323  1.00  0.00    -0.237 OA
ATOM     77  O   UNL A   1      45.451  36.992  34.232  1.00  0.00    -0.237 OA
ATOM     78  O   UNL A   1      44.253  38.043  32.354  1.00  0.00    -0.744 OA
ENDBRANCH  74  75
ENDBRANCH  46  69
BRANCH  58  79
ATOM     79  C   UNL A   1      48.088  27.610  30.653  1.00  0.00    -0.014 A 
ATOM     80  C   UNL A   1      48.550  27.241  31.928  1.00  0.00     0.010 A 
ATOM     81  C   UNL A   1      49.018  27.767  29.608  1.00  0.00     0.010 A 
ATOM     82  C   UNL A   1      49.918  27.071  32.163  1.00  0.00     0.020 A 
ATOM     83  C   UNL A   1      50.382  27.565  29.831  1.00  0.00     0.020 A 
ATOM     84  C   UNL A   1      50.825  27.233  31.111  1.00  0.00     0.054 A 
BRANCH  84  85
ATOM     85  S   UNL A   1      52.590  26.971  31.433  1.00  0.00     0.124 S 
ATOM     86  O   UNL A   1      52.685  25.514  31.448  1.00  0.00    -0.237 OA
ATOM     87  O   UNL A   1      53.224  27.630  30.294  1.00  0.00    -0.237 OA
ATOM     88  O   UNL A   1      52.810  27.623  32.722  1.00  0.00    -0.744 OA
ENDBRANCH  84  85
ENDBRANCH  58  79
ENDBRANCH  32  33
ENDBRANCH  24  27
ENDBRANCH  22  23
ENDBRANCH   1  22
TORSDOF 16
ENDMDL
