MODEL 1
REMARK VINA RESULT:     -11.1      0.000      0.000
REMARK SMILES COc1ccc(C(=O)Nc2cccc(C(=O)NCCCNC(=O)c3ccc(-c4c5nc(c(-c6ccc(S(=O)(=O)[O-])cc6)c6ccc([nH]6)c(-c6ccc(S(=O)(=O)[O-])cc6)c6nc(c(-c7ccc(S(=O)(=O)[O-])cc7)c7ccc4[nH]7)C=C6)C=C5)cc3)c2)cc1
REMARK SMILES IDX 19 1 18 2 17 3 15 4 16 5 14 7 10 8 11 9 84 10 12 11 13 12
REMARK SMILES IDX 9 13 7 14 8 15 6 17 3 18 4 19 86 20 5 21 85 22 2 23 1 24
REMARK SMILES IDX 20 25 21 26 22 27 23 29 24 30 25 31 83 32 26 33 82 34 27 35
REMARK SMILES IDX 28 36 29 37 76 38 30 39 81 40 75 41 77 42 31 43 80 44 74 45
REMARK SMILES IDX 73 46 32 48 62 49 43 50 61 51 44 52 47 53 60 54 78 55 45 56
REMARK SMILES IDX 46 57 59 59 79 60 48 61 33 62 34 63 42 64 35 65 41 66 36 67
REMARK SMILES IDX 37 68 38 69 39 70 40 71 63 72 64 73 72 74 65 75 71 76 66 77
REMARK SMILES IDX 67 78 68 79 69 80 70 81 49 82 50 83 58 84 51 85 57 86 52 87
REMARK SMILES IDX 53 88 54 89 55 90 56 91
REMARK H PARENT 17 6 9 16 21 28 77 47 47 58
REMARK Flexibility Score: inf
ROOT
ATOM      1  C   UNL A   1      32.769  27.956  25.826  1.00  0.00     0.042 C 
ENDROOT
BRANCH   1   2
ATOM      2  C   UNL A   1      32.428  26.769  26.717  1.00  0.00     0.118 C 
BRANCH   2   3
ATOM      3  N   UNL A   1      30.996  26.561  26.800  1.00  0.00    -0.352 N 
ATOM      4  C   UNL A   1      30.174  25.541  26.394  1.00  0.00     0.251 C 
ATOM      5  O   UNL A   1      28.977  25.647  26.664  1.00  0.00    -0.269 OA
ATOM      6  H   UNL A   1      30.516  27.302  27.236  1.00  0.00     0.163 HD
BRANCH   4   7
ATOM      7  C   UNL A   1      30.652  24.295  25.723  1.00  0.00     0.041 A 
ATOM      8  C   UNL A   1      31.601  23.047  23.874  1.00  0.00     0.042 A 
ATOM      9  C   UNL A   1      31.716  21.909  24.667  1.00  0.00     0.026 A 
ATOM     10  C   UNL A   1      30.963  24.187  24.368  1.00  0.00     0.040 A 
ATOM     11  C   UNL A   1      31.340  21.971  26.006  1.00  0.00     0.003 A 
ATOM     12  C   UNL A   1      30.844  23.165  26.536  1.00  0.00     0.014 A 
BRANCH   8  13
ATOM     13  N   UNL A   1      32.222  23.049  22.617  1.00  0.00    -0.322 N 
ATOM     14  C   UNL A   1      33.517  23.405  22.280  1.00  0.00     0.255 C 
ATOM     15  O   UNL A   1      33.800  23.555  21.092  1.00  0.00    -0.269 OA
ATOM     16  H   UNL A   1      31.656  22.753  21.868  1.00  0.00     0.170 HD
BRANCH  14  17
ATOM     17  C   UNL A   1      34.622  23.499  23.293  1.00  0.00     0.040 A 
ATOM     18  C   UNL A   1      36.784  23.620  25.116  1.00  0.00     0.118 A 
ATOM     19  C   UNL A   1      36.809  22.733  24.037  1.00  0.00     0.047 A 
ATOM     20  C   UNL A   1      35.651  24.406  25.316  1.00  0.00     0.047 A 
ATOM     21  C   UNL A   1      35.743  22.676  23.129  1.00  0.00     0.017 A 
ATOM     22  C   UNL A   1      34.564  24.314  24.432  1.00  0.00     0.017 A 
BRANCH  18  23
ATOM     23  O   UNL A   1      37.907  23.619  25.895  1.00  0.00    -0.497 OA
ATOM     24  C   UNL A   1      38.619  22.392  26.005  1.00  0.00     0.278 C 
ENDBRANCH  18  23
ENDBRANCH  14  17
ENDBRANCH   8  13
ENDBRANCH   4   7
ENDBRANCH   2   3
ENDBRANCH   1   2
BRANCH   1  25
ATOM     25  C   UNL A   1      34.109  28.574  26.194  1.00  0.00     0.118 C 
BRANCH  25  26
ATOM     26  N   UNL A   1      33.949  29.915  26.745  1.00  0.00    -0.352 N 
ATOM     27  C   UNL A   1      34.721  30.581  27.663  1.00  0.00     0.251 C 
ATOM     28  H   UNL A   1      33.170  30.416  26.409  1.00  0.00     0.163 HD
ATOM     29  O   UNL A   1      34.307  31.615  28.174  1.00  0.00    -0.269 OA
BRANCH  27  30
ATOM     30  C   UNL A   1      36.043  30.037  28.038  1.00  0.00     0.039 A 
ATOM     31  C   UNL A   1      37.092  30.105  27.118  1.00  0.00     0.014 A 
ATOM     32  C   UNL A   1      36.239  29.459  29.294  1.00  0.00     0.014 A 
ATOM     33  C   UNL A   1      38.357  29.642  27.484  1.00  0.00     0.010 A 
ATOM     34  C   UNL A   1      37.517  29.086  29.687  1.00  0.00     0.010 A 
ATOM     35  C   UNL A   1      38.586  29.157  28.781  1.00  0.00    -0.014 A 
BRANCH  35  36
ATOM     36  C   UNL A   1      39.922  28.680  29.215  1.00  0.00     0.031 A 
ATOM     37  C   UNL A   1      40.834  29.618  29.963  1.00  0.00     0.074 A 
ATOM     38  C   UNL A   1      40.341  27.445  28.875  1.00  0.00     0.049 A 
ATOM     39  N   UNL A   1      42.082  29.451  30.311  1.00  0.00    -0.248 NA
ATOM     40  C   UNL A   1      40.276  30.930  30.341  1.00  0.00     0.031 C 
ATOM     41  C   UNL A   1      39.559  26.456  28.129  1.00  0.00     0.029 A 
ATOM     42  N   UNL A   1      41.539  26.814  29.101  1.00  0.00    -0.354 N 
ATOM     43  C   UNL A   1      42.463  30.637  30.930  1.00  0.00     0.074 A 
ATOM     44  C   UNL A   1      41.334  31.537  30.857  1.00  0.00     0.031 C 
ATOM     45  C   UNL A   1      40.291  25.340  27.974  1.00  0.00     0.029 A 
ATOM     46  C   UNL A   1      41.609  25.550  28.563  1.00  0.00     0.049 A 
ATOM     47  H   UNL A   1      42.280  27.229  29.600  1.00  0.00     0.167 HD
ATOM     48  C   UNL A   1      43.638  30.940  31.528  1.00  0.00     0.031 A 
ATOM     49  C   UNL A   1      42.627  24.668  28.533  1.00  0.00     0.031 A 
ATOM     50  C   UNL A   1      44.749  30.032  31.614  1.00  0.00     0.049 A 
ATOM     51  C   UNL A   1      43.934  25.042  29.184  1.00  0.00     0.074 A 
ATOM     52  C   UNL A   1      45.972  30.228  32.230  1.00  0.00     0.029 A 
ATOM     53  N   UNL A   1      44.769  28.753  31.079  1.00  0.00    -0.354 N 
ATOM     54  N   UNL A   1      44.260  26.153  29.800  1.00  0.00    -0.248 NA
ATOM     55  C   UNL A   1      45.007  24.037  29.146  1.00  0.00     0.031 C 
ATOM     56  C   UNL A   1      46.751  29.086  32.026  1.00  0.00     0.029 A 
ATOM     57  C   UNL A   1      45.987  28.153  31.342  1.00  0.00     0.049 A 
ATOM     58  H   UNL A   1      44.027  28.335  30.586  1.00  0.00     0.167 HD
ATOM     59  C   UNL A   1      45.558  25.962  30.263  1.00  0.00     0.074 A 
ATOM     60  C   UNL A   1      45.954  24.629  29.861  1.00  0.00     0.031 C 
ATOM     61  C   UNL A   1      46.351  26.812  30.959  1.00  0.00     0.031 A 
BRANCH  48  62
ATOM     62  C   UNL A   1      43.780  32.304  32.149  1.00  0.00    -0.014 A 
ATOM     63  C   UNL A   1      44.109  33.424  31.365  1.00  0.00     0.010 A 
ATOM     64  C   UNL A   1      43.510  32.482  33.519  1.00  0.00     0.010 A 
ATOM     65  C   UNL A   1      44.192  34.693  31.943  1.00  0.00     0.020 A 
ATOM     66  C   UNL A   1      43.561  33.756  34.094  1.00  0.00     0.020 A 
ATOM     67  C   UNL A   1      43.911  34.851  33.304  1.00  0.00     0.054 A 
BRANCH  67  68
ATOM     68  S   UNL A   1      43.969  36.521  34.010  1.00  0.00     0.124 S 
ATOM     69  O   UNL A   1      44.497  36.265  35.347  1.00  0.00    -0.237 OA
ATOM     70  O   UNL A   1      44.874  37.220  33.100  1.00  0.00    -0.237 OA
ATOM     71  O   UNL A   1      42.578  36.966  33.964  1.00  0.00    -0.744 OA
ENDBRANCH  67  68
ENDBRANCH  48  62
BRANCH  49  72
ATOM     72  C   UNL A   1      42.463  23.348  27.861  1.00  0.00    -0.014 A 
ATOM     73  C   UNL A   1      41.827  22.281  28.521  1.00  0.00     0.010 A 
ATOM     74  C   UNL A   1      42.971  23.140  26.565  1.00  0.00     0.010 A 
ATOM     75  C   UNL A   1      41.747  21.021  27.919  1.00  0.00     0.020 A 
ATOM     76  C   UNL A   1      42.861  21.893  25.945  1.00  0.00     0.020 A 
ATOM     77  C   UNL A   1      42.269  20.834  26.636  1.00  0.00     0.054 A 
BRANCH  77  78
ATOM     78  S   UNL A   1      42.154  19.191  25.874  1.00  0.00     0.124 S 
ATOM     79  O   UNL A   1      43.003  19.345  24.697  1.00  0.00    -0.237 OA
ATOM     80  O   UNL A   1      42.677  18.320  26.922  1.00  0.00    -0.237 OA
ATOM     81  O   UNL A   1      40.726  19.041  25.601  1.00  0.00    -0.744 OA
ENDBRANCH  77  78
ENDBRANCH  49  72
BRANCH  61  82
ATOM     82  C   UNL A   1      47.699  26.311  31.402  1.00  0.00    -0.014 A 
ATOM     83  C   UNL A   1      47.936  25.904  32.726  1.00  0.00     0.010 A 
ATOM     84  C   UNL A   1      48.724  26.170  30.447  1.00  0.00     0.010 A 
ATOM     85  C   UNL A   1      49.181  25.386  33.091  1.00  0.00     0.020 A 
ATOM     86  C   UNL A   1      49.958  25.624  30.801  1.00  0.00     0.020 A 
ATOM     87  C   UNL A   1      50.182  25.245  32.125  1.00  0.00     0.054 A 
BRANCH  87  88
ATOM     88  S   UNL A   1      51.767  24.509  32.612  1.00  0.00     0.124 S 
ATOM     89  O   UNL A   1      51.787  24.754  34.051  1.00  0.00    -0.237 OA
ATOM     90  O   UNL A   1      51.606  23.112  32.214  1.00  0.00    -0.237 OA
ATOM     91  O   UNL A   1      52.752  25.262  31.838  1.00  0.00    -0.744 OA
ENDBRANCH  87  88
ENDBRANCH  61  82
ENDBRANCH  35  36
ENDBRANCH  27  30
ENDBRANCH  25  26
ENDBRANCH   1  25
TORSDOF 16
ENDMDL
MODEL 2
REMARK VINA RESULT:     -11.1      1.421      2.115
REMARK SMILES COc1ccc(C(=O)Nc2cccc(C(=O)NCCCNC(=O)c3ccc(-c4c5nc(c(-c6ccc(S(=O)(=O)[O-])cc6)c6ccc([nH]6)c(-c6ccc(S(=O)(=O)[O-])cc6)c6nc(c(-c7ccc(S(=O)(=O)[O-])cc7)c7ccc4[nH]7)C=C6)C=C5)cc3)c2)cc1
REMARK SMILES IDX 19 1 18 2 17 3 15 4 16 5 14 7 10 8 11 9 84 10 12 11 13 12
REMARK SMILES IDX 9 13 7 14 8 15 6 17 3 18 4 19 86 20 5 21 85 22 2 23 1 24
REMARK SMILES IDX 20 25 21 26 22 27 23 29 24 30 25 31 83 32 26 33 82 34 27 35
REMARK SMILES IDX 28 36 29 37 76 38 30 39 81 40 75 41 77 42 31 43 80 44 74 45
REMARK SMILES IDX 73 46 32 48 62 49 43 50 61 51 44 52 47 53 60 54 78 55 45 56
REMARK SMILES IDX 46 57 59 59 79 60 48 61 33 62 34 63 42 64 35 65 41 66 36 67
REMARK SMILES IDX 37 68 38 69 39 70 40 71 63 72 64 73 72 74 65 75 71 76 66 77
REMARK SMILES IDX 67 78 68 79 69 80 70 81 49 82 50 83 58 84 51 85 57 86 52 87
REMARK SMILES IDX 53 88 54 89 55 90 56 91
REMARK H PARENT 17 6 9 16 21 28 77 47 47 58
REMARK Flexibility Score: inf
ROOT
ATOM      1  C   UNL A   1      33.894  27.896  25.881  1.00  0.00     0.042 C 
ENDROOT
BRANCH   1   2
ATOM      2  C   UNL A   1      33.616  29.007  24.878  1.00  0.00     0.118 C 
BRANCH   2   3
ATOM      3  N   UNL A   1      34.020  28.627  23.539  1.00  0.00    -0.352 N 
ATOM      4  C   UNL A   1      33.533  27.715  22.639  1.00  0.00     0.251 C 
ATOM      5  O   UNL A   1      34.084  27.667  21.538  1.00  0.00    -0.269 OA
ATOM      6  H   UNL A   1      34.803  29.125  23.209  1.00  0.00     0.163 HD
BRANCH   4   7
ATOM      7  C   UNL A   1      32.344  26.845  22.887  1.00  0.00     0.041 A 
ATOM      8  C   UNL A   1      31.193  24.714  22.996  1.00  0.00     0.042 A 
ATOM      9  C   UNL A   1      30.090  25.311  23.598  1.00  0.00     0.026 A 
ATOM     10  C   UNL A   1      32.255  25.498  22.537  1.00  0.00     0.040 A 
ATOM     11  C   UNL A   1      30.126  26.673  23.888  1.00  0.00     0.003 A 
ATOM     12  C   UNL A   1      31.259  27.424  23.564  1.00  0.00     0.014 A 
BRANCH   8  13
ATOM     13  N   UNL A   1      31.251  23.314  22.952  1.00  0.00    -0.322 N 
ATOM     14  C   UNL A   1      32.338  22.476  23.139  1.00  0.00     0.255 C 
ATOM     15  O   UNL A   1      32.230  21.288  22.833  1.00  0.00    -0.269 OA
ATOM     16  H   UNL A   1      30.398  22.862  22.763  1.00  0.00     0.170 HD
BRANCH  14  17
ATOM     17  C   UNL A   1      33.605  22.927  23.807  1.00  0.00     0.040 A 
ATOM     18  C   UNL A   1      35.936  23.755  25.183  1.00  0.00     0.118 A 
ATOM     19  C   UNL A   1      34.700  23.716  25.833  1.00  0.00     0.047 A 
ATOM     20  C   UNL A   1      35.995  23.434  23.829  1.00  0.00     0.047 A 
ATOM     21  C   UNL A   1      33.545  23.300  25.156  1.00  0.00     0.017 A 
ATOM     22  C   UNL A   1      34.830  23.063  23.140  1.00  0.00     0.017 A 
BRANCH  18  23
ATOM     23  O   UNL A   1      36.993  24.123  25.967  1.00  0.00    -0.497 OA
ATOM     24  C   UNL A   1      38.052  23.185  26.111  1.00  0.00     0.278 C 
ENDBRANCH  18  23
ENDBRANCH  14  17
ENDBRANCH   8  13
ENDBRANCH   4   7
ENDBRANCH   2   3
ENDBRANCH   1   2
BRANCH   1  25
ATOM     25  C   UNL A   1      33.396  28.252  27.274  1.00  0.00     0.118 C 
BRANCH  25  26
ATOM     26  N   UNL A   1      33.295  29.696  27.454  1.00  0.00    -0.352 N 
ATOM     27  C   UNL A   1      34.194  30.572  28.009  1.00  0.00     0.251 C 
ATOM     28  H   UNL A   1      32.458  30.101  27.130  1.00  0.00     0.163 HD
ATOM     29  O   UNL A   1      33.844  31.715  28.280  1.00  0.00    -0.269 OA
BRANCH  27  30
ATOM     30  C   UNL A   1      35.573  30.124  28.289  1.00  0.00     0.039 A 
ATOM     31  C   UNL A   1      36.519  30.155  27.262  1.00  0.00     0.014 A 
ATOM     32  C   UNL A   1      35.926  29.671  29.562  1.00  0.00     0.014 A 
ATOM     33  C   UNL A   1      37.839  29.783  27.532  1.00  0.00     0.010 A 
ATOM     34  C   UNL A   1      37.255  29.393  29.850  1.00  0.00     0.010 A 
ATOM     35  C   UNL A   1      38.222  29.430  28.835  1.00  0.00    -0.014 A 
BRANCH  35  36
ATOM     36  C   UNL A   1      39.618  29.054  29.166  1.00  0.00     0.031 A 
ATOM     37  C   UNL A   1      40.533  30.082  29.780  1.00  0.00     0.074 A 
ATOM     38  C   UNL A   1      40.081  27.828  28.849  1.00  0.00     0.049 A 
ATOM     39  N   UNL A   1      41.816  30.005  30.019  1.00  0.00    -0.248 NA
ATOM     40  C   UNL A   1      39.932  31.377  30.144  1.00  0.00     0.031 C 
ATOM     41  C   UNL A   1      39.299  26.758  28.227  1.00  0.00     0.029 A 
ATOM     42  N   UNL A   1      41.331  27.280  28.993  1.00  0.00    -0.354 N 
ATOM     43  C   UNL A   1      42.176  31.242  30.541  1.00  0.00     0.074 A 
ATOM     44  C   UNL A   1      40.992  32.071  30.530  1.00  0.00     0.031 C 
ATOM     45  C   UNL A   1      40.081  25.679  28.059  1.00  0.00     0.029 A 
ATOM     46  C   UNL A   1      41.431  25.995  28.513  1.00  0.00     0.049 A 
ATOM     47  H   UNL A   1      42.086  27.763  29.401  1.00  0.00     0.167 HD
ATOM     48  C   UNL A   1      43.379  31.644  31.013  1.00  0.00     0.031 A 
ATOM     49  C   UNL A   1      42.495  25.172  28.431  1.00  0.00     0.031 A 
ATOM     50  C   UNL A   1      44.547  30.808  31.040  1.00  0.00     0.049 A 
ATOM     51  C   UNL A   1      43.829  25.655  28.939  1.00  0.00     0.074 A 
ATOM     52  C   UNL A   1      45.806  31.106  31.530  1.00  0.00     0.029 A 
ATOM     53  N   UNL A   1      44.598  29.505  30.567  1.00  0.00    -0.354 N 
ATOM     54  N   UNL A   1      44.139  26.814  29.468  1.00  0.00    -0.248 NA
ATOM     55  C   UNL A   1      44.955  24.713  28.851  1.00  0.00     0.031 C 
ATOM     56  C   UNL A   1      46.633  30.001  31.310  1.00  0.00     0.029 A 
ATOM     57  C   UNL A   1      45.870  28.990  30.745  1.00  0.00     0.049 A 
ATOM     58  H   UNL A   1      43.843  29.019  30.166  1.00  0.00     0.167 HD
ATOM     59  C   UNL A   1      45.483  26.723  29.818  1.00  0.00     0.074 A 
ATOM     60  C   UNL A   1      45.923  25.396  29.446  1.00  0.00     0.031 C 
ATOM     61  C   UNL A   1      46.281  27.654  30.396  1.00  0.00     0.031 A 
BRANCH  48  62
ATOM     62  C   UNL A   1      43.491  33.046  31.552  1.00  0.00    -0.014 A 
ATOM     63  C   UNL A   1      43.363  33.303  32.928  1.00  0.00     0.010 A 
ATOM     64  C   UNL A   1      43.799  34.108  30.682  1.00  0.00     0.010 A 
ATOM     65  C   UNL A   1      43.514  34.600  33.423  1.00  0.00     0.020 A 
ATOM     66  C   UNL A   1      43.982  35.403  31.178  1.00  0.00     0.020 A 
ATOM     67  C   UNL A   1      43.829  35.641  32.545  1.00  0.00     0.054 A 
BRANCH  67  68
ATOM     68  S   UNL A   1      44.078  37.303  33.228  1.00  0.00     0.124 S 
ATOM     69  O   UNL A   1      42.823  37.527  33.942  1.00  0.00    -0.237 OA
ATOM     70  O   UNL A   1      45.257  37.127  34.072  1.00  0.00    -0.237 OA
ATOM     71  O   UNL A   1      44.280  38.138  32.046  1.00  0.00    -0.744 OA
ENDBRANCH  67  68
ENDBRANCH  48  62
BRANCH  49  72
ATOM     72  C   UNL A   1      42.353  23.811  27.841  1.00  0.00    -0.014 A 
ATOM     73  C   UNL A   1      42.111  22.695  28.663  1.00  0.00     0.010 A 
ATOM     74  C   UNL A   1      42.493  23.618  26.455  1.00  0.00     0.010 A 
ATOM     75  C   UNL A   1      42.060  21.409  28.116  1.00  0.00     0.020 A 
ATOM     76  C   UNL A   1      42.406  22.338  25.899  1.00  0.00     0.020 A 
ATOM     77  C   UNL A   1      42.213  21.239  26.737  1.00  0.00     0.054 A 
BRANCH  77  78
ATOM     78  S   UNL A   1      42.142  19.561  26.049  1.00  0.00     0.124 S 
ATOM     79  O   UNL A   1      40.728  19.435  25.706  1.00  0.00    -0.237 OA
ATOM     80  O   UNL A   1      43.061  19.646  24.917  1.00  0.00    -0.237 OA
ATOM     81  O   UNL A   1      42.597  18.719  27.152  1.00  0.00    -0.744 OA
ENDBRANCH  77  78
ENDBRANCH  49  72
BRANCH  61  82
ATOM     82  C   UNL A   1      47.691  27.255  30.736  1.00  0.00    -0.014 A 
ATOM     83  C   UNL A   1      47.987  26.496  31.880  1.00  0.00     0.010 A 
ATOM     84  C   UNL A   1      48.729  27.583  29.843  1.00  0.00     0.010 A 
ATOM     85  C   UNL A   1      49.300  26.089  32.136  1.00  0.00     0.020 A 
ATOM     86  C   UNL A   1      50.035  27.153  30.078  1.00  0.00     0.020 A 
ATOM     87  C   UNL A   1      50.314  26.417  31.230  1.00  0.00     0.054 A 
BRANCH  87  88
ATOM     88  S   UNL A   1      51.997  25.822  31.553  1.00  0.00     0.124 S 
ATOM     89  O   UNL A   1      51.759  24.436  31.947  1.00  0.00    -0.237 OA
ATOM     90  O   UNL A   1      52.654  26.005  30.261  1.00  0.00    -0.237 OA
ATOM     91  O   UNL A   1      52.477  26.698  32.620  1.00  0.00    -0.744 OA
ENDBRANCH  87  88
ENDBRANCH  61  82
ENDBRANCH  35  36
ENDBRANCH  27  30
ENDBRANCH  25  26
ENDBRANCH   1  25
TORSDOF 16
ENDMDL
MODEL 3
REMARK VINA RESULT:     -11.0      3.988      5.537
REMARK SMILES COc1ccc(C(=O)Nc2cccc(C(=O)NCCCNC(=O)c3ccc(-c4c5nc(c(-c6ccc(S(=O)(=O)[O-])cc6)c6ccc([nH]6)c(-c6ccc(S(=O)(=O)[O-])cc6)c6nc(c(-c7ccc(S(=O)(=O)[O-])cc7)c7ccc4[nH]7)C=C6)C=C5)cc3)c2)cc1
REMARK SMILES IDX 19 1 18 2 17 3 15 4 16 5 14 7 10 8 11 9 84 10 12 11 13 12
REMARK SMILES IDX 9 13 7 14 8 15 6 17 3 18 4 19 86 20 5 21 85 22 2 23 1 24
REMARK SMILES IDX 20 25 21 26 22 27 23 29 24 30 25 31 83 32 26 33 82 34 27 35
REMARK SMILES IDX 28 36 29 37 76 38 30 39 81 40 75 41 77 42 31 43 80 44 74 45
REMARK SMILES IDX 73 46 32 48 62 49 43 50 61 51 44 52 47 53 60 54 78 55 45 56
REMARK SMILES IDX 46 57 59 59 79 60 48 61 33 62 34 63 42 64 35 65 41 66 36 67
REMARK SMILES IDX 37 68 38 69 39 70 40 71 63 72 64 73 72 74 65 75 71 76 66 77
REMARK SMILES IDX 67 78 68 79 69 80 70 81 49 82 50 83 58 84 51 85 57 86 52 87
REMARK SMILES IDX 53 88 54 89 55 90 56 91
REMARK H PARENT 17 6 9 16 21 28 77 47 47 58
REMARK Flexibility Score: inf
ROOT
ATOM      1  C   UNL A   1      31.471  32.267  26.603  1.00  0.00     0.042 C 
ENDROOT
BRANCH   1   2
ATOM      2  C   UNL A   1      31.363  30.763  26.397  1.00  0.00     0.118 C 
BRANCH   2   3
ATOM      3  N   UNL A   1      32.380  30.277  25.484  1.00  0.00    -0.352 N 
ATOM      4  C   UNL A   1      32.467  29.164  24.688  1.00  0.00     0.251 C 
ATOM      5  O   UNL A   1      33.467  29.065  23.974  1.00  0.00    -0.269 OA
ATOM      6  H   UNL A   1      33.167  30.866  25.424  1.00  0.00     0.163 HD
BRANCH   4   7
ATOM      7  C   UNL A   1      31.403  28.121  24.584  1.00  0.00     0.041 A 
ATOM      8  C   UNL A   1      30.171  26.185  25.365  1.00  0.00     0.042 A 
ATOM      9  C   UNL A   1      29.220  26.354  24.363  1.00  0.00     0.026 A 
ATOM     10  C   UNL A   1      31.313  26.990  25.394  1.00  0.00     0.040 A 
ATOM     11  C   UNL A   1      29.331  27.435  23.493  1.00  0.00     0.003 A 
ATOM     12  C   UNL A   1      30.397  28.330  23.626  1.00  0.00     0.014 A 
BRANCH   8  13
ATOM     13  N   UNL A   1      29.907  25.261  26.385  1.00  0.00    -0.322 N 
ATOM     14  C   UNL A   1      30.396  23.977  26.553  1.00  0.00     0.255 C 
ATOM     15  O   UNL A   1      29.866  23.245  27.390  1.00  0.00    -0.269 OA
ATOM     16  H   UNL A   1      29.286  25.571  27.083  1.00  0.00     0.170 HD
BRANCH  14  17
ATOM     17  C   UNL A   1      31.620  23.475  25.842  1.00  0.00     0.040 A 
ATOM     18  C   UNL A   1      33.985  22.518  24.616  1.00  0.00     0.118 A 
ATOM     19  C   UNL A   1      34.010  23.024  25.918  1.00  0.00     0.047 A 
ATOM     20  C   UNL A   1      32.787  22.544  23.907  1.00  0.00     0.047 A 
ATOM     21  C   UNL A   1      32.840  23.493  26.529  1.00  0.00     0.017 A 
ATOM     22  C   UNL A   1      31.624  23.057  24.503  1.00  0.00     0.017 A 
BRANCH  18  23
ATOM     23  O   UNL A   1      35.180  22.041  24.156  1.00  0.00    -0.497 OA
ATOM     24  C   UNL A   1      35.972  22.924  23.370  1.00  0.00     0.278 C 
ENDBRANCH  18  23
ENDBRANCH  14  17
ENDBRANCH   8  13
ENDBRANCH   4   7
ENDBRANCH   2   3
ENDBRANCH   1   2
BRANCH   1  25
ATOM     25  C   UNL A   1      32.742  32.646  27.348  1.00  0.00     0.118 C 
BRANCH  25  26
ATOM     26  N   UNL A   1      32.755  34.062  27.700  1.00  0.00    -0.352 N 
ATOM     27  C   UNL A   1      33.499  34.720  28.648  1.00  0.00     0.251 C 
ATOM     28  H   UNL A   1      32.140  34.629  27.181  1.00  0.00     0.163 HD
ATOM     29  O   UNL A   1      33.214  35.872  28.956  1.00  0.00    -0.269 OA
BRANCH  27  30
ATOM     30  C   UNL A   1      34.629  34.027  29.300  1.00  0.00     0.039 A 
ATOM     31  C   UNL A   1      35.933  34.343  28.915  1.00  0.00     0.014 A 
ATOM     32  C   UNL A   1      34.395  33.066  30.286  1.00  0.00     0.014 A 
ATOM     33  C   UNL A   1      37.009  33.731  29.564  1.00  0.00     0.010 A 
ATOM     34  C   UNL A   1      35.464  32.531  30.992  1.00  0.00     0.010 A 
ATOM     35  C   UNL A   1      36.782  32.845  30.628  1.00  0.00    -0.014 A 
BRANCH  35  36
ATOM     36  C   UNL A   1      37.898  32.195  31.358  1.00  0.00     0.031 A 
ATOM     37  C   UNL A   1      38.315  32.736  32.701  1.00  0.00     0.074 A 
ATOM     38  C   UNL A   1      38.578  31.180  30.788  1.00  0.00     0.049 A 
ATOM     39  N   UNL A   1      39.343  32.408  33.439  1.00  0.00    -0.248 NA
ATOM     40  C   UNL A   1      37.483  33.810  33.275  1.00  0.00     0.031 C 
ATOM     41  C   UNL A   1      38.286  30.589  29.480  1.00  0.00     0.029 A 
ATOM     42  N   UNL A   1      39.669  30.476  31.231  1.00  0.00    -0.354 N 
ATOM     43  C   UNL A   1      39.291  33.243  34.549  1.00  0.00     0.074 A 
ATOM     44  C   UNL A   1      38.168  34.133  34.361  1.00  0.00     0.031 C 
ATOM     45  C   UNL A   1      39.164  29.601  29.236  1.00  0.00     0.029 A 
ATOM     46  C   UNL A   1      40.111  29.523  30.343  1.00  0.00     0.049 A 
ATOM     47  H   UNL A   1      40.097  30.638  32.103  1.00  0.00     0.167 HD
ATOM     48  C   UNL A   1      40.092  33.252  35.640  1.00  0.00     0.031 A 
ATOM     49  C   UNL A   1      41.171  28.693  30.406  1.00  0.00     0.031 A 
ATOM     50  C   UNL A   1      41.195  32.350  35.829  1.00  0.00     0.049 A 
ATOM     51  C   UNL A   1      42.062  28.742  31.621  1.00  0.00     0.074 A 
ATOM     52  C   UNL A   1      42.047  32.250  36.914  1.00  0.00     0.029 A 
ATOM     53  N   UNL A   1      41.592  31.383  34.916  1.00  0.00    -0.354 N 
ATOM     54  N   UNL A   1      41.972  29.511  32.679  1.00  0.00    -0.248 NA
ATOM     55  C   UNL A   1      43.191  27.801  31.655  1.00  0.00     0.031 C 
ATOM     56  C   UNL A   1      42.991  31.257  36.638  1.00  0.00     0.029 A 
ATOM     57  C   UNL A   1      42.684  30.692  35.410  1.00  0.00     0.049 A 
ATOM     58  H   UNL A   1      41.162  31.215  34.047  1.00  0.00     0.167 HD
ATOM     59  C   UNL A   1      43.004  29.114  33.524  1.00  0.00     0.074 A 
ATOM     60  C   UNL A   1      43.700  28.035  32.856  1.00  0.00     0.031 C 
ATOM     61  C   UNL A   1      43.344  29.599  34.743  1.00  0.00     0.031 A 
BRANCH  48  62
ATOM     62  C   UNL A   1      39.798  34.257  36.721  1.00  0.00    -0.014 A 
ATOM     63  C   UNL A   1      39.003  33.914  37.829  1.00  0.00     0.010 A 
ATOM     64  C   UNL A   1      40.381  35.537  36.665  1.00  0.00     0.010 A 
ATOM     65  C   UNL A   1      38.774  34.840  38.850  1.00  0.00     0.020 A 
ATOM     66  C   UNL A   1      40.180  36.456  37.700  1.00  0.00     0.020 A 
ATOM     67  C   UNL A   1      39.369  36.104  38.781  1.00  0.00     0.054 A 
BRANCH  67  68
ATOM     68  S   UNL A   1      39.101  37.261  40.152  1.00  0.00     0.124 S 
ATOM     69  O   UNL A   1      38.322  38.316  39.508  1.00  0.00    -0.237 OA
ATOM     70  O   UNL A   1      38.372  36.445  41.119  1.00  0.00    -0.237 OA
ATOM     71  O   UNL A   1      40.453  37.642  40.554  1.00  0.00    -0.744 OA
ENDBRANCH  67  68
ENDBRANCH  48  62
BRANCH  49  72
ATOM     72  C   UNL A   1      41.458  27.749  29.290  1.00  0.00    -0.014 A 
ATOM     73  C   UNL A   1      40.748  26.540  29.171  1.00  0.00     0.010 A 
ATOM     74  C   UNL A   1      42.469  28.038  28.355  1.00  0.00     0.010 A 
ATOM     75  C   UNL A   1      41.075  25.620  28.170  1.00  0.00     0.020 A 
ATOM     76  C   UNL A   1      42.776  27.137  27.331  1.00  0.00     0.020 A 
ATOM     77  C   UNL A   1      42.091  25.923  27.260  1.00  0.00     0.054 A 
BRANCH  77  78
ATOM     78  S   UNL A   1      42.499  24.715  25.969  1.00  0.00     0.124 S 
ATOM     79  O   UNL A   1      42.418  25.527  24.758  1.00  0.00    -0.237 OA
ATOM     80  O   UNL A   1      43.841  24.284  26.352  1.00  0.00    -0.237 OA
ATOM     81  O   UNL A   1      41.461  23.697  26.111  1.00  0.00    -0.744 OA
ENDBRANCH  77  78
ENDBRANCH  49  72
BRANCH  61  82
ATOM     82  C   UNL A   1      44.471  28.923  35.477  1.00  0.00    -0.014 A 
ATOM     83  C   UNL A   1      45.801  29.355  35.345  1.00  0.00     0.010 A 
ATOM     84  C   UNL A   1      44.173  27.884  36.380  1.00  0.00     0.010 A 
ATOM     85  C   UNL A   1      46.816  28.745  36.086  1.00  0.00     0.020 A 
ATOM     86  C   UNL A   1      45.179  27.294  37.145  1.00  0.00     0.020 A 
ATOM     87  C   UNL A   1      46.498  27.721  36.985  1.00  0.00     0.054 A 
BRANCH  87  88
ATOM     88  S   UNL A   1      47.826  26.992  37.982  1.00  0.00     0.124 S 
ATOM     89  O   UNL A   1      47.574  27.576  39.297  1.00  0.00    -0.237 OA
ATOM     90  O   UNL A   1      47.561  25.560  37.869  1.00  0.00    -0.237 OA
ATOM     91  O   UNL A   1      49.047  27.449  37.322  1.00  0.00    -0.744 OA
ENDBRANCH  87  88
ENDBRANCH  61  82
ENDBRANCH  35  36
ENDBRANCH  27  30
ENDBRANCH  25  26
ENDBRANCH   1  25
TORSDOF 16
ENDMDL
