MODEL 1
REMARK VINA RESULT:     -11.8      0.000      0.000
REMARK SMILES Cc1cc(Cl)cc2c1O[C@H](C(F)(F)F)C(C(=O)NCCCNC(=O)c1ccc(-c3c4nc(c(-c5ccc(S(=O)(=O)[O-])cc5)c5ccc([nH]5)c(-c5ccc(S(=O)(=O)[O-])cc5)c5nc(c(-c6ccc(S(=O)(=O)[O-])cc6)c6ccc3[nH]6)C=C5)C=C4)cc1)=C2
REMARK SMILES IDX 21 1 20 2 19 3 18 4 16 5 17 6 15 8 1 9 2 10 3 11 8 12 4 13
REMARK SMILES IDX 7 14 9 15 5 16 6 17 85 18 10 19 11 20 12 21 13 22 14 23
REMARK SMILES IDX 22 24 23 25 24 27 25 28 26 29 84 30 27 31 83 32 28 33 29 34
REMARK SMILES IDX 30 35 77 36 31 37 82 38 76 39 78 40 32 41 81 42 75 43 74 44
REMARK SMILES IDX 33 46 63 47 44 48 62 49 45 50 48 51 61 52 79 53 46 54 47 55
REMARK SMILES IDX 60 57 80 58 49 59 34 60 35 61 43 62 36 63 42 64 37 65 38 66
REMARK SMILES IDX 39 67 40 68 41 69 64 70 65 71 73 72 66 73 72 74 67 75 68 76
REMARK SMILES IDX 69 77 70 78 71 79 50 80 51 81 59 82 52 83 58 84 53 85 54 86
REMARK SMILES IDX 55 87 56 88 57 89
REMARK H PARENT 18 7 22 26 78 45 48 56
REMARK Flexibility Score: inf
ROOT
ATOM      1  C   UNL A   1      33.839  28.208  26.589  1.00  0.00     0.118 C 
ENDROOT
BRANCH   1   2
ATOM      2  C   UNL A   1      34.016  27.922  25.103  1.00  0.00     0.042 C 
BRANCH   2   3
ATOM      3  C   UNL A   1      32.742  27.384  24.470  1.00  0.00     0.118 C 
BRANCH   3   4
ATOM      4  N   UNL A   1      31.861  26.766  25.451  1.00  0.00    -0.352 N 
ATOM      5  C   UNL A   1      31.712  25.549  26.023  1.00  0.00     0.251 C 
ATOM      6  O   UNL A   1      30.809  25.465  26.861  1.00  0.00    -0.270 OA
ATOM      7  H   UNL A   1      31.195  27.407  25.790  1.00  0.00     0.163 HD
BRANCH   5   8
ATOM      8  C   UNL A   1      32.545  24.352  25.712  1.00  0.00     0.067 C 
ATOM      9  C   UNL A   1      34.299  19.653  24.677  1.00  0.00     0.048 C 
ATOM     10  C   UNL A   1      34.926  20.938  25.141  1.00  0.00    -0.007 A 
ATOM     11  C   UNL A   1      36.312  21.038  25.307  1.00  0.00     0.027 A 
ATOM     12  C   UNL A   1      34.136  22.070  25.380  1.00  0.00     0.131 A 
ATOM     13  C   UNL A   1      36.881  22.242  25.726  1.00  0.00     0.042 A 
ATOM     14  C   UNL A   1      34.704  23.275  25.807  1.00  0.00     0.019 A 
ATOM     15  O   UNL A   1      32.788  21.925  25.220  1.00  0.00    -0.475 OA
ATOM     16  Cl  UNL A   1      38.587  22.346  25.932  1.00  0.00    -0.084 Cl
ATOM     17  C   UNL A   1      36.086  23.358  25.982  1.00  0.00     0.032 A 
ATOM     18  C   UNL A   1      33.834  24.411  26.095  1.00  0.00     0.025 C 
ATOM     19  C   UNL A   1      32.032  23.141  24.990  1.00  0.00     0.314 C 
BRANCH  19  20
ATOM     20  C   UNL A   1      31.890  23.375  23.473  1.00  0.00     0.429 C 
ATOM     21  F   UNL A   1      30.621  23.739  23.164  1.00  0.00    -0.167 F 
ATOM     22  F   UNL A   1      32.695  24.366  23.020  1.00  0.00    -0.167 F 
ATOM     23  F   UNL A   1      32.185  22.275  22.745  1.00  0.00    -0.167 F 
ENDBRANCH  19  20
ENDBRANCH   5   8
ENDBRANCH   3   4
ENDBRANCH   2   3
ENDBRANCH   1   2
BRANCH   1  24
ATOM     24  N   UNL A   1      33.669  29.637  26.845  1.00  0.00    -0.352 N 
ATOM     25  C   UNL A   1      34.408  30.488  27.626  1.00  0.00     0.251 C 
ATOM     26  H   UNL A   1      32.905  30.053  26.385  1.00  0.00     0.163 HD
ATOM     27  O   UNL A   1      33.937  31.578  27.950  1.00  0.00    -0.269 OA
BRANCH  25  28
ATOM     28  C   UNL A   1      35.757  30.097  28.071  1.00  0.00     0.039 A 
ATOM     29  C   UNL A   1      35.945  29.625  29.373  1.00  0.00     0.014 A 
ATOM     30  C   UNL A   1      36.845  30.223  27.204  1.00  0.00     0.014 A 
ATOM     31  C   UNL A   1      37.217  29.224  29.781  1.00  0.00     0.010 A 
ATOM     32  C   UNL A   1      38.085  29.726  27.575  1.00  0.00     0.010 A 
ATOM     33  C   UNL A   1      38.290  29.243  28.874  1.00  0.00    -0.014 A 
BRANCH  33  34
ATOM     34  C   UNL A   1      39.645  28.794  29.267  1.00  0.00     0.031 A 
ATOM     35  C   UNL A   1      40.549  29.723  30.031  1.00  0.00     0.074 A 
ATOM     36  C   UNL A   1      40.083  27.581  28.878  1.00  0.00     0.049 A 
ATOM     37  N   UNL A   1      41.783  29.538  30.417  1.00  0.00    -0.248 NA
ATOM     38  C   UNL A   1      40.003  31.047  30.380  1.00  0.00     0.031 C 
ATOM     39  C   UNL A   1      39.312  26.614  28.092  1.00  0.00     0.029 A 
ATOM     40  N   UNL A   1      41.285  26.954  29.088  1.00  0.00    -0.354 N 
ATOM     41  C   UNL A   1      42.168  30.723  31.032  1.00  0.00     0.074 A 
ATOM     42  C   UNL A   1      41.058  31.643  30.916  1.00  0.00     0.031 C 
ATOM     43  C   UNL A   1      40.046  25.503  27.919  1.00  0.00     0.029 A 
ATOM     44  C   UNL A   1      41.352  25.695  28.541  1.00  0.00     0.049 A 
ATOM     45  H   UNL A   1      42.028  27.368  29.582  1.00  0.00     0.167 HD
ATOM     46  C   UNL A   1      43.330  31.012  31.661  1.00  0.00     0.031 A 
ATOM     47  C   UNL A   1      42.354  24.794  28.541  1.00  0.00     0.031 A 
ATOM     48  C   UNL A   1      44.420  30.084  31.788  1.00  0.00     0.049 A 
ATOM     49  C   UNL A   1      43.638  25.135  29.243  1.00  0.00     0.074 A 
ATOM     50  C   UNL A   1      45.616  30.250  32.463  1.00  0.00     0.029 A 
ATOM     51  N   UNL A   1      44.448  28.816  31.224  1.00  0.00    -0.354 N 
ATOM     52  N   UNL A   1      43.957  26.235  29.885  1.00  0.00    -0.248 NA
ATOM     53  C   UNL A   1      44.692  24.113  29.233  1.00  0.00     0.031 C 
ATOM     54  C   UNL A   1      46.391  29.105  32.257  1.00  0.00     0.029 A 
ATOM     55  C   UNL A   1      45.654  28.202  31.508  1.00  0.00     0.049 A 
ATOM     56  H   UNL A   1      43.717  28.415  30.701  1.00  0.00     0.167 HD
ATOM     57  C   UNL A   1      45.245  26.033  30.366  1.00  0.00     0.074 A 
ATOM     58  C   UNL A   1      45.637  24.698  29.958  1.00  0.00     0.031 C 
ATOM     59  C   UNL A   1      46.031  26.877  31.080  1.00  0.00     0.031 A 
BRANCH  46  60
ATOM     60  C   UNL A   1      43.479  32.390  32.253  1.00  0.00    -0.014 A 
ATOM     61  C   UNL A   1      43.118  32.652  33.587  1.00  0.00     0.010 A 
ATOM     62  C   UNL A   1      44.013  33.431  31.472  1.00  0.00     0.010 A 
ATOM     63  C   UNL A   1      43.245  33.940  34.115  1.00  0.00     0.020 A 
ATOM     64  C   UNL A   1      44.171  34.713  32.005  1.00  0.00     0.020 A 
ATOM     65  C   UNL A   1      43.769  34.963  33.320  1.00  0.00     0.054 A 
BRANCH  65  66
ATOM     66  S   UNL A   1      43.936  36.620  34.038  1.00  0.00     0.124 S 
ATOM     67  O   UNL A   1      44.535  36.326  35.337  1.00  0.00    -0.237 OA
ATOM     68  O   UNL A   1      44.810  37.295  33.082  1.00  0.00    -0.237 OA
ATOM     69  O   UNL A   1      42.563  37.119  34.085  1.00  0.00    -0.744 OA
ENDBRANCH  65  66
ENDBRANCH  46  60
BRANCH  47  70
ATOM     70  C   UNL A   1      42.154  23.480  27.873  1.00  0.00    -0.014 A 
ATOM     71  C   UNL A   1      42.644  23.261  26.574  1.00  0.00     0.010 A 
ATOM     72  C   UNL A   1      41.537  22.417  28.559  1.00  0.00     0.010 A 
ATOM     73  C   UNL A   1      42.529  22.002  25.976  1.00  0.00     0.020 A 
ATOM     74  C   UNL A   1      41.443  21.150  27.975  1.00  0.00     0.020 A 
ATOM     75  C   UNL A   1      41.940  20.952  26.685  1.00  0.00     0.054 A 
BRANCH  75  76
ATOM     76  S   UNL A   1      41.892  19.304  25.925  1.00  0.00     0.124 S 
ATOM     77  O   UNL A   1      42.395  18.457  27.002  1.00  0.00    -0.237 OA
ATOM     78  O   UNL A   1      40.475  19.149  25.607  1.00  0.00    -0.237 OA
ATOM     79  O   UNL A   1      42.772  19.435  24.766  1.00  0.00    -0.744 OA
ENDBRANCH  75  76
ENDBRANCH  47  70
BRANCH  59  80
ATOM     80  C   UNL A   1      47.399  26.388  31.473  1.00  0.00    -0.014 A 
ATOM     81  C   UNL A   1      47.608  25.735  32.700  1.00  0.00     0.010 A 
ATOM     82  C   UNL A   1      48.467  26.504  30.565  1.00  0.00     0.010 A 
ATOM     83  C   UNL A   1      48.867  25.221  33.019  1.00  0.00     0.020 A 
ATOM     84  C   UNL A   1      49.720  25.966  30.869  1.00  0.00     0.020 A 
ATOM     85  C   UNL A   1      49.913  25.335  32.099  1.00  0.00     0.054 A 
BRANCH  85  86
ATOM     86  S   UNL A   1      51.520  24.605  32.517  1.00  0.00     0.124 S 
ATOM     87  O   UNL A   1      51.333  23.212  32.120  1.00  0.00    -0.237 OA
ATOM     88  O   UNL A   1      52.444  25.376  31.690  1.00  0.00    -0.237 OA
ATOM     89  O   UNL A   1      51.640  24.832  33.956  1.00  0.00    -0.744 OA
ENDBRANCH  85  86
ENDBRANCH  59  80
ENDBRANCH  33  34
ENDBRANCH  25  28
ENDBRANCH   1  24
TORSDOF 14
ENDMDL
MODEL 2
REMARK VINA RESULT:     -11.4      2.420      3.809
REMARK SMILES Cc1cc(Cl)cc2c1O[C@H](C(F)(F)F)C(C(=O)NCCCNC(=O)c1ccc(-c3c4nc(c(-c5ccc(S(=O)(=O)[O-])cc5)c5ccc([nH]5)c(-c5ccc(S(=O)(=O)[O-])cc5)c5nc(c(-c6ccc(S(=O)(=O)[O-])cc6)c6ccc3[nH]6)C=C5)C=C4)cc1)=C2
REMARK SMILES IDX 21 1 20 2 19 3 18 4 16 5 17 6 15 8 1 9 2 10 3 11 8 12 4 13
REMARK SMILES IDX 7 14 9 15 5 16 6 17 85 18 10 19 11 20 12 21 13 22 14 23
REMARK SMILES IDX 22 24 23 25 24 27 25 28 26 29 84 30 27 31 83 32 28 33 29 34
REMARK SMILES IDX 30 35 77 36 31 37 82 38 76 39 78 40 32 41 81 42 75 43 74 44
REMARK SMILES IDX 33 46 63 47 44 48 62 49 45 50 48 51 61 52 79 53 46 54 47 55
REMARK SMILES IDX 60 57 80 58 49 59 34 60 35 61 43 62 36 63 42 64 37 65 38 66
REMARK SMILES IDX 39 67 40 68 41 69 64 70 65 71 73 72 66 73 72 74 67 75 68 76
REMARK SMILES IDX 69 77 70 78 71 79 50 80 51 81 59 82 52 83 58 84 53 85 54 86
REMARK SMILES IDX 55 87 56 88 57 89
REMARK H PARENT 18 7 22 26 78 45 48 56
REMARK Flexibility Score: inf
ROOT
ATOM      1  C   UNL A   1      33.707  28.207  26.940  1.00  0.00     0.118 C 
ENDROOT
BRANCH   1   2
ATOM      2  C   UNL A   1      33.843  27.700  25.509  1.00  0.00     0.042 C 
BRANCH   2   3
ATOM      3  C   UNL A   1      33.758  26.184  25.430  1.00  0.00     0.118 C 
BRANCH   3   4
ATOM      4  N   UNL A   1      33.581  25.717  24.063  1.00  0.00    -0.352 N 
ATOM      5  C   UNL A   1      32.647  25.826  23.090  1.00  0.00     0.251 C 
ATOM      6  O   UNL A   1      32.924  25.265  22.025  1.00  0.00    -0.270 OA
ATOM      7  H   UNL A   1      34.348  25.175  23.766  1.00  0.00     0.163 HD
BRANCH   5   8
ATOM      8  C   UNL A   1      31.356  26.560  23.224  1.00  0.00     0.067 C 
ATOM      9  C   UNL A   1      26.441  27.922  23.691  1.00  0.00     0.048 C 
ATOM     10  C   UNL A   1      27.703  28.636  23.295  1.00  0.00    -0.007 A 
ATOM     11  C   UNL A   1      27.695  30.009  23.028  1.00  0.00     0.027 A 
ATOM     12  C   UNL A   1      28.920  27.943  23.223  1.00  0.00     0.131 A 
ATOM     13  C   UNL A   1      28.878  30.660  22.675  1.00  0.00     0.042 A 
ATOM     14  C   UNL A   1      30.104  28.592  22.861  1.00  0.00     0.019 A 
ATOM     15  O   UNL A   1      28.881  26.602  23.477  1.00  0.00    -0.475 OA
ATOM     16  Cl  UNL A   1      28.849  32.349  22.342  1.00  0.00    -0.084 Cl
ATOM     17  C   UNL A   1      30.080  29.960  22.584  1.00  0.00     0.032 A 
ATOM     18  C   UNL A   1      31.336  27.818  22.746  1.00  0.00     0.025 C 
ATOM     19  C   UNL A   1      30.131  25.985  23.874  1.00  0.00     0.314 C 
BRANCH  19  20
ATOM     20  C   UNL A   1      30.230  25.975  25.413  1.00  0.00     0.429 C 
ATOM     21  F   UNL A   1      29.011  25.760  25.966  1.00  0.00    -0.167 F 
ATOM     22  F   UNL A   1      31.041  24.995  25.877  1.00  0.00    -0.167 F 
ATOM     23  F   UNL A   1      30.703  27.139  25.913  1.00  0.00    -0.167 F 
ENDBRANCH  19  20
ENDBRANCH   5   8
ENDBRANCH   3   4
ENDBRANCH   2   3
ENDBRANCH   1   2
BRANCH   1  24
ATOM     24  N   UNL A   1      33.616  29.664  26.989  1.00  0.00    -0.352 N 
ATOM     25  C   UNL A   1      34.429  30.579  27.606  1.00  0.00     0.251 C 
ATOM     26  H   UNL A   1      32.851  30.049  26.503  1.00  0.00     0.163 HD
ATOM     27  O   UNL A   1      34.025  31.728  27.784  1.00  0.00    -0.269 OA
BRANCH  25  28
ATOM     28  C   UNL A   1      35.779  30.187  28.050  1.00  0.00     0.039 A 
ATOM     29  C   UNL A   1      35.969  29.726  29.355  1.00  0.00     0.014 A 
ATOM     30  C   UNL A   1      36.864  30.301  27.178  1.00  0.00     0.014 A 
ATOM     31  C   UNL A   1      37.241  29.324  29.762  1.00  0.00     0.010 A 
ATOM     32  C   UNL A   1      38.103  29.802  27.549  1.00  0.00     0.010 A 
ATOM     33  C   UNL A   1      38.310  29.330  28.852  1.00  0.00    -0.014 A 
BRANCH  33  34
ATOM     34  C   UNL A   1      39.665  28.879  29.244  1.00  0.00     0.031 A 
ATOM     35  C   UNL A   1      40.575  29.811  29.996  1.00  0.00     0.074 A 
ATOM     36  C   UNL A   1      40.096  27.660  28.865  1.00  0.00     0.049 A 
ATOM     37  N   UNL A   1      41.810  29.625  30.379  1.00  0.00    -0.248 NA
ATOM     38  C   UNL A   1      40.037  31.141  30.334  1.00  0.00     0.031 C 
ATOM     39  C   UNL A   1      39.318  26.689  28.092  1.00  0.00     0.029 A 
ATOM     40  N   UNL A   1      41.296  27.030  29.076  1.00  0.00    -0.354 N 
ATOM     41  C   UNL A   1      42.202  30.814  30.981  1.00  0.00     0.074 A 
ATOM     42  C   UNL A   1      41.096  31.737  30.860  1.00  0.00     0.031 C 
ATOM     43  C   UNL A   1      40.047  25.574  27.926  1.00  0.00     0.029 A 
ATOM     44  C   UNL A   1      41.356  25.766  28.542  1.00  0.00     0.049 A 
ATOM     45  H   UNL A   1      42.043  27.446  29.564  1.00  0.00     0.167 HD
ATOM     46  C   UNL A   1      43.369  31.104  31.603  1.00  0.00     0.031 A 
ATOM     47  C   UNL A   1      42.354  24.861  28.546  1.00  0.00     0.031 A 
ATOM     48  C   UNL A   1      44.454  30.173  31.735  1.00  0.00     0.049 A 
ATOM     49  C   UNL A   1      43.642  25.202  29.241  1.00  0.00     0.074 A 
ATOM     50  C   UNL A   1      45.653  30.340  32.404  1.00  0.00     0.029 A 
ATOM     51  N   UNL A   1      44.475  28.899  31.183  1.00  0.00    -0.354 N 
ATOM     52  N   UNL A   1      43.968  26.307  29.870  1.00  0.00    -0.248 NA
ATOM     53  C   UNL A   1      44.692  24.176  29.236  1.00  0.00     0.031 C 
ATOM     54  C   UNL A   1      46.423  29.190  32.206  1.00  0.00     0.029 A 
ATOM     55  C   UNL A   1      45.680  28.282  31.468  1.00  0.00     0.049 A 
ATOM     56  H   UNL A   1      43.741  28.496  30.666  1.00  0.00     0.167 HD
ATOM     57  C   UNL A   1      45.257  26.104  30.348  1.00  0.00     0.074 A 
ATOM     58  C   UNL A   1      45.642  24.764  29.952  1.00  0.00     0.031 C 
ATOM     59  C   UNL A   1      46.049  26.951  31.051  1.00  0.00     0.031 A 
BRANCH  46  60
ATOM     60  C   UNL A   1      43.525  32.487  32.181  1.00  0.00    -0.014 A 
ATOM     61  C   UNL A   1      44.064  33.539  31.417  1.00  0.00     0.010 A 
ATOM     62  C   UNL A   1      43.100  32.745  33.496  1.00  0.00     0.010 A 
ATOM     63  C   UNL A   1      44.220  34.811  31.975  1.00  0.00     0.020 A 
ATOM     64  C   UNL A   1      43.224  34.024  34.047  1.00  0.00     0.020 A 
ATOM     65  C   UNL A   1      43.800  35.045  33.287  1.00  0.00     0.054 A 
BRANCH  65  66
ATOM     66  S   UNL A   1      44.000  36.711  33.976  1.00  0.00     0.124 S 
ATOM     67  O   UNL A   1      44.854  37.349  32.977  1.00  0.00    -0.237 OA
ATOM     68  O   UNL A   1      42.624  37.200  34.031  1.00  0.00    -0.237 OA
ATOM     69  O   UNL A   1      44.629  36.477  35.274  1.00  0.00    -0.744 OA
ENDBRANCH  65  66
ENDBRANCH  46  60
BRANCH  47  70
ATOM     70  C   UNL A   1      42.146  23.541  27.892  1.00  0.00    -0.014 A 
ATOM     71  C   UNL A   1      42.557  23.333  26.563  1.00  0.00     0.010 A 
ATOM     72  C   UNL A   1      41.602  22.463  28.615  1.00  0.00     0.010 A 
ATOM     73  C   UNL A   1      42.437  22.071  25.974  1.00  0.00     0.020 A 
ATOM     74  C   UNL A   1      41.505  21.194  28.038  1.00  0.00     0.020 A 
ATOM     75  C   UNL A   1      41.923  21.007  26.719  1.00  0.00     0.054 A 
BRANCH  75  76
ATOM     76  S   UNL A   1      41.869  19.358  25.962  1.00  0.00     0.124 S 
ATOM     77  O   UNL A   1      42.352  18.509  27.047  1.00  0.00    -0.237 OA
ATOM     78  O   UNL A   1      40.454  19.214  25.628  1.00  0.00    -0.237 OA
ATOM     79  O   UNL A   1      42.764  19.477  24.814  1.00  0.00    -0.744 OA
ENDBRANCH  75  76
ENDBRANCH  47  70
BRANCH  59  80
ATOM     80  C   UNL A   1      47.417  26.461  31.444  1.00  0.00    -0.014 A 
ATOM     81  C   UNL A   1      47.624  25.805  32.671  1.00  0.00     0.010 A 
ATOM     82  C   UNL A   1      48.486  26.578  30.537  1.00  0.00     0.010 A 
ATOM     83  C   UNL A   1      48.882  25.289  32.989  1.00  0.00     0.020 A 
ATOM     84  C   UNL A   1      49.738  26.038  30.840  1.00  0.00     0.020 A 
ATOM     85  C   UNL A   1      49.930  25.405  32.069  1.00  0.00     0.054 A 
BRANCH  85  86
ATOM     86  S   UNL A   1      51.535  24.671  32.487  1.00  0.00     0.124 S 
ATOM     87  O   UNL A   1      51.308  23.258  32.202  1.00  0.00    -0.237 OA
ATOM     88  O   UNL A   1      52.445  25.359  31.574  1.00  0.00    -0.237 OA
ATOM     89  O   UNL A   1      51.711  25.001  33.900  1.00  0.00    -0.744 OA
ENDBRANCH  85  86
ENDBRANCH  59  80
ENDBRANCH  33  34
ENDBRANCH  25  28
ENDBRANCH   1  24
TORSDOF 14
ENDMDL
MODEL 3
REMARK VINA RESULT:     -11.3      1.089      1.538
REMARK SMILES Cc1cc(Cl)cc2c1O[C@H](C(F)(F)F)C(C(=O)NCCCNC(=O)c1ccc(-c3c4nc(c(-c5ccc(S(=O)(=O)[O-])cc5)c5ccc([nH]5)c(-c5ccc(S(=O)(=O)[O-])cc5)c5nc(c(-c6ccc(S(=O)(=O)[O-])cc6)c6ccc3[nH]6)C=C5)C=C4)cc1)=C2
REMARK SMILES IDX 21 1 20 2 19 3 18 4 16 5 17 6 15 8 1 9 2 10 3 11 8 12 4 13
REMARK SMILES IDX 7 14 9 15 5 16 6 17 85 18 10 19 11 20 12 21 13 22 14 23
REMARK SMILES IDX 22 24 23 25 24 27 25 28 26 29 84 30 27 31 83 32 28 33 29 34
REMARK SMILES IDX 30 35 77 36 31 37 82 38 76 39 78 40 32 41 81 42 75 43 74 44
REMARK SMILES IDX 33 46 63 47 44 48 62 49 45 50 48 51 61 52 79 53 46 54 47 55
REMARK SMILES IDX 60 57 80 58 49 59 34 60 35 61 43 62 36 63 42 64 37 65 38 66
REMARK SMILES IDX 39 67 40 68 41 69 64 70 65 71 73 72 66 73 72 74 67 75 68 76
REMARK SMILES IDX 69 77 70 78 71 79 50 80 51 81 59 82 52 83 58 84 53 85 54 86
REMARK SMILES IDX 55 87 56 88 57 89
REMARK H PARENT 18 7 22 26 78 45 48 56
REMARK Flexibility Score: inf
ROOT
ATOM      1  C   UNL A   1      34.125  28.539  26.010  1.00  0.00     0.118 C 
ENDROOT
BRANCH   1   2
ATOM      2  C   UNL A   1      34.120  28.553  24.487  1.00  0.00     0.042 C 
BRANCH   2   3
ATOM      3  C   UNL A   1      32.731  28.310  23.918  1.00  0.00     0.118 C 
BRANCH   3   4
ATOM      4  N   UNL A   1      32.765  27.473  22.728  1.00  0.00    -0.352 N 
ATOM      5  C   UNL A   1      32.952  26.164  22.442  1.00  0.00     0.251 C 
ATOM      6  O   UNL A   1      32.874  25.868  21.245  1.00  0.00    -0.270 OA
ATOM      7  H   UNL A   1      32.612  28.002  21.912  1.00  0.00     0.163 HD
BRANCH   5   8
ATOM      8  C   UNL A   1      33.230  25.100  23.449  1.00  0.00     0.067 C 
ATOM      9  C   UNL A   1      33.400  22.123  27.612  1.00  0.00     0.048 C 
ATOM     10  C   UNL A   1      34.253  22.272  26.383  1.00  0.00    -0.007 A 
ATOM     11  C   UNL A   1      35.341  21.422  26.160  1.00  0.00     0.027 A 
ATOM     12  C   UNL A   1      33.949  23.243  25.420  1.00  0.00     0.131 A 
ATOM     13  C   UNL A   1      36.116  21.564  25.007  1.00  0.00     0.042 A 
ATOM     14  C   UNL A   1      34.728  23.393  24.268  1.00  0.00     0.019 A 
ATOM     15  O   UNL A   1      32.887  24.062  25.684  1.00  0.00    -0.475 OA
ATOM     16  Cl  UNL A   1      37.456  20.515  24.752  1.00  0.00    -0.084 Cl
ATOM     17  C   UNL A   1      35.819  22.547  24.064  1.00  0.00     0.032 A 
ATOM     18  C   UNL A   1      34.404  24.455  23.320  1.00  0.00     0.025 C 
ATOM     19  C   UNL A   1      32.277  24.713  24.541  1.00  0.00     0.314 C 
BRANCH  19  20
ATOM     20  C   UNL A   1      31.107  23.851  24.026  1.00  0.00     0.429 C 
ATOM     21  F   UNL A   1      30.080  24.637  23.619  1.00  0.00    -0.167 F 
ATOM     22  F   UNL A   1      31.452  23.088  22.961  1.00  0.00    -0.167 F 
ATOM     23  F   UNL A   1      30.626  23.008  24.967  1.00  0.00    -0.167 F 
ENDBRANCH  19  20
ENDBRANCH   5   8
ENDBRANCH   3   4
ENDBRANCH   2   3
ENDBRANCH   1   2
BRANCH   1  24
ATOM     24  N   UNL A   1      33.831  29.858  26.563  1.00  0.00    -0.352 N 
ATOM     25  C   UNL A   1      34.451  30.553  27.569  1.00  0.00     0.251 C 
ATOM     26  H   UNL A   1      33.068  30.322  26.147  1.00  0.00     0.163 HD
ATOM     27  O   UNL A   1      33.879  31.511  28.088  1.00  0.00    -0.269 OA
BRANCH  25  28
ATOM     28  C   UNL A   1      35.796  30.154  28.021  1.00  0.00     0.039 A 
ATOM     29  C   UNL A   1      35.965  29.632  29.306  1.00  0.00     0.014 A 
ATOM     30  C   UNL A   1      36.897  30.322  27.179  1.00  0.00     0.014 A 
ATOM     31  C   UNL A   1      37.233  29.223  29.720  1.00  0.00     0.010 A 
ATOM     32  C   UNL A   1      38.134  29.820  27.552  1.00  0.00     0.010 A 
ATOM     33  C   UNL A   1      38.321  29.286  28.834  1.00  0.00    -0.014 A 
BRANCH  33  34
ATOM     34  C   UNL A   1      39.672  28.830  29.232  1.00  0.00     0.031 A 
ATOM     35  C   UNL A   1      40.579  29.758  29.994  1.00  0.00     0.074 A 
ATOM     36  C   UNL A   1      40.104  27.613  28.849  1.00  0.00     0.049 A 
ATOM     37  N   UNL A   1      41.812  29.567  30.383  1.00  0.00    -0.248 NA
ATOM     38  C   UNL A   1      40.041  31.087  30.335  1.00  0.00     0.031 C 
ATOM     39  C   UNL A   1      39.329  26.647  28.066  1.00  0.00     0.029 A 
ATOM     40  N   UNL A   1      41.301  26.980  29.065  1.00  0.00    -0.354 N 
ATOM     41  C   UNL A   1      42.202  30.753  30.994  1.00  0.00     0.074 A 
ATOM     42  C   UNL A   1      41.098  31.678  30.870  1.00  0.00     0.031 C 
ATOM     43  C   UNL A   1      40.057  25.531  27.900  1.00  0.00     0.029 A 
ATOM     44  C   UNL A   1      41.362  25.718  28.524  1.00  0.00     0.049 A 
ATOM     45  H   UNL A   1      42.046  27.392  29.559  1.00  0.00     0.167 HD
ATOM     46  C   UNL A   1      43.365  31.038  31.624  1.00  0.00     0.031 A 
ATOM     47  C   UNL A   1      42.359  24.812  28.530  1.00  0.00     0.031 A 
ATOM     48  C   UNL A   1      44.448  30.104  31.758  1.00  0.00     0.049 A 
ATOM     49  C   UNL A   1      43.643  25.148  29.234  1.00  0.00     0.074 A 
ATOM     50  C   UNL A   1      45.644  30.266  32.435  1.00  0.00     0.029 A 
ATOM     51  N   UNL A   1      44.470  28.834  31.200  1.00  0.00    -0.354 N 
ATOM     52  N   UNL A   1      43.967  26.249  29.871  1.00  0.00    -0.248 NA
ATOM     53  C   UNL A   1      44.692  24.120  29.231  1.00  0.00     0.031 C 
ATOM     54  C   UNL A   1      46.413  29.116  32.236  1.00  0.00     0.029 A 
ATOM     55  C   UNL A   1      45.673  28.213  31.490  1.00  0.00     0.049 A 
ATOM     56  H   UNL A   1      43.738  28.434  30.677  1.00  0.00     0.167 HD
ATOM     57  C   UNL A   1      45.253  26.041  30.356  1.00  0.00     0.074 A 
ATOM     58  C   UNL A   1      45.638  24.702  29.956  1.00  0.00     0.031 C 
ATOM     59  C   UNL A   1      46.042  26.884  31.068  1.00  0.00     0.031 A 
BRANCH  46  60
ATOM     60  C   UNL A   1      43.520  32.418  32.210  1.00  0.00    -0.014 A 
ATOM     61  C   UNL A   1      44.059  33.474  31.453  1.00  0.00     0.010 A 
ATOM     62  C   UNL A   1      43.094  32.669  33.527  1.00  0.00     0.010 A 
ATOM     63  C   UNL A   1      44.213  34.743  32.017  1.00  0.00     0.020 A 
ATOM     64  C   UNL A   1      43.217  33.944  34.084  1.00  0.00     0.020 A 
ATOM     65  C   UNL A   1      43.793  34.970  33.330  1.00  0.00     0.054 A 
BRANCH  65  66
ATOM     66  S   UNL A   1      43.991  36.632  34.029  1.00  0.00     0.124 S 
ATOM     67  O   UNL A   1      45.444  36.784  34.037  1.00  0.00    -0.237 OA
ATOM     68  O   UNL A   1      43.277  37.469  33.067  1.00  0.00    -0.237 OA
ATOM     69  O   UNL A   1      43.369  36.532  35.347  1.00  0.00    -0.744 OA
ENDBRANCH  65  66
ENDBRANCH  46  60
BRANCH  47  70
ATOM     70  C   UNL A   1      42.153  23.496  27.868  1.00  0.00    -0.014 A 
ATOM     71  C   UNL A   1      42.631  23.272  26.565  1.00  0.00     0.010 A 
ATOM     72  C   UNL A   1      41.542  22.435  28.562  1.00  0.00     0.010 A 
ATOM     73  C   UNL A   1      42.510  22.012  25.972  1.00  0.00     0.020 A 
ATOM     74  C   UNL A   1      41.443  21.166  27.984  1.00  0.00     0.020 A 
ATOM     75  C   UNL A   1      41.928  20.964  26.690  1.00  0.00     0.054 A 
BRANCH  75  76
ATOM     76  S   UNL A   1      41.873  19.314  25.935  1.00  0.00     0.124 S 
ATOM     77  O   UNL A   1      40.453  19.165  25.631  1.00  0.00    -0.237 OA
ATOM     78  O   UNL A   1      42.754  19.470  24.780  1.00  0.00    -0.237 OA
ATOM     79  O   UNL A   1      42.385  18.438  26.986  1.00  0.00    -0.744 OA
ENDBRANCH  75  76
ENDBRANCH  47  70
BRANCH  59  80
ATOM     80  C   UNL A   1      47.407  26.389  31.467  1.00  0.00    -0.014 A 
ATOM     81  C   UNL A   1      47.605  25.725  32.690  1.00  0.00     0.010 A 
ATOM     82  C   UNL A   1      48.482  26.511  30.568  1.00  0.00     0.010 A 
ATOM     83  C   UNL A   1      48.861  25.206  33.013  1.00  0.00     0.020 A 
ATOM     84  C   UNL A   1      49.731  25.967  30.876  1.00  0.00     0.020 A 
ATOM     85  C   UNL A   1      49.914  25.326  32.102  1.00  0.00     0.054 A 
BRANCH  85  86
ATOM     86  S   UNL A   1      51.516  24.588  32.525  1.00  0.00     0.124 S 
ATOM     87  O   UNL A   1      52.418  25.271  31.603  1.00  0.00    -0.237 OA
ATOM     88  O   UNL A   1      51.668  24.945  33.933  1.00  0.00    -0.237 OA
ATOM     89  O   UNL A   1      51.321  23.163  32.266  1.00  0.00    -0.744 OA
ENDBRANCH  85  86
ENDBRANCH  59  80
ENDBRANCH  33  34
ENDBRANCH  25  28
ENDBRANCH   1  24
TORSDOF 14
ENDMDL
