MODEL 1
REMARK VINA RESULT:     -10.3      0.000      0.000
REMARK SMILES N#CCOc1ccccc1[C@H]1[NH2+][C@@H](C(=O)NCCCNC(=O)c2ccc(-c3c4nc(c(-c5ccc(S(=O)(=O)[O-])cc5)c5ccc([nH]5)c(-c5ccc(S(=O)(=O)[O-])cc5)c5nc(c(-c6ccc(S(=O)(=O)[O-])cc6)c6ccc3[nH]6)C=C5)C=C4)cc2)CS1
REMARK SMILES IDX 17 1 16 2 14 3 15 4 13 6 11 7 12 8 84 9 83 12 10 13 5 14
REMARK SMILES IDX 6 15 7 16 9 17 8 18 4 19 3 20 2 21 1 22 18 23 19 24 20 25
REMARK SMILES IDX 21 26 22 28 23 29 24 30 82 31 25 32 81 33 26 34 27 35 28 36
REMARK SMILES IDX 75 37 29 38 80 39 74 40 76 41 30 42 79 43 73 44 72 45 31 47
REMARK SMILES IDX 61 48 42 49 60 50 43 51 46 52 59 53 77 54 44 55 45 56 58 58
REMARK SMILES IDX 78 59 47 60 32 61 33 62 41 63 34 64 40 65 35 66 36 67 37 68
REMARK SMILES IDX 38 69 39 70 62 71 63 72 71 73 64 74 70 75 65 76 66 77 67 78
REMARK SMILES IDX 68 79 69 80 48 81 49 82 57 83 50 84 56 85 51 86 52 87 53 88
REMARK SMILES IDX 54 89 55 90
REMARK H PARENT 16 5 12 10 12 11 20 27 76 46 46 57
REMARK Flexibility Score: inf
ROOT
ATOM      1  C   UNL A   1      31.686  27.210  25.992  1.00  0.00     0.118 C 
ENDROOT
BRANCH   1   2
ATOM      2  N   UNL A   1      32.741  27.439  24.999  1.00  0.00    -0.351 N 
ATOM      3  C   UNL A   1      32.957  26.929  23.730  1.00  0.00     0.279 C 
ATOM      4  O   UNL A   1      33.704  27.591  23.001  1.00  0.00    -0.268 OA
ATOM      5  H   UNL A   1      33.430  28.079  25.291  1.00  0.00     0.163 HD
BRANCH   3   6
ATOM      6  C   UNL A   1      32.251  25.606  23.232  1.00  0.00     0.283 C 
ATOM      7  C   UNL A   1      33.328  23.384  23.304  1.00  0.00     0.278 C 
ATOM      8  N   UNL A   1      32.694  24.467  24.070  1.00  0.00    -0.320 N 
ATOM      9  S   UNL A   1      33.150  23.602  21.542  1.00  0.00    -0.087 SA
ATOM     10  H   UNL A   1      33.364  24.814  24.755  1.00  0.00     0.348 HD
ATOM     11  H   UNL A   1      31.859  24.075  24.506  1.00  0.00     0.348 HD
ATOM     12  C   UNL A   1      32.412  25.309  21.719  1.00  0.00     0.151 C 
BRANCH   7  13
ATOM     13  C   UNL A   1      34.432  22.686  24.219  1.00  0.00     0.062 A 
ATOM     14  C   UNL A   1      34.536  21.803  25.383  1.00  0.00     0.131 A 
ATOM     15  C   UNL A   1      35.819  21.295  25.720  1.00  0.00     0.047 A 
ATOM     16  C   UNL A   1      36.960  21.511  24.952  1.00  0.00     0.004 A 
ATOM     17  C   UNL A   1      35.665  22.850  23.479  1.00  0.00     0.015 A 
ATOM     18  C   UNL A   1      36.883  22.280  23.817  1.00  0.00     0.001 A 
BRANCH  14  19
ATOM     19  O   UNL A   1      33.694  21.358  26.434  1.00  0.00    -0.478 OA
BRANCH  19  20
ATOM     20  C   UNL A   1      33.722  21.969  27.799  1.00  0.00     0.349 C 
BRANCH  20  21
ATOM     21  C   UNL A   1      32.573  22.908  27.467  1.00  0.00     0.104 C 
ATOM     22  N   UNL A   1      31.620  23.688  27.193  1.00  0.00    -0.195 NA
ENDBRANCH  20  21
ENDBRANCH  19  20
ENDBRANCH  14  19
ENDBRANCH   7  13
ENDBRANCH   3   6
ENDBRANCH   1   2
BRANCH   1  23
ATOM     23  C   UNL A   1      31.781  28.162  27.198  1.00  0.00     0.042 C 
BRANCH  23  24
ATOM     24  C   UNL A   1      33.206  28.638  27.516  1.00  0.00     0.118 C 
BRANCH  24  25
ATOM     25  N   UNL A   1      33.292  30.086  27.652  1.00  0.00    -0.352 N 
ATOM     26  C   UNL A   1      34.286  30.909  28.129  1.00  0.00     0.251 C 
ATOM     27  H   UNL A   1      32.489  30.565  27.345  1.00  0.00     0.163 HD
ATOM     28  O   UNL A   1      34.031  32.094  28.301  1.00  0.00    -0.269 OA
BRANCH  26  29
ATOM     29  C   UNL A   1      35.641  30.401  28.452  1.00  0.00     0.039 A 
ATOM     30  C   UNL A   1      36.587  30.337  27.420  1.00  0.00     0.014 A 
ATOM     31  C   UNL A   1      35.976  29.925  29.722  1.00  0.00     0.014 A 
ATOM     32  C   UNL A   1      37.882  29.876  27.678  1.00  0.00     0.010 A 
ATOM     33  C   UNL A   1      37.286  29.511  29.990  1.00  0.00     0.010 A 
ATOM     34  C   UNL A   1      38.260  29.504  28.978  1.00  0.00    -0.014 A 
BRANCH  34  35
ATOM     35  C   UNL A   1      39.677  29.191  29.307  1.00  0.00     0.031 A 
ATOM     36  C   UNL A   1      40.590  30.229  29.904  1.00  0.00     0.074 A 
ATOM     37  C   UNL A   1      40.167  27.974  28.996  1.00  0.00     0.049 A 
ATOM     38  N   UNL A   1      41.869  30.143  30.171  1.00  0.00    -0.248 NA
ATOM     39  C   UNL A   1      39.995  31.533  30.229  1.00  0.00     0.031 C 
ATOM     40  C   UNL A   1      39.395  26.880  28.398  1.00  0.00     0.029 A 
ATOM     41  N   UNL A   1      41.430  27.451  29.126  1.00  0.00    -0.354 N 
ATOM     42  C   UNL A   1      42.237  31.381  30.686  1.00  0.00     0.074 A 
ATOM     43  C   UNL A   1      41.051  32.212  30.658  1.00  0.00     0.031 C 
ATOM     44  C   UNL A   1      40.195  25.816  28.229  1.00  0.00     0.029 A 
ATOM     45  C   UNL A   1      41.547  26.163  28.657  1.00  0.00     0.049 A 
ATOM     46  H   UNL A   1      42.182  27.950  29.519  1.00  0.00     0.167 HD
ATOM     47  C   UNL A   1      43.446  31.785  31.148  1.00  0.00     0.031 A 
ATOM     48  C   UNL A   1      42.619  25.354  28.556  1.00  0.00     0.031 A 
ATOM     49  C   UNL A   1      44.627  30.959  31.168  1.00  0.00     0.049 A 
ATOM     50  C   UNL A   1      43.961  25.844  29.024  1.00  0.00     0.074 A 
ATOM     51  C   UNL A   1      45.885  31.269  31.659  1.00  0.00     0.029 A 
ATOM     52  N   UNL A   1      44.705  29.669  30.665  1.00  0.00    -0.354 N 
ATOM     53  N   UNL A   1      44.272  26.999  29.561  1.00  0.00    -0.248 NA
ATOM     54  C   UNL A   1      45.095  24.922  28.872  1.00  0.00     0.031 C 
ATOM     55  C   UNL A   1      46.738  30.193  31.396  1.00  0.00     0.029 A 
ATOM     56  C   UNL A   1      45.998  29.184  30.800  1.00  0.00     0.049 A 
ATOM     57  H   UNL A   1      43.955  29.170  30.271  1.00  0.00     0.167 HD
ATOM     58  C   UNL A   1      45.635  26.934  29.832  1.00  0.00     0.074 A 
ATOM     59  C   UNL A   1      46.083  25.621  29.417  1.00  0.00     0.031 C 
ATOM     60  C   UNL A   1      46.440  27.879  30.376  1.00  0.00     0.031 A 
BRANCH  47  61
ATOM     61  C   UNL A   1      43.565  33.199  31.659  1.00  0.00    -0.014 A 
ATOM     62  C   UNL A   1      43.878  34.263  30.793  1.00  0.00     0.010 A 
ATOM     63  C   UNL A   1      43.301  33.478  33.014  1.00  0.00     0.010 A 
ATOM     64  C   UNL A   1      43.965  35.570  31.279  1.00  0.00     0.020 A 
ATOM     65  C   UNL A   1      43.359  34.788  33.498  1.00  0.00     0.020 A 
ATOM     66  C   UNL A   1      43.709  35.824  32.631  1.00  0.00     0.054 A 
BRANCH  66  67
ATOM     67  S   UNL A   1      43.814  37.535  33.227  1.00  0.00     0.124 S 
ATOM     68  O   UNL A   1      42.612  37.639  34.052  1.00  0.00    -0.237 OA
ATOM     69  O   UNL A   1      45.079  37.542  33.958  1.00  0.00    -0.237 OA
ATOM     70  O   UNL A   1      43.797  38.331  32.002  1.00  0.00    -0.744 OA
ENDBRANCH  66  67
ENDBRANCH  47  61
BRANCH  48  71
ATOM     71  C   UNL A   1      42.467  23.992  27.975  1.00  0.00    -0.014 A 
ATOM     72  C   UNL A   1      42.340  23.817  26.586  1.00  0.00     0.010 A 
ATOM     73  C   UNL A   1      42.463  22.858  28.810  1.00  0.00     0.010 A 
ATOM     74  C   UNL A   1      42.198  22.536  26.043  1.00  0.00     0.020 A 
ATOM     75  C   UNL A   1      42.352  21.575  28.268  1.00  0.00     0.020 A 
ATOM     76  C   UNL A   1      42.209  21.423  26.889  1.00  0.00     0.054 A 
BRANCH  76  77
ATOM     77  S   UNL A   1      42.082  19.768  26.157  1.00  0.00     0.124 S 
ATOM     78  O   UNL A   1      40.675  19.711  25.779  1.00  0.00    -0.237 OA
ATOM     79  O   UNL A   1      43.035  19.841  25.052  1.00  0.00    -0.237 OA
ATOM     80  O   UNL A   1      42.476  18.882  27.251  1.00  0.00    -0.744 OA
ENDBRANCH  76  77
ENDBRANCH  48  71
BRANCH  60  81
ATOM     81  C   UNL A   1      47.891  27.527  30.573  1.00  0.00    -0.014 A 
ATOM     82  C   UNL A   1      48.322  26.828  31.715  1.00  0.00     0.010 A 
ATOM     83  C   UNL A   1      48.828  27.845  29.572  1.00  0.00     0.010 A 
ATOM     84  C   UNL A   1      49.666  26.475  31.863  1.00  0.00     0.020 A 
ATOM     85  C   UNL A   1      50.169  27.468  29.703  1.00  0.00     0.020 A 
ATOM     86  C   UNL A   1      50.580  26.793  30.854  1.00  0.00     0.054 A 
BRANCH  86  87
ATOM     87  S   UNL A   1      52.306  26.271  31.046  1.00  0.00     0.124 S 
ATOM     88  O   UNL A   1      52.161  24.974  31.702  1.00  0.00    -0.237 OA
ATOM     89  O   UNL A   1      52.782  26.228  29.665  1.00  0.00    -0.237 OA
ATOM     90  O   UNL A   1      52.899  27.322  31.870  1.00  0.00    -0.744 OA
ENDBRANCH  86  87
ENDBRANCH  60  81
ENDBRANCH  34  35
ENDBRANCH  26  29
ENDBRANCH  24  25
ENDBRANCH  23  24
ENDBRANCH   1  23
TORSDOF 17
ENDMDL
MODEL 2
REMARK VINA RESULT:     -10.2      4.605     10.208
REMARK SMILES N#CCOc1ccccc1[C@H]1[NH2+][C@@H](C(=O)NCCCNC(=O)c2ccc(-c3c4nc(c(-c5ccc(S(=O)(=O)[O-])cc5)c5ccc([nH]5)c(-c5ccc(S(=O)(=O)[O-])cc5)c5nc(c(-c6ccc(S(=O)(=O)[O-])cc6)c6ccc3[nH]6)C=C5)C=C4)cc2)CS1
REMARK SMILES IDX 17 1 16 2 14 3 15 4 13 6 11 7 12 8 84 9 83 12 10 13 5 14
REMARK SMILES IDX 6 15 7 16 9 17 8 18 4 19 3 20 2 21 1 22 18 23 19 24 20 25
REMARK SMILES IDX 21 26 22 28 23 29 24 30 82 31 25 32 81 33 26 34 27 35 28 36
REMARK SMILES IDX 75 37 29 38 80 39 74 40 76 41 30 42 79 43 73 44 72 45 31 47
REMARK SMILES IDX 61 48 42 49 60 50 43 51 46 52 59 53 77 54 44 55 45 56 58 58
REMARK SMILES IDX 78 59 47 60 32 61 33 62 41 63 34 64 40 65 35 66 36 67 37 68
REMARK SMILES IDX 38 69 39 70 62 71 63 72 71 73 64 74 70 75 65 76 66 77 67 78
REMARK SMILES IDX 68 79 69 80 48 81 49 82 57 83 50 84 56 85 51 86 52 87 53 88
REMARK SMILES IDX 54 89 55 90
REMARK H PARENT 16 5 12 10 12 11 20 27 76 46 46 57
REMARK Flexibility Score: inf
ROOT
ATOM      1  C   UNL A   1      39.301  22.195  26.033  1.00  0.00     0.118 C 
ENDROOT
BRANCH   1   2
ATOM      2  N   UNL A   1      38.319  23.263  25.816  1.00  0.00    -0.351 N 
ATOM      3  C   UNL A   1      37.015  23.254  25.350  1.00  0.00     0.279 C 
ATOM      4  O   UNL A   1      36.330  24.241  25.641  1.00  0.00    -0.268 OA
ATOM      5  H   UNL A   1      38.651  24.161  26.047  1.00  0.00     0.163 HD
BRANCH   3   6
ATOM      6  C   UNL A   1      36.430  22.033  24.536  1.00  0.00     0.283 C 
ATOM      7  C   UNL A   1      34.075  21.899  23.798  1.00  0.00     0.278 C 
ATOM      8  N   UNL A   1      35.393  22.520  23.597  1.00  0.00    -0.320 N 
ATOM      9  S   UNL A   1      34.138  20.526  24.936  1.00  0.00    -0.087 SA
ATOM     10  H   UNL A   1      35.297  23.528  23.718  1.00  0.00     0.348 HD
ATOM     11  H   UNL A   1      35.701  22.270  22.656  1.00  0.00     0.348 HD
ATOM     12  C   UNL A   1      35.916  20.855  25.404  1.00  0.00     0.151 C 
BRANCH   7  13
ATOM     13  C   UNL A   1      32.945  22.955  23.412  1.00  0.00     0.062 A 
ATOM     14  C   UNL A   1      31.648  23.441  23.887  1.00  0.00     0.131 A 
ATOM     15  C   UNL A   1      31.095  24.588  23.258  1.00  0.00     0.047 A 
ATOM     16  C   UNL A   1      31.761  25.330  22.285  1.00  0.00     0.004 A 
ATOM     17  C   UNL A   1      33.564  23.789  22.404  1.00  0.00     0.015 A 
ATOM     18  C   UNL A   1      33.009  24.938  21.864  1.00  0.00     0.001 A 
BRANCH  14  19
ATOM     19  O   UNL A   1      30.635  23.008  24.781  1.00  0.00    -0.478 OA
BRANCH  19  20
ATOM     20  C   UNL A   1      30.927  22.606  26.192  1.00  0.00     0.349 C 
BRANCH  20  21
ATOM     21  C   UNL A   1      31.155  24.047  26.619  1.00  0.00     0.104 C 
ATOM     22  N   UNL A   1      31.345  25.243  26.973  1.00  0.00    -0.195 NA
ENDBRANCH  20  21
ENDBRANCH  19  20
ENDBRANCH  14  19
ENDBRANCH   7  13
ENDBRANCH   3   6
ENDBRANCH   1   2
BRANCH   1  23
ATOM     23  C   UNL A   1      40.103  22.372  27.335  1.00  0.00     0.042 C 
BRANCH  23  24
ATOM     24  C   UNL A   1      41.536  22.885  27.130  1.00  0.00     0.118 C 
BRANCH  24  25
ATOM     25  N   UNL A   1      41.630  23.852  26.043  1.00  0.00    -0.352 N 
ATOM     26  C   UNL A   1      41.491  25.220  26.014  1.00  0.00     0.251 C 
ATOM     27  H   UNL A   1      41.830  23.451  25.167  1.00  0.00     0.163 HD
ATOM     28  O   UNL A   1      41.442  25.780  24.926  1.00  0.00    -0.269 OA
BRANCH  26  29
ATOM     29  C   UNL A   1      41.385  26.028  27.254  1.00  0.00     0.039 A 
ATOM     30  C   UNL A   1      42.452  26.873  27.585  1.00  0.00     0.014 A 
ATOM     31  C   UNL A   1      40.299  25.918  28.125  1.00  0.00     0.014 A 
ATOM     32  C   UNL A   1      42.394  27.664  28.738  1.00  0.00     0.010 A 
ATOM     33  C   UNL A   1      40.220  26.746  29.250  1.00  0.00     0.010 A 
ATOM     34  C   UNL A   1      41.255  27.644  29.558  1.00  0.00    -0.014 A 
BRANCH  34  35
ATOM     35  C   UNL A   1      41.097  28.611  30.678  1.00  0.00     0.031 A 
ATOM     36  C   UNL A   1      41.940  28.514  31.922  1.00  0.00     0.074 A 
ATOM     37  C   UNL A   1      40.128  29.546  30.602  1.00  0.00     0.049 A 
ATOM     38  N   UNL A   1      41.869  29.225  33.020  1.00  0.00    -0.248 NA
ATOM     39  C   UNL A   1      42.984  27.481  31.941  1.00  0.00     0.031 C 
ATOM     40  C   UNL A   1      39.228  29.739  29.460  1.00  0.00     0.029 A 
ATOM     41  N   UNL A   1      39.727  30.503  31.502  1.00  0.00    -0.354 N 
ATOM     42  C   UNL A   1      42.851  28.720  33.865  1.00  0.00     0.074 A 
ATOM     43  C   UNL A   1      43.478  27.618  33.164  1.00  0.00     0.031 C 
ATOM     44  C   UNL A   1      38.395  30.758  29.723  1.00  0.00     0.029 A 
ATOM     45  C   UNL A   1      38.662  31.259  31.068  1.00  0.00     0.049 A 
ATOM     46  H   UNL A   1      40.159  30.636  32.376  1.00  0.00     0.167 HD
ATOM     47  C   UNL A   1      43.205  29.141  35.105  1.00  0.00     0.031 A 
ATOM     48  C   UNL A   1      37.960  32.231  31.682  1.00  0.00     0.031 A 
ATOM     49  C   UNL A   1      42.575  30.232  35.804  1.00  0.00     0.049 A 
ATOM     50  C   UNL A   1      38.336  32.642  33.078  1.00  0.00     0.074 A 
ATOM     51  C   UNL A   1      42.896  30.759  37.045  1.00  0.00     0.029 A 
ATOM     52  N   UNL A   1      41.489  30.958  35.336  1.00  0.00    -0.354 N 
ATOM     53  N   UNL A   1      39.306  32.191  33.835  1.00  0.00    -0.248 NA
ATOM     54  C   UNL A   1      37.522  33.695  33.702  1.00  0.00     0.031 C 
ATOM     55  C   UNL A   1      41.966  31.757  37.354  1.00  0.00     0.029 A 
ATOM     56  C   UNL A   1      41.105  31.900  36.278  1.00  0.00     0.049 A 
ATOM     57  H   UNL A   1      41.055  30.824  34.463  1.00  0.00     0.167 HD
ATOM     58  C   UNL A   1      39.233  32.919  35.017  1.00  0.00     0.074 A 
ATOM     59  C   UNL A   1      38.137  33.854  34.868  1.00  0.00     0.031 C 
ATOM     60  C   UNL A   1      40.006  32.821  36.127  1.00  0.00     0.031 A 
BRANCH  47  61
ATOM     61  C   UNL A   1      44.321  28.405  35.804  1.00  0.00    -0.014 A 
ATOM     62  C   UNL A   1      45.663  28.790  35.638  1.00  0.00     0.010 A 
ATOM     63  C   UNL A   1      44.018  27.350  36.686  1.00  0.00     0.010 A 
ATOM     64  C   UNL A   1      46.684  28.110  36.307  1.00  0.00     0.020 A 
ATOM     65  C   UNL A   1      45.034  26.686  37.380  1.00  0.00     0.020 A 
ATOM     66  C   UNL A   1      46.363  27.058  37.172  1.00  0.00     0.054 A 
BRANCH  66  67
ATOM     67  S   UNL A   1      47.709  26.206  38.039  1.00  0.00     0.124 S 
ATOM     68  O   UNL A   1      48.380  27.314  38.715  1.00  0.00    -0.237 OA
ATOM     69  O   UNL A   1      46.992  25.280  38.913  1.00  0.00    -0.237 OA
ATOM     70  O   UNL A   1      48.474  25.580  36.963  1.00  0.00    -0.744 OA
ENDBRANCH  66  67
ENDBRANCH  47  61
BRANCH  48  71
ATOM     71  C   UNL A   1      36.818  32.877  30.979  1.00  0.00    -0.014 A 
ATOM     72  C   UNL A   1      35.497  32.485  31.252  1.00  0.00     0.010 A 
ATOM     73  C   UNL A   1      37.047  33.901  30.041  1.00  0.00     0.010 A 
ATOM     74  C   UNL A   1      34.425  33.094  30.591  1.00  0.00     0.020 A 
ATOM     75  C   UNL A   1      35.979  34.534  29.401  1.00  0.00     0.020 A 
ATOM     76  C   UNL A   1      34.675  34.118  29.673  1.00  0.00     0.054 A 
BRANCH  76  77
ATOM     77  S   UNL A   1      33.267  34.934  28.871  1.00  0.00     0.124 S 
ATOM     78  O   UNL A   1      32.427  35.280  30.012  1.00  0.00    -0.237 OA
ATOM     79  O   UNL A   1      33.903  36.056  28.186  1.00  0.00    -0.237 OA
ATOM     80  O   UNL A   1      32.732  33.898  27.988  1.00  0.00    -0.744 OA
ENDBRANCH  76  77
ENDBRANCH  48  71
BRANCH  60  81
ATOM     81  C   UNL A   1      39.709  33.760  37.267  1.00  0.00    -0.014 A 
ATOM     82  C   UNL A   1      38.877  33.371  38.332  1.00  0.00     0.010 A 
ATOM     83  C   UNL A   1      40.321  35.027  37.304  1.00  0.00     0.010 A 
ATOM     84  C   UNL A   1      38.644  34.241  39.401  1.00  0.00     0.020 A 
ATOM     85  C   UNL A   1      40.113  35.888  38.386  1.00  0.00     0.020 A 
ATOM     86  C   UNL A   1      39.267  35.492  39.423  1.00  0.00     0.054 A 
BRANCH  86  87
ATOM     87  S   UNL A   1      38.993  36.576  40.851  1.00  0.00     0.124 S 
ATOM     88  O   UNL A   1      37.978  35.841  41.602  1.00  0.00    -0.237 OA
ATOM     89  O   UNL A   1      40.316  36.631  41.469  1.00  0.00    -0.237 OA
ATOM     90  O   UNL A   1      38.539  37.830  40.255  1.00  0.00    -0.744 OA
ENDBRANCH  86  87
ENDBRANCH  60  81
ENDBRANCH  34  35
ENDBRANCH  26  29
ENDBRANCH  24  25
ENDBRANCH  23  24
ENDBRANCH   1  23
TORSDOF 17
ENDMDL
MODEL 3
REMARK VINA RESULT:     -10.0      3.561      7.268
REMARK SMILES N#CCOc1ccccc1[C@H]1[NH2+][C@@H](C(=O)NCCCNC(=O)c2ccc(-c3c4nc(c(-c5ccc(S(=O)(=O)[O-])cc5)c5ccc([nH]5)c(-c5ccc(S(=O)(=O)[O-])cc5)c5nc(c(-c6ccc(S(=O)(=O)[O-])cc6)c6ccc3[nH]6)C=C5)C=C4)cc2)CS1
REMARK SMILES IDX 17 1 16 2 14 3 15 4 13 6 11 7 12 8 84 9 83 12 10 13 5 14
REMARK SMILES IDX 6 15 7 16 9 17 8 18 4 19 3 20 2 21 1 22 18 23 19 24 20 25
REMARK SMILES IDX 21 26 22 28 23 29 24 30 82 31 25 32 81 33 26 34 27 35 28 36
REMARK SMILES IDX 75 37 29 38 80 39 74 40 76 41 30 42 79 43 73 44 72 45 31 47
REMARK SMILES IDX 61 48 42 49 60 50 43 51 46 52 59 53 77 54 44 55 45 56 58 58
REMARK SMILES IDX 78 59 47 60 32 61 33 62 41 63 34 64 40 65 35 66 36 67 37 68
REMARK SMILES IDX 38 69 39 70 62 71 63 72 71 73 64 74 70 75 65 76 66 77 67 78
REMARK SMILES IDX 68 79 69 80 48 81 49 82 57 83 50 84 56 85 51 86 52 87 53 88
REMARK SMILES IDX 54 89 55 90
REMARK H PARENT 16 5 12 10 12 11 20 27 76 46 46 57
REMARK Flexibility Score: inf
ROOT
ATOM      1  C   UNL A   1      34.804  33.336  30.765  1.00  0.00     0.118 C 
ENDROOT
BRANCH   1   2
ATOM      2  N   UNL A   1      35.557  34.279  31.599  1.00  0.00    -0.351 N 
ATOM      3  C   UNL A   1      36.373  34.105  32.704  1.00  0.00     0.279 C 
ATOM      4  O   UNL A   1      37.160  35.027  32.946  1.00  0.00    -0.268 OA
ATOM      5  H   UNL A   1      35.465  35.219  31.320  1.00  0.00     0.163 HD
BRANCH   3   6
ATOM      6  C   UNL A   1      36.331  32.785  33.572  1.00  0.00     0.283 C 
ATOM      7  C   UNL A   1      38.117  32.144  35.154  1.00  0.00     0.278 C 
ATOM      8  N   UNL A   1      36.980  33.035  34.880  1.00  0.00    -0.320 N 
ATOM      9  S   UNL A   1      38.244  30.818  33.967  1.00  0.00    -0.087 SA
ATOM     10  H   UNL A   1      37.314  33.999  34.894  1.00  0.00     0.348 HD
ATOM     11  H   UNL A   1      36.279  32.856  35.599  1.00  0.00     0.348 HD
ATOM     12  C   UNL A   1      36.904  31.525  32.873  1.00  0.00     0.151 C 
BRANCH   7  13
ATOM     13  C   UNL A   1      39.183  32.930  36.042  1.00  0.00     0.062 A 
ATOM     14  C   UNL A   1      40.423  32.693  36.785  1.00  0.00     0.131 A 
ATOM     15  C   UNL A   1      41.126  33.822  37.283  1.00  0.00     0.047 A 
ATOM     16  C   UNL A   1      40.754  35.139  37.022  1.00  0.00     0.004 A 
ATOM     17  C   UNL A   1      38.878  34.326  35.815  1.00  0.00     0.015 A 
ATOM     18  C   UNL A   1      39.633  35.395  36.272  1.00  0.00     0.001 A 
BRANCH  14  19
ATOM     19  O   UNL A   1      41.133  31.580  37.303  1.00  0.00    -0.478 OA
BRANCH  19  20
ATOM     20  C   UNL A   1      42.537  31.263  36.897  1.00  0.00     0.349 C 
BRANCH  20  21
ATOM     21  C   UNL A   1      42.071  30.407  35.732  1.00  0.00     0.104 C 
ATOM     22  N   UNL A   1      41.684  29.696  34.764  1.00  0.00    -0.195 NA
ENDBRANCH  20  21
ENDBRANCH  19  20
ENDBRANCH  14  19
ENDBRANCH   7  13
ENDBRANCH   3   6
ENDBRANCH   1   2
BRANCH   1  23
ATOM     23  C   UNL A   1      34.297  33.966  29.456  1.00  0.00     0.042 C 
BRANCH  23  24
ATOM     24  C   UNL A   1      34.776  33.251  28.184  1.00  0.00     0.118 C 
BRANCH  24  25
ATOM     25  N   UNL A   1      33.974  32.076  27.870  1.00  0.00    -0.352 N 
ATOM     26  C   UNL A   1      34.294  30.743  27.769  1.00  0.00     0.251 C 
ATOM     27  H   UNL A   1      33.024  32.274  27.699  1.00  0.00     0.163 HD
ATOM     28  O   UNL A   1      33.458  29.973  27.312  1.00  0.00    -0.269 OA
BRANCH  26  29
ATOM     29  C   UNL A   1      35.619  30.218  28.181  1.00  0.00     0.039 A 
ATOM     30  C   UNL A   1      36.636  30.160  27.219  1.00  0.00     0.014 A 
ATOM     31  C   UNL A   1      35.859  29.720  29.464  1.00  0.00     0.014 A 
ATOM     32  C   UNL A   1      37.906  29.684  27.562  1.00  0.00     0.010 A 
ATOM     33  C   UNL A   1      37.142  29.291  29.819  1.00  0.00     0.010 A 
ATOM     34  C   UNL A   1      38.186  29.289  28.879  1.00  0.00    -0.014 A 
BRANCH  34  35
ATOM     35  C   UNL A   1      39.574  28.959  29.305  1.00  0.00     0.031 A 
ATOM     36  C   UNL A   1      40.439  29.970  30.008  1.00  0.00     0.074 A 
ATOM     37  C   UNL A   1      40.084  27.752  28.987  1.00  0.00     0.049 A 
ATOM     38  N   UNL A   1      41.694  29.869  30.369  1.00  0.00    -0.248 NA
ATOM     39  C   UNL A   1      39.822  31.263  30.335  1.00  0.00     0.031 C 
ATOM     40  C   UNL A   1      39.359  26.685  28.290  1.00  0.00     0.029 A 
ATOM     41  N   UNL A   1      41.333  27.220  29.194  1.00  0.00    -0.354 N 
ATOM     42  C   UNL A   1      42.022  31.085  30.957  1.00  0.00     0.074 A 
ATOM     43  C   UNL A   1      40.843  31.922  30.870  1.00  0.00     0.031 C 
ATOM     44  C   UNL A   1      40.169  25.624  28.144  1.00  0.00     0.029 A 
ATOM     45  C   UNL A   1      41.485  25.949  28.687  1.00  0.00     0.049 A 
ATOM     46  H   UNL A   1      42.053  27.701  29.662  1.00  0.00     0.167 HD
ATOM     47  C   UNL A   1      43.193  31.467  31.526  1.00  0.00     0.031 A 
ATOM     48  C   UNL A   1      42.560  25.140  28.638  1.00  0.00     0.031 A 
ATOM     49  C   UNL A   1      44.368  30.636  31.605  1.00  0.00     0.049 A 
ATOM     50  C   UNL A   1      43.862  25.608  29.226  1.00  0.00     0.074 A 
ATOM     51  C   UNL A   1      45.584  30.922  32.203  1.00  0.00     0.029 A 
ATOM     52  N   UNL A   1      44.483  29.365  31.062  1.00  0.00    -0.354 N 
ATOM     53  N   UNL A   1      44.133  26.740  29.829  1.00  0.00    -0.248 NA
ATOM     54  C   UNL A   1      45.004  24.687  29.127  1.00  0.00     0.031 C 
ATOM     55  C   UNL A   1      46.453  29.853  31.966  1.00  0.00     0.029 A 
ATOM     56  C   UNL A   1      45.761  28.871  31.277  1.00  0.00     0.049 A 
ATOM     57  H   UNL A   1      43.764  28.884  30.592  1.00  0.00     0.167 HD
ATOM     58  C   UNL A   1      45.470  26.660  30.201  1.00  0.00     0.074 A 
ATOM     59  C   UNL A   1      45.948  25.361  29.773  1.00  0.00     0.031 C 
ATOM     60  C   UNL A   1      46.232  27.581  30.840  1.00  0.00     0.031 A 
BRANCH  47  61
ATOM     61  C   UNL A   1      43.273  32.861  32.097  1.00  0.00    -0.014 A 
ATOM     62  C   UNL A   1      43.761  33.935  31.331  1.00  0.00     0.010 A 
ATOM     63  C   UNL A   1      42.799  33.111  33.399  1.00  0.00     0.010 A 
ATOM     64  C   UNL A   1      43.811  35.224  31.869  1.00  0.00     0.020 A 
ATOM     65  C   UNL A   1      42.821  34.405  33.930  1.00  0.00     0.020 A 
ATOM     66  C   UNL A   1      43.344  35.450  33.167  1.00  0.00     0.054 A 
BRANCH  66  67
ATOM     67  S   UNL A   1      43.407  37.138  33.831  1.00  0.00     0.124 S 
ATOM     68  O   UNL A   1      43.581  37.931  32.617  1.00  0.00    -0.237 OA
ATOM     69  O   UNL A   1      42.109  37.272  34.488  1.00  0.00    -0.237 OA
ATOM     70  O   UNL A   1      44.560  37.115  34.729  1.00  0.00    -0.744 OA
ENDBRANCH  66  67
ENDBRANCH  47  61
BRANCH  48  71
ATOM     71  C   UNL A   1      42.451  23.801  27.997  1.00  0.00    -0.014 A 
ATOM     72  C   UNL A   1      42.852  23.613  26.663  1.00  0.00     0.010 A 
ATOM     73  C   UNL A   1      41.959  22.701  28.724  1.00  0.00     0.010 A 
ATOM     74  C   UNL A   1      42.749  22.354  26.063  1.00  0.00     0.020 A 
ATOM     75  C   UNL A   1      41.883  21.435  28.138  1.00  0.00     0.020 A 
ATOM     76  C   UNL A   1      42.269  21.273  26.807  1.00  0.00     0.054 A 
BRANCH  76  77
ATOM     77  S   UNL A   1      42.200  19.637  26.026  1.00  0.00     0.124 S 
ATOM     78  O   UNL A   1      40.785  19.519  25.694  1.00  0.00    -0.237 OA
ATOM     79  O   UNL A   1      43.109  19.792  24.893  1.00  0.00    -0.237 OA
ATOM     80  O   UNL A   1      42.676  18.739  27.077  1.00  0.00    -0.744 OA
ENDBRANCH  76  77
ENDBRANCH  48  71
BRANCH  60  81
ATOM     81  C   UNL A   1      47.664  27.215  31.134  1.00  0.00    -0.014 A 
ATOM     82  C   UNL A   1      48.012  26.528  32.311  1.00  0.00     0.010 A 
ATOM     83  C   UNL A   1      48.667  27.509  30.192  1.00  0.00     0.010 A 
ATOM     84  C   UNL A   1      49.340  26.162  32.550  1.00  0.00     0.020 A 
ATOM     85  C   UNL A   1      49.991  27.119  30.414  1.00  0.00     0.020 A 
ATOM     86  C   UNL A   1      50.321  26.457  31.598  1.00  0.00     0.054 A 
BRANCH  86  87
ATOM     87  S   UNL A   1      52.024  25.918  31.907  1.00  0.00     0.124 S 
ATOM     88  O   UNL A   1      52.711  26.372  30.701  1.00  0.00    -0.237 OA
ATOM     89  O   UNL A   1      52.368  26.633  33.134  1.00  0.00    -0.237 OA
ATOM     90  O   UNL A   1      51.910  24.468  32.051  1.00  0.00    -0.744 OA
ENDBRANCH  86  87
ENDBRANCH  60  81
ENDBRANCH  34  35
ENDBRANCH  26  29
ENDBRANCH  24  25
ENDBRANCH  23  24
ENDBRANCH   1  23
TORSDOF 17
ENDMDL
