MODEL 1
REMARK VINA RESULT:     -12.6      0.000      0.000
REMARK SMILES O=C(NCCCNC(=O)c1cc(-c2ccc(Cl)cc2)nc2c3c(C4CC4)cc(C(F)(F)F)nc3nn12)c1ccc(-c2c3nc(c(-c4ccc(S(=O)(=O)[O-])cc4)c4ccc([nH]4)c(-c4ccc(S(=O)(=O)[O-])cc4)c4nc(c(-c5ccc(S(=O)(=O)[O-])cc5)c5ccc2[nH]5)C=C4)C=C3)cc1
REMARK SMILES IDX 4 1 3 2 1 3 2 4 37 6 38 7 96 8 39 9 95 10 40 11 41 12 42 13
REMARK SMILES IDX 89 14 43 15 94 16 88 17 90 18 44 19 93 20 87 21 86 22 45 24
REMARK SMILES IDX 75 25 56 26 74 27 57 28 60 29 73 30 91 31 58 32 59 33 72 35
REMARK SMILES IDX 92 36 61 37 46 38 47 39 55 40 48 41 54 42 49 43 50 44 51 45
REMARK SMILES IDX 52 46 53 47 76 48 77 49 85 50 78 51 84 52 79 53 80 54 81 55
REMARK SMILES IDX 82 56 83 57 62 58 63 59 71 60 64 61 70 62 65 63 66 64 67 65
REMARK SMILES IDX 68 66 69 67 5 68 6 69 7 70 8 71 9 73 10 74 11 75 36 76 12 77
REMARK SMILES IDX 21 78 35 79 20 80 22 81 34 82 23 83 33 84 27 85 28 86 13 87
REMARK SMILES IDX 14 88 19 89 15 90 18 91 16 92 17 93 24 94 25 95 26 96 29 97
REMARK SMILES IDX 30 98 31 99 32 100
REMARK H PARENT 3 5 90 23 60 34 7 72
REMARK Flexibility Score: inf
ROOT
ATOM      1  C   UNL A   1      34.022  31.369  28.277  1.00  0.00     0.118 C 
ENDROOT
BRANCH   1   2
ATOM      2  N   UNL A   1      34.054  32.790  27.967  1.00  0.00    -0.352 N 
ATOM      3  O   UNL A   1      34.856  34.907  28.064  1.00  0.00    -0.269 OA
ATOM      4  C   UNL A   1      35.000  33.726  28.326  1.00  0.00     0.251 C 
ATOM      5  H   UNL A   1      33.302  33.128  27.429  1.00  0.00     0.163 HD
BRANCH   4   6
ATOM      6  C   UNL A   1      36.182  33.261  29.073  1.00  0.00     0.039 A 
ATOM      7  C   UNL A   1      37.232  32.643  28.390  1.00  0.00     0.014 A 
ATOM      8  C   UNL A   1      36.187  33.369  30.465  1.00  0.00     0.014 A 
ATOM      9  C   UNL A   1      38.233  32.013  29.114  1.00  0.00     0.010 A 
ATOM     10  C   UNL A   1      37.217  32.771  31.189  1.00  0.00     0.010 A 
ATOM     11  C   UNL A   1      38.219  32.062  30.515  1.00  0.00    -0.014 A 
BRANCH  11  12
ATOM     12  C   UNL A   1      39.308  31.353  31.200  1.00  0.00     0.031 A 
ATOM     13  C   UNL A   1      39.548  29.954  30.728  1.00  0.00     0.074 A 
ATOM     14  C   UNL A   1      40.378  32.058  31.618  1.00  0.00     0.049 A 
ATOM     15  N   UNL A   1      40.289  29.625  29.711  1.00  0.00    -0.248 NA
ATOM     16  C   UNL A   1      38.742  28.856  31.263  1.00  0.00     0.031 C 
ATOM     17  C   UNL A   1      41.086  33.055  30.807  1.00  0.00     0.029 A 
ATOM     18  N   UNL A   1      41.195  31.850  32.701  1.00  0.00    -0.354 N 
ATOM     19  C   UNL A   1      40.027  28.290  29.443  1.00  0.00     0.074 A 
ATOM     20  C   UNL A   1      39.061  27.857  30.428  1.00  0.00     0.031 C 
ATOM     21  C   UNL A   1      42.312  33.246  31.334  1.00  0.00     0.029 A 
ATOM     22  C   UNL A   1      42.425  32.487  32.575  1.00  0.00     0.049 A 
ATOM     23  H   UNL A   1      40.938  31.308  33.482  1.00  0.00     0.167 HD
ATOM     24  C   UNL A   1      40.603  27.588  28.433  1.00  0.00     0.031 A 
ATOM     25  C   UNL A   1      43.575  32.037  33.150  1.00  0.00     0.031 A 
ATOM     26  C   UNL A   1      41.594  28.284  27.675  1.00  0.00     0.049 A 
ATOM     27  C   UNL A   1      44.010  31.021  32.119  1.00  0.00     0.074 A 
ATOM     28  C   UNL A   1      41.668  28.975  26.486  1.00  0.00     0.029 A 
ATOM     29  N   UNL A   1      42.857  28.372  28.212  1.00  0.00    -0.354 N 
ATOM     30  N   UNL A   1      44.612  31.265  30.986  1.00  0.00    -0.248 NA
ATOM     31  C   UNL A   1      43.396  29.692  32.206  1.00  0.00     0.031 C 
ATOM     32  C   UNL A   1      42.832  29.801  26.594  1.00  0.00     0.029 A 
ATOM     33  C   UNL A   1      43.365  29.597  27.867  1.00  0.00     0.049 A 
ATOM     34  H   UNL A   1      43.313  27.682  28.746  1.00  0.00     0.167 HD
ATOM     35  C   UNL A   1      44.167  30.269  30.112  1.00  0.00     0.074 A 
ATOM     36  C   UNL A   1      43.460  29.309  30.937  1.00  0.00     0.031 C 
ATOM     37  C   UNL A   1      44.205  30.380  28.751  1.00  0.00     0.031 A 
BRANCH  24  38
ATOM     38  C   UNL A   1      40.371  26.146  28.200  1.00  0.00    -0.014 A 
ATOM     39  C   UNL A   1      41.365  25.237  28.598  1.00  0.00     0.010 A 
ATOM     40  C   UNL A   1      39.281  25.692  27.442  1.00  0.00     0.010 A 
ATOM     41  C   UNL A   1      41.304  23.904  28.199  1.00  0.00     0.020 A 
ATOM     42  C   UNL A   1      39.211  24.351  27.046  1.00  0.00     0.020 A 
ATOM     43  C   UNL A   1      40.236  23.471  27.409  1.00  0.00     0.054 A 
BRANCH  43  44
ATOM     44  S   UNL A   1      40.262  21.762  26.805  1.00  0.00     0.124 S 
ATOM     45  O   UNL A   1      40.602  21.010  28.010  1.00  0.00    -0.237 OA
ATOM     46  O   UNL A   1      38.895  21.588  26.319  1.00  0.00    -0.237 OA
ATOM     47  O   UNL A   1      41.293  21.775  25.771  1.00  0.00    -0.744 OA
ENDBRANCH  43  44
ENDBRANCH  24  38
BRANCH  25  48
ATOM     48  C   UNL A   1      43.456  31.746  34.618  1.00  0.00    -0.014 A 
ATOM     49  C   UNL A   1      44.620  31.293  35.285  1.00  0.00     0.010 A 
ATOM     50  C   UNL A   1      42.303  31.945  35.392  1.00  0.00     0.010 A 
ATOM     51  C   UNL A   1      44.681  31.212  36.677  1.00  0.00     0.020 A 
ATOM     52  C   UNL A   1      42.360  31.885  36.793  1.00  0.00     0.020 A 
ATOM     53  C   UNL A   1      43.561  31.563  37.426  1.00  0.00     0.054 A 
BRANCH  53  54
ATOM     54  S   UNL A   1      43.725  31.646  39.228  1.00  0.00     0.124 S 
ATOM     55  O   UNL A   1      42.334  31.685  39.671  1.00  0.00    -0.237 OA
ATOM     56  O   UNL A   1      44.443  30.407  39.519  1.00  0.00    -0.237 OA
ATOM     57  O   UNL A   1      44.485  32.873  39.449  1.00  0.00    -0.744 OA
ENDBRANCH  53  54
ENDBRANCH  25  48
BRANCH  37  58
ATOM     58  C   UNL A   1      44.960  31.543  28.188  1.00  0.00    -0.014 A 
ATOM     59  C   UNL A   1      46.306  31.394  27.824  1.00  0.00     0.010 A 
ATOM     60  C   UNL A   1      44.307  32.761  27.920  1.00  0.00     0.010 A 
ATOM     61  C   UNL A   1      46.973  32.423  27.155  1.00  0.00     0.020 A 
ATOM     62  C   UNL A   1      44.963  33.787  27.238  1.00  0.00     0.020 A 
ATOM     63  C   UNL A   1      46.290  33.604  26.845  1.00  0.00     0.054 A 
BRANCH  63  64
ATOM     64  S   UNL A   1      47.152  34.877  25.886  1.00  0.00     0.124 S 
ATOM     65  O   UNL A   1      47.001  36.064  26.726  1.00  0.00    -0.237 OA
ATOM     66  O   UNL A   1      48.507  34.339  25.796  1.00  0.00    -0.237 OA
ATOM     67  O   UNL A   1      46.419  34.920  24.622  1.00  0.00    -0.744 OA
ENDBRANCH  63  64
ENDBRANCH  37  58
ENDBRANCH  11  12
ENDBRANCH   4   6
ENDBRANCH   1   2
BRANCH   1  68
ATOM     68  C   UNL A   1      34.661  30.503  27.196  1.00  0.00     0.042 C 
BRANCH  68  69
ATOM     69  C   UNL A   1      34.521  29.008  27.459  1.00  0.00     0.118 C 
BRANCH  69  70
ATOM     70  N   UNL A   1      33.234  28.684  28.066  1.00  0.00    -0.351 N 
ATOM     71  C   UNL A   1      32.040  28.357  27.505  1.00  0.00     0.270 C 
ATOM     72  H   UNL A   1      33.229  28.707  29.050  1.00  0.00     0.163 HD
ATOM     73  O   UNL A   1      31.044  28.265  28.221  1.00  0.00    -0.268 OA
BRANCH  71  74
ATOM     74  C   UNL A   1      31.929  28.164  26.050  1.00  0.00     0.134 A 
ATOM     75  C   UNL A   1      31.221  29.090  25.386  1.00  0.00     0.063 A 
ATOM     76  N   UNL A   1      32.471  27.072  25.379  1.00  0.00    -0.207 N 
ATOM     77  C   UNL A   1      31.037  28.831  23.928  1.00  0.00     0.075 A 
ATOM     78  C   UNL A   1      32.341  26.959  23.981  1.00  0.00     0.166 A 
ATOM     79  N   UNL A   1      33.166  26.036  25.914  1.00  0.00    -0.145 NA
ATOM     80  N   UNL A   1      31.548  27.829  23.271  1.00  0.00    -0.228 NA
ATOM     81  C   UNL A   1      33.192  25.929  23.630  1.00  0.00     0.069 A 
ATOM     82  C   UNL A   1      33.685  25.415  24.865  1.00  0.00     0.184 A 
ATOM     83  C   UNL A   1      33.545  25.487  22.348  1.00  0.00    -0.028 A 
ATOM     84  N   UNL A   1      34.583  24.406  24.937  1.00  0.00    -0.222 NA
ATOM     85  C   UNL A   1      34.513  24.464  22.460  1.00  0.00     0.038 A 
ATOM     86  C   UNL A   1      34.992  23.965  23.706  1.00  0.00     0.147 A 
BRANCH  77  87
ATOM     87  C   UNL A   1      30.134  29.791  23.254  1.00  0.00     0.000 A 
ATOM     88  C   UNL A   1      29.591  30.839  24.002  1.00  0.00     0.012 A 
ATOM     89  C   UNL A   1      29.895  29.702  21.877  1.00  0.00     0.012 A 
ATOM     90  C   UNL A   1      28.832  31.824  23.364  1.00  0.00     0.021 A 
ATOM     91  C   UNL A   1      29.127  30.684  21.244  1.00  0.00     0.021 A 
ATOM     92  C   UNL A   1      28.608  31.745  21.988  1.00  0.00     0.041 A 
ATOM     93  Cl  UNL A   1      27.697  32.976  21.203  1.00  0.00    -0.084 Cl
ENDBRANCH  77  87
BRANCH  83  94
ATOM     94  C   UNL A   1      32.965  26.056  21.092  1.00  0.00     0.020 C 
ATOM     95  C   UNL A   1      32.733  25.226  19.851  1.00  0.00     0.009 C 
ATOM     96  C   UNL A   1      31.566  25.640  20.695  1.00  0.00     0.009 C 
ENDBRANCH  83  94
BRANCH  86  97
ATOM     97  C   UNL A   1      36.052  22.867  23.693  1.00  0.00     0.433 C 
ATOM     98  F   UNL A   1      35.577  21.660  24.111  1.00  0.00    -0.165 F 
ATOM     99  F   UNL A   1      36.584  22.654  22.455  1.00  0.00    -0.165 F 
ATOM    100  F   UNL A   1      37.124  23.136  24.497  1.00  0.00    -0.165 F 
ENDBRANCH  86  97
ENDBRANCH  71  74
ENDBRANCH  69  70
ENDBRANCH  68  69
ENDBRANCH   1  68
TORSDOF 16
ENDMDL
MODEL 2
REMARK VINA RESULT:     -12.3      5.928     11.281
REMARK SMILES O=C(NCCCNC(=O)c1cc(-c2ccc(Cl)cc2)nc2c3c(C4CC4)cc(C(F)(F)F)nc3nn12)c1ccc(-c2c3nc(c(-c4ccc(S(=O)(=O)[O-])cc4)c4ccc([nH]4)c(-c4ccc(S(=O)(=O)[O-])cc4)c4nc(c(-c5ccc(S(=O)(=O)[O-])cc5)c5ccc2[nH]5)C=C4)C=C3)cc1
REMARK SMILES IDX 4 1 3 2 1 3 2 4 37 6 38 7 96 8 39 9 95 10 40 11 41 12 42 13
REMARK SMILES IDX 89 14 43 15 94 16 88 17 90 18 44 19 93 20 87 21 86 22 45 24
REMARK SMILES IDX 75 25 56 26 74 27 57 28 60 29 73 30 91 31 58 32 59 33 72 35
REMARK SMILES IDX 92 36 61 37 46 38 47 39 55 40 48 41 54 42 49 43 50 44 51 45
REMARK SMILES IDX 52 46 53 47 76 48 77 49 85 50 78 51 84 52 79 53 80 54 81 55
REMARK SMILES IDX 82 56 83 57 62 58 63 59 71 60 64 61 70 62 65 63 66 64 67 65
REMARK SMILES IDX 68 66 69 67 5 68 6 69 7 70 8 71 9 73 10 74 11 75 36 76 12 77
REMARK SMILES IDX 21 78 35 79 20 80 22 81 34 82 23 83 33 84 27 85 28 86 13 87
REMARK SMILES IDX 14 88 19 89 15 90 18 91 16 92 17 93 24 94 25 95 26 96 29 97
REMARK SMILES IDX 30 98 31 99 32 100
REMARK H PARENT 3 5 90 23 60 34 7 72
REMARK Flexibility Score: inf
ROOT
ATOM      1  C   UNL A   1      44.146  33.903  25.513  1.00  0.00     0.118 C 
ENDROOT
BRANCH   1   2
ATOM      2  N   UNL A   1      44.488  35.307  25.681  1.00  0.00    -0.352 N 
ATOM      3  O   UNL A   1      44.543  37.305  26.748  1.00  0.00    -0.269 OA
ATOM      4  C   UNL A   1      44.278  36.116  26.777  1.00  0.00     0.251 C 
ATOM      5  H   UNL A   1      44.926  35.736  24.911  1.00  0.00     0.163 HD
BRANCH   4   6
ATOM      6  C   UNL A   1      43.688  35.507  27.981  1.00  0.00     0.039 A 
ATOM      7  C   UNL A   1      44.522  34.961  28.959  1.00  0.00     0.014 A 
ATOM      8  C   UNL A   1      42.298  35.410  28.078  1.00  0.00     0.014 A 
ATOM      9  C   UNL A   1      43.966  34.198  29.975  1.00  0.00     0.010 A 
ATOM     10  C   UNL A   1      41.739  34.678  29.124  1.00  0.00     0.010 A 
ATOM     11  C   UNL A   1      42.575  34.042  30.050  1.00  0.00    -0.014 A 
BRANCH  11  12
ATOM     12  C   UNL A   1      42.074  33.204  31.148  1.00  0.00     0.031 A 
ATOM     13  C   UNL A   1      40.608  33.326  31.420  1.00  0.00     0.074 A 
ATOM     14  C   UNL A   1      42.645  32.001  31.359  1.00  0.00     0.049 A 
ATOM     15  N   UNL A   1      39.675  32.663  30.801  1.00  0.00    -0.248 NA
ATOM     16  C   UNL A   1      40.110  34.413  32.264  1.00  0.00     0.031 C 
ATOM     17  C   UNL A   1      42.943  31.026  30.305  1.00  0.00     0.029 A 
ATOM     18  N   UNL A   1      42.819  31.309  32.531  1.00  0.00    -0.354 N 
ATOM     19  C   UNL A   1      38.470  33.259  31.141  1.00  0.00     0.074 A 
ATOM     20  C   UNL A   1      38.790  34.341  32.046  1.00  0.00     0.031 C 
ATOM     21  C   UNL A   1      43.098  29.813  30.872  1.00  0.00     0.029 A 
ATOM     22  C   UNL A   1      43.034  29.950  32.324  1.00  0.00     0.049 A 
ATOM     23  H   UNL A   1      42.795  31.728  33.422  1.00  0.00     0.167 HD
ATOM     24  C   UNL A   1      37.261  32.854  30.674  1.00  0.00     0.031 A 
ATOM     25  C   UNL A   1      42.685  28.982  33.217  1.00  0.00     0.031 A 
ATOM     26  C   UNL A   1      37.269  31.686  29.850  1.00  0.00     0.049 A 
ATOM     27  C   UNL A   1      41.231  28.795  32.854  1.00  0.00     0.074 A 
ATOM     28  C   UNL A   1      37.261  31.389  28.506  1.00  0.00     0.029 A 
ATOM     29  N   UNL A   1      37.335  30.466  30.479  1.00  0.00    -0.354 N 
ATOM     30  N   UNL A   1      40.757  28.109  31.849  1.00  0.00    -0.248 NA
ATOM     31  C   UNL A   1      40.279  29.742  33.444  1.00  0.00     0.031 C 
ATOM     32  C   UNL A   1      37.763  30.053  28.405  1.00  0.00     0.029 A 
ATOM     33  C   UNL A   1      38.095  29.639  29.695  1.00  0.00     0.049 A 
ATOM     34  H   UNL A   1      36.912  30.229  31.336  1.00  0.00     0.167 HD
ATOM     35  C   UNL A   1      39.583  28.770  31.474  1.00  0.00     0.074 A 
ATOM     36  C   UNL A   1      39.324  29.736  32.523  1.00  0.00     0.031 C 
ATOM     37  C   UNL A   1      39.008  28.655  30.240  1.00  0.00     0.031 A 
BRANCH  24  38
ATOM     38  C   UNL A   1      35.976  33.450  31.098  1.00  0.00    -0.014 A 
ATOM     39  C   UNL A   1      35.166  34.054  30.122  1.00  0.00     0.010 A 
ATOM     40  C   UNL A   1      35.641  33.581  32.454  1.00  0.00     0.010 A 
ATOM     41  C   UNL A   1      34.067  34.826  30.495  1.00  0.00     0.020 A 
ATOM     42  C   UNL A   1      34.534  34.349  32.833  1.00  0.00     0.020 A 
ATOM     43  C   UNL A   1      33.768  34.985  31.850  1.00  0.00     0.054 A 
BRANCH  43  44
ATOM     44  S   UNL A   1      32.410  36.101  32.297  1.00  0.00     0.124 S 
ATOM     45  O   UNL A   1      32.190  36.837  31.054  1.00  0.00    -0.237 OA
ATOM     46  O   UNL A   1      31.353  35.164  32.669  1.00  0.00    -0.237 OA
ATOM     47  O   UNL A   1      32.957  36.891  33.396  1.00  0.00    -0.744 OA
ENDBRANCH  43  44
ENDBRANCH  24  38
BRANCH  25  48
ATOM     48  C   UNL A   1      43.179  29.228  34.613  1.00  0.00    -0.014 A 
ATOM     49  C   UNL A   1      44.445  29.845  34.754  1.00  0.00     0.010 A 
ATOM     50  C   UNL A   1      42.461  28.951  35.786  1.00  0.00     0.010 A 
ATOM     51  C   UNL A   1      44.894  30.321  35.986  1.00  0.00     0.020 A 
ATOM     52  C   UNL A   1      42.895  29.442  37.027  1.00  0.00     0.020 A 
ATOM     53  C   UNL A   1      44.087  30.164  37.109  1.00  0.00     0.054 A 
BRANCH  53  54
ATOM     54  S   UNL A   1      44.595  30.965  38.652  1.00  0.00     0.124 S 
ATOM     55  O   UNL A   1      43.366  31.624  39.087  1.00  0.00    -0.237 OA
ATOM     56  O   UNL A   1      45.014  29.821  39.458  1.00  0.00    -0.237 OA
ATOM     57  O   UNL A   1      45.670  31.862  38.237  1.00  0.00    -0.744 OA
ENDBRANCH  53  54
ENDBRANCH  25  48
BRANCH  37  58
ATOM     58  C   UNL A   1      39.557  27.598  29.333  1.00  0.00    -0.014 A 
ATOM     59  C   UNL A   1      40.754  27.822  28.640  1.00  0.00     0.010 A 
ATOM     60  C   UNL A   1      38.938  26.336  29.246  1.00  0.00     0.010 A 
ATOM     61  C   UNL A   1      41.354  26.788  27.916  1.00  0.00     0.020 A 
ATOM     62  C   UNL A   1      39.541  25.294  28.539  1.00  0.00     0.020 A 
ATOM     63  C   UNL A   1      40.755  25.524  27.890  1.00  0.00     0.054 A 
BRANCH  63  64
ATOM     64  S   UNL A   1      41.610  24.178  27.030  1.00  0.00     0.124 S 
ATOM     65  O   UNL A   1      42.435  23.598  28.088  1.00  0.00    -0.237 OA
ATOM     66  O   UNL A   1      40.501  23.345  26.571  1.00  0.00    -0.237 OA
ATOM     67  O   UNL A   1      42.354  24.855  25.969  1.00  0.00    -0.744 OA
ENDBRANCH  63  64
ENDBRANCH  37  58
ENDBRANCH  11  12
ENDBRANCH   4   6
ENDBRANCH   1   2
BRANCH   1  68
ATOM     68  C   UNL A   1      45.303  32.961  25.833  1.00  0.00     0.042 C 
BRANCH  68  69
ATOM     69  C   UNL A   1      44.963  31.930  26.905  1.00  0.00     0.118 C 
BRANCH  69  70
ATOM     70  N   UNL A   1      43.810  31.119  26.527  1.00  0.00    -0.351 N 
ATOM     71  C   UNL A   1      43.651  29.771  26.461  1.00  0.00     0.270 C 
ATOM     72  H   UNL A   1      43.010  31.637  26.277  1.00  0.00     0.163 HD
ATOM     73  O   UNL A   1      42.620  29.311  25.972  1.00  0.00    -0.268 OA
BRANCH  71  74
ATOM     74  C   UNL A   1      44.720  28.871  26.922  1.00  0.00     0.134 A 
ATOM     75  C   UNL A   1      44.589  28.393  28.168  1.00  0.00     0.063 A 
ATOM     76  N   UNL A   1      45.838  28.555  26.156  1.00  0.00    -0.207 N 
ATOM     77  C   UNL A   1      45.727  27.559  28.656  1.00  0.00     0.075 A 
ATOM     78  C   UNL A   1      46.815  27.671  26.653  1.00  0.00     0.166 A 
ATOM     79  N   UNL A   1      46.134  28.994  24.906  1.00  0.00    -0.145 NA
ATOM     80  N   UNL A   1      46.775  27.231  27.955  1.00  0.00    -0.228 NA
ATOM     81  C   UNL A   1      47.619  27.387  25.567  1.00  0.00     0.069 A 
ATOM     82  C   UNL A   1      47.135  28.218  24.516  1.00  0.00     0.184 A 
ATOM     83  C   UNL A   1      48.667  26.460  25.475  1.00  0.00    -0.028 A 
ATOM     84  N   UNL A   1      47.651  28.202  23.266  1.00  0.00    -0.222 NA
ATOM     85  C   UNL A   1      49.153  26.439  24.149  1.00  0.00     0.038 A 
ATOM     86  C   UNL A   1      48.653  27.281  23.113  1.00  0.00     0.147 A 
BRANCH  77  87
ATOM     87  C   UNL A   1      45.621  27.167  30.079  1.00  0.00     0.000 A 
ATOM     88  C   UNL A   1      46.379  27.863  31.025  1.00  0.00     0.012 A 
ATOM     89  C   UNL A   1      44.716  26.177  30.483  1.00  0.00     0.012 A 
ATOM     90  C   UNL A   1      46.208  27.591  32.385  1.00  0.00     0.021 A 
ATOM     91  C   UNL A   1      44.556  25.901  31.844  1.00  0.00     0.021 A 
ATOM     92  C   UNL A   1      45.294  26.615  32.788  1.00  0.00     0.041 A 
ATOM     93  Cl  UNL A   1      45.066  26.305  34.466  1.00  0.00    -0.084 Cl
ENDBRANCH  77  87
BRANCH  83  94
ATOM     94  C   UNL A   1      49.142  25.638  26.631  1.00  0.00     0.020 C 
ATOM     95  C   UNL A   1      50.566  25.146  26.750  1.00  0.00     0.009 C 
ATOM     96  C   UNL A   1      50.096  26.273  27.618  1.00  0.00     0.009 C 
ENDBRANCH  83  94
BRANCH  86  97
ATOM     97  C   UNL A   1      49.253  27.152  21.715  1.00  0.00     0.433 C 
ATOM     98  F   UNL A   1      50.568  27.503  21.664  1.00  0.00    -0.165 F 
ATOM     99  F   UNL A   1      49.183  25.882  21.220  1.00  0.00    -0.165 F 
ATOM    100  F   UNL A   1      48.630  27.931  20.782  1.00  0.00    -0.165 F 
ENDBRANCH  86  97
ENDBRANCH  71  74
ENDBRANCH  69  70
ENDBRANCH  68  69
ENDBRANCH   1  68
TORSDOF 16
ENDMDL
MODEL 3
REMARK VINA RESULT:     -11.7      7.702     13.432
REMARK SMILES O=C(NCCCNC(=O)c1cc(-c2ccc(Cl)cc2)nc2c3c(C4CC4)cc(C(F)(F)F)nc3nn12)c1ccc(-c2c3nc(c(-c4ccc(S(=O)(=O)[O-])cc4)c4ccc([nH]4)c(-c4ccc(S(=O)(=O)[O-])cc4)c4nc(c(-c5ccc(S(=O)(=O)[O-])cc5)c5ccc2[nH]5)C=C4)C=C3)cc1
REMARK SMILES IDX 4 1 3 2 1 3 2 4 37 6 38 7 96 8 39 9 95 10 40 11 41 12 42 13
REMARK SMILES IDX 89 14 43 15 94 16 88 17 90 18 44 19 93 20 87 21 86 22 45 24
REMARK SMILES IDX 75 25 56 26 74 27 57 28 60 29 73 30 91 31 58 32 59 33 72 35
REMARK SMILES IDX 92 36 61 37 46 38 47 39 55 40 48 41 54 42 49 43 50 44 51 45
REMARK SMILES IDX 52 46 53 47 76 48 77 49 85 50 78 51 84 52 79 53 80 54 81 55
REMARK SMILES IDX 82 56 83 57 62 58 63 59 71 60 64 61 70 62 65 63 66 64 67 65
REMARK SMILES IDX 68 66 69 67 5 68 6 69 7 70 8 71 9 73 10 74 11 75 36 76 12 77
REMARK SMILES IDX 21 78 35 79 20 80 22 81 34 82 23 83 33 84 27 85 28 86 13 87
REMARK SMILES IDX 14 88 19 89 15 90 18 91 16 92 17 93 24 94 25 95 26 96 29 97
REMARK SMILES IDX 30 98 31 99 32 100
REMARK H PARENT 3 5 90 23 60 34 7 72
REMARK Flexibility Score: inf
ROOT
ATOM      1  C   UNL A   1      44.235  38.589  28.342  1.00  0.00     0.118 C 
ENDROOT
BRANCH   1   2
ATOM      2  N   UNL A   1      44.765  37.631  27.384  1.00  0.00    -0.352 N 
ATOM      3  O   UNL A   1      45.300  35.573  26.602  1.00  0.00    -0.269 OA
ATOM      4  C   UNL A   1      44.739  36.254  27.442  1.00  0.00     0.251 C 
ATOM      5  H   UNL A   1      45.200  38.017  26.589  1.00  0.00     0.163 HD
BRANCH   4   6
ATOM      6  C   UNL A   1      44.040  35.625  28.577  1.00  0.00     0.039 A 
ATOM      7  C   UNL A   1      44.734  35.377  29.764  1.00  0.00     0.014 A 
ATOM      8  C   UNL A   1      42.718  35.209  28.409  1.00  0.00     0.014 A 
ATOM      9  C   UNL A   1      44.142  34.591  30.742  1.00  0.00     0.010 A 
ATOM     10  C   UNL A   1      42.112  34.454  29.411  1.00  0.00     0.010 A 
ATOM     11  C   UNL A   1      42.837  34.115  30.560  1.00  0.00    -0.014 A 
BRANCH  11  12
ATOM     12  C   UNL A   1      42.296  33.277  31.639  1.00  0.00     0.031 A 
ATOM     13  C   UNL A   1      40.822  33.400  31.858  1.00  0.00     0.074 A 
ATOM     14  C   UNL A   1      42.858  32.073  31.869  1.00  0.00     0.049 A 
ATOM     15  N   UNL A   1      39.910  32.738  31.206  1.00  0.00    -0.248 NA
ATOM     16  C   UNL A   1      40.295  34.487  32.685  1.00  0.00     0.031 C 
ATOM     17  C   UNL A   1      43.193  31.098  30.825  1.00  0.00     0.029 A 
ATOM     18  N   UNL A   1      42.989  31.379  33.046  1.00  0.00    -0.354 N 
ATOM     19  C   UNL A   1      38.695  33.336  31.503  1.00  0.00     0.074 A 
ATOM     20  C   UNL A   1      38.984  34.416  32.420  1.00  0.00     0.031 C 
ATOM     21  C   UNL A   1      43.326  29.885  31.396  1.00  0.00     0.029 A 
ATOM     22  C   UNL A   1      43.210  30.020  32.845  1.00  0.00     0.049 A 
ATOM     23  H   UNL A   1      42.934  31.798  33.935  1.00  0.00     0.167 HD
ATOM     24  C   UNL A   1      37.503  32.932  30.993  1.00  0.00     0.031 A 
ATOM     25  C   UNL A   1      42.829  29.052  33.724  1.00  0.00     0.031 A 
ATOM     26  C   UNL A   1      37.539  31.766  30.169  1.00  0.00     0.049 A 
ATOM     27  C   UNL A   1      41.388  28.867  33.310  1.00  0.00     0.074 A 
ATOM     28  C   UNL A   1      37.579  31.469  28.824  1.00  0.00     0.029 A 
ATOM     29  N   UNL A   1      37.581  30.544  30.799  1.00  0.00    -0.354 N 
ATOM     30  N   UNL A   1      40.950  28.182  32.287  1.00  0.00    -0.248 NA
ATOM     31  C   UNL A   1      40.416  29.814  33.866  1.00  0.00     0.031 C 
ATOM     32  C   UNL A   1      38.082  30.133  28.740  1.00  0.00     0.029 A 
ATOM     33  C   UNL A   1      38.368  29.718  30.041  1.00  0.00     0.049 A 
ATOM     34  H   UNL A   1      37.127  30.307  31.639  1.00  0.00     0.167 HD
ATOM     35  C   UNL A   1      39.791  28.845  31.871  1.00  0.00     0.074 A 
ATOM     36  C   UNL A   1      39.495  29.810  32.911  1.00  0.00     0.031 C 
ATOM     37  C   UNL A   1      39.260  28.732  30.617  1.00  0.00     0.031 A 
BRANCH  24  38
ATOM     38  C   UNL A   1      36.204  33.530  31.371  1.00  0.00    -0.014 A 
ATOM     39  C   UNL A   1      35.296  33.855  30.350  1.00  0.00     0.010 A 
ATOM     40  C   UNL A   1      35.940  33.934  32.688  1.00  0.00     0.010 A 
ATOM     41  C   UNL A   1      34.167  34.624  30.628  1.00  0.00     0.020 A 
ATOM     42  C   UNL A   1      34.803  34.700  32.973  1.00  0.00     0.020 A 
ATOM     43  C   UNL A   1      33.936  35.058  31.935  1.00  0.00     0.054 A 
BRANCH  43  44
ATOM     44  S   UNL A   1      32.528  36.162  32.229  1.00  0.00     0.124 S 
ATOM     45  O   UNL A   1      31.467  35.224  32.588  1.00  0.00    -0.237 OA
ATOM     46  O   UNL A   1      33.020  37.003  33.317  1.00  0.00    -0.237 OA
ATOM     47  O   UNL A   1      32.347  36.842  30.949  1.00  0.00    -0.744 OA
ENDBRANCH  43  44
ENDBRANCH  24  38
BRANCH  25  48
ATOM     48  C   UNL A   1      43.272  29.295  35.137  1.00  0.00    -0.014 A 
ATOM     49  C   UNL A   1      44.556  28.825  35.504  1.00  0.00     0.010 A 
ATOM     50  C   UNL A   1      42.543  30.004  36.104  1.00  0.00     0.010 A 
ATOM     51  C   UNL A   1      45.153  29.192  36.710  1.00  0.00     0.020 A 
ATOM     52  C   UNL A   1      43.142  30.394  37.312  1.00  0.00     0.020 A 
ATOM     53  C   UNL A   1      44.460  30.023  37.584  1.00  0.00     0.054 A 
BRANCH  53  54
ATOM     54  S   UNL A   1      45.328  30.651  39.045  1.00  0.00     0.124 S 
ATOM     55  O   UNL A   1      46.094  31.769  38.503  1.00  0.00    -0.237 OA
ATOM     56  O   UNL A   1      44.216  31.015  39.920  1.00  0.00    -0.237 OA
ATOM     57  O   UNL A   1      46.123  29.509  39.491  1.00  0.00    -0.744 OA
ENDBRANCH  53  54
ENDBRANCH  25  48
BRANCH  37  58
ATOM     58  C   UNL A   1      39.839  27.675  29.730  1.00  0.00    -0.014 A 
ATOM     59  C   UNL A   1      39.080  26.545  29.398  1.00  0.00     0.010 A 
ATOM     60  C   UNL A   1      41.104  27.852  29.137  1.00  0.00     0.010 A 
ATOM     61  C   UNL A   1      39.551  25.633  28.449  1.00  0.00     0.020 A 
ATOM     62  C   UNL A   1      41.572  26.954  28.176  1.00  0.00     0.020 A 
ATOM     63  C   UNL A   1      40.783  25.857  27.827  1.00  0.00     0.054 A 
BRANCH  63  64
ATOM     64  S   UNL A   1      41.317  24.714  26.526  1.00  0.00     0.124 S 
ATOM     65  O   UNL A   1      40.253  23.712  26.526  1.00  0.00    -0.237 OA
ATOM     66  O   UNL A   1      41.365  25.578  25.349  1.00  0.00    -0.237 OA
ATOM     67  O   UNL A   1      42.616  24.233  26.992  1.00  0.00    -0.744 OA
ENDBRANCH  63  64
ENDBRANCH  37  58
ENDBRANCH  11  12
ENDBRANCH   4   6
ENDBRANCH   1   2
BRANCH   1  68
ATOM     68  C   UNL A   1      42.752  38.885  28.137  1.00  0.00     0.042 C 
BRANCH  68  69
ATOM     69  C   UNL A   1      42.321  38.826  26.675  1.00  0.00     0.118 C 
BRANCH  69  70
ATOM     70  N   UNL A   1      41.252  39.777  26.389  1.00  0.00    -0.351 N 
ATOM     71  C   UNL A   1      41.268  40.967  25.732  1.00  0.00     0.270 C 
ATOM     72  H   UNL A   1      40.367  39.512  26.730  1.00  0.00     0.163 HD
ATOM     73  O   UNL A   1      40.259  41.671  25.739  1.00  0.00    -0.268 OA
BRANCH  71  74
ATOM     74  C   UNL A   1      42.494  41.432  25.063  1.00  0.00     0.134 A 
ATOM     75  C   UNL A   1      43.649  41.121  25.669  1.00  0.00     0.063 A 
ATOM     76  N   UNL A   1      42.487  42.192  23.897  1.00  0.00    -0.207 N 
ATOM     77  C   UNL A   1      44.876  41.680  25.030  1.00  0.00     0.075 A 
ATOM     78  C   UNL A   1      43.699  42.589  23.300  1.00  0.00     0.166 A 
ATOM     79  N   UNL A   1      41.407  42.624  23.199  1.00  0.00    -0.145 NA
ATOM     80  N   UNL A   1      44.902  42.377  23.930  1.00  0.00    -0.228 NA
ATOM     81  C   UNL A   1      43.336  43.086  22.063  1.00  0.00     0.069 A 
ATOM     82  C   UNL A   1      41.911  43.062  22.054  1.00  0.00     0.184 A 
ATOM     83  C   UNL A   1      44.165  43.497  21.010  1.00  0.00    -0.028 A 
ATOM     84  N   UNL A   1      41.174  43.445  20.987  1.00  0.00    -0.222 NA
ATOM     85  C   UNL A   1      43.365  43.850  19.901  1.00  0.00     0.038 A 
ATOM     86  C   UNL A   1      41.940  43.818  19.914  1.00  0.00     0.147 A 
BRANCH  77  87
ATOM     87  C   UNL A   1      46.119  41.441  25.799  1.00  0.00     0.000 A 
ATOM     88  C   UNL A   1      46.693  42.510  26.494  1.00  0.00     0.012 A 
ATOM     89  C   UNL A   1      46.662  40.155  25.900  1.00  0.00     0.012 A 
ATOM     90  C   UNL A   1      47.796  42.284  27.321  1.00  0.00     0.021 A 
ATOM     91  C   UNL A   1      47.772  39.935  26.721  1.00  0.00     0.021 A 
ATOM     92  C   UNL A   1      48.327  40.998  27.435  1.00  0.00     0.041 A 
ATOM     93  Cl  UNL A   1      49.669  40.721  28.477  1.00  0.00    -0.084 Cl
ENDBRANCH  77  87
BRANCH  83  94
ATOM     94  C   UNL A   1      45.658  43.522  21.099  1.00  0.00     0.020 C 
ATOM     95  C   UNL A   1      46.517  42.332  20.739  1.00  0.00     0.009 C 
ATOM     96  C   UNL A   1      46.453  43.507  19.812  1.00  0.00     0.009 C 
ENDBRANCH  83  94
BRANCH  86  97
ATOM     97  C   UNL A   1      41.189  44.209  18.644  1.00  0.00     0.433 C 
ATOM     98  F   UNL A   1      41.025  45.555  18.513  1.00  0.00    -0.165 F 
ATOM     99  F   UNL A   1      41.816  43.794  17.505  1.00  0.00    -0.165 F 
ATOM    100  F   UNL A   1      39.932  43.678  18.570  1.00  0.00    -0.165 F 
ENDBRANCH  86  97
ENDBRANCH  71  74
ENDBRANCH  69  70
ENDBRANCH  68  69
ENDBRANCH   1  68
TORSDOF 16
ENDMDL
