MODEL 1
REMARK VINA RESULT:     -12.1      0.000      0.000
REMARK SMILES O=C(C[C@@H](C(=O)NCCCNC(=O)c1ccc(-c2c3nc(c(-c4ccc(S(=O)(=O)[O-])cc4)c4ccc([nH]4)c(-c4ccc(S(=O)(=O)[O-])cc4)c4nc(c(-c5ccc(S(=O)(=O)[O-])cc5)c5ccc2[nH]5)C=C4)C=C3)cc1)c1ccccc1)Nc1cc(C(F)(F)F)ccc1-n1cncn1
REMARK SMILES IDX 8 1 7 2 5 3 6 4 4 6 3 7 2 8 1 9 80 10 81 12 82 13 90 14
REMARK SMILES IDX 83 15 89 16 88 17 91 18 92 19 95 20 93 21 94 22 84 23 85 24
REMARK SMILES IDX 86 25 87 26 74 27 75 28 79 29 76 30 78 31 77 32 9 33 10 34
REMARK SMILES IDX 11 35 12 36 13 38 14 39 15 40 73 41 16 42 72 43 17 44 18 45
REMARK SMILES IDX 19 46 66 47 20 48 71 49 65 50 67 51 21 52 70 53 64 54 63 55
REMARK SMILES IDX 22 57 52 58 33 59 51 60 34 61 37 62 50 63 68 64 35 65 36 66
REMARK SMILES IDX 49 68 69 69 38 70 23 71 24 72 32 73 25 74 31 75 26 76 27 77
REMARK SMILES IDX 28 78 29 79 30 80 53 81 54 82 62 83 55 84 61 85 56 86 57 87
REMARK SMILES IDX 58 88 59 89 60 90 39 91 40 92 48 93 41 94 47 95 42 96 43 97
REMARK SMILES IDX 44 98 45 99 46 100
REMARK H PARENT 7 5 80 11 11 37 67 56 37 67
REMARK Flexibility Score: inf
ROOT
ATOM      1  C   UNL A   1      33.324  29.780  26.834  1.00  0.00     0.117 C 
ENDROOT
BRANCH   1   2
ATOM      2  N   UNL A   1      33.198  29.871  25.350  1.00  0.00    -0.355 N 
ATOM      3  C   UNL A   1      32.810  28.946  24.405  1.00  0.00     0.228 C 
ATOM      4  O   UNL A   1      33.506  28.901  23.382  1.00  0.00    -0.274 OA
ATOM      5  H   UNL A   1      33.434  30.752  24.978  1.00  0.00     0.163 HD
BRANCH   3   6
ATOM      6  C   UNL A   1      31.569  28.026  24.551  1.00  0.00     0.118 C 
BRANCH   6   7
ATOM      7  C   UNL A   1      31.831  26.602  24.036  1.00  0.00     0.118 C 
BRANCH   7   8
ATOM      8  C   UNL A   1      32.458  25.757  25.089  1.00  0.00     0.225 C 
ATOM      9  O   UNL A   1      32.513  26.104  26.274  1.00  0.00    -0.275 OA
ATOM     10  N   UNL A   1      33.047  24.644  24.550  1.00  0.00    -0.324 N 
ATOM     11  H   UNL A   1      32.962  24.497  23.580  1.00  0.00     0.170 HD
BRANCH  10  12
ATOM     12  C   UNL A   1      33.760  23.711  25.296  1.00  0.00     0.067 A 
ATOM     13  C   UNL A   1      35.106  23.794  25.069  1.00  0.00     0.041 A 
ATOM     14  C   UNL A   1      33.334  22.910  26.334  1.00  0.00     0.090 A 
ATOM     15  C   UNL A   1      35.994  22.812  25.395  1.00  0.00     0.058 A 
ATOM     16  C   UNL A   1      34.282  22.160  27.031  1.00  0.00     0.031 A 
ATOM     17  C   UNL A   1      35.585  22.050  26.490  1.00  0.00     0.015 A 
BRANCH  14  18
ATOM     18  N   UNL A   1      31.967  22.710  26.533  1.00  0.00    -0.219 N 
ATOM     19  C   UNL A   1      31.148  21.962  25.725  1.00  0.00     0.226 A 
ATOM     20  N   UNL A   1      31.258  23.235  27.550  1.00  0.00    -0.155 NA
ATOM     21  N   UNL A   1      29.896  22.141  26.063  1.00  0.00    -0.223 NA
ATOM     22  C   UNL A   1      30.010  22.943  27.165  1.00  0.00     0.246 A 
ENDBRANCH  14  18
BRANCH  15  23
ATOM     23  C   UNL A   1      37.280  22.983  24.624  1.00  0.00     0.416 C 
ATOM     24  F   UNL A   1      37.952  24.113  25.004  1.00  0.00    -0.166 F 
ATOM     25  F   UNL A   1      38.184  21.990  24.878  1.00  0.00    -0.166 F 
ATOM     26  F   UNL A   1      37.165  23.069  23.282  1.00  0.00    -0.166 F 
ENDBRANCH  15  23
ENDBRANCH  10  12
ENDBRANCH   7   8
ENDBRANCH   6   7
BRANCH   6  27
ATOM     27  C   UNL A   1      30.378  28.509  23.694  1.00  0.00    -0.035 A 
ATOM     28  C   UNL A   1      29.160  27.797  23.645  1.00  0.00     0.004 A 
ATOM     29  C   UNL A   1      30.424  29.767  23.077  1.00  0.00     0.004 A 
ATOM     30  C   UNL A   1      28.049  28.302  22.965  1.00  0.00     0.000 A 
ATOM     31  C   UNL A   1      29.310  30.271  22.395  1.00  0.00     0.000 A 
ATOM     32  C   UNL A   1      28.128  29.536  22.331  1.00  0.00     0.000 A 
ENDBRANCH   6  27
ENDBRANCH   3   6
ENDBRANCH   1   2
BRANCH   1  33
ATOM     33  C   UNL A   1      33.724  31.149  27.482  1.00  0.00     0.042 C 
BRANCH  33  34
ATOM     34  C   UNL A   1      35.090  31.472  28.256  1.00  0.00     0.118 C 
BRANCH  34  35
ATOM     35  N   UNL A   1      35.606  30.436  29.294  1.00  0.00    -0.352 N 
ATOM     36  C   UNL A   1      36.610  29.642  29.887  1.00  0.00     0.251 C 
ATOM     37  H   UNL A   1      34.802  30.217  29.818  1.00  0.00     0.163 HD
ATOM     38  O   UNL A   1      36.265  29.336  31.047  1.00  0.00    -0.269 OA
BRANCH  36  39
ATOM     39  C   UNL A   1      37.950  28.974  29.488  1.00  0.00     0.039 A 
ATOM     40  C   UNL A   1      38.383  29.050  28.127  1.00  0.00     0.014 A 
ATOM     41  C   UNL A   1      38.842  28.265  30.267  1.00  0.00     0.014 A 
ATOM     42  C   UNL A   1      39.709  28.696  27.659  1.00  0.00     0.010 A 
ATOM     43  C   UNL A   1      40.198  28.005  29.838  1.00  0.00     0.010 A 
ATOM     44  C   UNL A   1      40.699  28.277  28.551  1.00  0.00    -0.014 A 
BRANCH  44  45
ATOM     45  C   UNL A   1      42.211  28.155  28.275  1.00  0.00     0.031 A 
ATOM     46  C   UNL A   1      43.130  29.380  28.370  1.00  0.00     0.074 A 
ATOM     47  C   UNL A   1      42.755  27.061  27.671  1.00  0.00     0.049 A 
ATOM     48  N   UNL A   1      44.392  29.528  28.030  1.00  0.00    -0.248 NA
ATOM     49  C   UNL A   1      42.505  30.624  28.837  1.00  0.00     0.031 C 
ATOM     50  C   UNL A   1      42.033  25.840  27.316  1.00  0.00     0.029 A 
ATOM     51  N   UNL A   1      44.032  26.822  27.175  1.00  0.00    -0.354 N 
ATOM     52  C   UNL A   1      44.687  30.884  28.203  1.00  0.00     0.074 A 
ATOM     53  C   UNL A   1      43.445  31.520  28.577  1.00  0.00     0.031 C 
ATOM     54  C   UNL A   1      42.852  25.005  26.647  1.00  0.00     0.029 A 
ATOM     55  C   UNL A   1      44.181  25.603  26.533  1.00  0.00     0.049 A 
ATOM     56  H   UNL A   1      44.771  27.465  27.272  1.00  0.00     0.167 HD
ATOM     57  C   UNL A   1      45.868  31.555  28.105  1.00  0.00     0.031 A 
ATOM     58  C   UNL A   1      45.248  25.013  25.941  1.00  0.00     0.031 A 
ATOM     59  C   UNL A   1      47.117  30.947  27.722  1.00  0.00     0.049 A 
ATOM     60  C   UNL A   1      46.591  25.716  25.926  1.00  0.00     0.074 A 
ATOM     61  C   UNL A   1      48.392  31.491  27.738  1.00  0.00     0.029 A 
ATOM     62  N   UNL A   1      47.242  29.656  27.238  1.00  0.00    -0.354 N 
ATOM     63  N   UNL A   1      46.885  26.935  26.309  1.00  0.00    -0.248 NA
ATOM     64  C   UNL A   1      47.753  24.949  25.441  1.00  0.00     0.031 C 
ATOM     65  C   UNL A   1      49.280  30.543  27.220  1.00  0.00     0.029 A 
ATOM     66  C   UNL A   1      48.568  29.387  26.944  1.00  0.00     0.049 A 
ATOM     67  H   UNL A   1      46.498  29.022  27.120  1.00  0.00     0.167 HD
ATOM     68  C   UNL A   1      48.266  27.059  26.167  1.00  0.00     0.074 A 
ATOM     69  C   UNL A   1      48.752  25.795  25.659  1.00  0.00     0.031 C 
ATOM     70  C   UNL A   1      49.057  28.124  26.451  1.00  0.00     0.031 A 
BRANCH  57  71
ATOM     71  C   UNL A   1      45.878  33.025  28.490  1.00  0.00    -0.014 A 
ATOM     72  C   UNL A   1      46.203  33.410  29.806  1.00  0.00     0.010 A 
ATOM     73  C   UNL A   1      45.619  34.036  27.544  1.00  0.00     0.010 A 
ATOM     74  C   UNL A   1      46.194  34.754  30.187  1.00  0.00     0.020 A 
ATOM     75  C   UNL A   1      45.650  35.390  27.912  1.00  0.00     0.020 A 
ATOM     76  C   UNL A   1      45.914  35.738  29.238  1.00  0.00     0.054 A 
BRANCH  76  77
ATOM     77  S   UNL A   1      45.929  37.473  29.771  1.00  0.00     0.124 S 
ATOM     78  O   UNL A   1      46.068  37.343  31.218  1.00  0.00    -0.237 OA
ATOM     79  O   UNL A   1      47.095  38.010  29.075  1.00  0.00    -0.237 OA
ATOM     80  O   UNL A   1      44.641  37.989  29.313  1.00  0.00    -0.744 OA
ENDBRANCH  76  77
ENDBRANCH  57  71
BRANCH  58  81
ATOM     81  C   UNL A   1      45.151  23.606  25.427  1.00  0.00    -0.014 A 
ATOM     82  C   UNL A   1      45.561  22.539  26.253  1.00  0.00     0.010 A 
ATOM     83  C   UNL A   1      44.655  23.307  24.144  1.00  0.00     0.010 A 
ATOM     84  C   UNL A   1      45.483  21.213  25.813  1.00  0.00     0.020 A 
ATOM     85  C   UNL A   1      44.551  21.974  23.708  1.00  0.00     0.020 A 
ATOM     86  C   UNL A   1      44.970  20.936  24.544  1.00  0.00     0.054 A 
BRANCH  86  87
ATOM     87  S   UNL A   1      44.814  19.199  24.032  1.00  0.00     0.124 S 
ATOM     88  O   UNL A   1      43.684  18.742  24.835  1.00  0.00    -0.237 OA
ATOM     89  O   UNL A   1      44.561  19.316  22.597  1.00  0.00    -0.237 OA
ATOM     90  O   UNL A   1      46.107  18.618  24.384  1.00  0.00    -0.744 OA
ENDBRANCH  86  87
ENDBRANCH  58  81
BRANCH  70  91
ATOM     91  C   UNL A   1      50.548  27.971  26.288  1.00  0.00    -0.014 A 
ATOM     92  C   UNL A   1      51.356  27.450  27.313  1.00  0.00     0.010 A 
ATOM     93  C   UNL A   1      51.134  28.274  25.043  1.00  0.00     0.010 A 
ATOM     94  C   UNL A   1      52.725  27.254  27.104  1.00  0.00     0.020 A 
ATOM     95  C   UNL A   1      52.496  28.051  24.821  1.00  0.00     0.020 A 
ATOM     96  C   UNL A   1      53.285  27.550  25.857  1.00  0.00     0.054 A 
BRANCH  96  97
ATOM     97  S   UNL A   1      55.049  27.222  25.590  1.00  0.00     0.124 S 
ATOM     98  O   UNL A   1      55.015  26.197  24.550  1.00  0.00    -0.237 OA
ATOM     99  O   UNL A   1      55.557  28.526  25.171  1.00  0.00    -0.237 OA
ATOM    100  O   UNL A   1      55.520  26.767  26.896  1.00  0.00    -0.744 OA
ENDBRANCH  96  97
ENDBRANCH  70  91
ENDBRANCH  44  45
ENDBRANCH  36  39
ENDBRANCH  34  35
ENDBRANCH  33  34
ENDBRANCH   1  33
TORSDOF 19
ENDMDL
MODEL 2
REMARK VINA RESULT:     -11.1      5.648      7.309
REMARK SMILES O=C(C[C@@H](C(=O)NCCCNC(=O)c1ccc(-c2c3nc(c(-c4ccc(S(=O)(=O)[O-])cc4)c4ccc([nH]4)c(-c4ccc(S(=O)(=O)[O-])cc4)c4nc(c(-c5ccc(S(=O)(=O)[O-])cc5)c5ccc2[nH]5)C=C4)C=C3)cc1)c1ccccc1)Nc1cc(C(F)(F)F)ccc1-n1cncn1
REMARK SMILES IDX 8 1 7 2 5 3 6 4 4 6 3 7 2 8 1 9 80 10 81 12 82 13 90 14
REMARK SMILES IDX 83 15 89 16 88 17 91 18 92 19 95 20 93 21 94 22 84 23 85 24
REMARK SMILES IDX 86 25 87 26 74 27 75 28 79 29 76 30 78 31 77 32 9 33 10 34
REMARK SMILES IDX 11 35 12 36 13 38 14 39 15 40 73 41 16 42 72 43 17 44 18 45
REMARK SMILES IDX 19 46 66 47 20 48 71 49 65 50 67 51 21 52 70 53 64 54 63 55
REMARK SMILES IDX 22 57 52 58 33 59 51 60 34 61 37 62 50 63 68 64 35 65 36 66
REMARK SMILES IDX 49 68 69 69 38 70 23 71 24 72 32 73 25 74 31 75 26 76 27 77
REMARK SMILES IDX 28 78 29 79 30 80 53 81 54 82 62 83 55 84 61 85 56 86 57 87
REMARK SMILES IDX 58 88 59 89 60 90 39 91 40 92 48 93 41 94 47 95 42 96 43 97
REMARK SMILES IDX 44 98 45 99 46 100
REMARK H PARENT 7 5 80 11 11 37 67 56 37 67
REMARK Flexibility Score: inf
ROOT
ATOM      1  C   UNL A   1      32.105  30.356  27.082  1.00  0.00     0.117 C 
ENDROOT
BRANCH   1   2
ATOM      2  N   UNL A   1      33.392  30.104  26.370  1.00  0.00    -0.355 N 
ATOM      3  C   UNL A   1      33.991  28.939  25.944  1.00  0.00     0.228 C 
ATOM      4  O   UNL A   1      35.205  28.848  26.167  1.00  0.00    -0.274 OA
ATOM      5  H   UNL A   1      33.906  30.920  26.167  1.00  0.00     0.163 HD
BRANCH   3   6
ATOM      6  C   UNL A   1      33.243  27.804  25.196  1.00  0.00     0.118 C 
BRANCH   6   7
ATOM      7  C   UNL A   1      34.145  27.072  24.190  1.00  0.00     0.118 C 
BRANCH   7   8
ATOM      8  C   UNL A   1      33.613  25.716  23.880  1.00  0.00     0.225 C 
ATOM      9  O   UNL A   1      33.131  25.427  22.781  1.00  0.00    -0.275 OA
ATOM     10  N   UNL A   1      33.626  24.911  24.988  1.00  0.00    -0.324 N 
ATOM     11  H   UNL A   1      34.008  25.272  25.821  1.00  0.00     0.170 HD
BRANCH  10  12
ATOM     12  C   UNL A   1      33.129  23.612  25.003  1.00  0.00     0.067 A 
ATOM     13  C   UNL A   1      31.852  23.557  25.492  1.00  0.00     0.041 A 
ATOM     14  C   UNL A   1      33.641  22.472  24.423  1.00  0.00     0.090 A 
ATOM     15  C   UNL A   1      31.253  22.412  25.925  1.00  0.00     0.058 A 
ATOM     16  C   UNL A   1      32.874  21.307  24.449  1.00  0.00     0.031 A 
ATOM     17  C   UNL A   1      31.730  21.271  25.282  1.00  0.00     0.015 A 
BRANCH  14  18
ATOM     18  N   UNL A   1      34.974  22.448  24.010  1.00  0.00    -0.219 N 
ATOM     19  C   UNL A   1      36.000  21.820  24.671  1.00  0.00     0.226 A 
ATOM     20  N   UNL A   1      35.442  23.053  22.902  1.00  0.00    -0.155 NA
ATOM     21  N   UNL A   1      37.149  22.156  24.144  1.00  0.00    -0.223 NA
ATOM     22  C   UNL A   1      36.762  22.927  23.084  1.00  0.00     0.246 A 
ENDBRANCH  14  18
BRANCH  15  23
ATOM     23  C   UNL A   1      30.072  22.734  26.809  1.00  0.00     0.416 C 
ATOM     24  F   UNL A   1      30.397  22.659  28.136  1.00  0.00    -0.166 F 
ATOM     25  F   UNL A   1      29.645  24.025  26.670  1.00  0.00    -0.166 F 
ATOM     26  F   UNL A   1      28.984  21.948  26.662  1.00  0.00    -0.166 F 
ENDBRANCH  15  23
ENDBRANCH  10  12
ENDBRANCH   7   8
ENDBRANCH   6   7
BRANCH   6  27
ATOM     27  C   UNL A   1      32.087  28.340  24.324  1.00  0.00    -0.035 A 
ATOM     28  C   UNL A   1      32.325  29.082  23.147  1.00  0.00     0.004 A 
ATOM     29  C   UNL A   1      30.767  27.952  24.594  1.00  0.00     0.004 A 
ATOM     30  C   UNL A   1      31.280  29.460  22.301  1.00  0.00     0.000 A 
ATOM     31  C   UNL A   1      29.720  28.332  23.746  1.00  0.00     0.000 A 
ATOM     32  C   UNL A   1      29.975  29.093  22.606  1.00  0.00     0.000 A 
ENDBRANCH   6  27
ENDBRANCH   3   6
ENDBRANCH   1   2
BRANCH   1  33
ATOM     33  C   UNL A   1      31.344  31.602  26.514  1.00  0.00     0.042 C 
BRANCH  33  34
ATOM     34  C   UNL A   1      31.887  33.110  26.473  1.00  0.00     0.118 C 
BRANCH  34  35
ATOM     35  N   UNL A   1      32.828  33.581  27.617  1.00  0.00    -0.352 N 
ATOM     36  C   UNL A   1      34.040  33.556  28.340  1.00  0.00     0.251 C 
ATOM     37  H   UNL A   1      32.293  34.258  28.090  1.00  0.00     0.163 HD
ATOM     38  O   UNL A   1      34.171  34.628  28.965  1.00  0.00    -0.269 OA
BRANCH  36  39
ATOM     39  C   UNL A   1      35.188  32.563  28.651  1.00  0.00     0.039 A 
ATOM     40  C   UNL A   1      36.542  33.001  28.498  1.00  0.00     0.014 A 
ATOM     41  C   UNL A   1      35.123  31.247  29.062  1.00  0.00     0.014 A 
ATOM     42  C   UNL A   1      37.704  32.281  28.981  1.00  0.00     0.010 A 
ATOM     43  C   UNL A   1      36.259  30.565  29.640  1.00  0.00     0.010 A 
ATOM     44  C   UNL A   1      37.567  31.083  29.687  1.00  0.00    -0.014 A 
BRANCH  44  45
ATOM     45  C   UNL A   1      38.648  30.359  30.513  1.00  0.00     0.031 A 
ATOM     46  C   UNL A   1      39.095  30.906  31.875  1.00  0.00     0.074 A 
ATOM     47  C   UNL A   1      39.450  29.395  29.979  1.00  0.00     0.049 A 
ATOM     48  N   UNL A   1      40.090  30.543  32.656  1.00  0.00    -0.248 NA
ATOM     49  C   UNL A   1      38.362  32.077  32.376  1.00  0.00     0.031 C 
ATOM     50  C   UNL A   1      39.328  28.841  28.631  1.00  0.00     0.029 A 
ATOM     51  N   UNL A   1      40.580  28.755  30.477  1.00  0.00    -0.354 N 
ATOM     52  C   UNL A   1      40.121  31.465  33.706  1.00  0.00     0.074 A 
ATOM     53  C   UNL A   1      39.113  32.455  33.400  1.00  0.00     0.031 C 
ATOM     54  C   UNL A   1      40.340  27.981  28.399  1.00  0.00     0.029 A 
ATOM     55  C   UNL A   1      41.188  27.886  29.586  1.00  0.00     0.049 A 
ATOM     56  H   UNL A   1      40.920  28.907  31.389  1.00  0.00     0.167 HD
ATOM     57  C   UNL A   1      40.872  31.495  34.841  1.00  0.00     0.031 A 
ATOM     58  C   UNL A   1      42.277  27.086  29.698  1.00  0.00     0.031 A 
ATOM     59  C   UNL A   1      41.891  30.528  35.164  1.00  0.00     0.049 A 
ATOM     60  C   UNL A   1      43.051  27.038  31.000  1.00  0.00     0.074 A 
ATOM     61  C   UNL A   1      42.601  30.372  36.344  1.00  0.00     0.029 A 
ATOM     62  N   UNL A   1      42.355  29.560  34.290  1.00  0.00    -0.354 N 
ATOM     63  N   UNL A   1      42.907  27.782  32.070  1.00  0.00    -0.248 NA
ATOM     64  C   UNL A   1      44.105  26.014  31.126  1.00  0.00     0.031 C 
ATOM     65  C   UNL A   1      43.527  29.338  36.166  1.00  0.00     0.029 A 
ATOM     66  C   UNL A   1      43.346  28.809  34.899  1.00  0.00     0.049 A 
ATOM     67  H   UNL A   1      42.029  29.425  33.371  1.00  0.00     0.167 HD
ATOM     68  C   UNL A   1      43.805  27.280  33.010  1.00  0.00     0.074 A 
ATOM     69  C   UNL A   1      44.493  26.172  32.385  1.00  0.00     0.031 C 
ATOM     70  C   UNL A   1      44.023  27.695  34.283  1.00  0.00     0.031 A 
BRANCH  57  71
ATOM     71  C   UNL A   1      40.567  32.578  35.863  1.00  0.00    -0.014 A 
ATOM     72  C   UNL A   1      41.192  33.838  35.767  1.00  0.00     0.010 A 
ATOM     73  C   UNL A   1      39.625  32.376  36.891  1.00  0.00     0.010 A 
ATOM     74  C   UNL A   1      40.944  34.838  36.710  1.00  0.00     0.020 A 
ATOM     75  C   UNL A   1      39.342  33.393  37.816  1.00  0.00     0.020 A 
ATOM     76  C   UNL A   1      40.023  34.610  37.732  1.00  0.00     0.054 A 
BRANCH  76  77
ATOM     77  S   UNL A   1      39.718  35.941  38.927  1.00  0.00     0.124 S 
ATOM     78  O   UNL A   1      38.568  35.428  39.666  1.00  0.00    -0.237 OA
ATOM     79  O   UNL A   1      40.972  35.990  39.676  1.00  0.00    -0.237 OA
ATOM     80  O   UNL A   1      39.450  37.108  38.089  1.00  0.00    -0.744 OA
ENDBRANCH  76  77
ENDBRANCH  57  71
BRANCH  58  81
ATOM     81  C   UNL A   1      42.639  26.136  28.593  1.00  0.00    -0.014 A 
ATOM     82  C   UNL A   1      43.781  26.393  27.808  1.00  0.00     0.010 A 
ATOM     83  C   UNL A   1      41.880  24.984  28.313  1.00  0.00     0.010 A 
ATOM     84  C   UNL A   1      44.155  25.531  26.771  1.00  0.00     0.020 A 
ATOM     85  C   UNL A   1      42.267  24.101  27.290  1.00  0.00     0.020 A 
ATOM     86  C   UNL A   1      43.399  24.384  26.522  1.00  0.00     0.054 A 
BRANCH  86  87
ATOM     87  S   UNL A   1      43.954  23.247  25.216  1.00  0.00     0.124 S 
ATOM     88  O   UNL A   1      44.888  22.386  25.935  1.00  0.00    -0.237 OA
ATOM     89  O   UNL A   1      42.704  22.613  24.800  1.00  0.00    -0.237 OA
ATOM     90  O   UNL A   1      44.557  24.131  24.222  1.00  0.00    -0.744 OA
ENDBRANCH  86  87
ENDBRANCH  58  81
BRANCH  70  91
ATOM     91  C   UNL A   1      45.000  26.920  35.131  1.00  0.00    -0.014 A 
ATOM     92  C   UNL A   1      44.605  25.795  35.875  1.00  0.00     0.010 A 
ATOM     93  C   UNL A   1      46.362  27.278  35.105  1.00  0.00     0.010 A 
ATOM     94  C   UNL A   1      45.550  25.056  36.594  1.00  0.00     0.020 A 
ATOM     95  C   UNL A   1      47.313  26.524  35.797  1.00  0.00     0.020 A 
ATOM     96  C   UNL A   1      46.900  25.422  36.546  1.00  0.00     0.054 A 
BRANCH  96  97
ATOM     97  S   UNL A   1      48.113  24.405  37.431  1.00  0.00     0.124 S 
ATOM     98  O   UNL A   1      49.163  25.376  37.732  1.00  0.00    -0.237 OA
ATOM     99  O   UNL A   1      47.350  23.928  38.582  1.00  0.00    -0.237 OA
ATOM    100  O   UNL A   1      48.478  23.375  36.462  1.00  0.00    -0.744 OA
ENDBRANCH  96  97
ENDBRANCH  70  91
ENDBRANCH  44  45
ENDBRANCH  36  39
ENDBRANCH  34  35
ENDBRANCH  33  34
ENDBRANCH   1  33
TORSDOF 19
ENDMDL
MODEL 3
REMARK VINA RESULT:     -11.0      5.677      7.310
REMARK SMILES O=C(C[C@@H](C(=O)NCCCNC(=O)c1ccc(-c2c3nc(c(-c4ccc(S(=O)(=O)[O-])cc4)c4ccc([nH]4)c(-c4ccc(S(=O)(=O)[O-])cc4)c4nc(c(-c5ccc(S(=O)(=O)[O-])cc5)c5ccc2[nH]5)C=C4)C=C3)cc1)c1ccccc1)Nc1cc(C(F)(F)F)ccc1-n1cncn1
REMARK SMILES IDX 8 1 7 2 5 3 6 4 4 6 3 7 2 8 1 9 80 10 81 12 82 13 90 14
REMARK SMILES IDX 83 15 89 16 88 17 91 18 92 19 95 20 93 21 94 22 84 23 85 24
REMARK SMILES IDX 86 25 87 26 74 27 75 28 79 29 76 30 78 31 77 32 9 33 10 34
REMARK SMILES IDX 11 35 12 36 13 38 14 39 15 40 73 41 16 42 72 43 17 44 18 45
REMARK SMILES IDX 19 46 66 47 20 48 71 49 65 50 67 51 21 52 70 53 64 54 63 55
REMARK SMILES IDX 22 57 52 58 33 59 51 60 34 61 37 62 50 63 68 64 35 65 36 66
REMARK SMILES IDX 49 68 69 69 38 70 23 71 24 72 32 73 25 74 31 75 26 76 27 77
REMARK SMILES IDX 28 78 29 79 30 80 53 81 54 82 62 83 55 84 61 85 56 86 57 87
REMARK SMILES IDX 58 88 59 89 60 90 39 91 40 92 48 93 41 94 47 95 42 96 43 97
REMARK SMILES IDX 44 98 45 99 46 100
REMARK H PARENT 7 5 80 11 11 37 67 56 37 67
REMARK Flexibility Score: inf
ROOT
ATOM      1  C   UNL A   1      32.016  30.662  27.423  1.00  0.00     0.117 C 
ENDROOT
BRANCH   1   2
ATOM      2  N   UNL A   1      33.334  30.187  26.909  1.00  0.00    -0.355 N 
ATOM      3  C   UNL A   1      33.864  28.922  26.779  1.00  0.00     0.228 C 
ATOM      4  O   UNL A   1      35.042  28.795  27.139  1.00  0.00    -0.274 OA
ATOM      5  H   UNL A   1      33.933  30.908  26.607  1.00  0.00     0.163 HD
BRANCH   3   6
ATOM      6  C   UNL A   1      33.089  27.714  26.189  1.00  0.00     0.118 C 
BRANCH   6   7
ATOM      7  C   UNL A   1      34.020  26.560  25.785  1.00  0.00     0.118 C 
BRANCH   7   8
ATOM      8  C   UNL A   1      33.241  25.350  25.406  1.00  0.00     0.225 C 
ATOM      9  O   UNL A   1      32.243  24.979  26.031  1.00  0.00    -0.275 OA
ATOM     10  N   UNL A   1      33.844  24.671  24.380  1.00  0.00    -0.324 N 
ATOM     11  H   UNL A   1      34.660  25.054  23.985  1.00  0.00     0.170 HD
BRANCH  10  12
ATOM     12  C   UNL A   1      33.367  23.470  23.865  1.00  0.00     0.067 A 
ATOM     13  C   UNL A   1      33.518  22.437  24.749  1.00  0.00     0.041 A 
ATOM     14  C   UNL A   1      32.610  23.240  22.737  1.00  0.00     0.090 A 
ATOM     15  C   UNL A   1      33.451  21.121  24.399  1.00  0.00     0.058 A 
ATOM     16  C   UNL A   1      32.120  21.953  22.511  1.00  0.00     0.031 A 
ATOM     17  C   UNL A   1      32.628  20.891  23.298  1.00  0.00     0.015 A 
BRANCH  14  18
ATOM     18  N   UNL A   1      32.519  24.229  21.755  1.00  0.00    -0.219 N 
ATOM     19  C   UNL A   1      33.078  24.159  20.503  1.00  0.00     0.226 A 
ATOM     20  N   UNL A   1      31.873  25.400  21.907  1.00  0.00    -0.155 NA
ATOM     21  N   UNL A   1      32.989  25.320  19.905  1.00  0.00    -0.223 NA
ATOM     22  C   UNL A   1      32.268  26.051  20.808  1.00  0.00     0.246 A 
ENDBRANCH  14  18
BRANCH  15  23
ATOM     23  C   UNL A   1      34.100  20.259  25.455  1.00  0.00     0.416 C 
ATOM     24  F   UNL A   1      34.860  19.264  24.899  1.00  0.00    -0.166 F 
ATOM     25  F   UNL A   1      35.004  20.946  26.215  1.00  0.00    -0.166 F 
ATOM     26  F   UNL A   1      33.266  19.635  26.313  1.00  0.00    -0.166 F 
ENDBRANCH  15  23
ENDBRANCH  10  12
ENDBRANCH   7   8
ENDBRANCH   6   7
BRANCH   6  27
ATOM     27  C   UNL A   1      32.361  28.071  24.875  1.00  0.00    -0.035 A 
ATOM     28  C   UNL A   1      30.952  28.074  24.782  1.00  0.00     0.004 A 
ATOM     29  C   UNL A   1      33.087  28.569  23.784  1.00  0.00     0.004 A 
ATOM     30  C   UNL A   1      30.299  28.513  23.628  1.00  0.00     0.000 A 
ATOM     31  C   UNL A   1      32.432  29.007  22.627  1.00  0.00     0.000 A 
ATOM     32  C   UNL A   1      31.041  28.971  22.545  1.00  0.00     0.000 A 
ENDBRANCH   6  27
ENDBRANCH   3   6
ENDBRANCH   1   2
BRANCH   1  33
ATOM     33  C   UNL A   1      31.464  31.881  26.607  1.00  0.00     0.042 C 
BRANCH  33  34
ATOM     34  C   UNL A   1      32.043  33.375  26.621  1.00  0.00     0.118 C 
BRANCH  34  35
ATOM     35  N   UNL A   1      32.952  33.797  27.809  1.00  0.00    -0.352 N 
ATOM     36  C   UNL A   1      34.141  33.740  28.566  1.00  0.00     0.251 C 
ATOM     37  H   UNL A   1      32.405  34.459  28.292  1.00  0.00     0.163 HD
ATOM     38  O   UNL A   1      34.257  34.787  29.235  1.00  0.00    -0.269 OA
BRANCH  36  39
ATOM     39  C   UNL A   1      35.277  32.731  28.872  1.00  0.00     0.039 A 
ATOM     40  C   UNL A   1      36.635  33.139  28.678  1.00  0.00     0.014 A 
ATOM     41  C   UNL A   1      35.196  31.427  29.312  1.00  0.00     0.014 A 
ATOM     42  C   UNL A   1      37.794  32.406  29.149  1.00  0.00     0.010 A 
ATOM     43  C   UNL A   1      36.332  30.734  29.879  1.00  0.00     0.010 A 
ATOM     44  C   UNL A   1      37.651  31.227  29.884  1.00  0.00    -0.014 A 
BRANCH  44  45
ATOM     45  C   UNL A   1      38.737  30.500  30.701  1.00  0.00     0.031 A 
ATOM     46  C   UNL A   1      39.197  31.045  32.059  1.00  0.00     0.074 A 
ATOM     47  C   UNL A   1      39.531  29.533  30.160  1.00  0.00     0.049 A 
ATOM     48  N   UNL A   1      40.198  30.678  32.831  1.00  0.00    -0.248 NA
ATOM     49  C   UNL A   1      38.472  32.217  32.567  1.00  0.00     0.031 C 
ATOM     50  C   UNL A   1      39.396  28.980  28.812  1.00  0.00     0.029 A 
ATOM     51  N   UNL A   1      40.663  28.889  30.647  1.00  0.00    -0.354 N 
ATOM     52  C   UNL A   1      40.240  31.601  33.881  1.00  0.00     0.074 A 
ATOM     53  C   UNL A   1      39.233  32.594  33.584  1.00  0.00     0.031 C 
ATOM     54  C   UNL A   1      40.403  28.117  28.572  1.00  0.00     0.029 A 
ATOM     55  C   UNL A   1      41.261  28.019  29.751  1.00  0.00     0.049 A 
ATOM     56  H   UNL A   1      41.012  29.040  31.556  1.00  0.00     0.167 HD
ATOM     57  C   UNL A   1      41.002  31.627  35.009  1.00  0.00     0.031 A 
ATOM     58  C   UNL A   1      42.348  27.216  29.853  1.00  0.00     0.031 A 
ATOM     59  C   UNL A   1      42.021  30.658  35.323  1.00  0.00     0.049 A 
ATOM     60  C   UNL A   1      43.134  27.165  31.148  1.00  0.00     0.074 A 
ATOM     61  C   UNL A   1      42.741  30.499  36.497  1.00  0.00     0.029 A 
ATOM     62  N   UNL A   1      42.474  29.688  34.445  1.00  0.00    -0.354 N 
ATOM     63  N   UNL A   1      43.001  27.910  32.220  1.00  0.00    -0.248 NA
ATOM     64  C   UNL A   1      44.185  26.138  31.265  1.00  0.00     0.031 C 
ATOM     65  C   UNL A   1      43.661  29.462  36.311  1.00  0.00     0.029 A 
ATOM     66  C   UNL A   1      43.468  28.934  35.044  1.00  0.00     0.049 A 
ATOM     67  H   UNL A   1      42.139  29.554  33.529  1.00  0.00     0.167 HD
ATOM     68  C   UNL A   1      43.906  27.404  33.151  1.00  0.00     0.074 A 
ATOM     69  C   UNL A   1      44.585  26.294  32.520  1.00  0.00     0.031 C 
ATOM     70  C   UNL A   1      44.136  27.818  34.423  1.00  0.00     0.031 A 
BRANCH  57  71
ATOM     71  C   UNL A   1      40.709  32.711  36.034  1.00  0.00    -0.014 A 
ATOM     72  C   UNL A   1      41.474  33.895  36.051  1.00  0.00     0.010 A 
ATOM     73  C   UNL A   1      39.646  32.590  36.950  1.00  0.00     0.010 A 
ATOM     74  C   UNL A   1      41.238  34.892  37.000  1.00  0.00     0.020 A 
ATOM     75  C   UNL A   1      39.378  33.608  37.878  1.00  0.00     0.020 A 
ATOM     76  C   UNL A   1      40.192  34.742  37.912  1.00  0.00     0.054 A 
BRANCH  76  77
ATOM     77  S   UNL A   1      39.908  36.068  39.118  1.00  0.00     0.124 S 
ATOM     78  O   UNL A   1      41.253  36.296  39.639  1.00  0.00    -0.237 OA
ATOM     79  O   UNL A   1      39.367  37.142  38.289  1.00  0.00    -0.237 OA
ATOM     80  O   UNL A   1      38.964  35.482  40.066  1.00  0.00    -0.744 OA
ENDBRANCH  76  77
ENDBRANCH  57  71
BRANCH  58  81
ATOM     81  C   UNL A   1      42.698  26.265  28.745  1.00  0.00    -0.014 A 
ATOM     82  C   UNL A   1      43.762  26.579  27.875  1.00  0.00     0.010 A 
ATOM     83  C   UNL A   1      42.004  25.058  28.543  1.00  0.00     0.010 A 
ATOM     84  C   UNL A   1      44.122  25.719  26.832  1.00  0.00     0.020 A 
ATOM     85  C   UNL A   1      42.379  24.178  27.513  1.00  0.00     0.020 A 
ATOM     86  C   UNL A   1      43.432  24.517  26.661  1.00  0.00     0.054 A 
BRANCH  86  87
ATOM     87  S   UNL A   1      43.973  23.388  25.342  1.00  0.00     0.124 S 
ATOM     88  O   UNL A   1      44.929  22.535  26.041  1.00  0.00    -0.237 OA
ATOM     89  O   UNL A   1      42.722  22.742  24.950  1.00  0.00    -0.237 OA
ATOM     90  O   UNL A   1      44.547  24.280  24.338  1.00  0.00    -0.744 OA
ENDBRANCH  86  87
ENDBRANCH  58  81
BRANCH  70  91
ATOM     91  C   UNL A   1      45.118  27.040  35.262  1.00  0.00    -0.014 A 
ATOM     92  C   UNL A   1      46.500  27.289  35.206  1.00  0.00     0.010 A 
ATOM     93  C   UNL A   1      44.630  26.101  36.191  1.00  0.00     0.010 A 
ATOM     94  C   UNL A   1      47.377  26.599  36.050  1.00  0.00     0.020 A 
ATOM     95  C   UNL A   1      45.500  25.432  37.056  1.00  0.00     0.020 A 
ATOM     96  C   UNL A   1      46.871  25.679  36.974  1.00  0.00     0.054 A 
BRANCH  96  97
ATOM     97  S   UNL A   1      48.022  24.849  38.103  1.00  0.00     0.124 S 
ATOM     98  O   UNL A   1      48.855  25.960  38.560  1.00  0.00    -0.237 OA
ATOM     99  O   UNL A   1      47.129  24.279  39.108  1.00  0.00    -0.237 OA
ATOM    100  O   UNL A   1      48.700  23.873  37.254  1.00  0.00    -0.744 OA
ENDBRANCH  96  97
ENDBRANCH  70  91
ENDBRANCH  44  45
ENDBRANCH  36  39
ENDBRANCH  34  35
ENDBRANCH  33  34
ENDBRANCH   1  33
TORSDOF 19
ENDMDL
