MODEL 1
REMARK VINA RESULT:     -10.2      0.000      0.000
REMARK SMILES CCc1ccc(C(=O)NC[C@@H](CC(C)C)C(=O)NCCCNC(=O)c2ccc(-c3c4nc(c(-c5ccc(S(=O)(=O)[O-])cc5)c5ccc([nH]5)c(-c5ccc(S(=O)(=O)[O-])cc5)c5nc(c(-c6ccc(S(=O)(=O)[O-])cc6)c6ccc3[nH]6)C=C5)C=C4)cc2)s1
REMARK SMILES IDX 19 1 18 2 16 3 17 4 11 6 10 7 9 8 7 9 8 10 6 12 3 13 4 14
REMARK SMILES IDX 85 15 5 16 2 17 1 18 12 19 13 20 14 21 15 22 20 23 21 24
REMARK SMILES IDX 22 25 23 26 24 28 25 29 26 30 84 31 27 32 83 33 28 34 29 35
REMARK SMILES IDX 30 36 77 37 31 38 82 39 76 40 78 41 32 42 81 43 75 44 74 45
REMARK SMILES IDX 33 47 63 48 44 49 62 50 45 51 48 52 61 53 79 54 46 55 47 56
REMARK SMILES IDX 60 58 80 59 49 60 34 61 35 62 43 63 36 64 42 65 37 66 38 67
REMARK SMILES IDX 39 68 40 69 41 70 64 71 65 72 73 73 66 74 72 75 67 76 68 77
REMARK SMILES IDX 69 78 70 79 71 80 50 81 51 82 59 83 52 84 58 85 53 86 54 87
REMARK SMILES IDX 55 88 56 89 57 90
REMARK H PARENT 18 5 9 11 22 27 78 46 48 57
REMARK Flexibility Score: inf
ROOT
ATOM      1  C   UNL A   1      34.668  24.285  25.601  1.00  0.00     0.117 C 
ENDROOT
BRANCH   1   2
ATOM      2  N   UNL A   1      33.565  24.315  26.547  1.00  0.00    -0.356 N 
ATOM      3  C   UNL A   1      32.236  24.106  26.391  1.00  0.00     0.224 C 
ATOM      4  O   UNL A   1      31.563  24.022  27.424  1.00  0.00    -0.275 OA
ATOM      5  H   UNL A   1      33.833  24.527  27.470  1.00  0.00     0.163 HD
BRANCH   3   6
ATOM      6  C   UNL A   1      31.563  23.963  25.036  1.00  0.00     0.098 C 
BRANCH   6   7
ATOM      7  C   UNL A   1      32.020  25.006  24.004  1.00  0.00     0.129 C 
BRANCH   7   8
ATOM      8  N   UNL A   1      30.947  25.906  23.616  1.00  0.00    -0.351 N 
ATOM      9  C   UNL A   1      30.577  27.155  24.060  1.00  0.00     0.261 C 
ATOM     10  O   UNL A   1      29.690  27.688  23.384  1.00  0.00    -0.268 OA
ATOM     11  H   UNL A   1      30.377  25.556  22.894  1.00  0.00     0.163 HD
BRANCH   9  12
ATOM     12  C   UNL A   1      31.175  27.786  25.234  1.00  0.00     0.092 A 
ATOM     13  C   UNL A   1      32.279  29.519  26.670  1.00  0.00     0.005 A 
ATOM     14  C   UNL A   1      31.896  28.404  27.383  1.00  0.00     0.016 A 
ATOM     15  S   UNL A   1      31.902  29.335  25.009  1.00  0.00    -0.135 S 
ATOM     16  C   UNL A   1      31.247  27.424  26.567  1.00  0.00     0.026 A 
BRANCH  13  17
ATOM     17  C   UNL A   1      32.905  30.809  27.127  1.00  0.00     0.043 C 
ATOM     18  C   UNL A   1      34.334  30.672  27.631  1.00  0.00     0.010 C 
ENDBRANCH  13  17
ENDBRANCH   9  12
ENDBRANCH   7   8
ENDBRANCH   6   7
BRANCH   6  19
ATOM     19  C   UNL A   1      31.495  22.506  24.512  1.00  0.00     0.018 C 
BRANCH  19  20
ATOM     20  C   UNL A   1      32.658  21.990  23.638  1.00  0.00    -0.017 C 
ATOM     21  C   UNL A   1      33.545  20.988  24.387  1.00  0.00     0.007 C 
ATOM     22  C   UNL A   1      32.131  21.306  22.371  1.00  0.00     0.007 C 
ENDBRANCH  19  20
ENDBRANCH   6  19
ENDBRANCH   3   6
ENDBRANCH   1   2
BRANCH   1  23
ATOM     23  C   UNL A   1      35.787  23.360  26.036  1.00  0.00     0.042 C 
BRANCH  23  24
ATOM     24  C   UNL A   1      36.973  23.384  25.083  1.00  0.00     0.118 C 
BRANCH  24  25
ATOM     25  N   UNL A   1      38.065  22.513  25.512  1.00  0.00    -0.352 N 
ATOM     26  C   UNL A   1      39.231  22.806  26.182  1.00  0.00     0.251 C 
ATOM     27  H   UNL A   1      37.949  21.562  25.285  1.00  0.00     0.163 HD
ATOM     28  O   UNL A   1      40.114  21.957  26.268  1.00  0.00    -0.269 OA
BRANCH  26  29
ATOM     29  C   UNL A   1      39.428  24.150  26.761  1.00  0.00     0.039 A 
ATOM     30  C   UNL A   1      39.014  24.408  28.070  1.00  0.00     0.014 A 
ATOM     31  C   UNL A   1      40.054  25.148  26.017  1.00  0.00     0.014 A 
ATOM     32  C   UNL A   1      39.333  25.633  28.664  1.00  0.00     0.010 A 
ATOM     33  C   UNL A   1      40.485  26.305  26.649  1.00  0.00     0.010 A 
ATOM     34  C   UNL A   1      40.127  26.566  27.978  1.00  0.00    -0.014 A 
BRANCH  34  35
ATOM     35  C   UNL A   1      40.599  27.828  28.606  1.00  0.00     0.031 A 
ATOM     36  C   UNL A   1      41.989  27.898  29.185  1.00  0.00     0.074 A 
ATOM     37  C   UNL A   1      39.748  28.862  28.765  1.00  0.00     0.049 A 
ATOM     38  N   UNL A   1      42.529  28.828  29.928  1.00  0.00    -0.248 NA
ATOM     39  C   UNL A   1      42.869  26.742  28.939  1.00  0.00     0.031 C 
ATOM     40  C   UNL A   1      38.357  28.901  28.307  1.00  0.00     0.029 A 
ATOM     41  N   UNL A   1      39.927  30.080  29.374  1.00  0.00    -0.354 N 
ATOM     42  C   UNL A   1      43.788  28.349  30.274  1.00  0.00     0.074 A 
ATOM     43  C   UNL A   1      43.908  27.024  29.708  1.00  0.00     0.031 C 
ATOM     44  C   UNL A   1      37.820  30.090  28.626  1.00  0.00     0.029 A 
ATOM     45  C   UNL A   1      38.809  30.879  29.352  1.00  0.00     0.049 A 
ATOM     46  H   UNL A   1      40.776  30.354  29.789  1.00  0.00     0.167 HD
ATOM     47  C   UNL A   1      44.770  28.965  30.974  1.00  0.00     0.031 A 
ATOM     48  C   UNL A   1      38.597  32.105  29.867  1.00  0.00     0.031 A 
ATOM     49  C   UNL A   1      44.665  30.301  31.492  1.00  0.00     0.049 A 
ATOM     50  C   UNL A   1      39.716  32.794  30.599  1.00  0.00     0.074 A 
ATOM     51  C   UNL A   1      45.624  31.046  32.154  1.00  0.00     0.029 A 
ATOM     52  N   UNL A   1      43.535  31.099  31.389  1.00  0.00    -0.354 N 
ATOM     53  N   UNL A   1      40.918  32.344  30.871  1.00  0.00    -0.248 NA
ATOM     54  C   UNL A   1      39.455  34.156  31.083  1.00  0.00     0.031 C 
ATOM     55  C   UNL A   1      45.063  32.286  32.480  1.00  0.00     0.029 A 
ATOM     56  C   UNL A   1      43.771  32.328  31.982  1.00  0.00     0.049 A 
ATOM     57  H   UNL A   1      42.691  30.831  30.961  1.00  0.00     0.167 HD
ATOM     58  C   UNL A   1      41.565  33.377  31.538  1.00  0.00     0.074 A 
ATOM     59  C   UNL A   1      40.626  34.478  31.617  1.00  0.00     0.031 C 
ATOM     60  C   UNL A   1      42.823  33.412  32.041  1.00  0.00     0.031 A 
BRANCH  47  61
ATOM     61  C   UNL A   1      46.042  28.193  31.205  1.00  0.00    -0.014 A 
ATOM     62  C   UNL A   1      46.200  27.379  32.341  1.00  0.00     0.010 A 
ATOM     63  C   UNL A   1      47.094  28.281  30.275  1.00  0.00     0.010 A 
ATOM     64  C   UNL A   1      47.408  26.717  32.577  1.00  0.00     0.020 A 
ATOM     65  C   UNL A   1      48.293  27.594  30.491  1.00  0.00     0.020 A 
ATOM     66  C   UNL A   1      48.450  26.836  31.653  1.00  0.00     0.054 A 
BRANCH  66  67
ATOM     67  S   UNL A   1      50.007  25.968  31.984  1.00  0.00     0.124 S 
ATOM     68  O   UNL A   1      50.797  27.010  32.636  1.00  0.00    -0.237 OA
ATOM     69  O   UNL A   1      49.586  24.868  32.848  1.00  0.00    -0.237 OA
ATOM     70  O   UNL A   1      50.472  25.572  30.658  1.00  0.00    -0.744 OA
ENDBRANCH  66  67
ENDBRANCH  47  61
BRANCH  48  71
ATOM     71  C   UNL A   1      37.278  32.769  29.682  1.00  0.00    -0.014 A 
ATOM     72  C   UNL A   1      36.340  32.784  30.729  1.00  0.00     0.010 A 
ATOM     73  C   UNL A   1      36.965  33.417  28.473  1.00  0.00     0.010 A 
ATOM     74  C   UNL A   1      35.106  33.422  30.566  1.00  0.00     0.020 A 
ATOM     75  C   UNL A   1      35.744  34.078  28.316  1.00  0.00     0.020 A 
ATOM     76  C   UNL A   1      34.817  34.068  29.361  1.00  0.00     0.054 A 
BRANCH  76  77
ATOM     77  S   UNL A   1      33.238  34.946  29.195  1.00  0.00     0.124 S 
ATOM     78  O   UNL A   1      32.712  34.884  30.554  1.00  0.00    -0.237 OA
ATOM     79  O   UNL A   1      33.658  36.268  28.737  1.00  0.00    -0.237 OA
ATOM     80  O   UNL A   1      32.512  34.154  28.203  1.00  0.00    -0.744 OA
ENDBRANCH  76  77
ENDBRANCH  48  71
BRANCH  60  81
ATOM     81  C   UNL A   1      43.275  34.689  32.691  1.00  0.00    -0.014 A 
ATOM     82  C   UNL A   1      44.006  35.650  31.972  1.00  0.00     0.010 A 
ATOM     83  C   UNL A   1      42.896  34.962  34.019  1.00  0.00     0.010 A 
ATOM     84  C   UNL A   1      44.369  36.855  32.577  1.00  0.00     0.020 A 
ATOM     85  C   UNL A   1      43.238  36.175  34.619  1.00  0.00     0.020 A 
ATOM     86  C   UNL A   1      43.981  37.111  33.896  1.00  0.00     0.054 A 
BRANCH  86  87
ATOM     87  S   UNL A   1      44.411  38.709  34.640  1.00  0.00     0.124 S 
ATOM     88  O   UNL A   1      45.676  39.020  33.979  1.00  0.00    -0.237 OA
ATOM     89  O   UNL A   1      43.280  39.553  34.262  1.00  0.00    -0.237 OA
ATOM     90  O   UNL A   1      44.509  38.411  36.067  1.00  0.00    -0.744 OA
ENDBRANCH  86  87
ENDBRANCH  60  81
ENDBRANCH  34  35
ENDBRANCH  26  29
ENDBRANCH  24  25
ENDBRANCH  23  24
ENDBRANCH   1  23
TORSDOF 19
ENDMDL
MODEL 2
REMARK VINA RESULT:     -10.1      2.723      9.133
REMARK SMILES CCc1ccc(C(=O)NC[C@@H](CC(C)C)C(=O)NCCCNC(=O)c2ccc(-c3c4nc(c(-c5ccc(S(=O)(=O)[O-])cc5)c5ccc([nH]5)c(-c5ccc(S(=O)(=O)[O-])cc5)c5nc(c(-c6ccc(S(=O)(=O)[O-])cc6)c6ccc3[nH]6)C=C5)C=C4)cc2)s1
REMARK SMILES IDX 19 1 18 2 16 3 17 4 11 6 10 7 9 8 7 9 8 10 6 12 3 13 4 14
REMARK SMILES IDX 85 15 5 16 2 17 1 18 12 19 13 20 14 21 15 22 20 23 21 24
REMARK SMILES IDX 22 25 23 26 24 28 25 29 26 30 84 31 27 32 83 33 28 34 29 35
REMARK SMILES IDX 30 36 77 37 31 38 82 39 76 40 78 41 32 42 81 43 75 44 74 45
REMARK SMILES IDX 33 47 63 48 44 49 62 50 45 51 48 52 61 53 79 54 46 55 47 56
REMARK SMILES IDX 60 58 80 59 49 60 34 61 35 62 43 63 36 64 42 65 37 66 38 67
REMARK SMILES IDX 39 68 40 69 41 70 64 71 65 72 73 73 66 74 72 75 67 76 68 77
REMARK SMILES IDX 69 78 70 79 71 80 50 81 51 82 59 83 52 84 58 85 53 86 54 87
REMARK SMILES IDX 55 88 56 89 57 90
REMARK H PARENT 18 5 9 11 22 27 78 46 48 57
REMARK Flexibility Score: inf
ROOT
ATOM      1  C   UNL A   1      31.594  27.712  25.963  1.00  0.00     0.117 C 
ENDROOT
BRANCH   1   2
ATOM      2  N   UNL A   1      30.953  27.794  24.661  1.00  0.00    -0.356 N 
ATOM      3  C   UNL A   1      30.226  26.896  23.954  1.00  0.00     0.224 C 
ATOM      4  O   UNL A   1      29.654  27.319  22.944  1.00  0.00    -0.275 OA
ATOM      5  H   UNL A   1      31.069  28.662  24.210  1.00  0.00     0.163 HD
BRANCH   3   6
ATOM      6  C   UNL A   1      30.083  25.436  24.350  1.00  0.00     0.098 C 
BRANCH   6   7
ATOM      7  C   UNL A   1      30.602  24.453  23.290  1.00  0.00     0.129 C 
BRANCH   7   8
ATOM      8  N   UNL A   1      31.516  25.082  22.351  1.00  0.00    -0.351 N 
ATOM      9  C   UNL A   1      32.889  25.119  22.276  1.00  0.00     0.261 C 
ATOM     10  O   UNL A   1      33.324  25.635  21.240  1.00  0.00    -0.268 OA
ATOM     11  H   UNL A   1      31.065  25.575  21.629  1.00  0.00     0.163 HD
BRANCH   9  12
ATOM     12  C   UNL A   1      33.753  24.602  23.334  1.00  0.00     0.092 A 
ATOM     13  C   UNL A   1      35.188  23.010  24.636  1.00  0.00     0.005 A 
ATOM     14  C   UNL A   1      35.203  24.286  25.157  1.00  0.00     0.016 A 
ATOM     15  S   UNL A   1      34.151  22.923  23.275  1.00  0.00    -0.135 S 
ATOM     16  C   UNL A   1      34.401  25.198  24.401  1.00  0.00     0.026 A 
BRANCH  13  17
ATOM     17  C   UNL A   1      35.939  21.773  25.049  1.00  0.00     0.043 C 
ATOM     18  C   UNL A   1      37.449  21.873  24.898  1.00  0.00     0.010 C 
ENDBRANCH  13  17
ENDBRANCH   9  12
ENDBRANCH   7   8
ENDBRANCH   6   7
BRANCH   6  19
ATOM     19  C   UNL A   1      30.520  25.128  25.804  1.00  0.00     0.018 C 
BRANCH  19  20
ATOM     20  C   UNL A   1      30.901  23.674  26.159  1.00  0.00    -0.017 C 
ATOM     21  C   UNL A   1      32.174  23.600  27.012  1.00  0.00     0.007 C 
ATOM     22  C   UNL A   1      29.771  22.981  26.928  1.00  0.00     0.007 C 
ENDBRANCH  19  20
ENDBRANCH   6  19
ENDBRANCH   3   6
ENDBRANCH   1   2
BRANCH   1  23
ATOM     23  C   UNL A   1      32.984  28.315  25.970  1.00  0.00     0.042 C 
BRANCH  23  24
ATOM     24  C   UNL A   1      33.496  28.594  27.376  1.00  0.00     0.118 C 
BRANCH  24  25
ATOM     25  N   UNL A   1      33.589  30.020  27.676  1.00  0.00    -0.352 N 
ATOM     26  C   UNL A   1      34.615  30.753  28.226  1.00  0.00     0.251 C 
ATOM     27  H   UNL A   1      32.787  30.544  27.446  1.00  0.00     0.163 HD
ATOM     28  O   UNL A   1      34.415  31.911  28.582  1.00  0.00    -0.269 OA
BRANCH  26  29
ATOM     29  C   UNL A   1      35.940  30.132  28.419  1.00  0.00     0.039 A 
ATOM     30  C   UNL A   1      36.873  30.150  27.380  1.00  0.00     0.014 A 
ATOM     31  C   UNL A   1      36.273  29.558  29.645  1.00  0.00     0.014 A 
ATOM     32  C   UNL A   1      38.174  29.693  27.613  1.00  0.00     0.010 A 
ATOM     33  C   UNL A   1      37.593  29.230  29.913  1.00  0.00     0.010 A 
ATOM     34  C   UNL A   1      38.561  29.288  28.901  1.00  0.00    -0.014 A 
BRANCH  34  35
ATOM     35  C   UNL A   1      39.960  28.912  29.233  1.00  0.00     0.031 A 
ATOM     36  C   UNL A   1      40.882  29.935  29.846  1.00  0.00     0.074 A 
ATOM     37  C   UNL A   1      40.435  27.701  28.877  1.00  0.00     0.049 A 
ATOM     38  N   UNL A   1      42.172  29.871  30.045  1.00  0.00    -0.248 NA
ATOM     39  C   UNL A   1      40.278  31.220  30.240  1.00  0.00     0.031 C 
ATOM     40  C   UNL A   1      39.666  26.641  28.219  1.00  0.00     0.029 A 
ATOM     41  N   UNL A   1      41.693  27.164  29.003  1.00  0.00    -0.354 N 
ATOM     42  C   UNL A   1      42.538  31.118  30.539  1.00  0.00     0.074 A 
ATOM     43  C   UNL A   1      41.345  31.935  30.556  1.00  0.00     0.031 C 
ATOM     44  C   UNL A   1      40.458  25.574  28.028  1.00  0.00     0.029 A 
ATOM     45  C   UNL A   1      41.802  25.888  28.502  1.00  0.00     0.049 A 
ATOM     46  H   UNL A   1      42.445  27.647  29.414  1.00  0.00     0.167 HD
ATOM     47  C   UNL A   1      43.751  31.540  30.968  1.00  0.00     0.031 A 
ATOM     48  C   UNL A   1      42.865  25.066  28.421  1.00  0.00     0.031 A 
ATOM     49  C   UNL A   1      44.924  30.709  30.995  1.00  0.00     0.049 A 
ATOM     50  C   UNL A   1      44.193  25.535  28.949  1.00  0.00     0.074 A 
ATOM     51  C   UNL A   1      46.184  31.014  31.475  1.00  0.00     0.029 A 
ATOM     52  N   UNL A   1      44.973  29.401  30.538  1.00  0.00    -0.354 N 
ATOM     53  N   UNL A   1      44.508  26.701  29.461  1.00  0.00    -0.248 NA
ATOM     54  C   UNL A   1      45.305  24.575  28.898  1.00  0.00     0.031 C 
ATOM     55  C   UNL A   1      47.006  29.899  31.279  1.00  0.00     0.029 A 
ATOM     56  C   UNL A   1      46.244  28.886  30.718  1.00  0.00     0.049 A 
ATOM     57  H   UNL A   1      44.216  28.912  30.142  1.00  0.00     0.167 HD
ATOM     58  C   UNL A   1      45.848  26.608  29.815  1.00  0.00     0.074 A 
ATOM     59  C   UNL A   1      46.281  25.269  29.470  1.00  0.00     0.031 C 
ATOM     60  C   UNL A   1      46.650  27.547  30.374  1.00  0.00     0.031 A 
BRANCH  47  61
ATOM     61  C   UNL A   1      43.856  32.962  31.451  1.00  0.00    -0.014 A 
ATOM     62  C   UNL A   1      43.549  33.300  32.783  1.00  0.00     0.010 A 
ATOM     63  C   UNL A   1      44.268  33.976  30.567  1.00  0.00     0.010 A 
ATOM     64  C   UNL A   1      43.590  34.631  33.204  1.00  0.00     0.020 A 
ATOM     65  C   UNL A   1      44.342  35.306  30.994  1.00  0.00     0.020 A 
ATOM     66  C   UNL A   1      43.978  35.627  32.303  1.00  0.00     0.054 A 
BRANCH  66  67
ATOM     67  S   UNL A   1      44.020  37.347  32.875  1.00  0.00     0.124 S 
ATOM     68  O   UNL A   1      42.907  37.376  33.820  1.00  0.00    -0.237 OA
ATOM     69  O   UNL A   1      45.350  37.457  33.471  1.00  0.00    -0.237 OA
ATOM     70  O   UNL A   1      43.822  38.123  31.654  1.00  0.00    -0.744 OA
ENDBRANCH  66  67
ENDBRANCH  47  61
BRANCH  48  71
ATOM     71  C   UNL A   1      42.707  23.704  27.841  1.00  0.00    -0.014 A 
ATOM     72  C   UNL A   1      42.367  22.618  28.666  1.00  0.00     0.010 A 
ATOM     73  C   UNL A   1      42.862  23.492  26.459  1.00  0.00     0.010 A 
ATOM     74  C   UNL A   1      42.199  21.341  28.122  1.00  0.00     0.020 A 
ATOM     75  C   UNL A   1      42.670  22.222  25.908  1.00  0.00     0.020 A 
ATOM     76  C   UNL A   1      42.349  21.151  26.746  1.00  0.00     0.054 A 
BRANCH  76  77
ATOM     77  S   UNL A   1      42.062  19.499  26.054  1.00  0.00     0.124 S 
ATOM     78  O   UNL A   1      42.519  18.633  27.135  1.00  0.00    -0.237 OA
ATOM     79  O   UNL A   1      40.621  19.503  25.811  1.00  0.00    -0.237 OA
ATOM     80  O   UNL A   1      42.888  19.488  24.847  1.00  0.00    -0.744 OA
ENDBRANCH  76  77
ENDBRANCH  48  71
BRANCH  60  81
ATOM     81  C   UNL A   1      48.067  27.153  30.683  1.00  0.00    -0.014 A 
ATOM     82  C   UNL A   1      49.051  27.140  29.679  1.00  0.00     0.010 A 
ATOM     83  C   UNL A   1      48.432  26.864  32.011  1.00  0.00     0.010 A 
ATOM     84  C   UNL A   1      50.375  26.826  29.997  1.00  0.00     0.020 A 
ATOM     85  C   UNL A   1      49.758  26.571  32.334  1.00  0.00     0.020 A 
ATOM     86  C   UNL A   1      50.720  26.545  31.323  1.00  0.00     0.054 A 
BRANCH  86  87
ATOM     87  S   UNL A   1      52.456  26.199  31.720  1.00  0.00     0.124 S 
ATOM     88  O   UNL A   1      53.147  26.732  30.549  1.00  0.00    -0.237 OA
ATOM     89  O   UNL A   1      52.655  26.945  32.961  1.00  0.00    -0.237 OA
ATOM     90  O   UNL A   1      52.496  24.746  31.862  1.00  0.00    -0.744 OA
ENDBRANCH  86  87
ENDBRANCH  60  81
ENDBRANCH  34  35
ENDBRANCH  26  29
ENDBRANCH  24  25
ENDBRANCH  23  24
ENDBRANCH   1  23
TORSDOF 19
ENDMDL
MODEL 3
REMARK VINA RESULT:     -10.1      2.704      9.227
REMARK SMILES CCc1ccc(C(=O)NC[C@@H](CC(C)C)C(=O)NCCCNC(=O)c2ccc(-c3c4nc(c(-c5ccc(S(=O)(=O)[O-])cc5)c5ccc([nH]5)c(-c5ccc(S(=O)(=O)[O-])cc5)c5nc(c(-c6ccc(S(=O)(=O)[O-])cc6)c6ccc3[nH]6)C=C5)C=C4)cc2)s1
REMARK SMILES IDX 19 1 18 2 16 3 17 4 11 6 10 7 9 8 7 9 8 10 6 12 3 13 4 14
REMARK SMILES IDX 85 15 5 16 2 17 1 18 12 19 13 20 14 21 15 22 20 23 21 24
REMARK SMILES IDX 22 25 23 26 24 28 25 29 26 30 84 31 27 32 83 33 28 34 29 35
REMARK SMILES IDX 30 36 77 37 31 38 82 39 76 40 78 41 32 42 81 43 75 44 74 45
REMARK SMILES IDX 33 47 63 48 44 49 62 50 45 51 48 52 61 53 79 54 46 55 47 56
REMARK SMILES IDX 60 58 80 59 49 60 34 61 35 62 43 63 36 64 42 65 37 66 38 67
REMARK SMILES IDX 39 68 40 69 41 70 64 71 65 72 73 73 66 74 72 75 67 76 68 77
REMARK SMILES IDX 69 78 70 79 71 80 50 81 51 82 59 83 52 84 58 85 53 86 54 87
REMARK SMILES IDX 55 88 56 89 57 90
REMARK H PARENT 18 5 9 11 22 27 78 46 48 57
REMARK Flexibility Score: inf
ROOT
ATOM      1  C   UNL A   1      32.265  26.927  26.373  1.00  0.00     0.117 C 
ENDROOT
BRANCH   1   2
ATOM      2  N   UNL A   1      30.938  26.366  26.569  1.00  0.00    -0.356 N 
ATOM      3  C   UNL A   1      30.355  25.240  26.092  1.00  0.00     0.224 C 
ATOM      4  O   UNL A   1      29.264  24.931  26.583  1.00  0.00    -0.275 OA
ATOM      5  H   UNL A   1      30.357  26.903  27.155  1.00  0.00     0.163 HD
BRANCH   3   6
ATOM      6  C   UNL A   1      30.978  24.362  25.020  1.00  0.00     0.098 C 
BRANCH   6   7
ATOM      7  C   UNL A   1      30.968  22.865  25.361  1.00  0.00     0.129 C 
BRANCH   7   8
ATOM      8  N   UNL A   1      31.435  22.602  26.712  1.00  0.00    -0.351 N 
ATOM      9  C   UNL A   1      32.676  22.297  27.223  1.00  0.00     0.261 C 
ATOM     10  O   UNL A   1      32.724  22.286  28.458  1.00  0.00    -0.268 OA
ATOM     11  H   UNL A   1      30.727  22.653  27.394  1.00  0.00     0.163 HD
BRANCH   9  12
ATOM     12  C   UNL A   1      33.828  22.002  26.375  1.00  0.00     0.092 A 
ATOM     13  C   UNL A   1      36.157  22.098  25.452  1.00  0.00     0.005 A 
ATOM     14  C   UNL A   1      35.401  21.097  24.881  1.00  0.00     0.016 A 
ATOM     15  S   UNL A   1      35.234  22.982  26.592  1.00  0.00    -0.135 S 
ATOM     16  C   UNL A   1      34.078  21.030  25.424  1.00  0.00     0.026 A 
BRANCH  13  17
ATOM     17  C   UNL A   1      37.602  22.470  25.251  1.00  0.00     0.043 C 
ATOM     18  C   UNL A   1      38.045  23.710  26.012  1.00  0.00     0.010 C 
ENDBRANCH  13  17
ENDBRANCH   9  12
ENDBRANCH   7   8
ENDBRANCH   6   7
BRANCH   6  19
ATOM     19  C   UNL A   1      30.533  24.711  23.576  1.00  0.00     0.018 C 
BRANCH  19  20
ATOM     20  C   UNL A   1      31.550  25.409  22.648  1.00  0.00    -0.017 C 
ATOM     21  C   UNL A   1      31.261  26.908  22.496  1.00  0.00     0.007 C 
ATOM     22  C   UNL A   1      32.979  25.251  23.181  1.00  0.00     0.007 C 
ENDBRANCH  19  20
ENDBRANCH   6  19
ENDBRANCH   3   6
ENDBRANCH   1   2
BRANCH   1  23
ATOM     23  C   UNL A   1      32.573  28.050  27.342  1.00  0.00     0.042 C 
BRANCH  23  24
ATOM     24  C   UNL A   1      33.705  28.947  26.860  1.00  0.00     0.118 C 
BRANCH  24  25
ATOM     25  N   UNL A   1      33.714  30.253  27.515  1.00  0.00    -0.352 N 
ATOM     26  C   UNL A   1      34.652  30.835  28.335  1.00  0.00     0.251 C 
ATOM     27  H   UNL A   1      32.918  30.807  27.341  1.00  0.00     0.163 HD
ATOM     28  O   UNL A   1      34.375  31.863  28.947  1.00  0.00    -0.269 OA
BRANCH  26  29
ATOM     29  C   UNL A   1      35.975  30.201  28.504  1.00  0.00     0.039 A 
ATOM     30  C   UNL A   1      36.876  30.182  27.437  1.00  0.00     0.014 A 
ATOM     31  C   UNL A   1      36.337  29.653  29.733  1.00  0.00     0.014 A 
ATOM     32  C   UNL A   1      38.178  29.714  27.643  1.00  0.00     0.010 A 
ATOM     33  C   UNL A   1      37.661  29.315  29.970  1.00  0.00     0.010 A 
ATOM     34  C   UNL A   1      38.598  29.335  28.928  1.00  0.00    -0.014 A 
BRANCH  34  35
ATOM     35  C   UNL A   1      40.002  28.949  29.227  1.00  0.00     0.031 A 
ATOM     36  C   UNL A   1      40.948  29.968  29.810  1.00  0.00     0.074 A 
ATOM     37  C   UNL A   1      40.458  27.732  28.868  1.00  0.00     0.049 A 
ATOM     38  N   UNL A   1      42.242  29.894  29.976  1.00  0.00    -0.248 NA
ATOM     39  C   UNL A   1      40.365  31.261  30.210  1.00  0.00     0.031 C 
ATOM     40  C   UNL A   1      39.663  26.674  28.237  1.00  0.00     0.029 A 
ATOM     41  N   UNL A   1      41.713  27.184  28.966  1.00  0.00    -0.354 N 
ATOM     42  C   UNL A   1      42.632  31.141  30.452  1.00  0.00     0.074 A 
ATOM     43  C   UNL A   1      41.446  31.968  30.494  1.00  0.00     0.031 C 
ATOM     44  C   UNL A   1      40.441  25.599  28.033  1.00  0.00     0.029 A 
ATOM     45  C   UNL A   1      41.799  25.904  28.471  1.00  0.00     0.049 A 
ATOM     46  H   UNL A   1      42.480  27.663  29.354  1.00  0.00     0.167 HD
ATOM     47  C   UNL A   1      43.859  31.555  30.847  1.00  0.00     0.031 A 
ATOM     48  C   UNL A   1      42.853  25.072  28.370  1.00  0.00     0.031 A 
ATOM     49  C   UNL A   1      45.024  30.714  30.851  1.00  0.00     0.049 A 
ATOM     50  C   UNL A   1      44.197  25.532  28.860  1.00  0.00     0.074 A 
ATOM     51  C   UNL A   1      46.299  31.011  31.297  1.00  0.00     0.029 A 
ATOM     52  N   UNL A   1      45.050  29.403  30.401  1.00  0.00    -0.354 N 
ATOM     53  N   UNL A   1      44.535  26.699  29.356  1.00  0.00    -0.248 NA
ATOM     54  C   UNL A   1      45.299  24.563  28.788  1.00  0.00     0.031 C 
ATOM     55  C   UNL A   1      47.106  29.887  31.088  1.00  0.00     0.029 A 
ATOM     56  C   UNL A   1      46.321  28.878  30.553  1.00  0.00     0.049 A 
ATOM     57  H   UNL A   1      44.280  28.918  30.028  1.00  0.00     0.167 HD
ATOM     58  C   UNL A   1      45.883  26.597  29.676  1.00  0.00     0.074 A 
ATOM     59  C   UNL A   1      46.295  25.252  29.330  1.00  0.00     0.031 C 
ATOM     60  C   UNL A   1      46.707  27.532  30.209  1.00  0.00     0.031 A 
BRANCH  47  61
ATOM     61  C   UNL A   1      43.988  32.980  31.318  1.00  0.00    -0.014 A 
ATOM     62  C   UNL A   1      43.894  34.054  30.413  1.00  0.00     0.010 A 
ATOM     63  C   UNL A   1      44.206  33.252  32.681  1.00  0.00     0.010 A 
ATOM     64  C   UNL A   1      44.078  35.367  30.851  1.00  0.00     0.020 A 
ATOM     65  C   UNL A   1      44.358  34.568  33.128  1.00  0.00     0.020 A 
ATOM     66  C   UNL A   1      44.318  35.615  32.205  1.00  0.00     0.054 A 
BRANCH  66  67
ATOM     67  S   UNL A   1      44.555  37.330  32.746  1.00  0.00     0.124 S 
ATOM     68  O   UNL A   1      45.463  37.163  33.878  1.00  0.00    -0.237 OA
ATOM     69  O   UNL A   1      45.136  37.963  31.564  1.00  0.00    -0.237 OA
ATOM     70  O   UNL A   1      43.207  37.775  33.088  1.00  0.00    -0.744 OA
ENDBRANCH  66  67
ENDBRANCH  47  61
BRANCH  48  71
ATOM     71  C   UNL A   1      42.668  23.708  27.803  1.00  0.00    -0.014 A 
ATOM     72  C   UNL A   1      42.336  22.631  28.644  1.00  0.00     0.010 A 
ATOM     73  C   UNL A   1      42.790  23.484  26.420  1.00  0.00     0.010 A 
ATOM     74  C   UNL A   1      42.143  21.352  28.113  1.00  0.00     0.020 A 
ATOM     75  C   UNL A   1      42.573  22.212  25.883  1.00  0.00     0.020 A 
ATOM     76  C   UNL A   1      42.260  21.150  26.735  1.00  0.00     0.054 A 
BRANCH  76  77
ATOM     77  S   UNL A   1      41.942  19.496  26.062  1.00  0.00     0.124 S 
ATOM     78  O   UNL A   1      42.304  18.637  27.183  1.00  0.00    -0.237 OA
ATOM     79  O   UNL A   1      40.517  19.554  25.741  1.00  0.00    -0.237 OA
ATOM     80  O   UNL A   1      42.829  19.425  24.902  1.00  0.00    -0.744 OA
ENDBRANCH  76  77
ENDBRANCH  48  71
BRANCH  60  81
ATOM     81  C   UNL A   1      48.128  27.128  30.485  1.00  0.00    -0.014 A 
ATOM     82  C   UNL A   1      49.146  27.375  29.548  1.00  0.00     0.010 A 
ATOM     83  C   UNL A   1      48.457  26.561  31.729  1.00  0.00     0.010 A 
ATOM     84  C   UNL A   1      50.470  27.043  29.845  1.00  0.00     0.020 A 
ATOM     85  C   UNL A   1      49.783  26.249  32.038  1.00  0.00     0.020 A 
ATOM     86  C   UNL A   1      50.780  26.483  31.089  1.00  0.00     0.054 A 
BRANCH  86  87
ATOM     87  S   UNL A   1      52.514  26.117  31.476  1.00  0.00     0.124 S 
ATOM     88  O   UNL A   1      53.125  26.106  30.150  1.00  0.00    -0.237 OA
ATOM     89  O   UNL A   1      52.895  27.238  32.334  1.00  0.00    -0.237 OA
ATOM     90  O   UNL A   1      52.453  24.821  32.147  1.00  0.00    -0.744 OA
ENDBRANCH  86  87
ENDBRANCH  60  81
ENDBRANCH  34  35
ENDBRANCH  26  29
ENDBRANCH  24  25
ENDBRANCH  23  24
ENDBRANCH   1  23
TORSDOF 19
ENDMDL
