MODEL 1
REMARK VINA RESULT:      -9.5      0.000      0.000
REMARK SMILES CCCCCN(C)S(=O)(=O)c1cc(Cl)cc(C(=O)NCCCNC(=O)c2ccc(-c3c4nc(c(-c5ccc(S(=O)(=O)[O-])cc5)c5ccc([nH]5)c(-c5ccc(S(=O)(=O)[O-])cc5)c5nc(c(-c6ccc(S(=O)(=O)[O-])cc6)c6ccc3[nH]6)C=C5)C=C4)cc2)c1F
REMARK SMILES IDX 17 1 18 2 19 3 16 5 11 6 12 7 86 8 13 9 87 10 14 11 15 12
REMARK SMILES IDX 8 13 9 14 10 15 6 16 7 17 5 18 4 19 3 20 2 21 1 22 20 23
REMARK SMILES IDX 21 24 22 25 23 26 24 27 25 29 26 30 27 31 85 32 28 33 84 34
REMARK SMILES IDX 29 35 30 36 31 37 78 38 32 39 83 40 77 41 79 42 33 43 82 44
REMARK SMILES IDX 76 45 75 46 34 48 64 49 45 50 63 51 46 52 49 53 62 54 80 55
REMARK SMILES IDX 47 56 48 57 61 59 81 60 50 61 35 62 36 63 44 64 37 65 43 66
REMARK SMILES IDX 38 67 39 68 40 69 41 70 42 71 65 72 66 73 74 74 67 75 73 76
REMARK SMILES IDX 68 77 69 78 70 79 71 80 72 81 51 82 52 83 60 84 53 85 59 86
REMARK SMILES IDX 54 87 55 88 56 89 57 90 58 91
REMARK H PARENT 19 4 23 28 79 47 49 58
REMARK Flexibility Score: inf
ROOT
ATOM      1  C   UNL A   1      33.377  22.244  24.134  1.00  0.00     0.254 C 
ATOM      2  O   UNL A   1      32.553  21.366  24.400  1.00  0.00    -0.269 OA
ATOM      3  N   UNL A   1      34.696  21.882  24.170  1.00  0.00    -0.352 N 
ATOM      4  H   UNL A   1      34.834  20.946  24.442  1.00  0.00     0.163 HD
ENDROOT
BRANCH   1   5
ATOM      5  C   UNL A   1      32.857  23.582  23.747  1.00  0.00     0.078 A 
ATOM      6  C   UNL A   1      31.709  25.683  24.089  1.00  0.00     0.120 A 
ATOM      7  C   UNL A   1      31.841  26.008  22.735  1.00  0.00     0.045 A 
ATOM      8  C   UNL A   1      32.196  24.477  24.589  1.00  0.00     0.156 A 
ATOM      9  C   UNL A   1      32.481  25.115  21.887  1.00  0.00     0.043 A 
ATOM     10  F   UNL A   1      31.981  24.175  25.870  1.00  0.00    -0.205 F 
ATOM     11  Cl  UNL A   1      32.662  25.501  20.222  1.00  0.00    -0.084 Cl
ATOM     12  C   UNL A   1      32.989  23.916  22.384  1.00  0.00     0.037 A 
BRANCH   6  13
ATOM     13  S   UNL A   1      31.005  26.905  25.151  1.00  0.00     0.245 S 
ATOM     14  O   UNL A   1      29.792  26.341  25.698  1.00  0.00    -0.207 OA
ATOM     15  O   UNL A   1      30.959  28.104  24.339  1.00  0.00    -0.207 OA
BRANCH  13  16
ATOM     16  N   UNL A   1      32.077  27.143  26.460  1.00  0.00    -0.201 NA
ATOM     17  C   UNL A   1      31.468  27.839  27.626  1.00  0.00     0.124 C 
BRANCH  16  18
ATOM     18  C   UNL A   1      33.378  27.795  26.090  1.00  0.00     0.102 C 
BRANCH  18  19
ATOM     19  C   UNL A   1      33.976  28.593  27.254  1.00  0.00     0.017 C 
BRANCH  19  20
ATOM     20  C   UNL A   1      35.249  29.397  26.966  1.00  0.00     0.001 C 
BRANCH  20  21
ATOM     21  C   UNL A   1      35.486  30.631  27.842  1.00  0.00    -0.003 C 
ATOM     22  C   UNL A   1      34.321  31.606  27.859  1.00  0.00     0.004 C 
ENDBRANCH  20  21
ENDBRANCH  19  20
ENDBRANCH  18  19
ENDBRANCH  16  18
ENDBRANCH  13  16
ENDBRANCH   6  13
ENDBRANCH   1   5
BRANCH   3  23
ATOM     23  C   UNL A   1      35.934  22.590  23.891  1.00  0.00     0.118 C 
BRANCH  23  24
ATOM     24  C   UNL A   1      36.099  23.809  24.801  1.00  0.00     0.042 C 
BRANCH  24  25
ATOM     25  C   UNL A   1      36.648  23.485  26.189  1.00  0.00     0.118 C 
BRANCH  25  26
ATOM     26  N   UNL A   1      37.687  22.470  26.149  1.00  0.00    -0.352 N 
ATOM     27  C   UNL A   1      39.045  22.604  26.306  1.00  0.00     0.251 C 
ATOM     28  H   UNL A   1      37.371  21.552  25.987  1.00  0.00     0.163 HD
ATOM     29  O   UNL A   1      39.774  21.648  26.050  1.00  0.00    -0.269 OA
BRANCH  27  30
ATOM     30  C   UNL A   1      39.642  23.884  26.757  1.00  0.00     0.039 A 
ATOM     31  C   UNL A   1      39.843  24.082  28.128  1.00  0.00     0.014 A 
ATOM     32  C   UNL A   1      39.950  24.910  25.858  1.00  0.00     0.014 A 
ATOM     33  C   UNL A   1      40.394  25.282  28.591  1.00  0.00     0.010 A 
ATOM     34  C   UNL A   1      40.541  26.089  26.317  1.00  0.00     0.010 A 
ATOM     35  C   UNL A   1      40.764  26.288  27.687  1.00  0.00    -0.014 A 
BRANCH  35  36
ATOM     36  C   UNL A   1      41.378  27.557  28.159  1.00  0.00     0.031 A 
ATOM     37  C   UNL A   1      42.873  27.727  28.151  1.00  0.00     0.074 A 
ATOM     38  C   UNL A   1      40.596  28.539  28.646  1.00  0.00     0.049 A 
ATOM     39  N   UNL A   1      43.591  28.726  28.597  1.00  0.00    -0.248 NA
ATOM     40  C   UNL A   1      43.662  26.624  27.582  1.00  0.00     0.031 C 
ATOM     41  C   UNL A   1      39.135  28.496  28.734  1.00  0.00     0.029 A 
ATOM     42  N   UNL A   1      40.926  29.765  29.170  1.00  0.00    -0.354 N 
ATOM     43  C   UNL A   1      44.916  28.364  28.386  1.00  0.00     0.074 A 
ATOM     44  C   UNL A   1      44.902  27.044  27.790  1.00  0.00     0.031 C 
ATOM     45  C   UNL A   1      38.694  29.648  29.267  1.00  0.00     0.029 A 
ATOM     46  C   UNL A   1      39.839  30.496  29.586  1.00  0.00     0.049 A 
ATOM     47  H   UNL A   1      41.853  30.089  29.241  1.00  0.00     0.167 HD
ATOM     48  C   UNL A   1      46.042  29.066  28.657  1.00  0.00     0.031 A 
ATOM     49  C   UNL A   1      39.769  31.710  30.165  1.00  0.00     0.031 A 
ATOM     50  C   UNL A   1      46.065  30.385  29.231  1.00  0.00     0.049 A 
ATOM     51  C   UNL A   1      41.029  32.478  30.440  1.00  0.00     0.074 A 
ATOM     52  C   UNL A   1      47.159  31.187  29.505  1.00  0.00     0.029 A 
ATOM     53  N   UNL A   1      44.941  31.098  29.613  1.00  0.00    -0.354 N 
ATOM     54  N   UNL A   1      42.271  32.126  30.210  1.00  0.00    -0.248 NA
ATOM     55  C   UNL A   1      40.877  33.808  31.047  1.00  0.00     0.031 C 
ATOM     56  C   UNL A   1      46.697  32.380  30.075  1.00  0.00     0.029 A 
ATOM     57  C   UNL A   1      45.314  32.328  30.128  1.00  0.00     0.049 A 
ATOM     58  H   UNL A   1      44.013  30.778  29.532  1.00  0.00     0.167 HD
ATOM     59  C   UNL A   1      43.049  33.198  30.633  1.00  0.00     0.074 A 
ATOM     60  C   UNL A   1      42.139  34.213  31.123  1.00  0.00     0.031 C 
ATOM     61  C   UNL A   1      44.398  33.327  30.615  1.00  0.00     0.031 A 
BRANCH  48  62
ATOM     62  C   UNL A   1      47.353  28.403  28.341  1.00  0.00    -0.014 A 
ATOM     63  C   UNL A   1      47.896  28.459  27.046  1.00  0.00     0.010 A 
ATOM     64  C   UNL A   1      48.055  27.724  29.353  1.00  0.00     0.010 A 
ATOM     65  C   UNL A   1      49.099  27.809  26.756  1.00  0.00     0.020 A 
ATOM     66  C   UNL A   1      49.268  27.088  29.071  1.00  0.00     0.020 A 
ATOM     67  C   UNL A   1      49.770  27.117  27.768  1.00  0.00     0.054 A 
BRANCH  67  68
ATOM     68  S   UNL A   1      51.329  26.276  27.375  1.00  0.00     0.124 S 
ATOM     69  O   UNL A   1      51.809  27.055  26.236  1.00  0.00    -0.237 OA
ATOM     70  O   UNL A   1      52.101  26.425  28.606  1.00  0.00    -0.237 OA
ATOM     71  O   UNL A   1      50.913  24.910  27.068  1.00  0.00    -0.744 OA
ENDBRANCH  67  68
ENDBRANCH  48  62
BRANCH  49  72
ATOM     72  C   UNL A   1      38.442  32.278  30.516  1.00  0.00    -0.014 A 
ATOM     73  C   UNL A   1      37.864  32.003  31.767  1.00  0.00     0.010 A 
ATOM     74  C   UNL A   1      37.771  33.122  29.616  1.00  0.00     0.010 A 
ATOM     75  C   UNL A   1      36.632  32.565  32.113  1.00  0.00     0.020 A 
ATOM     76  C   UNL A   1      36.547  33.698  29.965  1.00  0.00     0.020 A 
ATOM     77  C   UNL A   1      35.982  33.411  31.210  1.00  0.00     0.054 A 
BRANCH  77  78
ATOM     78  S   UNL A   1      34.426  34.204  31.702  1.00  0.00     0.124 S 
ATOM     79  O   UNL A   1      34.896  35.438  32.321  1.00  0.00    -0.237 OA
ATOM     80  O   UNL A   1      33.725  34.358  30.430  1.00  0.00    -0.237 OA
ATOM     81  O   UNL A   1      33.829  33.230  32.615  1.00  0.00    -0.744 OA
ENDBRANCH  77  78
ENDBRANCH  49  72
BRANCH  61  82
ATOM     82  C   UNL A   1      44.971  34.620  31.121  1.00  0.00    -0.014 A 
ATOM     83  C   UNL A   1      45.153  35.714  30.257  1.00  0.00     0.010 A 
ATOM     84  C   UNL A   1      45.286  34.757  32.484  1.00  0.00     0.010 A 
ATOM     85  C   UNL A   1      45.662  36.919  30.746  1.00  0.00     0.020 A 
ATOM     86  C   UNL A   1      45.783  35.966  32.979  1.00  0.00     0.020 A 
ATOM     87  C   UNL A   1      45.980  37.036  32.102  1.00  0.00     0.054 A 
BRANCH  87  88
ATOM     88  S   UNL A   1      46.599  38.622  32.731  1.00  0.00     0.124 S 
ATOM     89  O   UNL A   1      47.563  38.193  33.740  1.00  0.00    -0.237 OA
ATOM     90  O   UNL A   1      47.171  39.245  31.541  1.00  0.00    -0.237 OA
ATOM     91  O   UNL A   1      45.399  39.275  33.251  1.00  0.00    -0.744 OA
ENDBRANCH  87  88
ENDBRANCH  61  82
ENDBRANCH  35  36
ENDBRANCH  27  30
ENDBRANCH  25  26
ENDBRANCH  24  25
ENDBRANCH  23  24
ENDBRANCH   3  23
TORSDOF 19
ENDMDL
MODEL 2
REMARK VINA RESULT:      -9.5      3.006      9.075
REMARK SMILES CCCCCN(C)S(=O)(=O)c1cc(Cl)cc(C(=O)NCCCNC(=O)c2ccc(-c3c4nc(c(-c5ccc(S(=O)(=O)[O-])cc5)c5ccc([nH]5)c(-c5ccc(S(=O)(=O)[O-])cc5)c5nc(c(-c6ccc(S(=O)(=O)[O-])cc6)c6ccc3[nH]6)C=C5)C=C4)cc2)c1F
REMARK SMILES IDX 17 1 18 2 19 3 16 5 11 6 12 7 86 8 13 9 87 10 14 11 15 12
REMARK SMILES IDX 8 13 9 14 10 15 6 16 7 17 5 18 4 19 3 20 2 21 1 22 20 23
REMARK SMILES IDX 21 24 22 25 23 26 24 27 25 29 26 30 27 31 85 32 28 33 84 34
REMARK SMILES IDX 29 35 30 36 31 37 78 38 32 39 83 40 77 41 79 42 33 43 82 44
REMARK SMILES IDX 76 45 75 46 34 48 64 49 45 50 63 51 46 52 49 53 62 54 80 55
REMARK SMILES IDX 47 56 48 57 61 59 81 60 50 61 35 62 36 63 44 64 37 65 43 66
REMARK SMILES IDX 38 67 39 68 40 69 41 70 42 71 65 72 66 73 74 74 67 75 73 76
REMARK SMILES IDX 68 77 69 78 70 79 71 80 72 81 51 82 52 83 60 84 53 85 59 86
REMARK SMILES IDX 54 87 55 88 56 89 57 90 58 91
REMARK H PARENT 19 4 23 28 79 47 49 58
REMARK Flexibility Score: inf
ROOT
ATOM      1  C   UNL A   1      36.379  22.626  25.568  1.00  0.00     0.254 C 
ATOM      2  O   UNL A   1      36.589  23.495  26.418  1.00  0.00    -0.269 OA
ATOM      3  N   UNL A   1      37.309  21.628  25.466  1.00  0.00    -0.352 N 
ATOM      4  H   UNL A   1      38.072  21.744  26.078  1.00  0.00     0.163 HD
ENDROOT
BRANCH   1   5
ATOM      5  C   UNL A   1      35.117  22.717  24.787  1.00  0.00     0.078 A 
ATOM      6  C   UNL A   1      33.347  23.842  23.583  1.00  0.00     0.120 A 
ATOM      7  C   UNL A   1      32.632  22.646  23.460  1.00  0.00     0.045 A 
ATOM      8  C   UNL A   1      34.568  23.883  24.253  1.00  0.00     0.156 A 
ATOM      9  C   UNL A   1      33.162  21.485  24.004  1.00  0.00     0.043 A 
ATOM     10  F   UNL A   1      35.178  25.058  24.413  1.00  0.00    -0.205 F 
ATOM     11  Cl  UNL A   1      32.303  20.004  23.855  1.00  0.00    -0.084 Cl
ATOM     12  C   UNL A   1      34.393  21.515  24.658  1.00  0.00     0.037 A 
BRANCH   6  13
ATOM     13  S   UNL A   1      32.697  25.264  22.763  1.00  0.00     0.245 S 
ATOM     14  O   UNL A   1      31.356  24.929  22.340  1.00  0.00    -0.207 OA
ATOM     15  O   UNL A   1      33.711  25.614  21.789  1.00  0.00    -0.207 OA
BRANCH  13  16
ATOM     16  N   UNL A   1      32.556  26.516  23.917  1.00  0.00    -0.201 NA
ATOM     17  C   UNL A   1      31.760  26.147  25.120  1.00  0.00     0.124 C 
BRANCH  16  18
ATOM     18  C   UNL A   1      32.076  27.826  23.361  1.00  0.00     0.102 C 
BRANCH  18  19
ATOM     19  C   UNL A   1      30.658  28.167  23.829  1.00  0.00     0.017 C 
BRANCH  19  20
ATOM     20  C   UNL A   1      30.186  29.611  23.624  1.00  0.00     0.001 C 
BRANCH  20  21
ATOM     21  C   UNL A   1      29.144  29.836  22.523  1.00  0.00    -0.003 C 
ATOM     22  C   UNL A   1      27.714  29.898  23.032  1.00  0.00     0.004 C 
ENDBRANCH  20  21
ENDBRANCH  19  20
ENDBRANCH  18  19
ENDBRANCH  16  18
ENDBRANCH  13  16
ENDBRANCH   6  13
ENDBRANCH   1   5
BRANCH   3  23
ATOM     23  C   UNL A   1      37.406  20.434  24.643  1.00  0.00     0.118 C 
BRANCH  23  24
ATOM     24  C   UNL A   1      38.404  19.431  25.227  1.00  0.00     0.042 C 
BRANCH  24  25
ATOM     25  C   UNL A   1      39.613  20.073  25.905  1.00  0.00     0.118 C 
BRANCH  25  26
ATOM     26  N   UNL A   1      40.697  19.128  26.112  1.00  0.00    -0.352 N 
ATOM     27  C   UNL A   1      42.037  19.363  26.297  1.00  0.00     0.251 C 
ATOM     28  H   UNL A   1      40.432  18.180  26.119  1.00  0.00     0.163 HD
ATOM     29  O   UNL A   1      42.821  18.417  26.267  1.00  0.00    -0.269 OA
BRANCH  27  30
ATOM     30  C   UNL A   1      42.552  20.737  26.513  1.00  0.00     0.039 A 
ATOM     31  C   UNL A   1      42.631  21.224  27.823  1.00  0.00     0.014 A 
ATOM     32  C   UNL A   1      42.899  21.569  25.444  1.00  0.00     0.014 A 
ATOM     33  C   UNL A   1      43.100  22.520  28.064  1.00  0.00     0.010 A 
ATOM     34  C   UNL A   1      43.409  22.846  25.688  1.00  0.00     0.010 A 
ATOM     35  C   UNL A   1      43.511  23.335  26.999  1.00  0.00    -0.014 A 
BRANCH  35  36
ATOM     36  C   UNL A   1      44.040  24.703  27.239  1.00  0.00     0.031 A 
ATOM     37  C   UNL A   1      43.118  25.808  27.677  1.00  0.00     0.074 A 
ATOM     38  C   UNL A   1      45.340  24.968  27.012  1.00  0.00     0.049 A 
ATOM     39  N   UNL A   1      43.379  27.077  27.857  1.00  0.00    -0.248 NA
ATOM     40  C   UNL A   1      41.715  25.440  27.930  1.00  0.00     0.031 C 
ATOM     41  C   UNL A   1      46.339  23.996  26.563  1.00  0.00     0.029 A 
ATOM     42  N   UNL A   1      46.043  26.143  27.119  1.00  0.00    -0.354 N 
ATOM     43  C   UNL A   1      42.174  27.665  28.219  1.00  0.00     0.074 A 
ATOM     44  C   UNL A   1      41.175  26.616  28.214  1.00  0.00     0.031 C 
ATOM     45  C   UNL A   1      47.527  24.612  26.446  1.00  0.00     0.029 A 
ATOM     46  C   UNL A   1      47.369  26.024  26.781  1.00  0.00     0.049 A 
ATOM     47  H   UNL A   1      45.635  26.991  27.412  1.00  0.00     0.167 HD
ATOM     48  C   UNL A   1      41.919  28.958  28.535  1.00  0.00     0.031 A 
ATOM     49  C   UNL A   1      48.349  26.948  26.738  1.00  0.00     0.031 A 
ATOM     50  C   UNL A   1      42.907  30.003  28.561  1.00  0.00     0.049 A 
ATOM     51  C   UNL A   1      48.048  28.371  27.108  1.00  0.00     0.074 A 
ATOM     52  C   UNL A   1      42.747  31.334  28.905  1.00  0.00     0.029 A 
ATOM     53  N   UNL A   1      44.243  29.833  28.236  1.00  0.00    -0.354 N 
ATOM     54  N   UNL A   1      46.906  28.900  27.472  1.00  0.00    -0.248 NA
ATOM     55  C   UNL A   1      49.171  29.319  27.068  1.00  0.00     0.031 C 
ATOM     56  C   UNL A   1      43.984  31.975  28.767  1.00  0.00     0.029 A 
ATOM     57  C   UNL A   1      44.918  31.035  28.364  1.00  0.00     0.049 A 
ATOM     58  H   UNL A   1      44.653  28.982  27.955  1.00  0.00     0.167 HD
ATOM     59  C   UNL A   1      47.175  30.242  27.717  1.00  0.00     0.074 A 
ATOM     60  C   UNL A   1      48.588  30.441  27.469  1.00  0.00     0.031 C 
ATOM     61  C   UNL A   1      46.324  31.220  28.112  1.00  0.00     0.031 A 
BRANCH  48  62
ATOM     62  C   UNL A   1      40.497  29.313  28.866  1.00  0.00    -0.014 A 
ATOM     63  C   UNL A   1      39.526  29.420  27.855  1.00  0.00     0.010 A 
ATOM     64  C   UNL A   1      40.125  29.532  30.205  1.00  0.00     0.010 A 
ATOM     65  C   UNL A   1      38.215  29.784  28.172  1.00  0.00     0.020 A 
ATOM     66  C   UNL A   1      38.809  29.878  30.527  1.00  0.00     0.020 A 
ATOM     67  C   UNL A   1      37.868  30.023  29.505  1.00  0.00     0.054 A 
BRANCH  67  68
ATOM     68  S   UNL A   1      36.162  30.498  29.900  1.00  0.00     0.124 S 
ATOM     69  O   UNL A   1      35.971  29.864  31.203  1.00  0.00    -0.237 OA
ATOM     70  O   UNL A   1      36.223  31.957  29.915  1.00  0.00    -0.237 OA
ATOM     71  O   UNL A   1      35.384  29.922  28.806  1.00  0.00    -0.744 OA
ENDBRANCH  67  68
ENDBRANCH  48  62
BRANCH  49  72
ATOM     72  C   UNL A   1      49.719  26.541  26.334  1.00  0.00    -0.014 A 
ATOM     73  C   UNL A   1      50.567  25.899  27.252  1.00  0.00     0.010 A 
ATOM     74  C   UNL A   1      50.167  26.764  25.020  1.00  0.00     0.010 A 
ATOM     75  C   UNL A   1      51.843  25.484  26.864  1.00  0.00     0.020 A 
ATOM     76  C   UNL A   1      51.436  26.336  24.624  1.00  0.00     0.020 A 
ATOM     77  C   UNL A   1      52.269  25.704  25.550  1.00  0.00     0.054 A 
BRANCH  77  78
ATOM     78  S   UNL A   1      53.895  25.085  25.032  1.00  0.00     0.124 S 
ATOM     79  O   UNL A   1      53.645  23.654  24.896  1.00  0.00    -0.237 OA
ATOM     80  O   UNL A   1      54.134  25.809  23.785  1.00  0.00    -0.237 OA
ATOM     81  O   UNL A   1      54.768  25.470  26.139  1.00  0.00    -0.744 OA
ENDBRANCH  77  78
ENDBRANCH  49  72
BRANCH  61  82
ATOM     82  C   UNL A   1      46.902  32.590  28.320  1.00  0.00    -0.014 A 
ATOM     83  C   UNL A   1      46.915  33.532  27.276  1.00  0.00     0.010 A 
ATOM     84  C   UNL A   1      47.393  32.955  29.585  1.00  0.00     0.010 A 
ATOM     85  C   UNL A   1      47.432  34.812  27.490  1.00  0.00     0.020 A 
ATOM     86  C   UNL A   1      47.898  34.239  29.806  1.00  0.00     0.020 A 
ATOM     87  C   UNL A   1      47.926  35.156  28.752  1.00  0.00     0.054 A 
BRANCH  87  88
ATOM     88  S   UNL A   1      48.553  36.837  29.027  1.00  0.00     0.124 S 
ATOM     89  O   UNL A   1      47.522  37.653  28.392  1.00  0.00    -0.237 OA
ATOM     90  O   UNL A   1      48.618  36.928  30.483  1.00  0.00    -0.237 OA
ATOM     91  O   UNL A   1      49.850  36.832  28.352  1.00  0.00    -0.744 OA
ENDBRANCH  87  88
ENDBRANCH  61  82
ENDBRANCH  35  36
ENDBRANCH  27  30
ENDBRANCH  25  26
ENDBRANCH  24  25
ENDBRANCH  23  24
ENDBRANCH   3  23
TORSDOF 19
ENDMDL
MODEL 3
REMARK VINA RESULT:      -9.0      2.928      4.203
REMARK SMILES CCCCCN(C)S(=O)(=O)c1cc(Cl)cc(C(=O)NCCCNC(=O)c2ccc(-c3c4nc(c(-c5ccc(S(=O)(=O)[O-])cc5)c5ccc([nH]5)c(-c5ccc(S(=O)(=O)[O-])cc5)c5nc(c(-c6ccc(S(=O)(=O)[O-])cc6)c6ccc3[nH]6)C=C5)C=C4)cc2)c1F
REMARK SMILES IDX 17 1 18 2 19 3 16 5 11 6 12 7 86 8 13 9 87 10 14 11 15 12
REMARK SMILES IDX 8 13 9 14 10 15 6 16 7 17 5 18 4 19 3 20 2 21 1 22 20 23
REMARK SMILES IDX 21 24 22 25 23 26 24 27 25 29 26 30 27 31 85 32 28 33 84 34
REMARK SMILES IDX 29 35 30 36 31 37 78 38 32 39 83 40 77 41 79 42 33 43 82 44
REMARK SMILES IDX 76 45 75 46 34 48 64 49 45 50 63 51 46 52 49 53 62 54 80 55
REMARK SMILES IDX 47 56 48 57 61 59 81 60 50 61 35 62 36 63 44 64 37 65 43 66
REMARK SMILES IDX 38 67 39 68 40 69 41 70 42 71 65 72 66 73 74 74 67 75 73 76
REMARK SMILES IDX 68 77 69 78 70 79 71 80 72 81 51 82 52 83 60 84 53 85 59 86
REMARK SMILES IDX 54 87 55 88 56 89 57 90 58 91
REMARK H PARENT 19 4 23 28 79 47 49 58
REMARK Flexibility Score: inf
ROOT
ATOM      1  C   UNL A   1      36.626  22.532  25.473  1.00  0.00     0.254 C 
ATOM      2  O   UNL A   1      36.859  23.539  26.147  1.00  0.00    -0.269 OA
ATOM      3  N   UNL A   1      37.679  21.690  25.241  1.00  0.00    -0.352 N 
ATOM      4  H   UNL A   1      38.527  22.013  25.624  1.00  0.00     0.163 HD
ENDROOT
BRANCH   1   5
ATOM      5  C   UNL A   1      35.224  22.308  25.033  1.00  0.00     0.078 A 
ATOM      6  C   UNL A   1      33.097  22.917  24.058  1.00  0.00     0.120 A 
ATOM      7  C   UNL A   1      32.543  21.686  24.429  1.00  0.00     0.045 A 
ATOM      8  C   UNL A   1      34.417  23.233  24.370  1.00  0.00     0.156 A 
ATOM      9  C   UNL A   1      33.333  20.768  25.105  1.00  0.00     0.043 A 
ATOM     10  F   UNL A   1      34.880  24.445  24.065  1.00  0.00    -0.205 F 
ATOM     11  Cl  UNL A   1      32.673  19.248  25.561  1.00  0.00    -0.084 Cl
ATOM     12  C   UNL A   1      34.661  21.070  25.403  1.00  0.00     0.037 A 
BRANCH   6  13
ATOM     13  S   UNL A   1      32.094  23.997  23.087  1.00  0.00     0.245 S 
ATOM     14  O   UNL A   1      30.764  23.430  23.063  1.00  0.00    -0.207 OA
ATOM     15  O   UNL A   1      32.841  24.175  21.858  1.00  0.00    -0.207 OA
BRANCH  13  16
ATOM     16  N   UNL A   1      31.983  25.490  23.910  1.00  0.00    -0.201 NA
ATOM     17  C   UNL A   1      31.328  25.401  25.244  1.00  0.00     0.124 C 
BRANCH  16  18
ATOM     18  C   UNL A   1      31.371  26.602  23.107  1.00  0.00     0.102 C 
BRANCH  18  19
ATOM     19  C   UNL A   1      30.494  27.519  23.964  1.00  0.00     0.017 C 
BRANCH  19  20
ATOM     20  C   UNL A   1      29.418  28.334  23.236  1.00  0.00     0.001 C 
BRANCH  20  21
ATOM     21  C   UNL A   1      29.578  29.858  23.275  1.00  0.00    -0.003 C 
ATOM     22  C   UNL A   1      28.973  30.570  22.077  1.00  0.00     0.004 C 
ENDBRANCH  20  21
ENDBRANCH  19  20
ENDBRANCH  18  19
ENDBRANCH  16  18
ENDBRANCH  13  16
ENDBRANCH   6  13
ENDBRANCH   1   5
BRANCH   3  23
ATOM     23  C   UNL A   1      37.806  20.419  24.548  1.00  0.00     0.118 C 
BRANCH  23  24
ATOM     24  C   UNL A   1      38.644  19.423  25.354  1.00  0.00     0.042 C 
BRANCH  24  25
ATOM     25  C   UNL A   1      39.802  20.056  26.123  1.00  0.00     0.118 C 
BRANCH  25  26
ATOM     26  N   UNL A   1      40.956  19.178  26.206  1.00  0.00    -0.352 N 
ATOM     27  C   UNL A   1      42.291  19.494  26.280  1.00  0.00     0.251 C 
ATOM     28  H   UNL A   1      40.752  18.215  26.210  1.00  0.00     0.163 HD
ATOM     29  O   UNL A   1      43.125  18.600  26.154  1.00  0.00    -0.269 OA
BRANCH  27  30
ATOM     30  C   UNL A   1      42.737  20.893  26.489  1.00  0.00     0.039 A 
ATOM     31  C   UNL A   1      42.829  21.377  27.799  1.00  0.00     0.014 A 
ATOM     32  C   UNL A   1      43.007  21.747  25.416  1.00  0.00     0.014 A 
ATOM     33  C   UNL A   1      43.235  22.695  28.034  1.00  0.00     0.010 A 
ATOM     34  C   UNL A   1      43.455  23.049  25.652  1.00  0.00     0.010 A 
ATOM     35  C   UNL A   1      43.569  23.536  26.963  1.00  0.00    -0.014 A 
BRANCH  35  36
ATOM     36  C   UNL A   1      44.031  24.929  27.195  1.00  0.00     0.031 A 
ATOM     37  C   UNL A   1      45.470  25.302  26.961  1.00  0.00     0.074 A 
ATOM     38  C   UNL A   1      43.171  25.850  27.668  1.00  0.00     0.049 A 
ATOM     39  N   UNL A   1      46.073  26.442  27.185  1.00  0.00    -0.248 NA
ATOM     40  C   UNL A   1      46.347  24.252  26.420  1.00  0.00     0.031 C 
ATOM     41  C   UNL A   1      41.755  25.618  27.961  1.00  0.00     0.029 A 
ATOM     42  N   UNL A   1      43.367  27.170  27.996  1.00  0.00    -0.354 N 
ATOM     43  C   UNL A   1      47.403  26.241  26.837  1.00  0.00     0.074 A 
ATOM     44  C   UNL A   1      47.523  24.864  26.406  1.00  0.00     0.031 C 
ATOM     45  C   UNL A   1      41.208  26.760  28.413  1.00  0.00     0.029 A 
ATOM     46  C   UNL A   1      42.238  27.793  28.469  1.00  0.00     0.049 A 
ATOM     47  H   UNL A   1      44.234  27.626  27.900  1.00  0.00     0.167 HD
ATOM     48  C   UNL A   1      48.432  27.122  26.867  1.00  0.00     0.031 A 
ATOM     49  C   UNL A   1      42.051  29.053  28.908  1.00  0.00     0.031 A 
ATOM     50  C   UNL A   1      48.319  28.496  27.274  1.00  0.00     0.049 A 
ATOM     51  C   UNL A   1      43.201  30.017  28.916  1.00  0.00     0.074 A 
ATOM     52  C   UNL A   1      49.301  29.472  27.301  1.00  0.00     0.029 A 
ATOM     53  N   UNL A   1      47.152  29.093  27.723  1.00  0.00    -0.354 N 
ATOM     54  N   UNL A   1      44.445  29.813  28.559  1.00  0.00    -0.248 NA
ATOM     55  C   UNL A   1      42.918  31.384  29.379  1.00  0.00     0.031 C 
ATOM     56  C   UNL A   1      48.731  30.655  27.786  1.00  0.00     0.029 A 
ATOM     57  C   UNL A   1      47.389  30.421  28.036  1.00  0.00     0.049 A 
ATOM     58  H   UNL A   1      46.281  28.639  27.808  1.00  0.00     0.167 HD
ATOM     59  C   UNL A   1      45.093  31.030  28.743  1.00  0.00     0.074 A 
ATOM     60  C   UNL A   1      44.102  31.965  29.233  1.00  0.00     0.031 C 
ATOM     61  C   UNL A   1      46.394  31.340  28.524  1.00  0.00     0.031 A 
BRANCH  48  62
ATOM     62  C   UNL A   1      49.783  26.610  26.452  1.00  0.00    -0.014 A 
ATOM     63  C   UNL A   1      50.221  26.727  25.122  1.00  0.00     0.010 A 
ATOM     64  C   UNL A   1      50.627  26.013  27.406  1.00  0.00     0.010 A 
ATOM     65  C   UNL A   1      51.465  26.216  24.741  1.00  0.00     0.020 A 
ATOM     66  C   UNL A   1      51.879  25.517  27.032  1.00  0.00     0.020 A 
ATOM     67  C   UNL A   1      52.280  25.603  25.697  1.00  0.00     0.054 A 
BRANCH  67  68
ATOM     68  S   UNL A   1      53.891  24.942  25.186  1.00  0.00     0.124 S 
ATOM     69  O   UNL A   1      54.223  25.807  24.056  1.00  0.00    -0.237 OA
ATOM     70  O   UNL A   1      54.713  25.125  26.379  1.00  0.00    -0.237 OA
ATOM     71  O   UNL A   1      53.598  23.552  24.844  1.00  0.00    -0.744 OA
ENDBRANCH  67  68
ENDBRANCH  48  62
BRANCH  49  72
ATOM     72  C   UNL A   1      40.703  29.474  29.371  1.00  0.00    -0.014 A 
ATOM     73  C   UNL A   1      40.423  29.564  30.745  1.00  0.00     0.010 A 
ATOM     74  C   UNL A   1      39.710  29.821  28.439  1.00  0.00     0.010 A 
ATOM     75  C   UNL A   1      39.168  29.993  31.182  1.00  0.00     0.020 A 
ATOM     76  C   UNL A   1      38.459  30.266  28.873  1.00  0.00     0.020 A 
ATOM     77  C   UNL A   1      38.193  30.344  30.243  1.00  0.00     0.054 A 
BRANCH  77  78
ATOM     78  S   UNL A   1      36.596  30.983  30.820  1.00  0.00     0.124 S 
ATOM     79  O   UNL A   1      35.998  31.468  29.581  1.00  0.00    -0.237 OA
ATOM     80  O   UNL A   1      35.969  29.802  31.408  1.00  0.00    -0.237 OA
ATOM     81  O   UNL A   1      36.977  32.015  31.782  1.00  0.00    -0.744 OA
ENDBRANCH  77  78
ENDBRANCH  49  72
BRANCH  61  82
ATOM     82  C   UNL A   1      46.816  32.756  28.794  1.00  0.00    -0.014 A 
ATOM     83  C   UNL A   1      47.505  33.089  29.974  1.00  0.00     0.010 A 
ATOM     84  C   UNL A   1      46.564  33.754  27.837  1.00  0.00     0.010 A 
ATOM     85  C   UNL A   1      47.915  34.405  30.201  1.00  0.00     0.020 A 
ATOM     86  C   UNL A   1      46.986  35.068  28.055  1.00  0.00     0.020 A 
ATOM     87  C   UNL A   1      47.648  35.388  29.243  1.00  0.00     0.054 A 
BRANCH  87  88
ATOM     88  S   UNL A   1      48.227  37.084  29.532  1.00  0.00     0.124 S 
ATOM     89  O   UNL A   1      47.117  37.875  29.010  1.00  0.00    -0.237 OA
ATOM     90  O   UNL A   1      48.402  37.127  30.981  1.00  0.00    -0.237 OA
ATOM     91  O   UNL A   1      49.465  37.158  28.760  1.00  0.00    -0.744 OA
ENDBRANCH  87  88
ENDBRANCH  61  82
ENDBRANCH  35  36
ENDBRANCH  27  30
ENDBRANCH  25  26
ENDBRANCH  24  25
ENDBRANCH  23  24
ENDBRANCH   3  23
TORSDOF 19
ENDMDL
