MODEL 1
REMARK VINA RESULT:     -11.3      0.000      0.000
REMARK SMILES COC(=O)[C@@H]1CN(C(=O)N(CC(=O)NCCCNC(=O)c2ccc(-c3c4nc(c(-c5ccc(S(=O)(=O)[O-])cc5)c5ccc([nH]5)c(-c5ccc(S(=O)(=O)[O-])cc5)c5nc(c(-c6ccc(S(=O)(=O)[O-])cc6)c6ccc3[nH]6)C=C5)C=C4)cc2)C(C)(C)C)C[C@H]1C
REMARK SMILES IDX 15 1 14 2 12 3 13 4 11 6 10 7 8 8 9 9 7 10 5 11 6 12 86 13
REMARK SMILES IDX 85 14 87 15 3 16 4 17 2 18 1 19 81 20 82 21 83 22 84 23
REMARK SMILES IDX 16 24 17 25 18 26 19 27 20 29 21 30 22 31 80 32 23 33 79 34
REMARK SMILES IDX 24 35 25 36 26 37 73 38 27 39 78 40 72 41 74 42 28 43 77 44
REMARK SMILES IDX 71 45 70 46 29 48 59 49 40 50 58 51 41 52 44 53 57 54 75 55
REMARK SMILES IDX 42 56 43 57 56 59 76 60 45 61 30 62 31 63 39 64 32 65 38 66
REMARK SMILES IDX 33 67 34 68 35 69 36 70 37 71 60 72 61 73 69 74 62 75 68 76
REMARK SMILES IDX 63 77 64 78 65 79 66 80 67 81 46 82 47 83 55 84 48 85 54 86
REMARK SMILES IDX 49 87 50 88 51 89 52 90 53 91
REMARK H PARENT 14 5 18 28 74 47 44 58
REMARK Flexibility Score: inf
ROOT
ATOM      1  C   UNL A   1      33.672  29.172  26.324  1.00  0.00     0.117 C 
ENDROOT
BRANCH   1   2
ATOM      2  N   UNL A   1      34.120  29.157  24.947  1.00  0.00    -0.354 N 
ATOM      3  C   UNL A   1      34.069  28.193  23.987  1.00  0.00     0.239 C 
ATOM      4  O   UNL A   1      34.151  28.596  22.818  1.00  0.00    -0.273 OA
ATOM      5  H   UNL A   1      34.538  29.998  24.650  1.00  0.00     0.163 HD
BRANCH   3   6
ATOM      6  C   UNL A   1      33.770  26.700  24.240  1.00  0.00     0.221 C 
BRANCH   6   7
ATOM      7  N   UNL A   1      32.401  26.208  24.075  1.00  0.00    -0.311 N 
BRANCH   7   8
ATOM      8  C   UNL A   1      31.295  26.605  24.829  1.00  0.00     0.320 C 
ATOM      9  O   UNL A   1      31.160  26.182  25.983  1.00  0.00    -0.248 OA
BRANCH   8  10
ATOM     10  N   UNL A   1      30.340  27.489  24.366  1.00  0.00    -0.323 N 
ATOM     11  C   UNL A   1      28.742  28.547  22.919  1.00  0.00     0.123 C 
ATOM     12  C   UNL A   1      28.987  27.362  23.851  1.00  0.00     0.137 C 
ATOM     13  C   UNL A   1      29.939  29.497  23.166  1.00  0.00     0.021 C 
ATOM     14  C   UNL A   1      30.655  28.913  24.385  1.00  0.00     0.125 C 
ATOM     15  C   UNL A   1      30.876  29.553  21.954  1.00  0.00     0.010 C 
BRANCH  11  16
ATOM     16  C   UNL A   1      27.391  29.201  23.150  1.00  0.00     0.310 C 
ATOM     17  O   UNL A   1      26.367  28.549  23.334  1.00  0.00    -0.252 OA
BRANCH  16  18
ATOM     18  O   UNL A   1      27.339  30.554  23.242  1.00  0.00    -0.469 OA
ATOM     19  C   UNL A   1      27.642  31.458  22.171  1.00  0.00     0.282 C 
ENDBRANCH  16  18
ENDBRANCH  11  16
ENDBRANCH   8  10
ENDBRANCH   7   8
BRANCH   7  20
ATOM     20  C   UNL A   1      32.172  25.226  22.917  1.00  0.00     0.037 C 
ATOM     21  C   UNL A   1      31.859  25.958  21.596  1.00  0.00     0.034 C 
ATOM     22  C   UNL A   1      33.402  24.306  22.727  1.00  0.00     0.034 C 
ATOM     23  C   UNL A   1      30.969  24.254  23.119  1.00  0.00     0.034 C 
ENDBRANCH   7  20
ENDBRANCH   6   7
ENDBRANCH   3   6
ENDBRANCH   1   2
BRANCH   1  24
ATOM     24  C   UNL A   1      34.186  30.325  27.167  1.00  0.00     0.042 C 
BRANCH  24  25
ATOM     25  C   UNL A   1      35.525  30.061  27.829  1.00  0.00     0.118 C 
BRANCH  25  26
ATOM     26  N   UNL A   1      35.449  30.170  29.279  1.00  0.00    -0.352 N 
ATOM     27  C   UNL A   1      36.382  29.857  30.240  1.00  0.00     0.251 C 
ATOM     28  H   UNL A   1      34.596  30.523  29.625  1.00  0.00     0.163 HD
ATOM     29  O   UNL A   1      36.030  29.798  31.415  1.00  0.00    -0.269 OA
BRANCH  27  30
ATOM     30  C   UNL A   1      37.788  29.579  29.867  1.00  0.00     0.039 A 
ATOM     31  C   UNL A   1      38.681  29.148  30.851  1.00  0.00     0.014 A 
ATOM     32  C   UNL A   1      38.241  29.771  28.559  1.00  0.00     0.014 A 
ATOM     33  C   UNL A   1      40.004  28.848  30.510  1.00  0.00     0.010 A 
ATOM     34  C   UNL A   1      39.527  29.380  28.201  1.00  0.00     0.010 A 
ATOM     35  C   UNL A   1      40.429  28.927  29.174  1.00  0.00    -0.014 A 
BRANCH  35  36
ATOM     36  C   UNL A   1      41.812  28.560  28.770  1.00  0.00     0.031 A 
ATOM     37  C   UNL A   1      42.889  29.613  28.722  1.00  0.00     0.074 A 
ATOM     38  C   UNL A   1      42.083  27.300  28.375  1.00  0.00     0.049 A 
ATOM     39  N   UNL A   1      44.128  29.508  28.316  1.00  0.00    -0.248 NA
ATOM     40  C   UNL A   1      42.516  30.969  29.161  1.00  0.00     0.031 C 
ATOM     41  C   UNL A   1      41.120  26.197  28.332  1.00  0.00     0.029 A 
ATOM     42  N   UNL A   1      43.251  26.736  27.925  1.00  0.00    -0.354 N 
ATOM     43  C   UNL A   1      44.673  30.783  28.426  1.00  0.00     0.074 A 
ATOM     44  C   UNL A   1      43.616  31.654  28.890  1.00  0.00     0.031 C 
ATOM     45  C   UNL A   1      41.742  25.086  27.907  1.00  0.00     0.029 A 
ATOM     46  C   UNL A   1      43.133  25.403  27.606  1.00  0.00     0.049 A 
ATOM     47  H   UNL A   1      44.093  27.238  27.837  1.00  0.00     0.167 HD
ATOM     48  C   UNL A   1      45.942  31.189  28.186  1.00  0.00     0.031 A 
ATOM     49  C   UNL A   1      44.041  24.535  27.117  1.00  0.00     0.031 A 
ATOM     50  C   UNL A   1      46.998  30.316  27.745  1.00  0.00     0.049 A 
ATOM     51  C   UNL A   1      45.445  25.008  26.859  1.00  0.00     0.074 A 
ATOM     52  C   UNL A   1      48.331  30.618  27.533  1.00  0.00     0.029 A 
ATOM     53  N   UNL A   1      46.841  28.970  27.454  1.00  0.00    -0.354 N 
ATOM     54  N   UNL A   1      45.955  26.205  27.029  1.00  0.00    -0.248 NA
ATOM     55  C   UNL A   1      46.398  24.012  26.352  1.00  0.00     0.031 C 
ATOM     56  C   UNL A   1      48.971  29.466  27.066  1.00  0.00     0.029 A 
ATOM     57  C   UNL A   1      48.049  28.432  27.042  1.00  0.00     0.049 A 
ATOM     58  H   UNL A   1      45.996  28.470  27.528  1.00  0.00     0.167 HD
ATOM     59  C   UNL A   1      47.296  26.098  26.676  1.00  0.00     0.074 A 
ATOM     60  C   UNL A   1      47.520  24.718  26.297  1.00  0.00     0.031 C 
ATOM     61  C   UNL A   1      48.256  27.056  26.669  1.00  0.00     0.031 A 
BRANCH  48  62
ATOM     62  C   UNL A   1      46.257  32.648  28.392  1.00  0.00    -0.014 A 
ATOM     63  C   UNL A   1      46.181  33.565  27.328  1.00  0.00     0.010 A 
ATOM     64  C   UNL A   1      46.599  33.116  29.674  1.00  0.00     0.010 A 
ATOM     65  C   UNL A   1      46.486  34.913  27.532  1.00  0.00     0.020 A 
ATOM     66  C   UNL A   1      46.877  34.469  29.889  1.00  0.00     0.020 A 
ATOM     67  C   UNL A   1      46.837  35.356  28.810  1.00  0.00     0.054 A 
BRANCH  67  68
ATOM     68  S   UNL A   1      47.212  37.115  29.049  1.00  0.00     0.124 S 
ATOM     69  O   UNL A   1      45.926  37.637  29.505  1.00  0.00    -0.237 OA
ATOM     70  O   UNL A   1      48.270  37.083  30.057  1.00  0.00    -0.237 OA
ATOM     71  O   UNL A   1      47.632  37.564  27.724  1.00  0.00    -0.744 OA
ENDBRANCH  67  68
ENDBRANCH  48  62
BRANCH  49  72
ATOM     72  C   UNL A   1      43.652  23.121  26.860  1.00  0.00    -0.014 A 
ATOM     73  C   UNL A   1      43.959  22.511  25.631  1.00  0.00     0.010 A 
ATOM     74  C   UNL A   1      42.985  22.373  27.847  1.00  0.00     0.010 A 
ATOM     75  C   UNL A   1      43.592  21.184  25.387  1.00  0.00     0.020 A 
ATOM     76  C   UNL A   1      42.641  21.037  27.617  1.00  0.00     0.020 A 
ATOM     77  C   UNL A   1      42.936  20.456  26.383  1.00  0.00     0.054 A 
BRANCH  77  78
ATOM     78  S   UNL A   1      42.513  18.720  26.062  1.00  0.00     0.124 S 
ATOM     79  O   UNL A   1      43.436  18.378  24.985  1.00  0.00    -0.237 OA
ATOM     80  O   UNL A   1      42.780  18.086  27.350  1.00  0.00    -0.237 OA
ATOM     81  O   UNL A   1      41.102  18.777  25.685  1.00  0.00    -0.744 OA
ENDBRANCH  77  78
ENDBRANCH  49  72
BRANCH  61  82
ATOM     82  C   UNL A   1      49.646  26.641  26.270  1.00  0.00    -0.014 A 
ATOM     83  C   UNL A   1      50.490  25.961  27.164  1.00  0.00     0.010 A 
ATOM     84  C   UNL A   1      50.091  26.886  24.957  1.00  0.00     0.010 A 
ATOM     85  C   UNL A   1      51.767  25.558  26.763  1.00  0.00     0.020 A 
ATOM     86  C   UNL A   1      51.356  26.461  24.544  1.00  0.00     0.020 A 
ATOM     87  C   UNL A   1      52.192  25.811  25.454  1.00  0.00     0.054 A 
BRANCH  87  88
ATOM     88  S   UNL A   1      53.833  25.236  24.943  1.00  0.00     0.124 S 
ATOM     89  O   UNL A   1      54.000  25.900  23.653  1.00  0.00    -0.237 OA
ATOM     90  O   UNL A   1      54.694  25.724  26.017  1.00  0.00    -0.237 OA
ATOM     91  O   UNL A   1      53.688  23.784  24.881  1.00  0.00    -0.744 OA
ENDBRANCH  87  88
ENDBRANCH  61  82
ENDBRANCH  35  36
ENDBRANCH  27  30
ENDBRANCH  25  26
ENDBRANCH  24  25
ENDBRANCH   1  24
TORSDOF 19
ENDMDL
MODEL 2
REMARK VINA RESULT:     -11.2      1.646      3.596
REMARK SMILES COC(=O)[C@@H]1CN(C(=O)N(CC(=O)NCCCNC(=O)c2ccc(-c3c4nc(c(-c5ccc(S(=O)(=O)[O-])cc5)c5ccc([nH]5)c(-c5ccc(S(=O)(=O)[O-])cc5)c5nc(c(-c6ccc(S(=O)(=O)[O-])cc6)c6ccc3[nH]6)C=C5)C=C4)cc2)C(C)(C)C)C[C@H]1C
REMARK SMILES IDX 15 1 14 2 12 3 13 4 11 6 10 7 8 8 9 9 7 10 5 11 6 12 86 13
REMARK SMILES IDX 85 14 87 15 3 16 4 17 2 18 1 19 81 20 82 21 83 22 84 23
REMARK SMILES IDX 16 24 17 25 18 26 19 27 20 29 21 30 22 31 80 32 23 33 79 34
REMARK SMILES IDX 24 35 25 36 26 37 73 38 27 39 78 40 72 41 74 42 28 43 77 44
REMARK SMILES IDX 71 45 70 46 29 48 59 49 40 50 58 51 41 52 44 53 57 54 75 55
REMARK SMILES IDX 42 56 43 57 56 59 76 60 45 61 30 62 31 63 39 64 32 65 38 66
REMARK SMILES IDX 33 67 34 68 35 69 36 70 37 71 60 72 61 73 69 74 62 75 68 76
REMARK SMILES IDX 63 77 64 78 65 79 66 80 67 81 46 82 47 83 55 84 48 85 54 86
REMARK SMILES IDX 49 87 50 88 51 89 52 90 53 91
REMARK H PARENT 14 5 18 28 74 47 44 58
REMARK Flexibility Score: inf
ROOT
ATOM      1  C   UNL A   1      33.363  30.543  27.194  1.00  0.00     0.117 C 
ENDROOT
BRANCH   1   2
ATOM      2  N   UNL A   1      32.269  29.637  27.481  1.00  0.00    -0.354 N 
ATOM      3  C   UNL A   1      32.014  28.365  27.071  1.00  0.00     0.239 C 
ATOM      4  O   UNL A   1      31.239  27.716  27.788  1.00  0.00    -0.273 OA
ATOM      5  H   UNL A   1      31.586  30.010  28.084  1.00  0.00     0.163 HD
BRANCH   3   6
ATOM      6  C   UNL A   1      32.719  27.648  25.899  1.00  0.00     0.221 C 
BRANCH   6   7
ATOM      7  N   UNL A   1      32.114  26.444  25.330  1.00  0.00    -0.311 N 
BRANCH   7   8
ATOM      8  C   UNL A   1      32.307  25.139  25.786  1.00  0.00     0.320 C 
ATOM      9  O   UNL A   1      31.619  24.710  26.719  1.00  0.00    -0.248 OA
BRANCH   8  10
ATOM     10  N   UNL A   1      33.217  24.265  25.222  1.00  0.00    -0.323 N 
ATOM     11  C   UNL A   1      34.595  23.170  23.588  1.00  0.00     0.123 C 
ATOM     12  C   UNL A   1      34.448  24.413  24.463  1.00  0.00     0.137 C 
ATOM     13  C   UNL A   1      33.519  22.188  24.114  1.00  0.00     0.021 C 
ATOM     14  C   UNL A   1      32.996  22.834  25.398  1.00  0.00     0.125 C 
ATOM     15  C   UNL A   1      32.388  21.991  23.099  1.00  0.00     0.010 C 
BRANCH  11  16
ATOM     16  C   UNL A   1      36.002  22.600  23.617  1.00  0.00     0.310 C 
ATOM     17  O   UNL A   1      36.840  22.873  22.762  1.00  0.00    -0.252 OA
BRANCH  16  18
ATOM     18  O   UNL A   1      36.363  21.832  24.676  1.00  0.00    -0.469 OA
ATOM     19  C   UNL A   1      37.717  21.524  25.036  1.00  0.00     0.282 C 
ENDBRANCH  16  18
ENDBRANCH  11  16
ENDBRANCH   8  10
ENDBRANCH   7   8
BRANCH   7  20
ATOM     20  C   UNL A   1      31.123  26.667  24.178  1.00  0.00     0.037 C 
ATOM     21  C   UNL A   1      29.668  26.762  24.681  1.00  0.00     0.034 C 
ATOM     22  C   UNL A   1      31.486  27.944  23.382  1.00  0.00     0.034 C 
ATOM     23  C   UNL A   1      31.095  25.525  23.116  1.00  0.00     0.034 C 
ENDBRANCH   7  20
ENDBRANCH   6   7
ENDBRANCH   3   6
ENDBRANCH   1   2
BRANCH   1  24
ATOM     24  C   UNL A   1      34.754  29.985  27.431  1.00  0.00     0.042 C 
BRANCH  24  25
ATOM     25  C   UNL A   1      35.689  30.933  28.158  1.00  0.00     0.118 C 
BRANCH  25  26
ATOM     26  N   UNL A   1      35.601  30.785  29.604  1.00  0.00    -0.352 N 
ATOM     27  C   UNL A   1      36.443  30.139  30.479  1.00  0.00     0.251 C 
ATOM     28  H   UNL A   1      34.817  31.213  30.019  1.00  0.00     0.163 HD
ATOM     29  O   UNL A   1      36.061  29.928  31.627  1.00  0.00    -0.269 OA
BRANCH  27  30
ATOM     30  C   UNL A   1      37.786  29.690  30.045  1.00  0.00     0.039 A 
ATOM     31  C   UNL A   1      38.128  29.775  28.692  1.00  0.00     0.014 A 
ATOM     32  C   UNL A   1      38.699  29.154  30.956  1.00  0.00     0.014 A 
ATOM     33  C   UNL A   1      39.403  29.388  28.270  1.00  0.00     0.010 A 
ATOM     34  C   UNL A   1      39.998  28.861  30.552  1.00  0.00     0.010 A 
ATOM     35  C   UNL A   1      40.362  28.960  29.202  1.00  0.00    -0.014 A 
BRANCH  35  36
ATOM     36  C   UNL A   1      41.744  28.596  28.792  1.00  0.00     0.031 A 
ATOM     37  C   UNL A   1      42.819  29.651  28.742  1.00  0.00     0.074 A 
ATOM     38  C   UNL A   1      42.016  27.337  28.394  1.00  0.00     0.049 A 
ATOM     39  N   UNL A   1      44.057  29.548  28.332  1.00  0.00    -0.248 NA
ATOM     40  C   UNL A   1      42.446  31.005  29.184  1.00  0.00     0.031 C 
ATOM     41  C   UNL A   1      41.054  26.233  28.353  1.00  0.00     0.029 A 
ATOM     42  N   UNL A   1      43.183  26.776  27.939  1.00  0.00    -0.354 N 
ATOM     43  C   UNL A   1      44.601  30.824  28.442  1.00  0.00     0.074 A 
ATOM     44  C   UNL A   1      43.544  31.693  28.911  1.00  0.00     0.031 C 
ATOM     45  C   UNL A   1      41.676  25.123  27.923  1.00  0.00     0.029 A 
ATOM     46  C   UNL A   1      43.066  25.443  27.618  1.00  0.00     0.049 A 
ATOM     47  H   UNL A   1      44.024  27.279  27.849  1.00  0.00     0.167 HD
ATOM     48  C   UNL A   1      45.868  31.232  28.198  1.00  0.00     0.031 A 
ATOM     49  C   UNL A   1      43.973  24.577  27.125  1.00  0.00     0.031 A 
ATOM     50  C   UNL A   1      46.924  30.362  27.752  1.00  0.00     0.049 A 
ATOM     51  C   UNL A   1      45.375  25.053  26.862  1.00  0.00     0.074 A 
ATOM     52  C   UNL A   1      48.256  30.666  27.535  1.00  0.00     0.029 A 
ATOM     53  N   UNL A   1      46.768  29.016  27.459  1.00  0.00    -0.354 N 
ATOM     54  N   UNL A   1      45.884  26.250  27.033  1.00  0.00    -0.248 NA
ATOM     55  C   UNL A   1      46.328  24.059  26.351  1.00  0.00     0.031 C 
ATOM     56  C   UNL A   1      48.896  29.516  27.064  1.00  0.00     0.029 A 
ATOM     57  C   UNL A   1      47.975  28.480  27.042  1.00  0.00     0.049 A 
ATOM     58  H   UNL A   1      45.924  28.514  27.536  1.00  0.00     0.167 HD
ATOM     59  C   UNL A   1      47.224  26.146  26.675  1.00  0.00     0.074 A 
ATOM     60  C   UNL A   1      47.449  24.766  26.293  1.00  0.00     0.031 C 
ATOM     61  C   UNL A   1      48.183  27.105  26.666  1.00  0.00     0.031 A 
BRANCH  48  62
ATOM     62  C   UNL A   1      46.182  32.692  28.405  1.00  0.00    -0.014 A 
ATOM     63  C   UNL A   1      46.653  33.165  29.643  1.00  0.00     0.010 A 
ATOM     64  C   UNL A   1      46.037  33.596  27.338  1.00  0.00     0.010 A 
ATOM     65  C   UNL A   1      46.929  34.522  29.824  1.00  0.00     0.020 A 
ATOM     66  C   UNL A   1      46.340  34.951  27.506  1.00  0.00     0.020 A 
ATOM     67  C   UNL A   1      46.767  35.408  28.755  1.00  0.00     0.054 A 
BRANCH  67  68
ATOM     68  S   UNL A   1      47.148  37.163  29.013  1.00  0.00     0.124 S 
ATOM     69  O   UNL A   1      46.694  37.369  30.386  1.00  0.00    -0.237 OA
ATOM     70  O   UNL A   1      48.595  37.209  28.817  1.00  0.00    -0.237 OA
ATOM     71  O   UNL A   1      46.362  37.844  27.988  1.00  0.00    -0.744 OA
ENDBRANCH  67  68
ENDBRANCH  48  62
BRANCH  49  72
ATOM     72  C   UNL A   1      43.585  23.163  26.866  1.00  0.00    -0.014 A 
ATOM     73  C   UNL A   1      43.898  22.552  25.639  1.00  0.00     0.010 A 
ATOM     74  C   UNL A   1      42.914  22.416  27.851  1.00  0.00     0.010 A 
ATOM     75  C   UNL A   1      43.532  21.225  25.394  1.00  0.00     0.020 A 
ATOM     76  C   UNL A   1      42.570  21.080  27.620  1.00  0.00     0.020 A 
ATOM     77  C   UNL A   1      42.871  20.497  26.388  1.00  0.00     0.054 A 
BRANCH  77  78
ATOM     78  S   UNL A   1      42.450  18.762  26.066  1.00  0.00     0.124 S 
ATOM     79  O   UNL A   1      42.712  18.141  27.360  1.00  0.00    -0.237 OA
ATOM     80  O   UNL A   1      41.045  18.844  25.676  1.00  0.00    -0.237 OA
ATOM     81  O   UNL A   1      43.365  18.383  24.991  1.00  0.00    -0.744 OA
ENDBRANCH  77  78
ENDBRANCH  49  72
BRANCH  61  82
ATOM     82  C   UNL A   1      49.572  26.693  26.261  1.00  0.00    -0.014 A 
ATOM     83  C   UNL A   1      50.445  26.076  27.173  1.00  0.00     0.010 A 
ATOM     84  C   UNL A   1      49.987  26.874  24.928  1.00  0.00     0.010 A 
ATOM     85  C   UNL A   1      51.721  25.674  26.768  1.00  0.00     0.020 A 
ATOM     86  C   UNL A   1      51.251  26.448  24.513  1.00  0.00     0.020 A 
ATOM     87  C   UNL A   1      52.116  25.863  25.439  1.00  0.00     0.054 A 
BRANCH  87  88
ATOM     88  S   UNL A   1      53.757  25.289  24.926  1.00  0.00     0.124 S 
ATOM     89  O   UNL A   1      54.603  25.778  26.011  1.00  0.00    -0.237 OA
ATOM     90  O   UNL A   1      53.588  23.840  24.865  1.00  0.00    -0.237 OA
ATOM     91  O   UNL A   1      53.963  25.940  23.634  1.00  0.00    -0.744 OA
ENDBRANCH  87  88
ENDBRANCH  61  82
ENDBRANCH  35  36
ENDBRANCH  27  30
ENDBRANCH  25  26
ENDBRANCH  24  25
ENDBRANCH   1  24
TORSDOF 19
ENDMDL
MODEL 3
REMARK VINA RESULT:     -11.0      3.644      5.413
REMARK SMILES COC(=O)[C@@H]1CN(C(=O)N(CC(=O)NCCCNC(=O)c2ccc(-c3c4nc(c(-c5ccc(S(=O)(=O)[O-])cc5)c5ccc([nH]5)c(-c5ccc(S(=O)(=O)[O-])cc5)c5nc(c(-c6ccc(S(=O)(=O)[O-])cc6)c6ccc3[nH]6)C=C5)C=C4)cc2)C(C)(C)C)C[C@H]1C
REMARK SMILES IDX 15 1 14 2 12 3 13 4 11 6 10 7 8 8 9 9 7 10 5 11 6 12 86 13
REMARK SMILES IDX 85 14 87 15 3 16 4 17 2 18 1 19 81 20 82 21 83 22 84 23
REMARK SMILES IDX 16 24 17 25 18 26 19 27 20 29 21 30 22 31 80 32 23 33 79 34
REMARK SMILES IDX 24 35 25 36 26 37 73 38 27 39 78 40 72 41 74 42 28 43 77 44
REMARK SMILES IDX 71 45 70 46 29 48 59 49 40 50 58 51 41 52 44 53 57 54 75 55
REMARK SMILES IDX 42 56 43 57 56 59 76 60 45 61 30 62 31 63 39 64 32 65 38 66
REMARK SMILES IDX 33 67 34 68 35 69 36 70 37 71 60 72 61 73 69 74 62 75 68 76
REMARK SMILES IDX 63 77 64 78 65 79 66 80 67 81 46 82 47 83 55 84 48 85 54 86
REMARK SMILES IDX 49 87 50 88 51 89 52 90 53 91
REMARK H PARENT 14 5 18 28 74 47 44 58
REMARK Flexibility Score: inf
ROOT
ATOM      1  C   UNL A   1      32.394  28.015  24.285  1.00  0.00     0.117 C 
ENDROOT
BRANCH   1   2
ATOM      2  N   UNL A   1      32.365  27.439  22.956  1.00  0.00    -0.354 N 
ATOM      3  C   UNL A   1      31.709  26.360  22.448  1.00  0.00     0.239 C 
ATOM      4  O   UNL A   1      31.554  26.356  21.219  1.00  0.00    -0.273 OA
ATOM      5  H   UNL A   1      32.921  27.917  22.298  1.00  0.00     0.163 HD
BRANCH   3   6
ATOM      6  C   UNL A   1      31.032  25.255  23.288  1.00  0.00     0.221 C 
BRANCH   6   7
ATOM      7  N   UNL A   1      31.846  24.456  24.205  1.00  0.00    -0.311 N 
BRANCH   7   8
ATOM      8  C   UNL A   1      32.937  23.661  23.848  1.00  0.00     0.320 C 
ATOM      9  O   UNL A   1      33.865  24.156  23.199  1.00  0.00    -0.248 OA
BRANCH   8  10
ATOM     10  N   UNL A   1      33.062  22.335  24.216  1.00  0.00    -0.323 N 
ATOM     11  C   UNL A   1      32.609  20.220  25.258  1.00  0.00     0.123 C 
ATOM     12  C   UNL A   1      32.212  21.160  24.122  1.00  0.00     0.137 C 
ATOM     13  C   UNL A   1      33.925  20.814  25.820  1.00  0.00     0.021 C 
ATOM     14  C   UNL A   1      34.316  21.905  24.822  1.00  0.00     0.125 C 
ATOM     15  C   UNL A   1      33.728  21.398  27.223  1.00  0.00     0.010 C 
BRANCH  11  16
ATOM     16  C   UNL A   1      32.742  18.778  24.802  1.00  0.00     0.310 C 
ATOM     17  O   UNL A   1      32.006  17.886  25.216  1.00  0.00    -0.252 OA
BRANCH  16  18
ATOM     18  O   UNL A   1      33.652  18.489  23.838  1.00  0.00    -0.469 OA
ATOM     19  C   UNL A   1      33.762  17.223  23.171  1.00  0.00     0.282 C 
ENDBRANCH  16  18
ENDBRANCH  11  16
ENDBRANCH   8  10
ENDBRANCH   7   8
BRANCH   7  20
ATOM     20  C   UNL A   1      31.497  24.578  25.696  1.00  0.00     0.037 C 
ATOM     21  C   UNL A   1      30.723  23.346  26.208  1.00  0.00     0.034 C 
ATOM     22  C   UNL A   1      32.775  24.783  26.543  1.00  0.00     0.034 C 
ATOM     23  C   UNL A   1      30.580  25.789  26.050  1.00  0.00     0.034 C 
ENDBRANCH   7  20
ENDBRANCH   6   7
ENDBRANCH   3   6
ENDBRANCH   1   2
BRANCH   1  24
ATOM     24  C   UNL A   1      33.762  28.091  24.935  1.00  0.00     0.042 C 
BRANCH  24  25
ATOM     25  C   UNL A   1      33.726  28.272  26.441  1.00  0.00     0.118 C 
BRANCH  25  26
ATOM     26  N   UNL A   1      33.599  29.671  26.822  1.00  0.00    -0.352 N 
ATOM     27  C   UNL A   1      34.422  30.455  27.596  1.00  0.00     0.251 C 
ATOM     28  H   UNL A   1      32.800  30.127  26.469  1.00  0.00     0.163 HD
ATOM     29  O   UNL A   1      34.010  31.542  27.992  1.00  0.00    -0.269 OA
BRANCH  27  30
ATOM     30  C   UNL A   1      35.780  29.993  27.964  1.00  0.00     0.039 A 
ATOM     31  C   UNL A   1      36.815  30.111  27.032  1.00  0.00     0.014 A 
ATOM     32  C   UNL A   1      36.035  29.414  29.210  1.00  0.00     0.014 A 
ATOM     33  C   UNL A   1      38.111  29.712  27.375  1.00  0.00     0.010 A 
ATOM     34  C   UNL A   1      37.339  29.108  29.584  1.00  0.00     0.010 A 
ATOM     35  C   UNL A   1      38.391  29.240  28.667  1.00  0.00    -0.014 A 
BRANCH  35  36
ATOM     36  C   UNL A   1      39.769  28.861  29.080  1.00  0.00     0.031 A 
ATOM     37  C   UNL A   1      40.648  29.863  29.782  1.00  0.00     0.074 A 
ATOM     38  C   UNL A   1      40.255  27.645  28.759  1.00  0.00     0.049 A 
ATOM     39  N   UNL A   1      41.900  29.751  30.145  1.00  0.00    -0.248 NA
ATOM     40  C   UNL A   1      40.051  31.173  30.092  1.00  0.00     0.031 C 
ATOM     41  C   UNL A   1      39.522  26.600  28.042  1.00  0.00     0.029 A 
ATOM     42  N   UNL A   1      41.487  27.087  28.989  1.00  0.00    -0.354 N 
ATOM     43  C   UNL A   1      42.246  30.979  30.699  1.00  0.00     0.074 A 
ATOM     44  C   UNL A   1      41.088  31.836  30.581  1.00  0.00     0.031 C 
ATOM     45  C   UNL A   1      40.309  25.519  27.915  1.00  0.00     0.029 A 
ATOM     46  C   UNL A   1      41.613  25.807  28.500  1.00  0.00     0.049 A 
ATOM     47  H   UNL A   1      42.214  27.557  29.458  1.00  0.00     0.167 HD
ATOM     48  C   UNL A   1      43.413  31.353  31.275  1.00  0.00     0.031 A 
ATOM     49  C   UNL A   1      42.664  24.962  28.513  1.00  0.00     0.031 A 
ATOM     50  C   UNL A   1      44.558  30.492  31.411  1.00  0.00     0.049 A 
ATOM     51  C   UNL A   1      43.949  25.400  29.160  1.00  0.00     0.074 A 
ATOM     52  C   UNL A   1      45.765  30.757  32.034  1.00  0.00     0.029 A 
ATOM     53  N   UNL A   1      44.636  29.198  30.921  1.00  0.00    -0.354 N 
ATOM     54  N   UNL A   1      44.234  26.544  29.734  1.00  0.00    -0.248 NA
ATOM     55  C   UNL A   1      45.051  24.428  29.169  1.00  0.00     0.031 C 
ATOM     56  C   UNL A   1      46.591  29.640  31.877  1.00  0.00     0.029 A 
ATOM     57  C   UNL A   1      45.879  28.658  31.207  1.00  0.00     0.049 A 
ATOM     58  H   UNL A   1      43.915  28.731  30.440  1.00  0.00     0.167 HD
ATOM     59  C   UNL A   1      45.540  26.419  30.197  1.00  0.00     0.074 A 
ATOM     60  C   UNL A   1      45.983  25.084  29.848  1.00  0.00     0.031 C 
ATOM     61  C   UNL A   1      46.303  27.328  30.854  1.00  0.00     0.031 A 
BRANCH  48  62
ATOM     62  C   UNL A   1      43.510  32.763  31.800  1.00  0.00    -0.014 A 
ATOM     63  C   UNL A   1      43.172  33.068  33.130  1.00  0.00     0.010 A 
ATOM     64  C   UNL A   1      43.979  33.790  30.961  1.00  0.00     0.010 A 
ATOM     65  C   UNL A   1      43.256  34.381  33.600  1.00  0.00     0.020 A 
ATOM     66  C   UNL A   1      44.092  35.101  31.435  1.00  0.00     0.020 A 
ATOM     67  C   UNL A   1      43.712  35.391  32.748  1.00  0.00     0.054 A 
BRANCH  67  68
ATOM     68  S   UNL A   1      43.827  37.084  33.388  1.00  0.00     0.124 S 
ATOM     69  O   UNL A   1      42.622  37.177  34.209  1.00  0.00    -0.237 OA
ATOM     70  O   UNL A   1      45.088  37.063  34.125  1.00  0.00    -0.237 OA
ATOM     71  O   UNL A   1      43.826  37.912  32.185  1.00  0.00    -0.744 OA
ENDBRANCH  67  68
ENDBRANCH  48  62
BRANCH  49  72
ATOM     72  C   UNL A   1      42.534  23.607  27.910  1.00  0.00    -0.014 A 
ATOM     73  C   UNL A   1      41.757  22.619  28.541  1.00  0.00     0.010 A 
ATOM     74  C   UNL A   1      43.173  23.303  26.695  1.00  0.00     0.010 A 
ATOM     75  C   UNL A   1      41.637  21.345  27.977  1.00  0.00     0.020 A 
ATOM     76  C   UNL A   1      43.033  22.038  26.114  1.00  0.00     0.020 A 
ATOM     77  C   UNL A   1      42.275  21.064  26.766  1.00  0.00     0.054 A 
BRANCH  77  78
ATOM     78  S   UNL A   1      42.063  19.420  26.028  1.00  0.00     0.124 S 
ATOM     79  O   UNL A   1      40.619  19.363  25.823  1.00  0.00    -0.237 OA
ATOM     80  O   UNL A   1      42.872  19.511  24.815  1.00  0.00    -0.237 OA
ATOM     81  O   UNL A   1      42.587  18.517  27.050  1.00  0.00    -0.744 OA
ENDBRANCH  77  78
ENDBRANCH  49  72
BRANCH  61  82
ATOM     82  C   UNL A   1      47.685  26.901  31.269  1.00  0.00    -0.014 A 
ATOM     83  C   UNL A   1      48.804  27.161  30.460  1.00  0.00     0.010 A 
ATOM     84  C   UNL A   1      47.871  26.281  32.519  1.00  0.00     0.010 A 
ATOM     85  C   UNL A   1      50.083  26.783  30.879  1.00  0.00     0.020 A 
ATOM     86  C   UNL A   1      49.151  25.926  32.954  1.00  0.00     0.020 A 
ATOM     87  C   UNL A   1      50.247  26.167  32.125  1.00  0.00     0.054 A 
BRANCH  87  88
ATOM     88  S   UNL A   1      51.921  25.729  32.667  1.00  0.00     0.124 S 
ATOM     89  O   UNL A   1      52.744  26.651  31.889  1.00  0.00    -0.237 OA
ATOM     90  O   UNL A   1      51.872  25.989  34.104  1.00  0.00    -0.237 OA
ATOM     91  O   UNL A   1      52.047  24.320  32.300  1.00  0.00    -0.744 OA
ENDBRANCH  87  88
ENDBRANCH  61  82
ENDBRANCH  35  36
ENDBRANCH  27  30
ENDBRANCH  25  26
ENDBRANCH  24  25
ENDBRANCH   1  24
TORSDOF 19
ENDMDL
