MODEL 1
REMARK VINA RESULT:     -12.6      0.000      0.000
REMARK SMILES CC[NH+]1CCN(c2ccc(NC(=O)C3CCCC3)c(C(=O)NCCCNC(=O)c3ccc(-c4c5nc(c(-c6ccc(S(=O)(=O)[O-])cc6)c6ccc([nH]6)c(-c6ccc(S(=O)(=O)[O-])cc6)c6nc(c(-c7ccc(S(=O)(=O)[O-])cc7)c7ccc4[nH]7)C=C6)C=C5)cc3)c2)CC1
REMARK SMILES IDX 24 1 23 2 22 3 20 4 21 5 19 7 7 8 8 9 89 10 9 11 10 12 6 13
REMARK SMILES IDX 3 14 4 15 91 16 5 18 90 19 2 20 1 21 11 22 12 23 13 25 14 26
REMARK SMILES IDX 15 27 18 28 16 29 17 30 25 31 26 32 27 33 28 35 29 36 30 37
REMARK SMILES IDX 88 38 31 39 87 40 32 41 33 42 34 43 81 44 35 45 86 46 80 47
REMARK SMILES IDX 82 48 36 49 85 50 79 51 78 52 37 54 67 55 48 56 66 57 49 58
REMARK SMILES IDX 52 59 65 60 83 61 50 62 51 63 64 65 84 66 53 67 38 68 39 69
REMARK SMILES IDX 47 70 40 71 46 72 41 73 42 74 43 75 44 76 45 77 68 78 69 79
REMARK SMILES IDX 77 80 70 81 76 82 71 83 72 84 73 85 74 86 75 87 54 88 55 89
REMARK SMILES IDX 63 90 56 91 62 92 57 93 58 94 59 95 60 96 61 97
REMARK H PARENT 22 6 3 17 11 24 26 34 82 53 52 64
REMARK Flexibility Score: inf
ROOT
ATOM      1  C   UNL A   1      38.764  22.696  26.392  1.00  0.00     0.042 C 
ENDROOT
BRANCH   1   2
ATOM      2  C   UNL A   1      37.516  23.332  25.818  1.00  0.00     0.118 C 
BRANCH   2   3
ATOM      3  N   UNL A   1      37.418  23.327  24.364  1.00  0.00    -0.352 N 
ATOM      4  C   UNL A   1      36.398  22.957  23.506  1.00  0.00     0.253 C 
ATOM      5  O   UNL A   1      36.615  23.067  22.296  1.00  0.00    -0.269 OA
ATOM      6  H   UNL A   1      38.229  23.647  23.906  1.00  0.00     0.163 HD
BRANCH   4   7
ATOM      7  C   UNL A   1      35.075  22.413  23.956  1.00  0.00     0.065 A 
ATOM      8  C   UNL A   1      33.825  20.533  24.834  1.00  0.00     0.038 A 
ATOM      9  C   UNL A   1      32.646  21.222  24.608  1.00  0.00     0.028 A 
ATOM     10  C   UNL A   1      35.007  21.251  24.730  1.00  0.00     0.042 A 
ATOM     11  C   UNL A   1      32.681  22.519  24.105  1.00  0.00     0.029 A 
ATOM     12  C   UNL A   1      33.855  23.017  23.562  1.00  0.00     0.054 A 
BRANCH   8  13
ATOM     13  N   UNL A   1      33.833  19.172  25.028  1.00  0.00    -0.360 N 
ATOM     14  N   UNL A   1      33.129  16.447  24.162  1.00  0.00    -0.332 N 
ATOM     15  C   UNL A   1      32.098  17.399  24.603  1.00  0.00     0.283 C 
ATOM     16  C   UNL A   1      34.232  17.206  23.535  1.00  0.00     0.283 C 
ATOM     17  H   UNL A   1      32.660  15.833  23.495  1.00  0.00     0.348 HD
ATOM     18  C   UNL A   1      32.584  18.550  25.516  1.00  0.00     0.178 C 
ATOM     19  C   UNL A   1      34.849  18.307  24.431  1.00  0.00     0.178 C 
BRANCH  14  20
ATOM     20  C   UNL A   1      33.629  15.482  25.153  1.00  0.00     0.258 C 
ATOM     21  C   UNL A   1      32.637  14.532  25.818  1.00  0.00     0.071 C 
ENDBRANCH  14  20
ENDBRANCH   8  13
BRANCH  12  22
ATOM     22  N   UNL A   1      33.819  24.069  22.625  1.00  0.00    -0.325 N 
ATOM     23  C   UNL A   1      33.621  25.418  22.718  1.00  0.00     0.227 C 
ATOM     24  H   UNL A   1      33.968  23.766  21.701  1.00  0.00     0.169 HD
ATOM     25  O   UNL A   1      33.755  26.054  21.661  1.00  0.00    -0.274 OA
BRANCH  23  26
ATOM     26  C   UNL A   1      33.302  26.206  24.013  1.00  0.00     0.079 C 
ATOM     27  C   UNL A   1      31.814  26.004  24.367  1.00  0.00     0.013 C 
ATOM     28  C   UNL A   1      33.968  25.843  25.344  1.00  0.00     0.013 C 
ATOM     29  C   UNL A   1      31.670  26.500  25.795  1.00  0.00     0.001 C 
ATOM     30  C   UNL A   1      32.976  26.134  26.467  1.00  0.00     0.001 C 
ENDBRANCH  23  26
ENDBRANCH  12  22
ENDBRANCH   4   7
ENDBRANCH   2   3
ENDBRANCH   1   2
BRANCH   1  31
ATOM     31  C   UNL A   1      39.761  23.661  26.998  1.00  0.00     0.118 C 
BRANCH  31  32
ATOM     32  N   UNL A   1      40.569  24.359  26.003  1.00  0.00    -0.352 N 
ATOM     33  C   UNL A   1      41.129  25.616  26.018  1.00  0.00     0.251 C 
ATOM     34  H   UNL A   1      40.741  23.844  25.182  1.00  0.00     0.163 HD
ATOM     35  O   UNL A   1      41.621  26.067  24.981  1.00  0.00    -0.269 OA
BRANCH  33  36
ATOM     36  C   UNL A   1      41.120  26.438  27.248  1.00  0.00     0.039 A 
ATOM     37  C   UNL A   1      42.029  27.492  27.381  1.00  0.00     0.014 A 
ATOM     38  C   UNL A   1      40.219  26.174  28.278  1.00  0.00     0.014 A 
ATOM     39  C   UNL A   1      41.968  28.325  28.502  1.00  0.00     0.010 A 
ATOM     40  C   UNL A   1      40.065  27.083  29.316  1.00  0.00     0.010 A 
ATOM     41  C   UNL A   1      40.950  28.157  29.455  1.00  0.00    -0.014 A 
BRANCH  41  42
ATOM     42  C   UNL A   1      40.801  29.073  30.616  1.00  0.00     0.031 A 
ATOM     43  C   UNL A   1      41.639  28.867  31.852  1.00  0.00     0.074 A 
ATOM     44  C   UNL A   1      39.850  30.029  30.595  1.00  0.00     0.049 A 
ATOM     45  N   UNL A   1      41.602  29.510  32.992  1.00  0.00    -0.248 NA
ATOM     46  C   UNL A   1      42.620  27.769  31.819  1.00  0.00     0.031 C 
ATOM     47  C   UNL A   1      38.924  30.281  29.488  1.00  0.00     0.029 A 
ATOM     48  N   UNL A   1      39.494  30.958  31.540  1.00  0.00    -0.354 N 
ATOM     49  C   UNL A   1      42.525  28.872  33.814  1.00  0.00     0.074 A 
ATOM     50  C   UNL A   1      43.057  27.755  33.067  1.00  0.00     0.031 C 
ATOM     51  C   UNL A   1      38.129  31.314  29.805  1.00  0.00     0.029 A 
ATOM     52  C   UNL A   1      38.452  31.768  31.153  1.00  0.00     0.049 A 
ATOM     53  H   UNL A   1      39.942  31.038  32.413  1.00  0.00     0.167 HD
ATOM     54  C   UNL A   1      42.911  29.198  35.070  1.00  0.00     0.031 A 
ATOM     55  C   UNL A   1      37.817  32.758  31.810  1.00  0.00     0.031 A 
ATOM     56  C   UNL A   1      42.387  30.321  35.800  1.00  0.00     0.049 A 
ATOM     57  C   UNL A   1      38.279  33.124  33.193  1.00  0.00     0.074 A 
ATOM     58  C   UNL A   1      42.769  30.795  37.041  1.00  0.00     0.029 A 
ATOM     59  N   UNL A   1      41.361  31.143  35.355  1.00  0.00    -0.354 N 
ATOM     60  N   UNL A   1      39.223  32.572  33.918  1.00  0.00    -0.248 NA
ATOM     61  C   UNL A   1      37.601  34.255  33.841  1.00  0.00     0.031 C 
ATOM     62  C   UNL A   1      41.928  31.860  37.377  1.00  0.00     0.029 A 
ATOM     63  C   UNL A   1      41.070  32.098  36.314  1.00  0.00     0.049 A 
ATOM     64  H   UNL A   1      40.906  31.058  34.486  1.00  0.00     0.167 HD
ATOM     65  C   UNL A   1      39.267  33.299  35.102  1.00  0.00     0.074 A 
ATOM     66  C   UNL A   1      38.268  34.344  34.985  1.00  0.00     0.031 C 
ATOM     67  C   UNL A   1      40.063  33.121  36.186  1.00  0.00     0.031 A 
BRANCH  54  68
ATOM     68  C   UNL A   1      43.937  28.313  35.735  1.00  0.00    -0.014 A 
ATOM     69  C   UNL A   1      45.316  28.550  35.593  1.00  0.00     0.010 A 
ATOM     70  C   UNL A   1      43.511  27.227  36.522  1.00  0.00     0.010 A 
ATOM     71  C   UNL A   1      46.249  27.683  36.170  1.00  0.00     0.020 A 
ATOM     72  C   UNL A   1      44.441  26.379  37.132  1.00  0.00     0.020 A 
ATOM     73  C   UNL A   1      45.805  26.598  36.931  1.00  0.00     0.054 A 
BRANCH  73  74
ATOM     74  S   UNL A   1      47.036  25.488  37.664  1.00  0.00     0.124 S 
ATOM     75  O   UNL A   1      46.196  24.563  38.421  1.00  0.00    -0.237 OA
ATOM     76  O   UNL A   1      47.694  24.919  36.490  1.00  0.00    -0.237 OA
ATOM     77  O   UNL A   1      47.869  26.377  38.471  1.00  0.00    -0.744 OA
ENDBRANCH  73  74
ENDBRANCH  54  68
BRANCH  55  78
ATOM     78  C   UNL A   1      36.687  33.469  31.152  1.00  0.00    -0.014 A 
ATOM     79  C   UNL A   1      36.884  34.188  29.960  1.00  0.00     0.010 A 
ATOM     80  C   UNL A   1      35.388  33.382  31.689  1.00  0.00     0.010 A 
ATOM     81  C   UNL A   1      35.806  34.808  29.319  1.00  0.00     0.020 A 
ATOM     82  C   UNL A   1      34.304  33.973  31.036  1.00  0.00     0.020 A 
ATOM     83  C   UNL A   1      34.520  34.688  29.856  1.00  0.00     0.054 A 
BRANCH  83  84
ATOM     84  S   UNL A   1      33.124  35.425  28.961  1.00  0.00     0.124 S 
ATOM     85  O   UNL A   1      33.778  36.485  28.199  1.00  0.00    -0.237 OA
ATOM     86  O   UNL A   1      32.623  34.299  28.177  1.00  0.00    -0.237 OA
ATOM     87  O   UNL A   1      32.233  35.876  30.027  1.00  0.00    -0.744 OA
ENDBRANCH  83  84
ENDBRANCH  55  78
BRANCH  67  88
ATOM     88  C   UNL A   1      39.904  34.090  37.329  1.00  0.00    -0.014 A 
ATOM     89  C   UNL A   1      40.578  35.324  37.339  1.00  0.00     0.010 A 
ATOM     90  C   UNL A   1      39.020  33.782  38.380  1.00  0.00     0.010 A 
ATOM     91  C   UNL A   1      40.397  36.218  38.398  1.00  0.00     0.020 A 
ATOM     92  C   UNL A   1      38.812  34.687  39.423  1.00  0.00     0.020 A 
ATOM     93  C   UNL A   1      39.514  35.893  39.433  1.00  0.00     0.054 A 
BRANCH  93  94
ATOM     94  S   UNL A   1      39.265  37.088  40.774  1.00  0.00     0.124 S 
ATOM     95  O   UNL A   1      38.634  36.265  41.802  1.00  0.00    -0.237 OA
ATOM     96  O   UNL A   1      40.628  37.526  41.068  1.00  0.00    -0.237 OA
ATOM     97  O   UNL A   1      38.405  38.106  40.176  1.00  0.00    -0.744 OA
ENDBRANCH  93  94
ENDBRANCH  67  88
ENDBRANCH  41  42
ENDBRANCH  33  36
ENDBRANCH  31  32
ENDBRANCH   1  31
TORSDOF 17
ENDMDL
MODEL 2
REMARK VINA RESULT:     -12.5      6.638     12.390
REMARK SMILES CC[NH+]1CCN(c2ccc(NC(=O)C3CCCC3)c(C(=O)NCCCNC(=O)c3ccc(-c4c5nc(c(-c6ccc(S(=O)(=O)[O-])cc6)c6ccc([nH]6)c(-c6ccc(S(=O)(=O)[O-])cc6)c6nc(c(-c7ccc(S(=O)(=O)[O-])cc7)c7ccc4[nH]7)C=C6)C=C5)cc3)c2)CC1
REMARK SMILES IDX 24 1 23 2 22 3 20 4 21 5 19 7 7 8 8 9 89 10 9 11 10 12 6 13
REMARK SMILES IDX 3 14 4 15 91 16 5 18 90 19 2 20 1 21 11 22 12 23 13 25 14 26
REMARK SMILES IDX 15 27 18 28 16 29 17 30 25 31 26 32 27 33 28 35 29 36 30 37
REMARK SMILES IDX 88 38 31 39 87 40 32 41 33 42 34 43 81 44 35 45 86 46 80 47
REMARK SMILES IDX 82 48 36 49 85 50 79 51 78 52 37 54 67 55 48 56 66 57 49 58
REMARK SMILES IDX 52 59 65 60 83 61 50 62 51 63 64 65 84 66 53 67 38 68 39 69
REMARK SMILES IDX 47 70 40 71 46 72 41 73 42 74 43 75 44 76 45 77 68 78 69 79
REMARK SMILES IDX 77 80 70 81 76 82 71 83 72 84 73 85 74 86 75 87 54 88 55 89
REMARK SMILES IDX 63 90 56 91 62 92 57 93 58 94 59 95 60 96 61 97
REMARK H PARENT 22 6 3 17 11 24 26 34 82 53 52 64
REMARK Flexibility Score: inf
ROOT
ATOM      1  C   UNL A   1      35.127  30.134  27.608  1.00  0.00     0.042 C 
ENDROOT
BRANCH   1   2
ATOM      2  C   UNL A   1      34.203  29.224  26.826  1.00  0.00     0.118 C 
BRANCH   2   3
ATOM      3  N   UNL A   1      33.068  28.691  27.568  1.00  0.00    -0.352 N 
ATOM      4  C   UNL A   1      31.886  28.103  27.156  1.00  0.00     0.253 C 
ATOM      5  O   UNL A   1      31.100  27.745  28.037  1.00  0.00    -0.269 OA
ATOM      6  H   UNL A   1      33.159  28.762  28.546  1.00  0.00     0.163 HD
BRANCH   4   7
ATOM      7  C   UNL A   1      31.500  27.906  25.720  1.00  0.00     0.065 A 
ATOM      8  C   UNL A   1      30.693  28.896  23.661  1.00  0.00     0.038 A 
ATOM      9  C   UNL A   1      30.550  27.631  23.119  1.00  0.00     0.028 A 
ATOM     10  C   UNL A   1      31.396  28.997  24.852  1.00  0.00     0.042 A 
ATOM     11  C   UNL A   1      30.926  26.510  23.853  1.00  0.00     0.029 A 
ATOM     12  C   UNL A   1      31.167  26.625  25.213  1.00  0.00     0.054 A 
BRANCH   8  13
ATOM     13  N   UNL A   1      30.060  29.986  23.113  1.00  0.00    -0.360 N 
ATOM     14  N   UNL A   1      27.611  31.362  22.228  1.00  0.00    -0.332 N 
ATOM     15  C   UNL A   1      28.126  30.184  21.514  1.00  0.00     0.283 C 
ATOM     16  C   UNL A   1      27.964  31.235  23.659  1.00  0.00     0.283 C 
ATOM     17  H   UNL A   1      26.602  31.345  22.080  1.00  0.00     0.348 HD
ATOM     18  C   UNL A   1      29.632  29.881  21.701  1.00  0.00     0.178 C 
ATOM     19  C   UNL A   1      29.474  31.041  23.937  1.00  0.00     0.178 C 
BRANCH  14  20
ATOM     20  C   UNL A   1      27.967  32.686  21.697  1.00  0.00     0.258 C 
ATOM     21  C   UNL A   1      27.621  33.013  20.247  1.00  0.00     0.071 C 
ENDBRANCH  14  20
ENDBRANCH   8  13
BRANCH  12  22
ATOM     22  N   UNL A   1      31.053  25.503  26.057  1.00  0.00    -0.325 N 
ATOM     23  C   UNL A   1      31.948  24.616  26.586  1.00  0.00     0.227 C 
ATOM     24  H   UNL A   1      30.124  25.316  26.324  1.00  0.00     0.169 HD
ATOM     25  O   UNL A   1      31.476  23.789  27.382  1.00  0.00    -0.274 OA
BRANCH  23  26
ATOM     26  C   UNL A   1      33.473  24.590  26.319  1.00  0.00     0.079 C 
ATOM     27  C   UNL A   1      34.022  23.198  26.695  1.00  0.00     0.013 C 
ATOM     28  C   UNL A   1      34.031  24.746  24.901  1.00  0.00     0.013 C 
ATOM     29  C   UNL A   1      35.413  23.138  26.089  1.00  0.00     0.001 C 
ATOM     30  C   UNL A   1      35.308  23.919  24.797  1.00  0.00     0.001 C 
ENDBRANCH  23  26
ENDBRANCH  12  22
ENDBRANCH   4   7
ENDBRANCH   2   3
ENDBRANCH   1   2
BRANCH   1  31
ATOM     31  C   UNL A   1      35.658  29.558  28.904  1.00  0.00     0.118 C 
BRANCH  31  32
ATOM     32  N   UNL A   1      35.687  30.524  29.998  1.00  0.00    -0.352 N 
ATOM     33  C   UNL A   1      36.733  30.988  30.762  1.00  0.00     0.251 C 
ATOM     34  H   UNL A   1      34.810  30.907  30.228  1.00  0.00     0.163 HD
ATOM     35  O   UNL A   1      36.491  31.671  31.759  1.00  0.00    -0.269 OA
BRANCH  33  36
ATOM     36  C   UNL A   1      38.133  30.652  30.420  1.00  0.00     0.039 A 
ATOM     37  C   UNL A   1      38.950  30.043  31.377  1.00  0.00     0.014 A 
ATOM     38  C   UNL A   1      38.649  30.939  29.157  1.00  0.00     0.014 A 
ATOM     39  C   UNL A   1      40.245  29.645  31.031  1.00  0.00     0.010 A 
ATOM     40  C   UNL A   1      39.877  30.417  28.774  1.00  0.00     0.010 A 
ATOM     41  C   UNL A   1      40.702  29.784  29.711  1.00  0.00    -0.014 A 
BRANCH  41  42
ATOM     42  C   UNL A   1      42.040  29.297  29.285  1.00  0.00     0.031 A 
ATOM     43  C   UNL A   1      43.206  30.252  29.228  1.00  0.00     0.074 A 
ATOM     44  C   UNL A   1      42.186  28.025  28.864  1.00  0.00     0.049 A 
ATOM     45  N   UNL A   1      44.428  30.038  28.811  1.00  0.00    -0.248 NA
ATOM     46  C   UNL A   1      42.955  31.639  29.654  1.00  0.00     0.031 C 
ATOM     47  C   UNL A   1      41.118  27.025  28.801  1.00  0.00     0.029 A 
ATOM     48  N   UNL A   1      43.290  27.359  28.394  1.00  0.00    -0.354 N 
ATOM     49  C   UNL A   1      45.075  31.267  28.895  1.00  0.00     0.074 A 
ATOM     50  C   UNL A   1      44.095  32.232  29.338  1.00  0.00     0.031 C 
ATOM     51  C   UNL A   1      41.625  25.867  28.350  1.00  0.00     0.029 A 
ATOM     52  C   UNL A   1      43.039  26.052  28.045  1.00  0.00     0.049 A 
ATOM     53  H   UNL A   1      44.178  27.776  28.314  1.00  0.00     0.167 HD
ATOM     54  C   UNL A   1      46.373  31.562  28.646  1.00  0.00     0.031 A 
ATOM     55  C   UNL A   1      43.851  25.109  27.527  1.00  0.00     0.031 A 
ATOM     56  C   UNL A   1      47.345  30.592  28.222  1.00  0.00     0.049 A 
ATOM     57  C   UNL A   1      45.295  25.449  27.284  1.00  0.00     0.074 A 
ATOM     58  C   UNL A   1      48.702  30.762  28.026  1.00  0.00     0.029 A 
ATOM     59  N   UNL A   1      47.059  29.268  27.919  1.00  0.00    -0.354 N 
ATOM     60  N   UNL A   1      45.913  26.592  27.464  1.00  0.00    -0.248 NA
ATOM     61  C   UNL A   1      46.155  24.368  26.784  1.00  0.00     0.031 C 
ATOM     62  C   UNL A   1      49.226  29.560  27.539  1.00  0.00     0.029 A 
ATOM     63  C   UNL A   1      48.208  28.619  27.502  1.00  0.00     0.049 A 
ATOM     64  H   UNL A   1      46.169  28.852  27.990  1.00  0.00     0.167 HD
ATOM     65  C   UNL A   1      47.240  26.365  27.116  1.00  0.00     0.074 A 
ATOM     66  C   UNL A   1      47.336  24.969  26.737  1.00  0.00     0.031 C 
ATOM     67  C   UNL A   1      48.283  27.232  27.114  1.00  0.00     0.031 A 
BRANCH  54  68
ATOM     68  C   UNL A   1      46.803  32.999  28.812  1.00  0.00    -0.014 A 
ATOM     69  C   UNL A   1      46.740  33.915  27.745  1.00  0.00     0.010 A 
ATOM     70  C   UNL A   1      47.274  33.444  30.061  1.00  0.00     0.010 A 
ATOM     71  C   UNL A   1      47.198  35.226  27.905  1.00  0.00     0.020 A 
ATOM     72  C   UNL A   1      47.699  34.764  30.236  1.00  0.00     0.020 A 
ATOM     73  C   UNL A   1      47.681  35.640  29.150  1.00  0.00     0.054 A 
BRANCH  73  74
ATOM     74  S   UNL A   1      48.273  37.344  29.328  1.00  0.00     0.124 S 
ATOM     75  O   UNL A   1      49.656  37.140  29.752  1.00  0.00    -0.237 OA
ATOM     76  O   UNL A   1      48.103  37.885  27.981  1.00  0.00    -0.237 OA
ATOM     77  O   UNL A   1      47.389  37.915  30.341  1.00  0.00    -0.744 OA
ENDBRANCH  73  74
ENDBRANCH  54  68
BRANCH  55  78
ATOM     78  C   UNL A   1      43.304  23.759  27.220  1.00  0.00    -0.014 A 
ATOM     79  C   UNL A   1      42.963  23.402  25.904  1.00  0.00     0.010 A 
ATOM     80  C   UNL A   1      43.175  22.800  28.242  1.00  0.00     0.010 A 
ATOM     81  C   UNL A   1      42.502  22.113  25.615  1.00  0.00     0.020 A 
ATOM     82  C   UNL A   1      42.744  21.502  27.954  1.00  0.00     0.020 A 
ATOM     83  C   UNL A   1      42.405  21.168  26.642  1.00  0.00     0.054 A 
BRANCH  83  84
ATOM     84  S   UNL A   1      41.889  19.478  26.230  1.00  0.00     0.124 S 
ATOM     85  O   UNL A   1      42.651  19.215  25.013  1.00  0.00    -0.237 OA
ATOM     86  O   UNL A   1      42.302  18.725  27.412  1.00  0.00    -0.237 OA
ATOM     87  O   UNL A   1      40.443  19.594  26.051  1.00  0.00    -0.744 OA
ENDBRANCH  83  84
ENDBRANCH  55  78
BRANCH  67  88
ATOM     88  C   UNL A   1      49.631  26.694  26.709  1.00  0.00    -0.014 A 
ATOM     89  C   UNL A   1      50.066  26.745  25.373  1.00  0.00     0.010 A 
ATOM     90  C   UNL A   1      50.496  26.182  27.693  1.00  0.00     0.010 A 
ATOM     91  C   UNL A   1      51.330  26.262  25.024  1.00  0.00     0.020 A 
ATOM     92  C   UNL A   1      51.772  25.728  27.353  1.00  0.00     0.020 A 
ATOM     93  C   UNL A   1      52.175  25.758  26.017  1.00  0.00     0.054 A 
BRANCH  93  94
ATOM     94  S   UNL A   1      53.826  25.175  25.544  1.00  0.00     0.124 S 
ATOM     95  O   UNL A   1      54.357  26.324  24.816  1.00  0.00    -0.237 OA
ATOM     96  O   UNL A   1      54.452  24.905  26.836  1.00  0.00    -0.237 OA
ATOM     97  O   UNL A   1      53.556  23.993  24.730  1.00  0.00    -0.744 OA
ENDBRANCH  93  94
ENDBRANCH  67  88
ENDBRANCH  41  42
ENDBRANCH  33  36
ENDBRANCH  31  32
ENDBRANCH   1  31
TORSDOF 17
ENDMDL
MODEL 3
REMARK VINA RESULT:     -12.2      1.211      4.252
REMARK SMILES CC[NH+]1CCN(c2ccc(NC(=O)C3CCCC3)c(C(=O)NCCCNC(=O)c3ccc(-c4c5nc(c(-c6ccc(S(=O)(=O)[O-])cc6)c6ccc([nH]6)c(-c6ccc(S(=O)(=O)[O-])cc6)c6nc(c(-c7ccc(S(=O)(=O)[O-])cc7)c7ccc4[nH]7)C=C6)C=C5)cc3)c2)CC1
REMARK SMILES IDX 24 1 23 2 22 3 20 4 21 5 19 7 7 8 8 9 89 10 9 11 10 12 6 13
REMARK SMILES IDX 3 14 4 15 91 16 5 18 90 19 2 20 1 21 11 22 12 23 13 25 14 26
REMARK SMILES IDX 15 27 18 28 16 29 17 30 25 31 26 32 27 33 28 35 29 36 30 37
REMARK SMILES IDX 88 38 31 39 87 40 32 41 33 42 34 43 81 44 35 45 86 46 80 47
REMARK SMILES IDX 82 48 36 49 85 50 79 51 78 52 37 54 67 55 48 56 66 57 49 58
REMARK SMILES IDX 52 59 65 60 83 61 50 62 51 63 64 65 84 66 53 67 38 68 39 69
REMARK SMILES IDX 47 70 40 71 46 72 41 73 42 74 43 75 44 76 45 77 68 78 69 79
REMARK SMILES IDX 77 80 70 81 76 82 71 83 72 84 73 85 74 86 75 87 54 88 55 89
REMARK SMILES IDX 63 90 56 91 62 92 57 93 58 94 59 95 60 96 61 97
REMARK H PARENT 22 6 3 17 11 24 26 34 82 53 52 64
REMARK Flexibility Score: inf
ROOT
ATOM      1  C   UNL A   1      38.863  22.636  26.475  1.00  0.00     0.042 C 
ENDROOT
BRANCH   1   2
ATOM      2  C   UNL A   1      37.905  23.615  25.829  1.00  0.00     0.118 C 
BRANCH   2   3
ATOM      3  N   UNL A   1      37.647  23.401  24.410  1.00  0.00    -0.352 N 
ATOM      4  C   UNL A   1      36.477  23.202  23.702  1.00  0.00     0.253 C 
ATOM      5  O   UNL A   1      36.578  23.046  22.483  1.00  0.00    -0.269 OA
ATOM      6  H   UNL A   1      38.458  23.399  23.852  1.00  0.00     0.163 HD
BRANCH   4   7
ATOM      7  C   UNL A   1      35.115  23.137  24.327  1.00  0.00     0.065 A 
ATOM      8  C   UNL A   1      33.230  24.340  25.259  1.00  0.00     0.038 A 
ATOM      9  C   UNL A   1      32.690  23.142  25.691  1.00  0.00     0.028 A 
ATOM     10  C   UNL A   1      34.298  24.270  24.377  1.00  0.00     0.042 A 
ATOM     11  C   UNL A   1      33.331  21.942  25.400  1.00  0.00     0.029 A 
ATOM     12  C   UNL A   1      34.638  21.952  24.941  1.00  0.00     0.054 A 
BRANCH   8  13
ATOM     13  N   UNL A   1      32.811  25.543  25.778  1.00  0.00    -0.360 N 
ATOM     14  N   UNL A   1      32.047  28.366  25.432  1.00  0.00    -0.332 N 
ATOM     15  C   UNL A   1      33.435  27.920  25.236  1.00  0.00     0.283 C 
ATOM     16  C   UNL A   1      31.141  27.259  25.058  1.00  0.00     0.283 C 
ATOM     17  H   UNL A   1      31.936  29.174  24.821  1.00  0.00     0.348 HD
ATOM     18  C   UNL A   1      33.831  26.601  25.942  1.00  0.00     0.178 C 
ATOM     19  C   UNL A   1      31.402  25.929  25.807  1.00  0.00     0.178 C 
BRANCH  14  20
ATOM     20  C   UNL A   1      31.698  28.934  26.743  1.00  0.00     0.258 C 
ATOM     21  C   UNL A   1      31.810  30.442  26.943  1.00  0.00     0.071 C 
ENDBRANCH  14  20
ENDBRANCH   8  13
BRANCH  12  22
ATOM     22  N   UNL A   1      35.465  20.824  25.112  1.00  0.00    -0.325 N 
ATOM     23  C   UNL A   1      35.296  19.483  24.914  1.00  0.00     0.227 C 
ATOM     24  H   UNL A   1      36.362  21.052  25.448  1.00  0.00     0.169 HD
ATOM     25  O   UNL A   1      36.306  18.783  25.091  1.00  0.00    -0.274 OA
BRANCH  23  26
ATOM     26  C   UNL A   1      33.993  18.786  24.451  1.00  0.00     0.079 C 
ATOM     27  C   UNL A   1      34.353  17.431  23.806  1.00  0.00     0.013 C 
ATOM     28  C   UNL A   1      32.926  18.350  25.461  1.00  0.00     0.013 C 
ATOM     29  C   UNL A   1      33.041  16.673  23.704  1.00  0.00     0.001 C 
ATOM     30  C   UNL A   1      32.257  17.085  24.932  1.00  0.00     0.001 C 
ENDBRANCH  23  26
ENDBRANCH  12  22
ENDBRANCH   4   7
ENDBRANCH   2   3
ENDBRANCH   1   2
BRANCH   1  31
ATOM     31  C   UNL A   1      40.085  23.257  27.119  1.00  0.00     0.118 C 
BRANCH  31  32
ATOM     32  N   UNL A   1      41.006  23.853  26.156  1.00  0.00    -0.352 N 
ATOM     33  C   UNL A   1      41.467  25.143  26.031  1.00  0.00     0.251 C 
ATOM     34  H   UNL A   1      41.355  23.227  25.482  1.00  0.00     0.163 HD
ATOM     35  O   UNL A   1      42.102  25.459  25.022  1.00  0.00    -0.269 OA
BRANCH  33  36
ATOM     36  C   UNL A   1      41.185  26.156  27.072  1.00  0.00     0.039 A 
ATOM     37  C   UNL A   1      40.220  25.892  28.049  1.00  0.00     0.014 A 
ATOM     38  C   UNL A   1      41.866  27.373  27.090  1.00  0.00     0.014 A 
ATOM     39  C   UNL A   1      40.011  26.809  29.084  1.00  0.00     0.010 A 
ATOM     40  C   UNL A   1      41.761  28.211  28.192  1.00  0.00     0.010 A 
ATOM     41  C   UNL A   1      40.817  27.953  29.192  1.00  0.00    -0.014 A 
BRANCH  41  42
ATOM     42  C   UNL A   1      40.682  28.907  30.323  1.00  0.00     0.031 A 
ATOM     43  C   UNL A   1      41.546  28.750  31.549  1.00  0.00     0.074 A 
ATOM     44  C   UNL A   1      39.722  29.853  30.288  1.00  0.00     0.049 A 
ATOM     45  N   UNL A   1      41.524  29.431  32.667  1.00  0.00    -0.248 NA
ATOM     46  C   UNL A   1      42.535  27.660  31.534  1.00  0.00     0.031 C 
ATOM     47  C   UNL A   1      38.773  30.059  29.192  1.00  0.00     0.029 A 
ATOM     48  N   UNL A   1      39.376  30.811  31.208  1.00  0.00    -0.354 N 
ATOM     49  C   UNL A   1      42.469  28.830  33.492  1.00  0.00     0.074 A 
ATOM     50  C   UNL A   1      42.997  27.693  32.774  1.00  0.00     0.031 C 
ATOM     51  C   UNL A   1      37.974  31.095  29.489  1.00  0.00     0.029 A 
ATOM     52  C   UNL A   1      38.319  31.598  30.814  1.00  0.00     0.049 A 
ATOM     53  H   UNL A   1      39.840  30.925  32.069  1.00  0.00     0.167 HD
ATOM     54  C   UNL A   1      42.876  29.202  34.729  1.00  0.00     0.031 A 
ATOM     55  C   UNL A   1      37.688  32.605  31.449  1.00  0.00     0.031 A 
ATOM     56  C   UNL A   1      42.356  30.345  35.429  1.00  0.00     0.049 A 
ATOM     57  C   UNL A   1      38.173  33.022  32.810  1.00  0.00     0.074 A 
ATOM     58  C   UNL A   1      42.758  30.864  36.646  1.00  0.00     0.029 A 
ATOM     59  N   UNL A   1      41.314  31.143  34.977  1.00  0.00    -0.354 N 
ATOM     60  N   UNL A   1      39.135  32.503  33.535  1.00  0.00    -0.248 NA
ATOM     61  C   UNL A   1      37.497  34.168  33.432  1.00  0.00     0.031 C 
ATOM     62  C   UNL A   1      41.913  31.934  36.962  1.00  0.00     0.029 A 
ATOM     63  C   UNL A   1      41.033  32.128  35.908  1.00  0.00     0.049 A 
ATOM     64  H   UNL A   1      40.844  31.024  34.120  1.00  0.00     0.167 HD
ATOM     65  C   UNL A   1      39.196  33.271  34.692  1.00  0.00     0.074 A 
ATOM     66  C   UNL A   1      38.185  34.302  34.558  1.00  0.00     0.031 C 
ATOM     67  C   UNL A   1      40.014  33.137  35.765  1.00  0.00     0.031 A 
BRANCH  54  68
ATOM     68  C   UNL A   1      43.923  28.349  35.403  1.00  0.00    -0.014 A 
ATOM     69  C   UNL A   1      43.573  27.213  36.156  1.00  0.00     0.010 A 
ATOM     70  C   UNL A   1      45.282  28.687  35.274  1.00  0.00     0.010 A 
ATOM     71  C   UNL A   1      44.554  26.471  36.820  1.00  0.00     0.020 A 
ATOM     72  C   UNL A   1      46.270  27.926  35.906  1.00  0.00     0.020 A 
ATOM     73  C   UNL A   1      45.898  26.836  36.696  1.00  0.00     0.054 A 
BRANCH  73  74
ATOM     74  S   UNL A   1      47.149  25.859  37.570  1.00  0.00     0.124 S 
ATOM     75  O   UNL A   1      46.341  24.792  38.158  1.00  0.00    -0.237 OA
ATOM     76  O   UNL A   1      48.044  25.445  36.492  1.00  0.00    -0.237 OA
ATOM     77  O   UNL A   1      47.723  26.803  38.525  1.00  0.00    -0.744 OA
ENDBRANCH  73  74
ENDBRANCH  54  68
BRANCH  55  78
ATOM     78  C   UNL A   1      36.539  33.283  30.789  1.00  0.00    -0.014 A 
ATOM     79  C   UNL A   1      35.233  33.141  31.288  1.00  0.00     0.010 A 
ATOM     80  C   UNL A   1      36.758  34.127  29.683  1.00  0.00     0.010 A 
ATOM     81  C   UNL A   1      34.168  33.826  30.695  1.00  0.00     0.020 A 
ATOM     82  C   UNL A   1      35.702  34.837  29.106  1.00  0.00     0.020 A 
ATOM     83  C   UNL A   1      34.411  34.678  29.612  1.00  0.00     0.054 A 
BRANCH  83  84
ATOM     84  S   UNL A   1      33.028  35.624  28.914  1.00  0.00     0.124 S 
ATOM     85  O   UNL A   1      32.345  34.615  28.110  1.00  0.00    -0.237 OA
ATOM     86  O   UNL A   1      32.316  36.069  30.110  1.00  0.00    -0.237 OA
ATOM     87  O   UNL A   1      33.686  36.688  28.160  1.00  0.00    -0.744 OA
ENDBRANCH  83  84
ENDBRANCH  55  78
BRANCH  67  88
ATOM     88  C   UNL A   1      39.869  34.143  36.877  1.00  0.00    -0.014 A 
ATOM     89  C   UNL A   1      40.589  35.351  36.869  1.00  0.00     0.010 A 
ATOM     90  C   UNL A   1      38.952  33.899  37.916  1.00  0.00     0.010 A 
ATOM     91  C   UNL A   1      40.420  36.280  37.898  1.00  0.00     0.020 A 
ATOM     92  C   UNL A   1      38.756  34.840  38.929  1.00  0.00     0.020 A 
ATOM     93  C   UNL A   1      39.503  36.019  38.921  1.00  0.00     0.054 A 
BRANCH  93  94
ATOM     94  S   UNL A   1      39.273  37.260  40.223  1.00  0.00     0.124 S 
ATOM     95  O   UNL A   1      38.663  36.471  41.291  1.00  0.00    -0.237 OA
ATOM     96  O   UNL A   1      40.638  37.714  40.477  1.00  0.00    -0.237 OA
ATOM     97  O   UNL A   1      38.397  38.252  39.605  1.00  0.00    -0.744 OA
ENDBRANCH  93  94
ENDBRANCH  67  88
ENDBRANCH  41  42
ENDBRANCH  33  36
ENDBRANCH  31  32
ENDBRANCH   1  31
TORSDOF 17
ENDMDL
