MODEL 1
REMARK VINA RESULT:     -11.7      0.000      0.000
REMARK SMILES Nc1ncccc1C[N@@H+]1CC2(CC[NH2+]CC2)C[C@H]1C(=O)NCCCNC(=O)c1ccc(-c2c3nc(c(-c4ccc(S(=O)(=O)[O-])cc4)c4ccc([nH]4)c(-c4ccc(S(=O)(=O)[O-])cc4)c4nc(c(-c5ccc(S(=O)(=O)[O-])cc5)c5ccc2[nH]5)C=C4)C=C3)cc1
REMARK SMILES IDX 23 1 22 2 21 3 19 4 20 5 18 7 9 8 10 9 11 11 17 12 12 13
REMARK SMILES IDX 16 14 13 15 15 16 14 17 8 20 7 21 2 22 3 23 4 24 6 25 5 26
REMARK SMILES IDX 1 27 24 30 25 31 26 32 27 34 28 35 29 36 87 37 30 38 86 39
REMARK SMILES IDX 31 40 32 41 33 42 80 43 34 44 85 45 79 46 81 47 35 48 84 49
REMARK SMILES IDX 78 50 77 51 36 53 66 54 47 55 65 56 48 57 51 58 64 59 82 60
REMARK SMILES IDX 49 61 50 62 63 64 83 65 52 66 37 67 38 68 46 69 39 70 45 71
REMARK SMILES IDX 40 72 41 73 42 74 43 75 44 76 67 77 68 78 76 79 69 80 75 81
REMARK SMILES IDX 70 82 71 83 72 84 73 85 74 86 53 87 54 88 62 89 55 90 61 91
REMARK SMILES IDX 56 92 57 93 58 94 59 95 60 96
REMARK H PARENT 21 6 9 10 14 18 14 19 1 28 1 29 25 33 81 52 51 63
REMARK Flexibility Score: inf
ROOT
ATOM      1  C   UNL A   1      34.045  28.218  25.911  1.00  0.00     0.042 C 
ENDROOT
BRANCH   1   2
ATOM      2  C   UNL A   1      33.045  27.952  24.805  1.00  0.00     0.118 C 
BRANCH   2   3
ATOM      3  N   UNL A   1      33.554  27.435  23.576  1.00  0.00    -0.351 N 
ATOM      4  C   UNL A   1      33.564  26.135  23.156  1.00  0.00     0.278 C 
ATOM      5  O   UNL A   1      33.850  25.970  21.961  1.00  0.00    -0.268 OA
ATOM      6  H   UNL A   1      33.943  28.094  22.955  1.00  0.00     0.163 HD
BRANCH   4   7
ATOM      7  C   UNL A   1      33.291  24.888  24.072  1.00  0.00     0.275 C 
ATOM      8  N   UNL A   1      33.350  23.642  23.290  1.00  0.00    -0.320 N 
ATOM      9  C   UNL A   1      34.525  22.870  23.732  1.00  0.00     0.270 C 
ATOM     10  H   UNL A   1      33.504  23.838  22.300  1.00  0.00     0.349 HD
ATOM     11  C   UNL A   1      35.007  23.396  25.123  1.00  0.00     0.036 C 
ATOM     12  C   UNL A   1      34.070  24.606  25.369  1.00  0.00     0.089 C 
ATOM     13  C   UNL A   1      36.477  23.878  25.350  1.00  0.00     0.074 C 
ATOM     14  C   UNL A   1      34.936  22.214  26.127  1.00  0.00     0.074 C 
ATOM     15  C   UNL A   1      37.517  22.829  24.992  1.00  0.00     0.261 C 
ATOM     16  C   UNL A   1      35.993  21.137  25.795  1.00  0.00     0.261 C 
ATOM     17  N   UNL A   1      37.359  21.653  25.842  1.00  0.00    -0.346 N 
ATOM     18  H   UNL A   1      37.584  21.907  26.804  1.00  0.00     0.346 HD
ATOM     19  H   UNL A   1      37.987  20.925  25.501  1.00  0.00     0.346 HD
BRANCH   8  20
ATOM     20  C   UNL A   1      32.044  22.931  23.218  1.00  0.00     0.303 C 
BRANCH  20  21
ATOM     21  C   UNL A   1      32.019  21.473  23.650  1.00  0.00     0.048 A 
ATOM     22  C   UNL A   1      31.901  21.062  24.981  1.00  0.00     0.132 A 
ATOM     23  N   UNL A   1      32.229  19.821  25.397  1.00  0.00    -0.239 NA
ATOM     24  C   UNL A   1      32.593  18.922  24.464  1.00  0.00     0.113 A 
ATOM     25  C   UNL A   1      32.224  20.467  22.701  1.00  0.00     0.015 A 
ATOM     26  C   UNL A   1      32.548  19.178  23.110  1.00  0.00     0.021 A 
BRANCH  22  27
ATOM     27  N   UNL A   1      31.480  21.902  25.991  1.00  0.00    -0.383 N 
ATOM     28  H   UNL A   1      32.038  22.668  26.258  1.00  0.00     0.158 HD
ATOM     29  H   UNL A   1      30.623  21.735  26.445  1.00  0.00     0.158 HD
ENDBRANCH  22  27
ENDBRANCH  20  21
ENDBRANCH   8  20
ENDBRANCH   4   7
ENDBRANCH   2   3
ENDBRANCH   1   2
BRANCH   1  30
ATOM     30  C   UNL A   1      33.394  28.614  27.223  1.00  0.00     0.118 C 
BRANCH  30  31
ATOM     31  N   UNL A   1      33.481  30.049  27.498  1.00  0.00    -0.352 N 
ATOM     32  C   UNL A   1      34.493  30.806  28.047  1.00  0.00     0.251 C 
ATOM     33  H   UNL A   1      32.678  30.561  27.247  1.00  0.00     0.163 HD
ATOM     34  O   UNL A   1      34.287  31.981  28.314  1.00  0.00    -0.269 OA
BRANCH  32  35
ATOM     35  C   UNL A   1      35.809  30.194  28.336  1.00  0.00     0.039 A 
ATOM     36  C   UNL A   1      36.801  30.205  27.350  1.00  0.00     0.014 A 
ATOM     37  C   UNL A   1      36.071  29.620  29.579  1.00  0.00     0.014 A 
ATOM     38  C   UNL A   1      38.078  29.723  27.647  1.00  0.00     0.010 A 
ATOM     39  C   UNL A   1      37.368  29.257  29.912  1.00  0.00     0.010 A 
ATOM     40  C   UNL A   1      38.385  29.295  28.948  1.00  0.00    -0.014 A 
BRANCH  40  41
ATOM     41  C   UNL A   1      39.753  28.870  29.337  1.00  0.00     0.031 A 
ATOM     42  C   UNL A   1      40.653  29.826  30.074  1.00  0.00     0.074 A 
ATOM     43  C   UNL A   1      40.215  27.667  28.942  1.00  0.00     0.049 A 
ATOM     44  N   UNL A   1      41.907  29.681  30.414  1.00  0.00    -0.248 NA
ATOM     45  C   UNL A   1      40.078  31.131  30.442  1.00  0.00     0.031 C 
ATOM     46  C   UNL A   1      39.453  26.673  28.180  1.00  0.00     0.029 A 
ATOM     47  N   UNL A   1      41.440  27.078  29.120  1.00  0.00    -0.354 N 
ATOM     48  C   UNL A   1      42.277  30.883  31.008  1.00  0.00     0.074 A 
ATOM     49  C   UNL A   1      41.135  31.766  30.924  1.00  0.00     0.031 C 
ATOM     50  C   UNL A   1      40.214  25.584  27.994  1.00  0.00     0.029 A 
ATOM     51  C   UNL A   1      41.532  25.820  28.573  1.00  0.00     0.049 A 
ATOM     52  H   UNL A   1      42.184  27.516  29.595  1.00  0.00     0.167 HD
ATOM     53  C   UNL A   1      43.454  31.217  31.590  1.00  0.00     0.031 A 
ATOM     54  C   UNL A   1      42.564  24.954  28.539  1.00  0.00     0.031 A 
ATOM     55  C   UNL A   1      44.580  30.328  31.678  1.00  0.00     0.049 A 
ATOM     56  C   UNL A   1      43.865  25.348  29.180  1.00  0.00     0.074 A 
ATOM     57  C   UNL A   1      45.794  30.536  32.308  1.00  0.00     0.029 A 
ATOM     58  N   UNL A   1      44.632  29.060  31.114  1.00  0.00    -0.354 N 
ATOM     59  N   UNL A   1      44.172  26.460  29.804  1.00  0.00    -0.248 NA
ATOM     60  C   UNL A   1      44.956  24.366  29.118  1.00  0.00     0.031 C 
ATOM     61  C   UNL A   1      46.603  29.419  32.071  1.00  0.00     0.029 A 
ATOM     62  C   UNL A   1      45.870  28.488  31.350  1.00  0.00     0.049 A 
ATOM     63  H   UNL A   1      43.897  28.632  30.619  1.00  0.00     0.167 HD
ATOM     64  C   UNL A   1      45.488  26.306  30.226  1.00  0.00     0.074 A 
ATOM     65  C   UNL A   1      45.908  24.984  29.803  1.00  0.00     0.031 C 
ATOM     66  C   UNL A   1      46.276  27.177  30.904  1.00  0.00     0.031 A 
BRANCH  53  67
ATOM     67  C   UNL A   1      43.576  32.610  32.154  1.00  0.00    -0.014 A 
ATOM     68  C   UNL A   1      44.137  33.658  31.401  1.00  0.00     0.010 A 
ATOM     69  C   UNL A   1      43.127  32.874  33.461  1.00  0.00     0.010 A 
ATOM     70  C   UNL A   1      44.308  34.925  31.966  1.00  0.00     0.020 A 
ATOM     71  C   UNL A   1      43.265  34.150  34.018  1.00  0.00     0.020 A 
ATOM     72  C   UNL A   1      43.879  35.160  33.275  1.00  0.00     0.054 A 
BRANCH  72  73
ATOM     73  S   UNL A   1      44.124  36.810  33.987  1.00  0.00     0.124 S 
ATOM     74  O   UNL A   1      43.856  36.568  35.403  1.00  0.00    -0.237 OA
ATOM     75  O   UNL A   1      45.517  37.100  33.653  1.00  0.00    -0.237 OA
ATOM     76  O   UNL A   1      43.137  37.637  33.298  1.00  0.00    -0.744 OA
ENDBRANCH  72  73
ENDBRANCH  53  67
BRANCH  54  77
ATOM     77  C   UNL A   1      42.387  23.621  27.901  1.00  0.00    -0.014 A 
ATOM     78  C   UNL A   1      42.838  23.399  26.588  1.00  0.00     0.010 A 
ATOM     79  C   UNL A   1      41.815  22.553  28.616  1.00  0.00     0.010 A 
ATOM     80  C   UNL A   1      42.719  22.135  26.001  1.00  0.00     0.020 A 
ATOM     81  C   UNL A   1      41.719  21.281  28.043  1.00  0.00     0.020 A 
ATOM     82  C   UNL A   1      42.169  21.082  26.736  1.00  0.00     0.054 A 
BRANCH  82  83
ATOM     83  S   UNL A   1      42.102  19.433  25.981  1.00  0.00     0.124 S 
ATOM     84  O   UNL A   1      40.673  19.270  25.731  1.00  0.00    -0.237 OA
ATOM     85  O   UNL A   1      42.938  19.598  24.795  1.00  0.00    -0.237 OA
ATOM     86  O   UNL A   1      42.661  18.562  27.012  1.00  0.00    -0.744 OA
ENDBRANCH  82  83
ENDBRANCH  54  77
BRANCH  66  87
ATOM     87  C   UNL A   1      47.671  26.726  31.242  1.00  0.00    -0.014 A 
ATOM     88  C   UNL A   1      47.922  25.926  32.372  1.00  0.00     0.010 A 
ATOM     89  C   UNL A   1      48.737  27.060  30.387  1.00  0.00     0.010 A 
ATOM     90  C   UNL A   1      49.220  25.494  32.655  1.00  0.00     0.020 A 
ATOM     91  C   UNL A   1      50.031  26.603  30.649  1.00  0.00     0.020 A 
ATOM     92  C   UNL A   1      50.266  25.834  31.791  1.00  0.00     0.054 A 
BRANCH  92  93
ATOM     93  S   UNL A   1      51.932  25.219  32.156  1.00  0.00     0.124 S 
ATOM     94  O   UNL A   1      52.691  25.698  31.004  1.00  0.00    -0.237 OA
ATOM     95  O   UNL A   1      52.242  25.869  33.427  1.00  0.00    -0.237 OA
ATOM     96  O   UNL A   1      51.760  23.770  32.230  1.00  0.00    -0.744 OA
ENDBRANCH  92  93
ENDBRANCH  66  87
ENDBRANCH  40  41
ENDBRANCH  32  35
ENDBRANCH  30  31
ENDBRANCH   1  30
TORSDOF 16
ENDMDL
MODEL 2
REMARK VINA RESULT:     -11.6      2.699      9.434
REMARK SMILES Nc1ncccc1C[N@@H+]1CC2(CC[NH2+]CC2)C[C@H]1C(=O)NCCCNC(=O)c1ccc(-c2c3nc(c(-c4ccc(S(=O)(=O)[O-])cc4)c4ccc([nH]4)c(-c4ccc(S(=O)(=O)[O-])cc4)c4nc(c(-c5ccc(S(=O)(=O)[O-])cc5)c5ccc2[nH]5)C=C4)C=C3)cc1
REMARK SMILES IDX 23 1 22 2 21 3 19 4 20 5 18 7 9 8 10 9 11 11 17 12 12 13
REMARK SMILES IDX 16 14 13 15 15 16 14 17 8 20 7 21 2 22 3 23 4 24 6 25 5 26
REMARK SMILES IDX 1 27 24 30 25 31 26 32 27 34 28 35 29 36 87 37 30 38 86 39
REMARK SMILES IDX 31 40 32 41 33 42 80 43 34 44 85 45 79 46 81 47 35 48 84 49
REMARK SMILES IDX 78 50 77 51 36 53 66 54 47 55 65 56 48 57 51 58 64 59 82 60
REMARK SMILES IDX 49 61 50 62 63 64 83 65 52 66 37 67 38 68 46 69 39 70 45 71
REMARK SMILES IDX 40 72 41 73 42 74 43 75 44 76 67 77 68 78 76 79 69 80 75 81
REMARK SMILES IDX 70 82 71 83 72 84 73 85 74 86 53 87 54 88 62 89 55 90 61 91
REMARK SMILES IDX 56 92 57 93 58 94 59 95 60 96
REMARK H PARENT 21 6 9 10 14 18 14 19 1 28 1 29 25 33 81 52 51 63
REMARK Flexibility Score: inf
ROOT
ATOM      1  C   UNL A   1      36.383  23.035  23.905  1.00  0.00     0.042 C 
ENDROOT
BRANCH   1   2
ATOM      2  C   UNL A   1      34.869  23.034  23.909  1.00  0.00     0.118 C 
BRANCH   2   3
ATOM      3  N   UNL A   1      34.219  23.179  25.172  1.00  0.00    -0.351 N 
ATOM      4  C   UNL A   1      33.217  24.046  25.502  1.00  0.00     0.278 C 
ATOM      5  O   UNL A   1      32.666  23.824  26.590  1.00  0.00    -0.268 OA
ATOM      6  H   UNL A   1      34.530  22.582  25.891  1.00  0.00     0.163 HD
BRANCH   4   7
ATOM      7  C   UNL A   1      32.772  25.283  24.641  1.00  0.00     0.275 C 
ATOM      8  N   UNL A   1      31.403  25.698  24.989  1.00  0.00    -0.320 N 
ATOM      9  C   UNL A   1      31.467  27.019  25.638  1.00  0.00     0.270 C 
ATOM     10  H   UNL A   1      30.995  25.068  25.681  1.00  0.00     0.349 HD
ATOM     11  C   UNL A   1      32.844  27.691  25.328  1.00  0.00     0.036 C 
ATOM     12  C   UNL A   1      33.592  26.582  24.543  1.00  0.00     0.089 C 
ATOM     13  C   UNL A   1      33.789  28.185  26.472  1.00  0.00     0.074 C 
ATOM     14  C   UNL A   1      32.564  29.029  24.592  1.00  0.00     0.074 C 
ATOM     15  C   UNL A   1      33.123  29.169  27.420  1.00  0.00     0.261 C 
ATOM     16  C   UNL A   1      31.898  30.055  25.537  1.00  0.00     0.261 C 
ATOM     17  N   UNL A   1      32.727  30.374  26.698  1.00  0.00    -0.346 N 
ATOM     18  H   UNL A   1      33.565  30.862  26.382  1.00  0.00     0.346 HD
ATOM     19  H   UNL A   1      32.181  30.959  27.330  1.00  0.00     0.346 HD
BRANCH   8  20
ATOM     20  C   UNL A   1      30.436  25.523  23.871  1.00  0.00     0.303 C 
BRANCH  20  21
ATOM     21  C   UNL A   1      29.908  26.784  23.204  1.00  0.00     0.048 A 
ATOM     22  C   UNL A   1      30.623  27.510  22.245  1.00  0.00     0.132 A 
ATOM     23  N   UNL A   1      30.327  28.785  21.920  1.00  0.00    -0.239 NA
ATOM     24  C   UNL A   1      29.236  29.339  22.481  1.00  0.00     0.113 A 
ATOM     25  C   UNL A   1      28.690  27.329  23.619  1.00  0.00     0.015 A 
ATOM     26  C   UNL A   1      28.360  28.638  23.282  1.00  0.00     0.021 A 
BRANCH  22  27
ATOM     27  N   UNL A   1      31.719  26.997  21.580  1.00  0.00    -0.383 N 
ATOM     28  H   UNL A   1      31.622  26.194  21.020  1.00  0.00     0.158 HD
ATOM     29  H   UNL A   1      32.596  27.435  21.668  1.00  0.00     0.158 HD
ENDBRANCH  22  27
ENDBRANCH  20  21
ENDBRANCH   8  20
ENDBRANCH   4   7
ENDBRANCH   2   3
ENDBRANCH   1   2
BRANCH   1  30
ATOM     30  C   UNL A   1      36.984  23.411  25.246  1.00  0.00     0.118 C 
BRANCH  30  31
ATOM     31  N   UNL A   1      38.109  22.558  25.632  1.00  0.00    -0.352 N 
ATOM     32  C   UNL A   1      39.289  22.853  26.278  1.00  0.00     0.251 C 
ATOM     33  H   UNL A   1      38.003  21.609  25.388  1.00  0.00     0.163 HD
ATOM     34  O   UNL A   1      40.154  21.994  26.371  1.00  0.00    -0.269 OA
BRANCH  32  35
ATOM     35  C   UNL A   1      39.519  24.207  26.830  1.00  0.00     0.039 A 
ATOM     36  C   UNL A   1      39.147  24.480  28.150  1.00  0.00     0.014 A 
ATOM     37  C   UNL A   1      40.109  25.203  26.053  1.00  0.00     0.014 A 
ATOM     38  C   UNL A   1      39.453  25.722  28.712  1.00  0.00     0.010 A 
ATOM     39  C   UNL A   1      40.522  26.387  26.647  1.00  0.00     0.010 A 
ATOM     40  C   UNL A   1      40.191  26.665  27.979  1.00  0.00    -0.014 A 
BRANCH  40  41
ATOM     41  C   UNL A   1      40.626  27.956  28.568  1.00  0.00     0.031 A 
ATOM     42  C   UNL A   1      42.030  28.106  29.091  1.00  0.00     0.074 A 
ATOM     43  C   UNL A   1      39.733  28.954  28.720  1.00  0.00     0.049 A 
ATOM     44  N   UNL A   1      42.571  29.113  29.725  1.00  0.00    -0.248 NA
ATOM     45  C   UNL A   1      42.933  26.957  28.910  1.00  0.00     0.031 C 
ATOM     46  C   UNL A   1      38.330  28.911  28.298  1.00  0.00     0.029 A 
ATOM     47  N   UNL A   1      39.870  30.199  29.279  1.00  0.00    -0.354 N 
ATOM     48  C   UNL A   1      43.863  28.708  30.043  1.00  0.00     0.074 A 
ATOM     49  C   UNL A   1      44.002  27.343  29.588  1.00  0.00     0.031 C 
ATOM     50  C   UNL A   1      37.751  30.088  28.575  1.00  0.00     0.029 A 
ATOM     51  C   UNL A   1      38.721  30.951  29.241  1.00  0.00     0.049 A 
ATOM     52  H   UNL A   1      40.714  30.523  29.670  1.00  0.00     0.167 HD
ATOM     53  C   UNL A   1      44.852  29.414  30.641  1.00  0.00     0.031 A 
ATOM     54  C   UNL A   1      38.472  32.195  29.696  1.00  0.00     0.031 A 
ATOM     55  C   UNL A   1      44.707  30.776  31.080  1.00  0.00     0.049 A 
ATOM     56  C   UNL A   1      39.580  32.957  30.367  1.00  0.00     0.074 A 
ATOM     57  C   UNL A   1      45.663  31.609  31.632  1.00  0.00     0.029 A 
ATOM     58  N   UNL A   1      43.526  31.503  31.022  1.00  0.00    -0.354 N 
ATOM     59  N   UNL A   1      40.818  32.586  30.591  1.00  0.00    -0.248 NA
ATOM     60  C   UNL A   1      39.258  34.311  30.840  1.00  0.00     0.031 C 
ATOM     61  C   UNL A   1      45.044  32.819  31.964  1.00  0.00     0.029 A 
ATOM     62  C   UNL A   1      43.719  32.763  31.560  1.00  0.00     0.049 A 
ATOM     63  H   UNL A   1      42.676  31.171  30.652  1.00  0.00     0.167 HD
ATOM     64  C   UNL A   1      41.430  33.666  31.216  1.00  0.00     0.074 A 
ATOM     65  C   UNL A   1      40.430  34.711  31.315  1.00  0.00     0.031 C 
ATOM     66  C   UNL A   1      42.705  33.784  31.666  1.00  0.00     0.031 A 
BRANCH  53  67
ATOM     67  C   UNL A   1      46.166  28.709  30.867  1.00  0.00    -0.014 A 
ATOM     68  C   UNL A   1      47.183  28.729  29.895  1.00  0.00     0.010 A 
ATOM     69  C   UNL A   1      46.385  28.011  32.068  1.00  0.00     0.010 A 
ATOM     70  C   UNL A   1      48.366  28.012  30.091  1.00  0.00     0.020 A 
ATOM     71  C   UNL A   1      47.582  27.319  32.283  1.00  0.00     0.020 A 
ATOM     72  C   UNL A   1      48.554  27.303  31.281  1.00  0.00     0.054 A 
BRANCH  72  73
ATOM     73  S   UNL A   1      50.093  26.370  31.503  1.00  0.00     0.124 S 
ATOM     74  O   UNL A   1      50.726  27.094  32.602  1.00  0.00    -0.237 OA
ATOM     75  O   UNL A   1      49.611  25.030  31.830  1.00  0.00    -0.237 OA
ATOM     76  O   UNL A   1      50.762  26.489  30.210  1.00  0.00    -0.744 OA
ENDBRANCH  72  73
ENDBRANCH  53  67
BRANCH  54  77
ATOM     77  C   UNL A   1      37.127  32.798  29.497  1.00  0.00    -0.014 A 
ATOM     78  C   UNL A   1      36.193  32.809  30.547  1.00  0.00     0.010 A 
ATOM     79  C   UNL A   1      36.788  33.410  28.276  1.00  0.00     0.010 A 
ATOM     80  C   UNL A   1      34.945  33.419  30.382  1.00  0.00     0.020 A 
ATOM     81  C   UNL A   1      35.552  34.044  28.115  1.00  0.00     0.020 A 
ATOM     82  C   UNL A   1      34.636  34.040  29.169  1.00  0.00     0.054 A 
BRANCH  82  83
ATOM     83  S   UNL A   1      33.044  34.896  29.009  1.00  0.00     0.124 S 
ATOM     84  O   UNL A   1      33.453  36.212  28.528  1.00  0.00    -0.237 OA
ATOM     85  O   UNL A   1      32.335  34.060  28.042  1.00  0.00    -0.237 OA
ATOM     86  O   UNL A   1      32.501  34.866  30.364  1.00  0.00    -0.744 OA
ENDBRANCH  82  83
ENDBRANCH  54  77
BRANCH  66  87
ATOM     87  C   UNL A   1      43.096  35.093  32.295  1.00  0.00    -0.014 A 
ATOM     88  C   UNL A   1      43.749  36.091  31.550  1.00  0.00     0.010 A 
ATOM     89  C   UNL A   1      42.753  35.351  33.636  1.00  0.00     0.010 A 
ATOM     90  C   UNL A   1      44.080  37.311  32.144  1.00  0.00     0.020 A 
ATOM     91  C   UNL A   1      43.054  36.581  34.224  1.00  0.00     0.020 A 
ATOM     92  C   UNL A   1      43.729  37.549  33.477  1.00  0.00     0.054 A 
BRANCH  92  93
ATOM     93  S   UNL A   1      44.128  39.160  34.209  1.00  0.00     0.124 S 
ATOM     94  O   UNL A   1      45.308  39.556  33.446  1.00  0.00    -0.237 OA
ATOM     95  O   UNL A   1      42.919  39.938  33.946  1.00  0.00    -0.237 OA
ATOM     96  O   UNL A   1      44.370  38.852  35.616  1.00  0.00    -0.744 OA
ENDBRANCH  92  93
ENDBRANCH  66  87
ENDBRANCH  40  41
ENDBRANCH  32  35
ENDBRANCH  30  31
ENDBRANCH   1  30
TORSDOF 16
ENDMDL
MODEL 3
REMARK VINA RESULT:     -11.3      1.097      2.242
REMARK SMILES Nc1ncccc1C[N@@H+]1CC2(CC[NH2+]CC2)C[C@H]1C(=O)NCCCNC(=O)c1ccc(-c2c3nc(c(-c4ccc(S(=O)(=O)[O-])cc4)c4ccc([nH]4)c(-c4ccc(S(=O)(=O)[O-])cc4)c4nc(c(-c5ccc(S(=O)(=O)[O-])cc5)c5ccc2[nH]5)C=C4)C=C3)cc1
REMARK SMILES IDX 23 1 22 2 21 3 19 4 20 5 18 7 9 8 10 9 11 11 17 12 12 13
REMARK SMILES IDX 16 14 13 15 15 16 14 17 8 20 7 21 2 22 3 23 4 24 6 25 5 26
REMARK SMILES IDX 1 27 24 30 25 31 26 32 27 34 28 35 29 36 87 37 30 38 86 39
REMARK SMILES IDX 31 40 32 41 33 42 80 43 34 44 85 45 79 46 81 47 35 48 84 49
REMARK SMILES IDX 78 50 77 51 36 53 66 54 47 55 65 56 48 57 51 58 64 59 82 60
REMARK SMILES IDX 49 61 50 62 63 64 83 65 52 66 37 67 38 68 46 69 39 70 45 71
REMARK SMILES IDX 40 72 41 73 42 74 43 75 44 76 67 77 68 78 76 79 69 80 75 81
REMARK SMILES IDX 70 82 71 83 72 84 73 85 74 86 53 87 54 88 62 89 55 90 61 91
REMARK SMILES IDX 56 92 57 93 58 94 59 95 60 96
REMARK H PARENT 21 6 9 10 14 18 14 19 1 28 1 29 25 33 81 52 51 63
REMARK Flexibility Score: inf
ROOT
ATOM      1  C   UNL A   1      34.031  28.255  26.003  1.00  0.00     0.042 C 
ENDROOT
BRANCH   1   2
ATOM      2  C   UNL A   1      33.096  28.054  24.829  1.00  0.00     0.118 C 
BRANCH   2   3
ATOM      3  N   UNL A   1      33.656  28.168  23.521  1.00  0.00    -0.351 N 
ATOM      4  C   UNL A   1      33.611  27.252  22.509  1.00  0.00     0.278 C 
ATOM      5  O   UNL A   1      33.971  27.674  21.401  1.00  0.00    -0.268 OA
ATOM      6  H   UNL A   1      34.133  29.007  23.325  1.00  0.00     0.163 HD
BRANCH   4   7
ATOM      7  C   UNL A   1      33.188  25.747  22.670  1.00  0.00     0.275 C 
ATOM      8  N   UNL A   1      33.925  25.113  23.776  1.00  0.00    -0.320 N 
ATOM      9  C   UNL A   1      32.970  24.801  24.854  1.00  0.00     0.270 C 
ATOM     10  H   UNL A   1      34.601  25.759  24.183  1.00  0.00     0.349 HD
ATOM     11  C   UNL A   1      31.512  24.827  24.289  1.00  0.00     0.036 C 
ATOM     12  C   UNL A   1      31.726  25.293  22.826  1.00  0.00     0.089 C 
ATOM     13  C   UNL A   1      30.406  25.733  24.922  1.00  0.00     0.074 C 
ATOM     14  C   UNL A   1      30.892  23.422  24.514  1.00  0.00     0.074 C 
ATOM     15  C   UNL A   1      30.203  25.488  26.408  1.00  0.00     0.261 C 
ATOM     16  C   UNL A   1      30.661  23.149  26.018  1.00  0.00     0.261 C 
ATOM     17  N   UNL A   1      29.756  24.116  26.634  1.00  0.00    -0.346 N 
ATOM     18  H   UNL A   1      28.825  24.001  26.234  1.00  0.00     0.346 HD
ATOM     19  H   UNL A   1      29.744  23.947  27.640  1.00  0.00     0.346 HD
BRANCH   8  20
ATOM     20  C   UNL A   1      34.837  24.025  23.325  1.00  0.00     0.303 C 
BRANCH  20  21
ATOM     21  C   UNL A   1      34.989  22.820  24.241  1.00  0.00     0.048 A 
ATOM     22  C   UNL A   1      36.031  22.675  25.162  1.00  0.00     0.132 A 
ATOM     23  N   UNL A   1      36.367  21.487  25.707  1.00  0.00    -0.239 NA
ATOM     24  C   UNL A   1      35.598  20.422  25.415  1.00  0.00     0.113 A 
ATOM     25  C   UNL A   1      34.115  21.737  24.110  1.00  0.00     0.015 A 
ATOM     26  C   UNL A   1      34.437  20.508  24.677  1.00  0.00     0.021 A 
BRANCH  22  27
ATOM     27  N   UNL A   1      36.832  23.725  25.561  1.00  0.00    -0.383 N 
ATOM     28  H   UNL A   1      37.735  23.826  25.183  1.00  0.00     0.158 HD
ATOM     29  H   UNL A   1      36.500  24.374  26.223  1.00  0.00     0.158 HD
ENDBRANCH  22  27
ENDBRANCH  20  21
ENDBRANCH   8  20
ENDBRANCH   4   7
ENDBRANCH   2   3
ENDBRANCH   1   2
BRANCH   1  30
ATOM     30  C   UNL A   1      33.305  28.569  27.298  1.00  0.00     0.118 C 
BRANCH  30  31
ATOM     31  N   UNL A   1      33.345  29.989  27.649  1.00  0.00    -0.352 N 
ATOM     32  C   UNL A   1      34.346  30.758  28.200  1.00  0.00     0.251 C 
ATOM     33  H   UNL A   1      32.511  30.479  27.458  1.00  0.00     0.163 HD
ATOM     34  O   UNL A   1      34.103  31.907  28.540  1.00  0.00    -0.269 OA
BRANCH  32  35
ATOM     35  C   UNL A   1      35.696  30.189  28.404  1.00  0.00     0.039 A 
ATOM     36  C   UNL A   1      36.643  30.287  27.380  1.00  0.00     0.014 A 
ATOM     37  C   UNL A   1      36.035  29.568  29.606  1.00  0.00     0.014 A 
ATOM     38  C   UNL A   1      37.950  29.845  27.600  1.00  0.00     0.010 A 
ATOM     39  C   UNL A   1      37.359  29.244  29.867  1.00  0.00     0.010 A 
ATOM     40  C   UNL A   1      38.330  29.369  28.865  1.00  0.00    -0.014 A 
BRANCH  40  41
ATOM     41  C   UNL A   1      39.729  28.984  29.176  1.00  0.00     0.031 A 
ATOM     42  C   UNL A   1      40.659  29.985  29.807  1.00  0.00     0.074 A 
ATOM     43  C   UNL A   1      40.186  27.773  28.801  1.00  0.00     0.049 A 
ATOM     44  N   UNL A   1      41.937  29.876  30.066  1.00  0.00    -0.248 NA
ATOM     45  C   UNL A   1      40.086  31.296  30.159  1.00  0.00     0.031 C 
ATOM     46  C   UNL A   1      39.393  26.735  28.137  1.00  0.00     0.029 A 
ATOM     47  N   UNL A   1      41.432  27.212  28.918  1.00  0.00    -0.354 N 
ATOM     48  C   UNL A   1      42.323  31.109  30.581  1.00  0.00     0.074 A 
ATOM     49  C   UNL A   1      41.161  31.968  30.540  1.00  0.00     0.031 C 
ATOM     50  C   UNL A   1      40.161  25.651  27.944  1.00  0.00     0.029 A 
ATOM     51  C   UNL A   1      41.510  25.933  28.420  1.00  0.00     0.049 A 
ATOM     52  H   UNL A   1      42.198  27.682  29.321  1.00  0.00     0.167 HD
ATOM     53  C   UNL A   1      43.530  31.487  31.066  1.00  0.00     0.031 A 
ATOM     54  C   UNL A   1      42.554  25.083  28.351  1.00  0.00     0.031 A 
ATOM     55  C   UNL A   1      44.677  30.620  31.113  1.00  0.00     0.049 A 
ATOM     56  C   UNL A   1      43.887  25.525  28.884  1.00  0.00     0.074 A 
ATOM     57  C   UNL A   1      45.927  30.875  31.648  1.00  0.00     0.029 A 
ATOM     58  N   UNL A   1      44.714  29.331  30.601  1.00  0.00    -0.354 N 
ATOM     59  N   UNL A   1      44.216  26.669  29.437  1.00  0.00    -0.248 NA
ATOM     60  C   UNL A   1      44.991  24.559  28.788  1.00  0.00     0.031 C 
ATOM     61  C   UNL A   1      46.739  29.762  31.403  1.00  0.00     0.029 A 
ATOM     62  C   UNL A   1      45.977  28.789  30.775  1.00  0.00     0.049 A 
ATOM     63  H   UNL A   1      43.955  28.869  30.177  1.00  0.00     0.167 HD
ATOM     64  C   UNL A   1      45.559  26.554  29.773  1.00  0.00     0.074 A 
ATOM     65  C   UNL A   1      45.976  25.222  29.378  1.00  0.00     0.031 C 
ATOM     66  C   UNL A   1      46.376  27.467  30.358  1.00  0.00     0.031 A 
BRANCH  53  67
ATOM     67  C   UNL A   1      43.664  32.904  31.561  1.00  0.00    -0.014 A 
ATOM     68  C   UNL A   1      44.041  33.949  30.697  1.00  0.00     0.010 A 
ATOM     69  C   UNL A   1      43.414  33.197  32.914  1.00  0.00     0.010 A 
ATOM     70  C   UNL A   1      44.230  35.243  31.189  1.00  0.00     0.020 A 
ATOM     71  C   UNL A   1      43.568  34.498  33.404  1.00  0.00     0.020 A 
ATOM     72  C   UNL A   1      44.001  35.508  32.541  1.00  0.00     0.054 A 
BRANCH  72  73
ATOM     73  S   UNL A   1      44.266  37.193  33.155  1.00  0.00     0.124 S 
ATOM     74  O   UNL A   1      45.481  37.035  33.951  1.00  0.00    -0.237 OA
ATOM     75  O   UNL A   1      44.420  37.963  31.923  1.00  0.00    -0.237 OA
ATOM     76  O   UNL A   1      43.053  37.481  33.918  1.00  0.00    -0.744 OA
ENDBRANCH  72  73
ENDBRANCH  53  67
BRANCH  54  77
ATOM     77  C   UNL A   1      42.359  23.721  27.784  1.00  0.00    -0.014 A 
ATOM     78  C   UNL A   1      42.491  23.504  26.401  1.00  0.00     0.010 A 
ATOM     79  C   UNL A   1      42.091  22.625  28.624  1.00  0.00     0.010 A 
ATOM     80  C   UNL A   1      42.358  22.218  25.868  1.00  0.00     0.020 A 
ATOM     81  C   UNL A   1      41.984  21.333  28.099  1.00  0.00     0.020 A 
ATOM     82  C   UNL A   1      42.115  21.139  26.722  1.00  0.00     0.054 A 
BRANCH  82  83
ATOM     83  S   UNL A   1      42.029  19.470  26.016  1.00  0.00     0.124 S 
ATOM     84  O   UNL A   1      40.602  19.326  25.745  1.00  0.00    -0.237 OA
ATOM     85  O   UNL A   1      42.888  19.583  24.840  1.00  0.00    -0.237 OA
ATOM     86  O   UNL A   1      42.553  18.620  27.082  1.00  0.00    -0.744 OA
ENDBRANCH  82  83
ENDBRANCH  54  77
BRANCH  66  87
ATOM     87  C   UNL A   1      47.799  27.053  30.617  1.00  0.00    -0.014 A 
ATOM     88  C   UNL A   1      48.813  27.313  29.678  1.00  0.00     0.010 A 
ATOM     89  C   UNL A   1      48.136  26.447  31.841  1.00  0.00     0.010 A 
ATOM     90  C   UNL A   1      50.134  26.946  29.948  1.00  0.00     0.020 A 
ATOM     91  C   UNL A   1      49.460  26.108  32.128  1.00  0.00     0.020 A 
ATOM     92  C   UNL A   1      50.449  26.348  31.171  1.00  0.00     0.054 A 
BRANCH  92  93
ATOM     93  S   UNL A   1      52.179  25.926  31.515  1.00  0.00     0.124 S 
ATOM     94  O   UNL A   1      52.805  26.127  30.211  1.00  0.00    -0.237 OA
ATOM     95  O   UNL A   1      52.546  26.896  32.544  1.00  0.00    -0.237 OA
ATOM     96  O   UNL A   1      52.115  24.539  31.968  1.00  0.00    -0.744 OA
ENDBRANCH  92  93
ENDBRANCH  66  87
ENDBRANCH  40  41
ENDBRANCH  32  35
ENDBRANCH  30  31
ENDBRANCH   1  30
TORSDOF 16
ENDMDL
