MODEL 1
REMARK VINA RESULT:     -13.0      0.000      0.000
REMARK SMILES O=C(NCCCNC(=O)c1ccccc1C(=O)Nc1ccc(N2C(=O)[C@H]3[C@@H]4CC[C@@H](C4)[C@@H]3C2=O)cc1)c1ccc(-c2c3nc(c(-c4ccc(S(=O)(=O)[O-])cc4)c4ccc([nH]4)c(-c4ccc(S(=O)(=O)[O-])cc4)c4nc(c(-c5ccc(S(=O)(=O)[O-])cc5)c5ccc2[nH]5)C=C4)C=C3)cc1
REMARK SMILES IDX 5 1 4 2 3 3 1 4 2 5 37 7 38 8 96 9 39 10 95 11 40 12 41 13
REMARK SMILES IDX 42 14 89 15 43 16 94 17 88 18 90 19 44 20 93 21 87 22 86 23
REMARK SMILES IDX 45 25 75 26 56 27 74 28 57 29 60 30 73 31 91 32 58 33 59 34
REMARK SMILES IDX 72 36 92 37 61 38 46 39 47 40 55 41 48 42 54 43 49 44 50 45
REMARK SMILES IDX 51 46 52 47 53 48 76 49 77 50 85 51 78 52 84 53 79 54 80 55
REMARK SMILES IDX 81 56 82 57 83 58 62 59 63 60 71 61 64 62 70 63 65 64 66 65
REMARK SMILES IDX 67 66 68 67 69 68 6 69 7 70 8 71 9 73 10 74 11 75 15 76
REMARK SMILES IDX 12 77 14 78 13 79 16 80 17 81 18 82 19 84 20 85 36 86 21 87
REMARK SMILES IDX 35 88 22 89 23 90 24 91 33 92 25 93 26 94 32 95 34 96 27 97
REMARK SMILES IDX 30 98 28 99 31 100 29 101
REMARK H PARENT 3 6 90 24 60 35 7 72 18 83
REMARK Flexibility Score: inf
ROOT
ATOM      1  C   UNL A   1      33.082  30.534  27.341  1.00  0.00     0.042 C 
ENDROOT
BRANCH   1   2
ATOM      2  C   UNL A   1      33.985  31.735  27.569  1.00  0.00     0.118 C 
BRANCH   2   3
ATOM      3  N   UNL A   1      33.275  32.992  27.795  1.00  0.00    -0.352 N 
ATOM      4  O   UNL A   1      32.866  34.979  28.818  1.00  0.00    -0.269 OA
ATOM      5  C   UNL A   1      33.563  33.976  28.721  1.00  0.00     0.251 C 
ATOM      6  H   UNL A   1      32.496  33.159  27.218  1.00  0.00     0.163 HD
BRANCH   5   7
ATOM      7  C   UNL A   1      34.700  33.748  29.635  1.00  0.00     0.039 A 
ATOM      8  C   UNL A   1      35.955  34.246  29.290  1.00  0.00     0.014 A 
ATOM      9  C   UNL A   1      34.545  32.882  30.719  1.00  0.00     0.014 A 
ATOM     10  C   UNL A   1      37.078  33.685  29.877  1.00  0.00     0.010 A 
ATOM     11  C   UNL A   1      35.677  32.436  31.406  1.00  0.00     0.010 A 
ATOM     12  C   UNL A   1      36.957  32.794  30.960  1.00  0.00    -0.014 A 
BRANCH  12  13
ATOM     13  C   UNL A   1      38.195  32.337  31.643  1.00  0.00     0.031 A 
ATOM     14  C   UNL A   1      38.624  32.882  32.982  1.00  0.00     0.074 A 
ATOM     15  C   UNL A   1      38.911  31.364  31.044  1.00  0.00     0.049 A 
ATOM     16  N   UNL A   1      39.667  32.550  33.701  1.00  0.00    -0.248 NA
ATOM     17  C   UNL A   1      37.792  33.932  33.591  1.00  0.00     0.031 C 
ATOM     18  C   UNL A   1      38.591  30.767  29.740  1.00  0.00     0.029 A 
ATOM     19  N   UNL A   1      40.021  30.677  31.454  1.00  0.00    -0.354 N 
ATOM     20  C   UNL A   1      39.629  33.356  34.834  1.00  0.00     0.074 A 
ATOM     21  C   UNL A   1      38.471  34.215  34.696  1.00  0.00     0.031 C 
ATOM     22  C   UNL A   1      39.434  29.757  29.498  1.00  0.00     0.029 A 
ATOM     23  C   UNL A   1      40.417  29.701  30.569  1.00  0.00     0.049 A 
ATOM     24  H   UNL A   1      40.491  30.863  32.299  1.00  0.00     0.167 HD
ATOM     25  C   UNL A   1      40.482  33.374  35.888  1.00  0.00     0.031 A 
ATOM     26  C   UNL A   1      41.475  28.873  30.591  1.00  0.00     0.031 A 
ATOM     27  C   UNL A   1      41.634  32.514  36.010  1.00  0.00     0.049 A 
ATOM     28  C   UNL A   1      42.422  28.950  31.749  1.00  0.00     0.074 A 
ATOM     29  C   UNL A   1      42.550  32.444  37.046  1.00  0.00     0.029 A 
ATOM     30  N   UNL A   1      42.030  31.575  35.067  1.00  0.00    -0.354 N 
ATOM     31  N   UNL A   1      42.354  29.708  32.817  1.00  0.00    -0.248 NA
ATOM     32  C   UNL A   1      43.589  28.062  31.705  1.00  0.00     0.031 C 
ATOM     33  C   UNL A   1      43.532  31.508  36.703  1.00  0.00     0.029 A 
ATOM     34  C   UNL A   1      43.191  30.943  35.485  1.00  0.00     0.049 A 
ATOM     35  H   UNL A   1      41.557  31.386  34.225  1.00  0.00     0.167 HD
ATOM     36  C   UNL A   1      43.465  29.377  33.581  1.00  0.00     0.074 A 
ATOM     37  C   UNL A   1      44.162  28.325  32.869  1.00  0.00     0.031 C 
ATOM     38  C   UNL A   1      43.877  29.904  34.760  1.00  0.00     0.031 A 
BRANCH  25  39
ATOM     39  C   UNL A   1      40.224  34.363  37.001  1.00  0.00    -0.014 A 
ATOM     40  C   UNL A   1      40.735  35.672  36.947  1.00  0.00     0.010 A 
ATOM     41  C   UNL A   1      39.373  34.009  38.067  1.00  0.00     0.010 A 
ATOM     42  C   UNL A   1      40.418  36.601  37.944  1.00  0.00     0.020 A 
ATOM     43  C   UNL A   1      39.031  34.942  39.051  1.00  0.00     0.020 A 
ATOM     44  C   UNL A   1      39.563  36.231  38.988  1.00  0.00     0.054 A 
BRANCH  44  45
ATOM     45  S   UNL A   1      39.125  37.476  40.235  1.00  0.00     0.124 S 
ATOM     46  O   UNL A   1      38.513  36.656  41.278  1.00  0.00    -0.237 OA
ATOM     47  O   UNL A   1      40.422  38.056  40.574  1.00  0.00    -0.237 OA
ATOM     48  O   UNL A   1      38.211  38.370  39.529  1.00  0.00    -0.744 OA
ENDBRANCH  44  45
ENDBRANCH  25  39
BRANCH  26  49
ATOM     49  C   UNL A   1      41.715  27.947  29.451  1.00  0.00    -0.014 A 
ATOM     50  C   UNL A   1      41.057  26.708  29.375  1.00  0.00     0.010 A 
ATOM     51  C   UNL A   1      42.615  28.308  28.430  1.00  0.00     0.010 A 
ATOM     52  C   UNL A   1      41.324  25.833  28.319  1.00  0.00     0.020 A 
ATOM     53  C   UNL A   1      42.851  27.456  27.351  1.00  0.00     0.020 A 
ATOM     54  C   UNL A   1      42.221  26.212  27.315  1.00  0.00     0.054 A 
BRANCH  54  55
ATOM     55  S   UNL A   1      42.544  25.066  25.949  1.00  0.00     0.124 S 
ATOM     56  O   UNL A   1      41.565  24.014  26.200  1.00  0.00    -0.237 OA
ATOM     57  O   UNL A   1      42.295  25.897  24.774  1.00  0.00    -0.237 OA
ATOM     58  O   UNL A   1      43.940  24.682  26.147  1.00  0.00    -0.744 OA
ENDBRANCH  54  55
ENDBRANCH  26  49
BRANCH  38  59
ATOM     59  C   UNL A   1      45.129  29.319  35.361  1.00  0.00    -0.014 A 
ATOM     60  C   UNL A   1      46.395  29.863  35.078  1.00  0.00     0.010 A 
ATOM     61  C   UNL A   1      45.033  28.212  36.223  1.00  0.00     0.010 A 
ATOM     62  C   UNL A   1      47.548  29.275  35.605  1.00  0.00     0.020 A 
ATOM     63  C   UNL A   1      46.181  27.645  36.780  1.00  0.00     0.020 A 
ATOM     64  C   UNL A   1      47.432  28.167  36.450  1.00  0.00     0.054 A 
BRANCH  64  65
ATOM     65  S   UNL A   1      48.944  27.433  37.133  1.00  0.00     0.124 S 
ATOM     66  O   UNL A   1      49.499  28.544  37.902  1.00  0.00    -0.237 OA
ATOM     67  O   UNL A   1      48.429  26.317  37.922  1.00  0.00    -0.237 OA
ATOM     68  O   UNL A   1      49.709  27.052  35.949  1.00  0.00    -0.744 OA
ENDBRANCH  64  65
ENDBRANCH  38  59
ENDBRANCH  12  13
ENDBRANCH   5   7
ENDBRANCH   2   3
ENDBRANCH   1   2
BRANCH   1  69
ATOM     69  C   UNL A   1      32.583  30.439  25.917  1.00  0.00     0.118 C 
BRANCH  69  70
ATOM     70  N   UNL A   1      33.416  29.579  25.095  1.00  0.00    -0.352 N 
ATOM     71  C   UNL A   1      33.051  28.519  24.317  1.00  0.00     0.252 C 
ATOM     72  H   UNL A   1      34.378  29.789  25.101  1.00  0.00     0.163 HD
ATOM     73  O   UNL A   1      33.909  27.836  23.759  1.00  0.00    -0.269 OA
BRANCH  71  74
ATOM     74  C   UNL A   1      31.647  28.082  24.250  1.00  0.00     0.052 A 
ATOM     75  C   UNL A   1      31.026  28.524  23.057  1.00  0.00     0.014 A 
ATOM     76  C   UNL A   1      30.960  27.249  25.145  1.00  0.00     0.052 A 
ATOM     77  C   UNL A   1      29.774  28.059  22.679  1.00  0.00     0.001 A 
ATOM     78  C   UNL A   1      29.702  26.763  24.709  1.00  0.00     0.014 A 
ATOM     79  C   UNL A   1      29.126  27.145  23.492  1.00  0.00     0.001 A 
BRANCH  76  80
ATOM     80  C   UNL A   1      31.407  26.670  26.457  1.00  0.00     0.256 C 
ATOM     81  O   UNL A   1      31.393  27.426  27.437  1.00  0.00    -0.269 OA
ATOM     82  N   UNL A   1      31.736  25.362  26.731  1.00  0.00    -0.322 N 
ATOM     83  H   UNL A   1      31.871  25.177  27.689  1.00  0.00     0.170 HD
BRANCH  82  84
ATOM     84  C   UNL A   1      31.915  24.250  25.912  1.00  0.00     0.041 A 
ATOM     85  C   UNL A   1      33.009  24.275  25.039  1.00  0.00     0.028 A 
ATOM     86  C   UNL A   1      31.106  23.124  25.988  1.00  0.00     0.028 A 
ATOM     87  C   UNL A   1      33.453  23.089  24.457  1.00  0.00     0.029 A 
ATOM     88  C   UNL A   1      31.479  21.972  25.295  1.00  0.00     0.029 A 
ATOM     89  C   UNL A   1      32.708  21.921  24.617  1.00  0.00     0.052 A 
BRANCH  89  90
ATOM     90  N   UNL A   1      33.245  20.667  24.276  1.00  0.00    -0.250 N 
ATOM     91  C   UNL A   1      32.603  19.771  23.412  1.00  0.00     0.237 C 
ATOM     92  C   UNL A   1      34.292  20.056  24.999  1.00  0.00     0.237 C 
ATOM     93  O   UNL A   1      31.782  19.969  22.538  1.00  0.00    -0.274 OA
ATOM     94  C   UNL A   1      33.017  18.449  23.952  1.00  0.00     0.095 C 
ATOM     95  C   UNL A   1      34.468  18.740  24.297  1.00  0.00     0.095 C 
ATOM     96  O   UNL A   1      34.977  20.486  25.910  1.00  0.00    -0.274 OA
ATOM     97  C   UNL A   1      33.082  17.031  23.391  1.00  0.00     0.002 C 
ATOM     98  C   UNL A   1      34.956  17.334  24.631  1.00  0.00     0.002 C 
ATOM     99  C   UNL A   1      32.808  16.137  24.619  1.00  0.00     0.005 C 
ATOM    100  C   UNL A   1      34.591  16.722  23.253  1.00  0.00     0.009 C 
ATOM    101  C   UNL A   1      34.008  16.502  25.543  1.00  0.00     0.005 C 
ENDBRANCH  89  90
ENDBRANCH  82  84
ENDBRANCH  76  80
ENDBRANCH  71  74
ENDBRANCH  69  70
ENDBRANCH   1  69
TORSDOF 16
ENDMDL
MODEL 2
REMARK VINA RESULT:     -12.9      0.533      7.755
REMARK SMILES O=C(NCCCNC(=O)c1ccccc1C(=O)Nc1ccc(N2C(=O)[C@H]3[C@@H]4CC[C@@H](C4)[C@@H]3C2=O)cc1)c1ccc(-c2c3nc(c(-c4ccc(S(=O)(=O)[O-])cc4)c4ccc([nH]4)c(-c4ccc(S(=O)(=O)[O-])cc4)c4nc(c(-c5ccc(S(=O)(=O)[O-])cc5)c5ccc2[nH]5)C=C4)C=C3)cc1
REMARK SMILES IDX 5 1 4 2 3 3 1 4 2 5 37 7 38 8 96 9 39 10 95 11 40 12 41 13
REMARK SMILES IDX 42 14 89 15 43 16 94 17 88 18 90 19 44 20 93 21 87 22 86 23
REMARK SMILES IDX 45 25 75 26 56 27 74 28 57 29 60 30 73 31 91 32 58 33 59 34
REMARK SMILES IDX 72 36 92 37 61 38 46 39 47 40 55 41 48 42 54 43 49 44 50 45
REMARK SMILES IDX 51 46 52 47 53 48 76 49 77 50 85 51 78 52 84 53 79 54 80 55
REMARK SMILES IDX 81 56 82 57 83 58 62 59 63 60 71 61 64 62 70 63 65 64 66 65
REMARK SMILES IDX 67 66 68 67 69 68 6 69 7 70 8 71 9 73 10 74 11 75 15 76
REMARK SMILES IDX 12 77 14 78 13 79 16 80 17 81 18 82 19 84 20 85 36 86 21 87
REMARK SMILES IDX 35 88 22 89 23 90 24 91 33 92 25 93 26 94 32 95 34 96 27 97
REMARK SMILES IDX 30 98 28 99 31 100 29 101
REMARK H PARENT 3 6 90 24 60 35 7 72 18 83
REMARK Flexibility Score: inf
ROOT
ATOM      1  C   UNL A   1      33.049  30.811  27.493  1.00  0.00     0.042 C 
ENDROOT
BRANCH   1   2
ATOM      2  C   UNL A   1      33.958  32.027  27.569  1.00  0.00     0.118 C 
BRANCH   2   3
ATOM      3  N   UNL A   1      33.276  33.272  27.913  1.00  0.00    -0.352 N 
ATOM      4  O   UNL A   1      32.889  35.146  29.138  1.00  0.00    -0.269 OA
ATOM      5  C   UNL A   1      33.560  34.139  28.951  1.00  0.00     0.251 C 
ATOM      6  H   UNL A   1      32.520  33.525  27.336  1.00  0.00     0.163 HD
BRANCH   5   7
ATOM      7  C   UNL A   1      34.662  33.777  29.865  1.00  0.00     0.039 A 
ATOM      8  C   UNL A   1      35.947  34.241  29.593  1.00  0.00     0.014 A 
ATOM      9  C   UNL A   1      34.438  32.829  30.865  1.00  0.00     0.014 A 
ATOM     10  C   UNL A   1      37.027  33.577  30.153  1.00  0.00     0.010 A 
ATOM     11  C   UNL A   1      35.530  32.269  31.535  1.00  0.00     0.010 A 
ATOM     12  C   UNL A   1      36.837  32.602  31.150  1.00  0.00    -0.014 A 
BRANCH  12  13
ATOM     13  C   UNL A   1      38.034  32.028  31.817  1.00  0.00     0.031 A 
ATOM     14  C   UNL A   1      38.928  31.022  31.139  1.00  0.00     0.074 A 
ATOM     15  C   UNL A   1      38.333  32.482  33.052  1.00  0.00     0.049 A 
ATOM     16  N   UNL A   1      40.021  30.463  31.598  1.00  0.00    -0.248 NA
ATOM     17  C   UNL A   1      38.557  30.578  29.786  1.00  0.00     0.031 C 
ATOM     18  C   UNL A   1      37.529  33.452  33.808  1.00  0.00     0.029 A 
ATOM     19  N   UNL A   1      39.396  32.227  33.874  1.00  0.00    -0.354 N 
ATOM     20  C   UNL A   1      40.457  29.593  30.605  1.00  0.00     0.074 A 
ATOM     21  C   UNL A   1      39.497  29.678  29.524  1.00  0.00     0.031 C 
ATOM     22  C   UNL A   1      38.167  33.767  34.941  1.00  0.00     0.029 A 
ATOM     23  C   UNL A   1      39.365  32.947  35.046  1.00  0.00     0.049 A 
ATOM     24  H   UNL A   1      40.113  31.591  33.650  1.00  0.00     0.167 HD
ATOM     25  C   UNL A   1      41.557  28.800  30.598  1.00  0.00     0.031 A 
ATOM     26  C   UNL A   1      40.185  32.929  36.110  1.00  0.00     0.031 A 
ATOM     27  C   UNL A   1      42.504  28.723  31.684  1.00  0.00     0.049 A 
ATOM     28  C   UNL A   1      41.367  32.008  36.088  1.00  0.00     0.074 A 
ATOM     29  C   UNL A   1      43.659  27.964  31.767  1.00  0.00     0.029 A 
ATOM     30  N   UNL A   1      42.408  29.430  32.875  1.00  0.00    -0.354 N 
ATOM     31  N   UNL A   1      41.768  31.209  35.129  1.00  0.00    -0.248 NA
ATOM     32  C   UNL A   1      42.205  31.986  37.292  1.00  0.00     0.031 C 
ATOM     33  C   UNL A   1      44.227  28.164  33.030  1.00  0.00     0.029 A 
ATOM     34  C   UNL A   1      43.468  29.102  33.708  1.00  0.00     0.049 A 
ATOM     35  H   UNL A   1      41.694  30.069  33.097  1.00  0.00     0.167 HD
ATOM     36  C   UNL A   1      42.917  30.597  35.610  1.00  0.00     0.074 A 
ATOM     37  C   UNL A   1      43.164  31.149  36.927  1.00  0.00     0.031 C 
ATOM     38  C   UNL A   1      43.693  29.654  35.020  1.00  0.00     0.031 A 
BRANCH  25  39
ATOM     39  C   UNL A   1      41.805  27.929  29.388  1.00  0.00    -0.014 A 
ATOM     40  C   UNL A   1      42.743  28.294  28.407  1.00  0.00     0.010 A 
ATOM     41  C   UNL A   1      41.164  26.679  29.285  1.00  0.00     0.010 A 
ATOM     42  C   UNL A   1      43.021  27.437  27.336  1.00  0.00     0.020 A 
ATOM     43  C   UNL A   1      41.459  25.806  28.232  1.00  0.00     0.020 A 
ATOM     44  C   UNL A   1      42.381  26.195  27.259  1.00  0.00     0.054 A 
BRANCH  44  45
ATOM     45  S   UNL A   1      42.807  25.082  25.889  1.00  0.00     0.124 S 
ATOM     46  O   UNL A   1      42.462  25.893  24.723  1.00  0.00    -0.237 OA
ATOM     47  O   UNL A   1      44.235  24.856  26.095  1.00  0.00    -0.237 OA
ATOM     48  O   UNL A   1      41.955  23.916  26.110  1.00  0.00    -0.744 OA
ENDBRANCH  44  45
ENDBRANCH  25  39
BRANCH  26  49
ATOM     49  C   UNL A   1      39.876  33.770  37.299  1.00  0.00    -0.014 A 
ATOM     50  C   UNL A   1      39.128  33.258  38.372  1.00  0.00     0.010 A 
ATOM     51  C   UNL A   1      40.336  35.099  37.356  1.00  0.00     0.010 A 
ATOM     52  C   UNL A   1      38.814  34.074  39.463  1.00  0.00     0.020 A 
ATOM     53  C   UNL A   1      40.061  35.903  38.462  1.00  0.00     0.020 A 
ATOM     54  C   UNL A   1      39.281  35.391  39.499  1.00  0.00     0.054 A 
BRANCH  54  55
ATOM     55  S   UNL A   1      38.870  36.428  40.928  1.00  0.00     0.124 S 
ATOM     56  O   UNL A   1      37.787  35.672  41.547  1.00  0.00    -0.237 OA
ATOM     57  O   UNL A   1      40.128  36.456  41.669  1.00  0.00    -0.237 OA
ATOM     58  O   UNL A   1      38.481  37.701  40.326  1.00  0.00    -0.744 OA
ENDBRANCH  54  55
ENDBRANCH  26  49
BRANCH  38  59
ATOM     59  C   UNL A   1      44.899  29.189  35.794  1.00  0.00    -0.014 A 
ATOM     60  C   UNL A   1      46.111  29.902  35.752  1.00  0.00     0.010 A 
ATOM     61  C   UNL A   1      44.814  28.024  36.576  1.00  0.00     0.010 A 
ATOM     62  C   UNL A   1      47.232  29.427  36.436  1.00  0.00     0.020 A 
ATOM     63  C   UNL A   1      45.922  27.566  37.291  1.00  0.00     0.020 A 
ATOM     64  C   UNL A   1      47.131  28.259  37.199  1.00  0.00     0.054 A 
BRANCH  64  65
ATOM     65  S   UNL A   1      48.597  27.672  38.090  1.00  0.00     0.124 S 
ATOM     66  O   UNL A   1      48.779  26.336  37.526  1.00  0.00    -0.237 OA
ATOM     67  O   UNL A   1      49.612  28.655  37.719  1.00  0.00    -0.237 OA
ATOM     68  O   UNL A   1      48.187  27.706  39.491  1.00  0.00    -0.744 OA
ENDBRANCH  64  65
ENDBRANCH  38  59
ENDBRANCH  12  13
ENDBRANCH   5   7
ENDBRANCH   2   3
ENDBRANCH   1   2
BRANCH   1  69
ATOM     69  C   UNL A   1      32.488  30.585  26.107  1.00  0.00     0.118 C 
BRANCH  69  70
ATOM     70  N   UNL A   1      33.384  29.809  25.267  1.00  0.00    -0.352 N 
ATOM     71  C   UNL A   1      33.088  28.789  24.410  1.00  0.00     0.252 C 
ATOM     72  H   UNL A   1      34.335  30.053  25.324  1.00  0.00     0.163 HD
ATOM     73  O   UNL A   1      33.992  28.174  23.845  1.00  0.00    -0.269 OA
BRANCH  71  74
ATOM     74  C   UNL A   1      31.706  28.307  24.261  1.00  0.00     0.052 A 
ATOM     75  C   UNL A   1      31.135  28.749  23.042  1.00  0.00     0.014 A 
ATOM     76  C   UNL A   1      30.999  27.438  25.104  1.00  0.00     0.052 A 
ATOM     77  C   UNL A   1      29.922  28.248  22.589  1.00  0.00     0.001 A 
ATOM     78  C   UNL A   1      29.784  26.918  24.594  1.00  0.00     0.014 A 
ATOM     79  C   UNL A   1      29.262  27.300  23.352  1.00  0.00     0.001 A 
BRANCH  76  80
ATOM     80  C   UNL A   1      31.394  26.852  26.430  1.00  0.00     0.256 C 
ATOM     81  O   UNL A   1      31.367  27.611  27.409  1.00  0.00    -0.269 OA
ATOM     82  N   UNL A   1      31.688  25.538  26.716  1.00  0.00    -0.322 N 
ATOM     83  H   UNL A   1      31.789  25.353  27.678  1.00  0.00     0.170 HD
BRANCH  82  84
ATOM     84  C   UNL A   1      31.868  24.421  25.905  1.00  0.00     0.041 A 
ATOM     85  C   UNL A   1      32.966  24.438  25.037  1.00  0.00     0.028 A 
ATOM     86  C   UNL A   1      31.056  23.298  25.983  1.00  0.00     0.028 A 
ATOM     87  C   UNL A   1      33.411  23.248  24.464  1.00  0.00     0.029 A 
ATOM     88  C   UNL A   1      31.430  22.140  25.298  1.00  0.00     0.029 A 
ATOM     89  C   UNL A   1      32.662  22.083  24.627  1.00  0.00     0.052 A 
BRANCH  89  90
ATOM     90  N   UNL A   1      33.198  20.825  24.296  1.00  0.00    -0.250 N 
ATOM     91  C   UNL A   1      32.604  19.964  23.365  1.00  0.00     0.237 C 
ATOM     92  C   UNL A   1      34.176  20.176  25.080  1.00  0.00     0.237 C 
ATOM     93  O   UNL A   1      31.855  20.200  22.438  1.00  0.00    -0.274 OA
ATOM     94  C   UNL A   1      32.951  18.621  23.902  1.00  0.00     0.095 C 
ATOM     95  C   UNL A   1      34.378  18.873  24.360  1.00  0.00     0.095 C 
ATOM     96  O   UNL A   1      34.799  20.569  26.049  1.00  0.00    -0.274 OA
ATOM     97  C   UNL A   1      33.029  17.215  23.312  1.00  0.00     0.002 C 
ATOM     98  C   UNL A   1      34.811  17.449  24.696  1.00  0.00     0.002 C 
ATOM     99  C   UNL A   1      32.646  16.299  24.495  1.00  0.00     0.005 C 
ATOM    100  C   UNL A   1      34.537  16.877  23.279  1.00  0.00     0.009 C 
ATOM    101  C   UNL A   1      33.781  16.617  25.514  1.00  0.00     0.005 C 
ENDBRANCH  89  90
ENDBRANCH  82  84
ENDBRANCH  76  80
ENDBRANCH  71  74
ENDBRANCH  69  70
ENDBRANCH   1  69
TORSDOF 16
ENDMDL
MODEL 3
REMARK VINA RESULT:     -12.6      3.122      7.130
REMARK SMILES O=C(NCCCNC(=O)c1ccccc1C(=O)Nc1ccc(N2C(=O)[C@H]3[C@@H]4CC[C@@H](C4)[C@@H]3C2=O)cc1)c1ccc(-c2c3nc(c(-c4ccc(S(=O)(=O)[O-])cc4)c4ccc([nH]4)c(-c4ccc(S(=O)(=O)[O-])cc4)c4nc(c(-c5ccc(S(=O)(=O)[O-])cc5)c5ccc2[nH]5)C=C4)C=C3)cc1
REMARK SMILES IDX 5 1 4 2 3 3 1 4 2 5 37 7 38 8 96 9 39 10 95 11 40 12 41 13
REMARK SMILES IDX 42 14 89 15 43 16 94 17 88 18 90 19 44 20 93 21 87 22 86 23
REMARK SMILES IDX 45 25 75 26 56 27 74 28 57 29 60 30 73 31 91 32 58 33 59 34
REMARK SMILES IDX 72 36 92 37 61 38 46 39 47 40 55 41 48 42 54 43 49 44 50 45
REMARK SMILES IDX 51 46 52 47 53 48 76 49 77 50 85 51 78 52 84 53 79 54 80 55
REMARK SMILES IDX 81 56 82 57 83 58 62 59 63 60 71 61 64 62 70 63 65 64 66 65
REMARK SMILES IDX 67 66 68 67 69 68 6 69 7 70 8 71 9 73 10 74 11 75 15 76
REMARK SMILES IDX 12 77 14 78 13 79 16 80 17 81 18 82 19 84 20 85 36 86 21 87
REMARK SMILES IDX 35 88 22 89 23 90 24 91 33 92 25 93 26 94 32 95 34 96 27 97
REMARK SMILES IDX 30 98 28 99 31 100 29 101
REMARK H PARENT 3 6 90 24 60 35 7 72 18 83
REMARK Flexibility Score: inf
ROOT
ATOM      1  C   UNL A   1      35.604  23.280  25.392  1.00  0.00     0.042 C 
ENDROOT
BRANCH   1   2
ATOM      2  C   UNL A   1      36.985  23.695  24.910  1.00  0.00     0.118 C 
BRANCH   2   3
ATOM      3  N   UNL A   1      38.052  22.755  25.248  1.00  0.00    -0.352 N 
ATOM      4  O   UNL A   1      39.958  22.078  26.281  1.00  0.00    -0.269 OA
ATOM      5  C   UNL A   1      39.118  22.951  26.104  1.00  0.00     0.251 C 
ATOM      6  H   UNL A   1      38.006  21.875  24.811  1.00  0.00     0.163 HD
BRANCH   5   7
ATOM      7  C   UNL A   1      39.246  24.273  26.750  1.00  0.00     0.039 A 
ATOM      8  C   UNL A   1      40.023  25.253  26.138  1.00  0.00     0.014 A 
ATOM      9  C   UNL A   1      38.753  24.452  28.044  1.00  0.00     0.014 A 
ATOM     10  C   UNL A   1      40.506  26.298  26.909  1.00  0.00     0.010 A 
ATOM     11  C   UNL A   1      39.124  25.590  28.767  1.00  0.00     0.010 A 
ATOM     12  C   UNL A   1      40.044  26.498  28.224  1.00  0.00    -0.014 A 
BRANCH  12  13
ATOM     13  C   UNL A   1      40.486  27.716  28.952  1.00  0.00     0.031 A 
ATOM     14  C   UNL A   1      39.583  28.907  29.150  1.00  0.00     0.074 A 
ATOM     15  C   UNL A   1      41.723  27.703  29.489  1.00  0.00     0.049 A 
ATOM     16  N   UNL A   1      39.834  30.022  29.790  1.00  0.00    -0.248 NA
ATOM     17  C   UNL A   1      38.239  28.853  28.553  1.00  0.00     0.031 C 
ATOM     18  C   UNL A   1      42.686  26.602  29.352  1.00  0.00     0.029 A 
ATOM     19  N   UNL A   1      42.373  28.610  30.280  1.00  0.00    -0.354 N 
ATOM     20  C   UNL A   1      38.693  30.807  29.661  1.00  0.00     0.074 A 
ATOM     21  C   UNL A   1      37.754  30.051  28.859  1.00  0.00     0.031 C 
ATOM     22  C   UNL A   1      43.766  26.865  30.098  1.00  0.00     0.029 A 
ATOM     23  C   UNL A   1      43.622  28.192  30.677  1.00  0.00     0.049 A 
ATOM     24  H   UNL A   1      41.986  29.477  30.539  1.00  0.00     0.167 HD
ATOM     25  C   UNL A   1      38.454  32.042  30.169  1.00  0.00     0.031 A 
ATOM     26  C   UNL A   1      44.570  28.817  31.396  1.00  0.00     0.031 A 
ATOM     27  C   UNL A   1      39.401  32.785  30.965  1.00  0.00     0.049 A 
ATOM     28  C   UNL A   1      44.290  30.198  31.904  1.00  0.00     0.074 A 
ATOM     29  C   UNL A   1      39.248  34.036  31.539  1.00  0.00     0.029 A 
ATOM     30  N   UNL A   1      40.675  32.348  31.301  1.00  0.00    -0.354 N 
ATOM     31  N   UNL A   1      43.196  30.912  31.784  1.00  0.00    -0.248 NA
ATOM     32  C   UNL A   1      45.373  30.859  32.640  1.00  0.00     0.031 C 
ATOM     33  C   UNL A   1      40.449  34.380  32.168  1.00  0.00     0.029 A 
ATOM     34  C   UNL A   1      41.327  33.316  32.049  1.00  0.00     0.049 A 
ATOM     35  H   UNL A   1      41.060  31.479  31.045  1.00  0.00     0.167 HD
ATOM     36  C   UNL A   1      43.455  32.104  32.446  1.00  0.00     0.074 A 
ATOM     37  C   UNL A   1      44.793  31.997  32.993  1.00  0.00     0.031 C 
ATOM     38  C   UNL A   1      42.662  33.196  32.579  1.00  0.00     0.031 A 
BRANCH  25  39
ATOM     39  C   UNL A   1      37.123  32.692  29.873  1.00  0.00    -0.014 A 
ATOM     40  C   UNL A   1      36.063  32.637  30.795  1.00  0.00     0.010 A 
ATOM     41  C   UNL A   1      36.964  33.456  28.700  1.00  0.00     0.010 A 
ATOM     42  C   UNL A   1      34.865  33.316  30.543  1.00  0.00     0.020 A 
ATOM     43  C   UNL A   1      35.779  34.159  28.456  1.00  0.00     0.020 A 
ATOM     44  C   UNL A   1      34.733  34.077  29.377  1.00  0.00     0.054 A 
BRANCH  44  45
ATOM     45  S   UNL A   1      33.188  34.991  29.107  1.00  0.00     0.124 S 
ATOM     46  O   UNL A   1      32.533  34.180  28.082  1.00  0.00    -0.237 OA
ATOM     47  O   UNL A   1      32.564  34.958  30.427  1.00  0.00    -0.237 OA
ATOM     48  O   UNL A   1      33.636  36.309  28.664  1.00  0.00    -0.744 OA
ENDBRANCH  44  45
ENDBRANCH  25  39
BRANCH  26  49
ATOM     49  C   UNL A   1      45.884  28.156  31.624  1.00  0.00    -0.014 A 
ATOM     50  C   UNL A   1      46.103  27.351  32.754  1.00  0.00     0.010 A 
ATOM     51  C   UNL A   1      46.930  28.337  30.698  1.00  0.00     0.010 A 
ATOM     52  C   UNL A   1      47.355  26.771  32.973  1.00  0.00     0.020 A 
ATOM     53  C   UNL A   1      48.168  27.724  30.891  1.00  0.00     0.020 A 
ATOM     54  C   UNL A   1      48.380  26.963  32.041  1.00  0.00     0.054 A 
BRANCH  54  55
ATOM     55  S   UNL A   1      49.993  26.193  32.340  1.00  0.00     0.124 S 
ATOM     56  O   UNL A   1      49.936  25.026  31.464  1.00  0.00    -0.237 OA
ATOM     57  O   UNL A   1      50.924  27.243  31.936  1.00  0.00    -0.237 OA
ATOM     58  O   UNL A   1      49.974  25.903  33.772  1.00  0.00    -0.744 OA
ENDBRANCH  54  55
ENDBRANCH  26  49
BRANCH  38  59
ATOM     59  C   UNL A   1      43.221  34.345  33.376  1.00  0.00    -0.014 A 
ATOM     60  C   UNL A   1      43.956  35.372  32.757  1.00  0.00     0.010 A 
ATOM     61  C   UNL A   1      43.003  34.397  34.765  1.00  0.00     0.010 A 
ATOM     62  C   UNL A   1      44.509  36.402  33.522  1.00  0.00     0.020 A 
ATOM     63  C   UNL A   1      43.523  35.445  35.526  1.00  0.00     0.020 A 
ATOM     64  C   UNL A   1      44.291  36.430  34.903  1.00  0.00     0.054 A 
BRANCH  64  65
ATOM     65  S   UNL A   1      45.008  37.786  35.870  1.00  0.00     0.124 S 
ATOM     66  O   UNL A   1      46.386  37.807  35.387  1.00  0.00    -0.237 OA
ATOM     67  O   UNL A   1      44.186  38.928  35.476  1.00  0.00    -0.237 OA
ATOM     68  O   UNL A   1      44.839  37.352  37.254  1.00  0.00    -0.744 OA
ENDBRANCH  64  65
ENDBRANCH  38  59
ENDBRANCH  12  13
ENDBRANCH   5   7
ENDBRANCH   2   3
ENDBRANCH   1   2
BRANCH   1  69
ATOM     69  C   UNL A   1      34.670  24.455  25.572  1.00  0.00     0.118 C 
BRANCH  69  70
ATOM     70  N   UNL A   1      34.611  25.302  24.394  1.00  0.00    -0.352 N 
ATOM     71  C   UNL A   1      33.923  26.466  24.206  1.00  0.00     0.252 C 
ATOM     72  H   UNL A   1      35.141  24.993  23.624  1.00  0.00     0.163 HD
ATOM     73  O   UNL A   1      33.910  27.005  23.101  1.00  0.00    -0.269 OA
BRANCH  71  74
ATOM     74  C   UNL A   1      33.067  27.014  25.270  1.00  0.00     0.052 A 
ATOM     75  C   UNL A   1      33.840  27.571  26.318  1.00  0.00     0.014 A 
ATOM     76  C   UNL A   1      31.668  27.115  25.286  1.00  0.00     0.052 A 
ATOM     77  C   UNL A   1      33.256  28.329  27.323  1.00  0.00     0.001 A 
ATOM     78  C   UNL A   1      31.109  27.927  26.304  1.00  0.00     0.014 A 
ATOM     79  C   UNL A   1      31.888  28.539  27.295  1.00  0.00     0.001 A 
BRANCH  76  80
ATOM     80  C   UNL A   1      30.656  26.601  24.303  1.00  0.00     0.256 C 
ATOM     81  O   UNL A   1      29.838  27.419  23.861  1.00  0.00    -0.269 OA
ATOM     82  N   UNL A   1      30.586  25.344  23.746  1.00  0.00    -0.322 N 
ATOM     83  H   UNL A   1      29.923  25.265  23.022  1.00  0.00     0.170 HD
BRANCH  82  84
ATOM     84  C   UNL A   1      31.275  24.163  24.011  1.00  0.00     0.041 A 
ATOM     85  C   UNL A   1      31.072  23.578  25.267  1.00  0.00     0.028 A 
ATOM     86  C   UNL A   1      32.074  23.533  23.067  1.00  0.00     0.028 A 
ATOM     87  C   UNL A   1      31.433  22.249  25.475  1.00  0.00     0.029 A 
ATOM     88  C   UNL A   1      32.552  22.248  23.331  1.00  0.00     0.029 A 
ATOM     89  C   UNL A   1      32.142  21.565  24.488  1.00  0.00     0.052 A 
BRANCH  89  90
ATOM     90  N   UNL A   1      32.296  20.168  24.542  1.00  0.00    -0.250 N 
ATOM     91  C   UNL A   1      32.858  19.504  25.640  1.00  0.00     0.237 C 
ATOM     92  C   UNL A   1      32.208  19.340  23.403  1.00  0.00     0.237 C 
ATOM     93  O   UNL A   1      32.944  19.839  26.805  1.00  0.00    -0.274 OA
ATOM     94  C   UNL A   1      33.527  18.339  25.003  1.00  0.00     0.095 C 
ATOM     95  C   UNL A   1      32.491  17.972  23.953  1.00  0.00     0.095 C 
ATOM     96  O   UNL A   1      31.892  19.606  22.257  1.00  0.00    -0.274 OA
ATOM     97  C   UNL A   1      34.008  16.975  25.493  1.00  0.00     0.002 C 
ATOM     98  C   UNL A   1      33.063  16.647  23.458  1.00  0.00     0.002 C 
ATOM     99  C   UNL A   1      35.237  16.679  24.607  1.00  0.00     0.005 C 
ATOM    100  C   UNL A   1      33.045  15.953  24.846  1.00  0.00     0.009 C 
ATOM    101  C   UNL A   1      34.597  16.646  23.187  1.00  0.00     0.005 C 
ENDBRANCH  89  90
ENDBRANCH  82  84
ENDBRANCH  76  80
ENDBRANCH  71  74
ENDBRANCH  69  70
ENDBRANCH   1  69
TORSDOF 16
ENDMDL
