MODEL 1
REMARK VINA RESULT:     -12.6      0.000      0.000
REMARK SMILES CCOc1ccc(-n2nnc(-c3nc(C)c(C(=O)NCCCNC(=O)c4ccc(-c5c6nc(c(-c7ccc(S(=O)(=O)[O-])cc7)c7ccc([nH]7)c(-c7ccc(S(=O)(=O)[O-])cc7)c7nc(c(-c8ccc(S(=O)(=O)[O-])cc8)c8ccc5[nH]8)C=C7)C=C6)cc4)s3)c2C)cc1
REMARK SMILES IDX 20 1 19 2 17 3 18 4 16 6 12 7 13 8 86 9 14 10 15 11 11 12
REMARK SMILES IDX 8 13 9 14 87 15 10 16 88 17 7 18 4 19 5 20 90 21 6 22 89 23
REMARK SMILES IDX 3 24 2 25 1 26 21 27 22 28 23 29 24 30 25 32 26 33 27 34
REMARK SMILES IDX 85 35 28 36 84 37 29 38 30 39 31 40 78 41 32 42 83 43 77 44
REMARK SMILES IDX 79 45 33 46 82 47 76 48 75 49 34 51 64 52 45 53 63 54 46 55
REMARK SMILES IDX 49 56 62 57 80 58 47 59 48 60 61 62 81 63 50 64 35 65 36 66
REMARK SMILES IDX 44 67 37 68 43 69 38 70 39 71 40 72 41 73 42 74 65 75 66 76
REMARK SMILES IDX 74 77 67 78 73 79 68 80 69 81 70 82 71 83 72 84 51 85 52 86
REMARK SMILES IDX 60 87 53 88 59 89 54 90 55 91 56 92 57 93 58 94
REMARK H PARENT 19 5 23 31 79 50 49 61
REMARK Flexibility Score: inf
ROOT
ATOM      1  C   UNL A   1      33.706  30.436  27.037  1.00  0.00     0.118 C 
ENDROOT
BRANCH   1   2
ATOM      2  N   UNL A   1      32.611  29.684  27.645  1.00  0.00    -0.351 N 
ATOM      3  C   UNL A   1      31.925  28.575  27.180  1.00  0.00     0.263 C 
ATOM      4  O   UNL A   1      31.169  28.020  27.974  1.00  0.00    -0.268 OA
ATOM      5  H   UNL A   1      32.315  30.019  28.521  1.00  0.00     0.163 HD
BRANCH   3   6
ATOM      6  C   UNL A   1      32.210  28.056  25.862  1.00  0.00     0.115 A 
ATOM      7  C   UNL A   1      32.752  26.518  24.114  1.00  0.00     0.146 A 
ATOM      8  N   UNL A   1      31.810  27.336  23.690  1.00  0.00    -0.239 NA
ATOM      9  S   UNL A   1      33.561  27.048  25.525  1.00  0.00    -0.107 S 
ATOM     10  C   UNL A   1      31.638  28.357  24.633  1.00  0.00     0.062 A 
ATOM     11  C   UNL A   1      30.812  29.543  24.278  1.00  0.00     0.068 C 
BRANCH   7  12
ATOM     12  C   UNL A   1      33.004  25.135  23.609  1.00  0.00     0.145 A 
ATOM     13  N   UNL A   1      33.458  23.004  23.646  1.00  0.00    -0.217 N 
ATOM     14  N   UNL A   1      34.141  23.560  22.618  1.00  0.00    -0.061 NA
ATOM     15  C   UNL A   1      32.817  23.994  24.375  1.00  0.00     0.072 A 
ATOM     16  N   UNL A   1      33.853  24.853  22.576  1.00  0.00    -0.127 NA
ATOM     17  C   UNL A   1      32.333  23.850  25.775  1.00  0.00     0.069 C 
BRANCH  13  18
ATOM     18  C   UNL A   1      33.525  21.615  23.907  1.00  0.00     0.067 A 
ATOM     19  C   UNL A   1      33.552  18.902  24.563  1.00  0.00     0.119 A 
ATOM     20  C   UNL A   1      34.620  19.719  24.938  1.00  0.00     0.048 A 
ATOM     21  C   UNL A   1      32.474  19.440  23.866  1.00  0.00     0.048 A 
ATOM     22  C   UNL A   1      34.624  21.075  24.589  1.00  0.00     0.032 A 
ATOM     23  C   UNL A   1      32.466  20.789  23.520  1.00  0.00     0.032 A 
BRANCH  19  24
ATOM     24  O   UNL A   1      33.520  17.615  25.022  1.00  0.00    -0.494 OA
BRANCH  24  25
ATOM     25  C   UNL A   1      33.286  16.636  24.001  1.00  0.00     0.226 C 
ATOM     26  C   UNL A   1      34.374  16.612  22.938  1.00  0.00     0.049 C 
ENDBRANCH  24  25
ENDBRANCH  19  24
ENDBRANCH  13  18
ENDBRANCH   7  12
ENDBRANCH   3   6
ENDBRANCH   1   2
BRANCH   1  27
ATOM     27  C   UNL A   1      33.860  31.850  27.611  1.00  0.00     0.042 C 
BRANCH  27  28
ATOM     28  C   UNL A   1      35.114  31.984  28.444  1.00  0.00     0.118 C 
BRANCH  28  29
ATOM     29  N   UNL A   1      34.882  32.619  29.752  1.00  0.00    -0.352 N 
ATOM     30  C   UNL A   1      35.289  32.168  31.007  1.00  0.00     0.251 C 
ATOM     31  H   UNL A   1      34.378  33.465  29.738  1.00  0.00     0.163 HD
ATOM     32  O   UNL A   1      34.764  32.576  32.026  1.00  0.00    -0.269 OA
BRANCH  30  33
ATOM     33  C   UNL A   1      36.393  31.190  31.048  1.00  0.00     0.039 A 
ATOM     34  C   UNL A   1      36.238  29.810  30.900  1.00  0.00     0.014 A 
ATOM     35  C   UNL A   1      37.654  31.747  31.141  1.00  0.00     0.014 A 
ATOM     36  C   UNL A   1      37.393  29.031  30.811  1.00  0.00     0.010 A 
ATOM     37  C   UNL A   1      38.698  31.059  30.622  1.00  0.00     0.010 A 
ATOM     38  C   UNL A   1      38.627  29.685  30.679  1.00  0.00    -0.014 A 
BRANCH  38  39
ATOM     39  C   UNL A   1      39.914  29.026  30.569  1.00  0.00     0.031 A 
ATOM     40  C   UNL A   1      40.585  28.794  31.864  1.00  0.00     0.074 A 
ATOM     41  C   UNL A   1      40.294  28.406  29.425  1.00  0.00     0.049 A 
ATOM     42  N   UNL A   1      41.611  29.418  32.332  1.00  0.00    -0.248 NA
ATOM     43  C   UNL A   1      39.941  27.888  32.831  1.00  0.00     0.031 C 
ATOM     44  C   UNL A   1      39.556  28.237  28.159  1.00  0.00     0.029 A 
ATOM     45  N   UNL A   1      41.404  27.664  29.200  1.00  0.00    -0.354 N 
ATOM     46  C   UNL A   1      41.893  28.813  33.547  1.00  0.00     0.074 A 
ATOM     47  C   UNL A   1      40.717  28.059  33.902  1.00  0.00     0.031 C 
ATOM     48  C   UNL A   1      40.122  27.252  27.425  1.00  0.00     0.029 A 
ATOM     49  C   UNL A   1      41.357  26.853  28.071  1.00  0.00     0.049 A 
ATOM     50  H   UNL A   1      42.188  27.695  29.794  1.00  0.00     0.167 HD
ATOM     51  C   UNL A   1      43.166  28.756  34.031  1.00  0.00     0.031 A 
ATOM     52  C   UNL A   1      42.266  25.905  27.721  1.00  0.00     0.031 A 
ATOM     53  C   UNL A   1      44.060  29.588  33.261  1.00  0.00     0.049 A 
ATOM     54  C   UNL A   1      43.515  26.233  28.460  1.00  0.00     0.074 A 
ATOM     55  C   UNL A   1      44.113  30.936  32.964  1.00  0.00     0.029 A 
ATOM     56  N   UNL A   1      44.817  28.960  32.296  1.00  0.00    -0.354 N 
ATOM     57  N   UNL A   1      44.187  27.336  28.260  1.00  0.00    -0.248 NA
ATOM     58  C   UNL A   1      43.715  25.611  29.760  1.00  0.00     0.031 C 
ATOM     59  C   UNL A   1      44.459  30.989  31.580  1.00  0.00     0.029 A 
ATOM     60  C   UNL A   1      44.689  29.684  31.135  1.00  0.00     0.049 A 
ATOM     61  H   UNL A   1      45.353  28.142  32.416  1.00  0.00     0.167 HD
ATOM     62  C   UNL A   1      44.539  27.778  29.530  1.00  0.00     0.074 A 
ATOM     63  C   UNL A   1      44.291  26.630  30.408  1.00  0.00     0.031 C 
ATOM     64  C   UNL A   1      44.711  29.107  29.805  1.00  0.00     0.031 A 
BRANCH  51  65
ATOM     65  C   UNL A   1      43.676  27.655  34.921  1.00  0.00    -0.014 A 
ATOM     66  C   UNL A   1      44.182  27.994  36.190  1.00  0.00     0.010 A 
ATOM     67  C   UNL A   1      43.918  26.343  34.461  1.00  0.00     0.010 A 
ATOM     68  C   UNL A   1      44.947  27.086  36.932  1.00  0.00     0.020 A 
ATOM     69  C   UNL A   1      44.642  25.415  35.211  1.00  0.00     0.020 A 
ATOM     70  C   UNL A   1      45.182  25.806  36.428  1.00  0.00     0.054 A 
BRANCH  70  71
ATOM     71  S   UNL A   1      46.262  24.680  37.343  1.00  0.00     0.124 S 
ATOM     72  O   UNL A   1      46.180  25.220  38.697  1.00  0.00    -0.237 OA
ATOM     73  O   UNL A   1      45.611  23.389  37.134  1.00  0.00    -0.237 OA
ATOM     74  O   UNL A   1      47.556  24.835  36.683  1.00  0.00    -0.744 OA
ENDBRANCH  70  71
ENDBRANCH  51  65
BRANCH  52  75
ATOM     75  C   UNL A   1      41.995  24.567  27.124  1.00  0.00    -0.014 A 
ATOM     76  C   UNL A   1      42.933  23.923  26.293  1.00  0.00     0.010 A 
ATOM     77  C   UNL A   1      40.918  23.792  27.607  1.00  0.00     0.010 A 
ATOM     78  C   UNL A   1      42.828  22.547  26.007  1.00  0.00     0.020 A 
ATOM     79  C   UNL A   1      40.806  22.424  27.324  1.00  0.00     0.020 A 
ATOM     80  C   UNL A   1      41.775  21.800  26.543  1.00  0.00     0.054 A 
BRANCH  80  81
ATOM     81  S   UNL A   1      41.742  19.993  26.318  1.00  0.00     0.124 S 
ATOM     82  O   UNL A   1      40.343  19.747  25.977  1.00  0.00    -0.237 OA
ATOM     83  O   UNL A   1      42.700  19.790  25.235  1.00  0.00    -0.237 OA
ATOM     84  O   UNL A   1      42.164  19.477  27.618  1.00  0.00    -0.744 OA
ENDBRANCH  80  81
ENDBRANCH  52  75
BRANCH  64  85
ATOM     85  C   UNL A   1      44.706  30.091  28.648  1.00  0.00    -0.014 A 
ATOM     86  C   UNL A   1      43.541  30.498  27.964  1.00  0.00     0.010 A 
ATOM     87  C   UNL A   1      45.909  30.753  28.355  1.00  0.00     0.010 A 
ATOM     88  C   UNL A   1      43.589  31.518  26.997  1.00  0.00     0.020 A 
ATOM     89  C   UNL A   1      45.962  31.779  27.407  1.00  0.00     0.020 A 
ATOM     90  C   UNL A   1      44.804  32.151  26.723  1.00  0.00     0.054 A 
BRANCH  90  91
ATOM     91  S   UNL A   1      44.864  33.488  25.495  1.00  0.00     0.124 S 
ATOM     92  O   UNL A   1      46.294  33.757  25.388  1.00  0.00    -0.237 OA
ATOM     93  O   UNL A   1      44.249  32.878  24.318  1.00  0.00    -0.237 OA
ATOM     94  O   UNL A   1      44.079  34.559  26.108  1.00  0.00    -0.744 OA
ENDBRANCH  90  91
ENDBRANCH  64  85
ENDBRANCH  38  39
ENDBRANCH  30  33
ENDBRANCH  28  29
ENDBRANCH  27  28
ENDBRANCH   1  27
TORSDOF 17
ENDMDL
MODEL 2
REMARK VINA RESULT:     -12.4      2.233      3.099
REMARK SMILES CCOc1ccc(-n2nnc(-c3nc(C)c(C(=O)NCCCNC(=O)c4ccc(-c5c6nc(c(-c7ccc(S(=O)(=O)[O-])cc7)c7ccc([nH]7)c(-c7ccc(S(=O)(=O)[O-])cc7)c7nc(c(-c8ccc(S(=O)(=O)[O-])cc8)c8ccc5[nH]8)C=C7)C=C6)cc4)s3)c2C)cc1
REMARK SMILES IDX 20 1 19 2 17 3 18 4 16 6 12 7 13 8 86 9 14 10 15 11 11 12
REMARK SMILES IDX 8 13 9 14 87 15 10 16 88 17 7 18 4 19 5 20 90 21 6 22 89 23
REMARK SMILES IDX 3 24 2 25 1 26 21 27 22 28 23 29 24 30 25 32 26 33 27 34
REMARK SMILES IDX 85 35 28 36 84 37 29 38 30 39 31 40 78 41 32 42 83 43 77 44
REMARK SMILES IDX 79 45 33 46 82 47 76 48 75 49 34 51 64 52 45 53 63 54 46 55
REMARK SMILES IDX 49 56 62 57 80 58 47 59 48 60 61 62 81 63 50 64 35 65 36 66
REMARK SMILES IDX 44 67 37 68 43 69 38 70 39 71 40 72 41 73 42 74 65 75 66 76
REMARK SMILES IDX 74 77 67 78 73 79 68 80 69 81 70 82 71 83 72 84 51 85 52 86
REMARK SMILES IDX 60 87 53 88 59 89 54 90 55 91 56 92 57 93 58 94
REMARK H PARENT 19 5 23 31 79 50 49 61
REMARK Flexibility Score: inf
ROOT
ATOM      1  C   UNL A   1      31.770  28.453  26.303  1.00  0.00     0.118 C 
ENDROOT
BRANCH   1   2
ATOM      2  N   UNL A   1      31.259  29.257  25.196  1.00  0.00    -0.351 N 
ATOM      3  C   UNL A   1      30.842  28.873  23.933  1.00  0.00     0.263 C 
ATOM      4  O   UNL A   1      30.277  29.727  23.253  1.00  0.00    -0.268 OA
ATOM      5  H   UNL A   1      31.203  30.222  25.376  1.00  0.00     0.163 HD
BRANCH   3   6
ATOM      6  C   UNL A   1      30.971  27.493  23.524  1.00  0.00     0.115 A 
ATOM      7  C   UNL A   1      31.942  25.351  23.096  1.00  0.00     0.146 A 
ATOM      8  N   UNL A   1      30.740  25.183  23.610  1.00  0.00    -0.239 NA
ATOM      9  S   UNL A   1      32.244  26.931  22.515  1.00  0.00    -0.107 S 
ATOM     10  C   UNL A   1      30.096  26.425  23.671  1.00  0.00     0.062 A 
ATOM     11  C   UNL A   1      28.641  26.474  23.980  1.00  0.00     0.068 C 
BRANCH   7  12
ATOM     12  C   UNL A   1      33.072  24.378  23.175  1.00  0.00     0.145 A 
ATOM     13  N   UNL A   1      35.003  23.540  23.741  1.00  0.00    -0.217 N 
ATOM     14  N   UNL A   1      34.800  23.277  22.429  1.00  0.00    -0.061 NA
ATOM     15  C   UNL A   1      33.981  24.344  24.223  1.00  0.00     0.072 A 
ATOM     16  N   UNL A   1      33.618  23.764  22.083  1.00  0.00    -0.127 NA
ATOM     17  C   UNL A   1      34.053  25.177  25.454  1.00  0.00     0.069 C 
BRANCH  13  18
ATOM     18  C   UNL A   1      36.165  23.090  24.410  1.00  0.00     0.067 A 
ATOM     19  C   UNL A   1      38.352  22.140  25.861  1.00  0.00     0.119 A 
ATOM     20  C   UNL A   1      38.003  23.490  25.933  1.00  0.00     0.048 A 
ATOM     21  C   UNL A   1      37.608  21.268  25.071  1.00  0.00     0.048 A 
ATOM     22  C   UNL A   1      36.923  23.977  25.186  1.00  0.00     0.032 A 
ATOM     23  C   UNL A   1      36.529  21.743  24.330  1.00  0.00     0.032 A 
BRANCH  19  24
ATOM     24  O   UNL A   1      39.333  21.672  26.691  1.00  0.00    -0.494 OA
BRANCH  24  25
ATOM     25  C   UNL A   1      40.540  22.445  26.665  1.00  0.00     0.226 C 
ATOM     26  C   UNL A   1      40.576  23.531  27.730  1.00  0.00     0.049 C 
ENDBRANCH  24  25
ENDBRANCH  19  24
ENDBRANCH  13  18
ENDBRANCH   7  12
ENDBRANCH   3   6
ENDBRANCH   1   2
BRANCH   1  27
ATOM     27  C   UNL A   1      32.588  29.267  27.313  1.00  0.00     0.042 C 
BRANCH  27  28
ATOM     28  C   UNL A   1      33.794  29.912  26.670  1.00  0.00     0.118 C 
BRANCH  28  29
ATOM     29  N   UNL A   1      33.985  31.317  27.063  1.00  0.00    -0.352 N 
ATOM     30  C   UNL A   1      34.909  31.835  27.969  1.00  0.00     0.251 C 
ATOM     31  H   UNL A   1      33.386  31.971  26.634  1.00  0.00     0.163 HD
ATOM     32  O   UNL A   1      34.758  32.935  28.467  1.00  0.00    -0.269 OA
BRANCH  30  33
ATOM     33  C   UNL A   1      36.085  31.002  28.285  1.00  0.00     0.039 A 
ATOM     34  C   UNL A   1      36.344  29.749  27.727  1.00  0.00     0.014 A 
ATOM     35  C   UNL A   1      37.009  31.602  29.120  1.00  0.00     0.014 A 
ATOM     36  C   UNL A   1      37.574  29.151  28.011  1.00  0.00     0.010 A 
ATOM     37  C   UNL A   1      38.305  31.227  29.015  1.00  0.00     0.010 A 
ATOM     38  C   UNL A   1      38.547  29.916  28.670  1.00  0.00    -0.014 A 
BRANCH  38  39
ATOM     39  C   UNL A   1      39.872  29.449  29.032  1.00  0.00     0.031 A 
ATOM     40  C   UNL A   1      40.100  29.350  30.488  1.00  0.00     0.074 A 
ATOM     41  C   UNL A   1      40.687  28.862  28.121  1.00  0.00     0.049 A 
ATOM     42  N   UNL A   1      40.822  30.129  31.217  1.00  0.00    -0.248 NA
ATOM     43  C   UNL A   1      39.294  28.385  31.256  1.00  0.00     0.031 C 
ATOM     44  C   UNL A   1      40.439  28.555  26.700  1.00  0.00     0.029 A 
ATOM     45  N   UNL A   1      41.894  28.285  28.323  1.00  0.00    -0.354 N 
ATOM     46  C   UNL A   1      40.762  29.604  32.499  1.00  0.00     0.074 A 
ATOM     47  C   UNL A   1      39.642  28.695  32.506  1.00  0.00     0.031 C 
ATOM     48  C   UNL A   1      41.339  27.645  26.263  1.00  0.00     0.029 A 
ATOM     49  C   UNL A   1      42.331  27.447  27.302  1.00  0.00     0.049 A 
ATOM     50  H   UNL A   1      42.426  28.445  29.136  1.00  0.00     0.167 HD
ATOM     51  C   UNL A   1      41.798  29.745  33.372  1.00  0.00     0.031 A 
ATOM     52  C   UNL A   1      43.418  26.633  27.336  1.00  0.00     0.031 A 
ATOM     53  C   UNL A   1      42.781  30.679  32.876  1.00  0.00     0.049 A 
ATOM     54  C   UNL A   1      44.298  27.159  28.414  1.00  0.00     0.074 A 
ATOM     55  C   UNL A   1      42.754  32.012  32.516  1.00  0.00     0.029 A 
ATOM     56  N   UNL A   1      43.890  30.144  32.257  1.00  0.00    -0.354 N 
ATOM     57  N   UNL A   1      44.849  28.343  28.364  1.00  0.00    -0.248 NA
ATOM     58  C   UNL A   1      44.134  26.606  29.750  1.00  0.00     0.031 C 
ATOM     59  C   UNL A   1      43.530  32.080  31.319  1.00  0.00     0.029 A 
ATOM     60  C   UNL A   1      44.061  30.812  31.068  1.00  0.00     0.049 A 
ATOM     61  H   UNL A   1      44.457  29.416  32.603  1.00  0.00     0.167 HD
ATOM     62  C   UNL A   1      44.700  28.864  29.644  1.00  0.00     0.074 A 
ATOM     63  C   UNL A   1      44.326  27.715  30.474  1.00  0.00     0.031 C 
ATOM     64  C   UNL A   1      44.598  30.210  29.863  1.00  0.00     0.031 A 
BRANCH  51  65
ATOM     65  C   UNL A   1      42.122  28.753  34.457  1.00  0.00    -0.014 A 
ATOM     66  C   UNL A   1      42.469  29.238  35.732  1.00  0.00     0.010 A 
ATOM     67  C   UNL A   1      42.352  27.384  34.204  1.00  0.00     0.010 A 
ATOM     68  C   UNL A   1      43.076  28.409  36.683  1.00  0.00     0.020 A 
ATOM     69  C   UNL A   1      42.916  26.538  35.160  1.00  0.00     0.020 A 
ATOM     70  C   UNL A   1      43.307  27.066  36.382  1.00  0.00     0.054 A 
BRANCH  70  71
ATOM     71  S   UNL A   1      44.190  26.032  37.575  1.00  0.00     0.124 S 
ATOM     72  O   UNL A   1      45.578  26.406  37.325  1.00  0.00    -0.237 OA
ATOM     73  O   UNL A   1      43.630  26.481  38.847  1.00  0.00    -0.237 OA
ATOM     74  O   UNL A   1      43.826  24.672  37.184  1.00  0.00    -0.744 OA
ENDBRANCH  70  71
ENDBRANCH  51  65
BRANCH  52  75
ATOM     75  C   UNL A   1      43.537  25.255  26.781  1.00  0.00    -0.014 A 
ATOM     76  C   UNL A   1      43.164  24.955  25.457  1.00  0.00     0.010 A 
ATOM     77  C   UNL A   1      44.289  24.285  27.478  1.00  0.00     0.010 A 
ATOM     78  C   UNL A   1      43.579  23.759  24.837  1.00  0.00     0.020 A 
ATOM     79  C   UNL A   1      44.704  23.093  26.869  1.00  0.00     0.020 A 
ATOM     80  C   UNL A   1      44.366  22.843  25.541  1.00  0.00     0.054 A 
BRANCH  80  81
ATOM     81  S   UNL A   1      45.048  21.389  24.685  1.00  0.00     0.124 S 
ATOM     82  O   UNL A   1      44.620  21.609  23.306  1.00  0.00    -0.237 OA
ATOM     83  O   UNL A   1      46.481  21.519  24.928  1.00  0.00    -0.237 OA
ATOM     84  O   UNL A   1      44.409  20.261  25.359  1.00  0.00    -0.744 OA
ENDBRANCH  80  81
ENDBRANCH  52  75
BRANCH  64  85
ATOM     85  C   UNL A   1      44.849  31.153  28.700  1.00  0.00    -0.014 A 
ATOM     86  C   UNL A   1      43.884  31.476  27.723  1.00  0.00     0.010 A 
ATOM     87  C   UNL A   1      46.059  31.866  28.693  1.00  0.00     0.010 A 
ATOM     88  C   UNL A   1      44.135  32.465  26.755  1.00  0.00     0.020 A 
ATOM     89  C   UNL A   1      46.312  32.861  27.743  1.00  0.00     0.020 A 
ATOM     90  C   UNL A   1      45.353  33.150  26.771  1.00  0.00     0.054 A 
BRANCH  90  91
ATOM     91  S   UNL A   1      45.671  34.446  25.539  1.00  0.00     0.124 S 
ATOM     92  O   UNL A   1      44.772  34.076  24.450  1.00  0.00    -0.237 OA
ATOM     93  O   UNL A   1      45.321  35.670  26.254  1.00  0.00    -0.237 OA
ATOM     94  O   UNL A   1      47.095  34.300  25.239  1.00  0.00    -0.744 OA
ENDBRANCH  90  91
ENDBRANCH  64  85
ENDBRANCH  38  39
ENDBRANCH  30  33
ENDBRANCH  28  29
ENDBRANCH  27  28
ENDBRANCH   1  27
TORSDOF 17
ENDMDL
MODEL 3
REMARK VINA RESULT:     -10.7      1.750      2.484
REMARK SMILES CCOc1ccc(-n2nnc(-c3nc(C)c(C(=O)NCCCNC(=O)c4ccc(-c5c6nc(c(-c7ccc(S(=O)(=O)[O-])cc7)c7ccc([nH]7)c(-c7ccc(S(=O)(=O)[O-])cc7)c7nc(c(-c8ccc(S(=O)(=O)[O-])cc8)c8ccc5[nH]8)C=C7)C=C6)cc4)s3)c2C)cc1
REMARK SMILES IDX 20 1 19 2 17 3 18 4 16 6 12 7 13 8 86 9 14 10 15 11 11 12
REMARK SMILES IDX 8 13 9 14 87 15 10 16 88 17 7 18 4 19 5 20 90 21 6 22 89 23
REMARK SMILES IDX 3 24 2 25 1 26 21 27 22 28 23 29 24 30 25 32 26 33 27 34
REMARK SMILES IDX 85 35 28 36 84 37 29 38 30 39 31 40 78 41 32 42 83 43 77 44
REMARK SMILES IDX 79 45 33 46 82 47 76 48 75 49 34 51 64 52 45 53 63 54 46 55
REMARK SMILES IDX 49 56 62 57 80 58 47 59 48 60 61 62 81 63 50 64 35 65 36 66
REMARK SMILES IDX 44 67 37 68 43 69 38 70 39 71 40 72 41 73 42 74 65 75 66 76
REMARK SMILES IDX 74 77 67 78 73 79 68 80 69 81 70 82 71 83 72 84 51 85 52 86
REMARK SMILES IDX 60 87 53 88 59 89 54 90 55 91 56 92 57 93 58 94
REMARK H PARENT 19 5 23 31 79 50 49 61
REMARK Flexibility Score: inf
ROOT
ATOM      1  C   UNL A   1      32.399  27.978  26.733  1.00  0.00     0.118 C 
ENDROOT
BRANCH   1   2
ATOM      2  N   UNL A   1      31.567  28.097  25.539  1.00  0.00    -0.351 N 
ATOM      3  C   UNL A   1      31.670  27.462  24.313  1.00  0.00     0.263 C 
ATOM      4  O   UNL A   1      30.726  27.600  23.537  1.00  0.00    -0.268 OA
ATOM      5  H   UNL A   1      30.816  28.728  25.618  1.00  0.00     0.163 HD
BRANCH   3   6
ATOM      6  C   UNL A   1      32.789  26.586  24.051  1.00  0.00     0.115 A 
ATOM      7  C   UNL A   1      34.219  24.672  24.127  1.00  0.00     0.146 A 
ATOM      8  N   UNL A   1      34.151  25.109  22.885  1.00  0.00    -0.239 NA
ATOM      9  S   UNL A   1      33.666  25.790  25.297  1.00  0.00    -0.107 S 
ATOM     10  C   UNL A   1      33.483  26.340  22.874  1.00  0.00     0.062 A 
ATOM     11  C   UNL A   1      33.493  27.160  21.632  1.00  0.00     0.068 C 
BRANCH   7  12
ATOM     12  C   UNL A   1      34.522  23.272  24.548  1.00  0.00     0.145 A 
ATOM     13  N   UNL A   1      34.242  21.134  24.868  1.00  0.00    -0.217 N 
ATOM     14  N   UNL A   1      34.832  21.649  25.972  1.00  0.00    -0.061 NA
ATOM     15  C   UNL A   1      33.919  22.156  23.987  1.00  0.00     0.072 A 
ATOM     16  N   UNL A   1      35.027  22.946  25.775  1.00  0.00    -0.127 NA
ATOM     17  C   UNL A   1      32.913  22.059  22.895  1.00  0.00     0.069 C 
BRANCH  13  18
ATOM     18  C   UNL A   1      33.959  19.752  24.763  1.00  0.00     0.067 A 
ATOM     19  C   UNL A   1      33.426  17.039  24.380  1.00  0.00     0.119 A 
ATOM     20  C   UNL A   1      32.370  17.945  24.505  1.00  0.00     0.048 A 
ATOM     21  C   UNL A   1      34.742  17.489  24.441  1.00  0.00     0.048 A 
ATOM     22  C   UNL A   1      32.632  19.303  24.724  1.00  0.00     0.032 A 
ATOM     23  C   UNL A   1      35.011  18.839  24.652  1.00  0.00     0.032 A 
BRANCH  19  24
ATOM     24  O   UNL A   1      33.141  15.744  24.047  1.00  0.00    -0.494 OA
BRANCH  24  25
ATOM     25  C   UNL A   1      32.987  14.871  25.174  1.00  0.00     0.226 C 
ATOM     26  C   UNL A   1      32.136  15.473  26.282  1.00  0.00     0.049 C 
ENDBRANCH  24  25
ENDBRANCH  19  24
ENDBRANCH  13  18
ENDBRANCH   7  12
ENDBRANCH   3   6
ENDBRANCH   1   2
BRANCH   1  27
ATOM     27  C   UNL A   1      32.632  29.317  27.443  1.00  0.00     0.042 C 
BRANCH  27  28
ATOM     28  C   UNL A   1      33.920  29.971  27.000  1.00  0.00     0.118 C 
BRANCH  28  29
ATOM     29  N   UNL A   1      34.035  31.378  27.415  1.00  0.00    -0.352 N 
ATOM     30  C   UNL A   1      34.888  31.921  28.375  1.00  0.00     0.251 C 
ATOM     31  H   UNL A   1      33.436  32.013  26.960  1.00  0.00     0.163 HD
ATOM     32  O   UNL A   1      34.669  33.009  28.873  1.00  0.00    -0.269 OA
BRANCH  30  33
ATOM     33  C   UNL A   1      36.077  31.130  28.747  1.00  0.00     0.039 A 
ATOM     34  C   UNL A   1      36.164  29.739  28.664  1.00  0.00     0.014 A 
ATOM     35  C   UNL A   1      37.183  31.882  29.098  1.00  0.00     0.014 A 
ATOM     36  C   UNL A   1      37.406  29.149  28.908  1.00  0.00     0.010 A 
ATOM     37  C   UNL A   1      38.410  31.349  28.894  1.00  0.00     0.010 A 
ATOM     38  C   UNL A   1      38.526  29.984  29.028  1.00  0.00    -0.014 A 
BRANCH  38  39
ATOM     39  C   UNL A   1      39.882  29.532  29.275  1.00  0.00     0.031 A 
ATOM     40  C   UNL A   1      40.180  29.269  30.697  1.00  0.00     0.074 A 
ATOM     41  C   UNL A   1      40.674  29.092  28.267  1.00  0.00     0.049 A 
ATOM     42  N   UNL A   1      40.908  29.984  31.485  1.00  0.00    -0.248 NA
ATOM     43  C   UNL A   1      39.446  28.187  31.376  1.00  0.00     0.031 C 
ATOM     44  C   UNL A   1      40.371  28.947  26.830  1.00  0.00     0.029 A 
ATOM     45  N   UNL A   1      41.909  28.544  28.347  1.00  0.00    -0.354 N 
ATOM     46  C   UNL A   1      40.925  29.306  32.695  1.00  0.00     0.074 A 
ATOM     47  C   UNL A   1      39.840  28.358  32.638  1.00  0.00     0.031 C 
ATOM     48  C   UNL A   1      41.282  28.133  26.248  1.00  0.00     0.029 A 
ATOM     49  C   UNL A   1      42.327  27.853  27.214  1.00  0.00     0.049 A 
ATOM     50  H   UNL A   1      42.472  28.627  29.149  1.00  0.00     0.167 HD
ATOM     51  C   UNL A   1      41.995  29.384  33.535  1.00  0.00     0.031 A 
ATOM     52  C   UNL A   1      43.443  27.086  27.103  1.00  0.00     0.031 A 
ATOM     53  C   UNL A   1      42.921  30.410  33.115  1.00  0.00     0.049 A 
ATOM     54  C   UNL A   1      44.353  27.514  28.200  1.00  0.00     0.074 A 
ATOM     55  C   UNL A   1      42.830  31.774  32.921  1.00  0.00     0.029 A 
ATOM     56  N   UNL A   1      44.018  29.999  32.390  1.00  0.00    -0.354 N 
ATOM     57  N   UNL A   1      44.859  28.717  28.270  1.00  0.00    -0.248 NA
ATOM     58  C   UNL A   1      44.271  26.799  29.464  1.00  0.00     0.031 C 
ATOM     59  C   UNL A   1      43.546  32.016  31.710  1.00  0.00     0.029 A 
ATOM     60  C   UNL A   1      44.110  30.810  31.284  1.00  0.00     0.049 A 
ATOM     61  H   UNL A   1      44.626  29.259  32.621  1.00  0.00     0.167 HD
ATOM     62  C   UNL A   1      44.751  29.074  29.609  1.00  0.00     0.074 A 
ATOM     63  C   UNL A   1      44.457  27.820  30.309  1.00  0.00     0.031 C 
ATOM     64  C   UNL A   1      44.611  30.379  29.994  1.00  0.00     0.031 A 
BRANCH  51  65
ATOM     65  C   UNL A   1      42.404  28.284  34.476  1.00  0.00    -0.014 A 
ATOM     66  C   UNL A   1      41.966  28.342  35.813  1.00  0.00     0.010 A 
ATOM     67  C   UNL A   1      43.409  27.343  34.170  1.00  0.00     0.010 A 
ATOM     68  C   UNL A   1      42.550  27.544  36.804  1.00  0.00     0.020 A 
ATOM     69  C   UNL A   1      43.968  26.511  35.141  1.00  0.00     0.020 A 
ATOM     70  C   UNL A   1      43.558  26.643  36.460  1.00  0.00     0.054 A 
BRANCH  70  71
ATOM     71  S   UNL A   1      44.381  25.697  37.764  1.00  0.00     0.124 S 
ATOM     72  O   UNL A   1      45.782  26.036  37.542  1.00  0.00    -0.237 OA
ATOM     73  O   UNL A   1      43.777  26.250  38.974  1.00  0.00    -0.237 OA
ATOM     74  O   UNL A   1      44.015  24.314  37.466  1.00  0.00    -0.744 OA
ENDBRANCH  70  71
ENDBRANCH  51  65
BRANCH  52  75
ATOM     75  C   UNL A   1      43.584  25.790  26.381  1.00  0.00    -0.014 A 
ATOM     76  C   UNL A   1      44.690  25.521  25.550  1.00  0.00     0.010 A 
ATOM     77  C   UNL A   1      42.762  24.699  26.737  1.00  0.00     0.010 A 
ATOM     78  C   UNL A   1      44.992  24.206  25.143  1.00  0.00     0.020 A 
ATOM     79  C   UNL A   1      43.055  23.389  26.335  1.00  0.00     0.020 A 
ATOM     80  C   UNL A   1      44.184  23.143  25.557  1.00  0.00     0.054 A 
BRANCH  80  81
ATOM     81  S   UNL A   1      44.676  21.432  25.179  1.00  0.00     0.124 S 
ATOM     82  O   UNL A   1      46.036  21.374  25.708  1.00  0.00    -0.237 OA
ATOM     83  O   UNL A   1      43.683  20.647  25.907  1.00  0.00    -0.237 OA
ATOM     84  O   UNL A   1      44.573  21.357  23.723  1.00  0.00    -0.744 OA
ENDBRANCH  80  81
ENDBRANCH  52  75
BRANCH  64  85
ATOM     85  C   UNL A   1      44.775  31.464  28.944  1.00  0.00    -0.014 A 
ATOM     86  C   UNL A   1      43.719  31.959  28.150  1.00  0.00     0.010 A 
ATOM     87  C   UNL A   1      46.015  32.121  28.878  1.00  0.00     0.010 A 
ATOM     88  C   UNL A   1      43.909  33.062  27.298  1.00  0.00     0.020 A 
ATOM     89  C   UNL A   1      46.208  33.228  28.046  1.00  0.00     0.020 A 
ATOM     90  C   UNL A   1      45.158  33.688  27.250  1.00  0.00     0.054 A 
BRANCH  90  91
ATOM     91  S   UNL A   1      45.399  35.129  26.171  1.00  0.00     0.124 S 
ATOM     92  O   UNL A   1      45.548  34.518  24.854  1.00  0.00    -0.237 OA
ATOM     93  O   UNL A   1      44.173  35.897  26.372  1.00  0.00    -0.237 OA
ATOM     94  O   UNL A   1      46.608  35.761  26.699  1.00  0.00    -0.744 OA
ENDBRANCH  90  91
ENDBRANCH  64  85
ENDBRANCH  38  39
ENDBRANCH  30  33
ENDBRANCH  28  29
ENDBRANCH  27  28
ENDBRANCH   1  27
TORSDOF 17
ENDMDL
