MODEL 1
REMARK VINA RESULT:     -14.7      0.000      0.000
REMARK SMILES Cc1ccc(-c2nc(C)cc(N3CCCC[C@H]3C(=O)NCCCNC(=O)c3ccc(-c4c5nc(c(-c6ccc(S(=O)(=O)[O-])cc6)c6ccc([nH]6)c(-c6ccc(S(=O)(=O)[O-])cc6)c6nc(c(-c7ccc(S(=O)(=O)[O-])cc7)c7ccc4[nH]7)C=C6)C=C5)cc3)n2)cc1
REMARK SMILES IDX 22 1 21 2 20 3 18 4 19 5 17 7 12 8 13 9 14 10 16 11 15 12
REMARK SMILES IDX 11 13 6 14 7 15 87 16 8 17 9 18 10 19 5 20 1 21 2 22 3 23
REMARK SMILES IDX 89 24 4 25 88 26 23 27 24 28 25 29 26 31 27 32 28 33 86 34
REMARK SMILES IDX 29 35 85 36 30 37 31 38 32 39 79 40 33 41 84 42 78 43 80 44
REMARK SMILES IDX 34 45 83 46 77 47 76 48 35 50 65 51 46 52 64 53 47 54 50 55
REMARK SMILES IDX 63 56 81 57 48 58 49 59 62 61 82 62 51 63 36 64 37 65 45 66
REMARK SMILES IDX 38 67 44 68 39 69 40 70 41 71 42 72 43 73 66 74 67 75 75 76
REMARK SMILES IDX 68 77 74 78 69 79 70 80 71 81 72 82 73 83 52 84 53 85 61 86
REMARK SMILES IDX 54 87 60 88 55 89 56 90 57 91 58 92 59 93
REMARK H PARENT 20 6 24 30 80 49 50 60
REMARK Flexibility Score: inf
ROOT
ATOM      1  C   UNL A   1      33.038  30.474  27.077  1.00  0.00     0.042 C 
ENDROOT
BRANCH   1   2
ATOM      2  C   UNL A   1      32.400  29.661  25.959  1.00  0.00     0.117 C 
BRANCH   2   3
ATOM      3  N   UNL A   1      31.810  28.430  26.462  1.00  0.00    -0.354 N 
ATOM      4  C   UNL A   1      31.937  27.113  26.166  1.00  0.00     0.242 C 
ATOM      5  O   UNL A   1      31.256  26.360  26.884  1.00  0.00    -0.273 OA
ATOM      6  H   UNL A   1      31.167  28.590  27.190  1.00  0.00     0.163 HD
BRANCH   4   7
ATOM      7  C   UNL A   1      32.894  26.472  25.105  1.00  0.00     0.173 C 
ATOM      8  N   UNL A   1      32.575  25.025  24.993  1.00  0.00    -0.344 N 
ATOM      9  C   UNL A   1      31.425  24.659  24.176  1.00  0.00     0.119 C 
ATOM     10  C   UNL A   1      31.604  25.148  22.744  1.00  0.00     0.022 C 
ATOM     11  C   UNL A   1      33.061  27.009  23.676  1.00  0.00     0.035 C 
ATOM     12  C   UNL A   1      31.932  26.636  22.714  1.00  0.00     0.004 C 
BRANCH   8  13
ATOM     13  C   UNL A   1      33.612  24.113  25.091  1.00  0.00     0.133 A 
ATOM     14  C   UNL A   1      34.382  21.955  25.015  1.00  0.00     0.161 A 
ATOM     15  N   UNL A   1      35.623  22.281  25.420  1.00  0.00    -0.233 NA
ATOM     16  N   UNL A   1      33.367  22.817  24.848  1.00  0.00    -0.211 NA
ATOM     17  C   UNL A   1      35.847  23.590  25.644  1.00  0.00     0.043 A 
ATOM     18  C   UNL A   1      37.219  23.965  26.112  1.00  0.00     0.067 C 
ATOM     19  C   UNL A   1      34.865  24.547  25.476  1.00  0.00     0.070 A 
BRANCH  14  20
ATOM     20  C   UNL A   1      34.121  20.548  24.704  1.00  0.00     0.019 A 
ATOM     21  C   UNL A   1      33.349  16.384  23.794  1.00  0.00     0.044 C 
ATOM     22  C   UNL A   1      33.623  17.822  24.117  1.00  0.00    -0.051 A 
ATOM     23  C   UNL A   1      32.604  18.774  23.997  1.00  0.00     0.004 A 
ATOM     24  C   UNL A   1      34.896  18.240  24.519  1.00  0.00     0.004 A 
ATOM     25  C   UNL A   1      32.848  20.118  24.297  1.00  0.00     0.012 A 
ATOM     26  C   UNL A   1      35.142  19.587  24.801  1.00  0.00     0.012 A 
ENDBRANCH  14  20
ENDBRANCH   8  13
ENDBRANCH   4   7
ENDBRANCH   2   3
ENDBRANCH   1   2
BRANCH   1  27
ATOM     27  C   UNL A   1      34.450  30.022  27.439  1.00  0.00     0.118 C 
BRANCH  27  28
ATOM     28  N   UNL A   1      35.231  31.103  28.040  1.00  0.00    -0.352 N 
ATOM     29  C   UNL A   1      36.474  31.033  28.645  1.00  0.00     0.251 C 
ATOM     30  H   UNL A   1      34.820  31.997  28.010  1.00  0.00     0.163 HD
ATOM     31  O   UNL A   1      36.990  31.960  29.245  1.00  0.00    -0.269 OA
BRANCH  29  32
ATOM     32  C   UNL A   1      37.201  29.767  28.452  1.00  0.00     0.039 A 
ATOM     33  C   UNL A   1      37.381  28.975  29.591  1.00  0.00     0.014 A 
ATOM     34  C   UNL A   1      38.012  29.644  27.327  1.00  0.00     0.014 A 
ATOM     35  C   UNL A   1      38.523  28.194  29.691  1.00  0.00     0.010 A 
ATOM     36  C   UNL A   1      39.191  28.939  27.469  1.00  0.00     0.010 A 
ATOM     37  C   UNL A   1      39.472  28.274  28.674  1.00  0.00    -0.014 A 
BRANCH  37  38
ATOM     38  C   UNL A   1      40.831  27.767  28.823  1.00  0.00     0.031 A 
ATOM     39  C   UNL A   1      41.113  26.366  28.448  1.00  0.00     0.074 A 
ATOM     40  C   UNL A   1      41.822  28.576  29.263  1.00  0.00     0.049 A 
ATOM     41  N   UNL A   1      42.088  25.660  28.912  1.00  0.00    -0.248 NA
ATOM     42  C   UNL A   1      40.231  25.616  27.559  1.00  0.00     0.031 C 
ATOM     43  C   UNL A   1      43.255  28.298  29.232  1.00  0.00     0.029 A 
ATOM     44  N   UNL A   1      41.722  29.736  30.039  1.00  0.00    -0.354 N 
ATOM     45  C   UNL A   1      42.139  24.497  28.174  1.00  0.00     0.074 A 
ATOM     46  C   UNL A   1      40.903  24.471  27.431  1.00  0.00     0.031 C 
ATOM     47  C   UNL A   1      43.857  29.042  30.173  1.00  0.00     0.029 A 
ATOM     48  C   UNL A   1      42.811  29.716  30.926  1.00  0.00     0.049 A 
ATOM     49  H   UNL A   1      41.025  30.429  29.975  1.00  0.00     0.167 HD
ATOM     50  C   UNL A   1      43.288  23.760  28.158  1.00  0.00     0.031 A 
ATOM     51  C   UNL A   1      42.685  29.697  32.285  1.00  0.00     0.031 A 
ATOM     52  C   UNL A   1      44.249  24.260  29.141  1.00  0.00     0.049 A 
ATOM     53  C   UNL A   1      43.308  28.463  32.910  1.00  0.00     0.074 A 
ATOM     54  C   UNL A   1      45.366  25.072  29.038  1.00  0.00     0.029 A 
ATOM     55  N   UNL A   1      43.934  24.192  30.494  1.00  0.00    -0.354 N 
ATOM     56  N   UNL A   1      43.661  27.405  32.233  1.00  0.00    -0.248 NA
ATOM     57  C   UNL A   1      43.530  28.302  34.346  1.00  0.00     0.031 C 
ATOM     58  C   UNL A   1      45.643  25.594  30.330  1.00  0.00     0.029 A 
ATOM     59  C   UNL A   1      44.726  25.063  31.220  1.00  0.00     0.049 A 
ATOM     60  H   UNL A   1      43.244  23.605  30.881  1.00  0.00     0.167 HD
ATOM     61  C   UNL A   1      44.123  26.443  33.089  1.00  0.00     0.074 A 
ATOM     62  C   UNL A   1      44.034  27.055  34.402  1.00  0.00     0.031 C 
ATOM     63  C   UNL A   1      44.529  25.213  32.656  1.00  0.00     0.031 A 
BRANCH  50  64
ATOM     64  C   UNL A   1      43.644  22.796  27.040  1.00  0.00    -0.014 A 
ATOM     65  C   UNL A   1      42.823  21.673  26.803  1.00  0.00     0.010 A 
ATOM     66  C   UNL A   1      44.811  22.872  26.256  1.00  0.00     0.010 A 
ATOM     67  C   UNL A   1      43.198  20.645  25.918  1.00  0.00     0.020 A 
ATOM     68  C   UNL A   1      45.214  21.844  25.390  1.00  0.00     0.020 A 
ATOM     69  C   UNL A   1      44.411  20.725  25.239  1.00  0.00     0.054 A 
BRANCH  69  70
ATOM     70  S   UNL A   1      44.933  19.358  24.172  1.00  0.00     0.124 S 
ATOM     71  O   UNL A   1      44.250  18.213  24.769  1.00  0.00    -0.237 OA
ATOM     72  O   UNL A   1      44.442  19.775  22.862  1.00  0.00    -0.237 OA
ATOM     73  O   UNL A   1      46.389  19.344  24.311  1.00  0.00    -0.744 OA
ENDBRANCH  69  70
ENDBRANCH  50  64
BRANCH  51  74
ATOM     74  C   UNL A   1      41.488  30.407  32.809  1.00  0.00    -0.014 A 
ATOM     75  C   UNL A   1      40.318  29.644  33.012  1.00  0.00     0.010 A 
ATOM     76  C   UNL A   1      41.618  31.639  33.472  1.00  0.00     0.010 A 
ATOM     77  C   UNL A   1      39.383  30.016  33.981  1.00  0.00     0.020 A 
ATOM     78  C   UNL A   1      40.682  32.013  34.449  1.00  0.00     0.020 A 
ATOM     79  C   UNL A   1      39.605  31.166  34.737  1.00  0.00     0.054 A 
BRANCH  79  80
ATOM     80  S   UNL A   1      38.591  31.416  36.227  1.00  0.00     0.124 S 
ATOM     81  O   UNL A   1      39.510  32.124  37.112  1.00  0.00    -0.237 OA
ATOM     82  O   UNL A   1      37.475  32.214  35.713  1.00  0.00    -0.237 OA
ATOM     83  O   UNL A   1      38.246  30.057  36.627  1.00  0.00    -0.744 OA
ENDBRANCH  79  80
ENDBRANCH  51  74
BRANCH  63  84
ATOM     84  C   UNL A   1      44.853  24.048  33.552  1.00  0.00    -0.014 A 
ATOM     85  C   UNL A   1      43.919  23.065  33.920  1.00  0.00     0.010 A 
ATOM     86  C   UNL A   1      46.196  23.843  33.942  1.00  0.00     0.010 A 
ATOM     87  C   UNL A   1      44.297  21.963  34.700  1.00  0.00     0.020 A 
ATOM     88  C   UNL A   1      46.591  22.727  34.684  1.00  0.00     0.020 A 
ATOM     89  C   UNL A   1      45.629  21.805  35.083  1.00  0.00     0.054 A 
BRANCH  89  90
ATOM     90  S   UNL A   1      46.119  20.354  36.048  1.00  0.00     0.124 S 
ATOM     91  O   UNL A   1      45.716  20.742  37.398  1.00  0.00    -0.237 OA
ATOM     92  O   UNL A   1      45.335  19.278  35.447  1.00  0.00    -0.237 OA
ATOM     93  O   UNL A   1      47.560  20.264  35.825  1.00  0.00    -0.744 OA
ENDBRANCH  89  90
ENDBRANCH  63  84
ENDBRANCH  37  38
ENDBRANCH  29  32
ENDBRANCH  27  28
ENDBRANCH   1  27
TORSDOF 15
ENDMDL
MODEL 2
REMARK VINA RESULT:     -14.7      4.771     11.496
REMARK SMILES Cc1ccc(-c2nc(C)cc(N3CCCC[C@H]3C(=O)NCCCNC(=O)c3ccc(-c4c5nc(c(-c6ccc(S(=O)(=O)[O-])cc6)c6ccc([nH]6)c(-c6ccc(S(=O)(=O)[O-])cc6)c6nc(c(-c7ccc(S(=O)(=O)[O-])cc7)c7ccc4[nH]7)C=C6)C=C5)cc3)n2)cc1
REMARK SMILES IDX 22 1 21 2 20 3 18 4 19 5 17 7 12 8 13 9 14 10 16 11 15 12
REMARK SMILES IDX 11 13 6 14 7 15 87 16 8 17 9 18 10 19 5 20 1 21 2 22 3 23
REMARK SMILES IDX 89 24 4 25 88 26 23 27 24 28 25 29 26 31 27 32 28 33 86 34
REMARK SMILES IDX 29 35 85 36 30 37 31 38 32 39 79 40 33 41 84 42 78 43 80 44
REMARK SMILES IDX 34 45 83 46 77 47 76 48 35 50 65 51 46 52 64 53 47 54 50 55
REMARK SMILES IDX 63 56 81 57 48 58 49 59 62 61 82 62 51 63 36 64 37 65 45 66
REMARK SMILES IDX 38 67 44 68 39 69 40 70 41 71 42 72 43 73 66 74 67 75 75 76
REMARK SMILES IDX 68 77 74 78 69 79 70 80 71 81 72 82 73 83 52 84 53 85 61 86
REMARK SMILES IDX 54 87 60 88 55 89 56 90 57 91 58 92 59 93
REMARK H PARENT 20 6 24 30 80 49 50 60
REMARK Flexibility Score: inf
ROOT
ATOM      1  C   UNL A   1      37.970  21.973  26.056  1.00  0.00     0.042 C 
ENDROOT
BRANCH   1   2
ATOM      2  C   UNL A   1      37.776  21.324  24.691  1.00  0.00     0.117 C 
BRANCH   2   3
ATOM      3  N   UNL A   1      36.970  22.158  23.813  1.00  0.00    -0.354 N 
ATOM      4  C   UNL A   1      35.666  22.527  23.769  1.00  0.00     0.242 C 
ATOM      5  O   UNL A   1      35.387  23.307  22.841  1.00  0.00    -0.273 OA
ATOM      6  H   UNL A   1      37.495  22.546  23.076  1.00  0.00     0.163 HD
BRANCH   4   7
ATOM      7  C   UNL A   1      34.543  22.149  24.793  1.00  0.00     0.173 C 
ATOM      8  N   UNL A   1      33.240  22.632  24.265  1.00  0.00    -0.344 N 
ATOM      9  C   UNL A   1      32.590  21.813  23.249  1.00  0.00     0.119 C 
ATOM     10  C   UNL A   1      32.320  20.411  23.780  1.00  0.00     0.022 C 
ATOM     11  C   UNL A   1      34.317  20.724  25.318  1.00  0.00     0.035 C 
ATOM     12  C   UNL A   1      33.589  19.791  24.350  1.00  0.00     0.004 C 
BRANCH   8  13
ATOM     13  C   UNL A   1      32.433  23.387  25.097  1.00  0.00     0.133 A 
ATOM     14  C   UNL A   1      32.012  25.331  26.239  1.00  0.00     0.161 A 
ATOM     15  N   UNL A   1      30.920  24.846  26.857  1.00  0.00    -0.233 NA
ATOM     16  N   UNL A   1      32.785  24.651  25.377  1.00  0.00    -0.211 NA
ATOM     17  C   UNL A   1      30.579  23.579  26.548  1.00  0.00     0.043 A 
ATOM     18  C   UNL A   1      29.376  23.020  27.242  1.00  0.00     0.067 C 
ATOM     19  C   UNL A   1      31.306  22.815  25.656  1.00  0.00     0.070 A 
BRANCH  14  20
ATOM     20  C   UNL A   1      32.375  26.725  26.504  1.00  0.00     0.019 A 
ATOM     21  C   UNL A   1      33.443  30.850  27.279  1.00  0.00     0.044 C 
ATOM     22  C   UNL A   1      33.079  29.423  27.001  1.00  0.00    -0.051 A 
ATOM     23  C   UNL A   1      31.798  28.953  27.310  1.00  0.00     0.004 A 
ATOM     24  C   UNL A   1      34.013  28.535  26.455  1.00  0.00     0.004 A 
ATOM     25  C   UNL A   1      31.447  27.623  27.054  1.00  0.00     0.012 A 
ATOM     26  C   UNL A   1      33.665  27.201  26.218  1.00  0.00     0.012 A 
ENDBRANCH  14  20
ENDBRANCH   8  13
ENDBRANCH   4   7
ENDBRANCH   2   3
ENDBRANCH   1   2
BRANCH   1  27
ATOM     27  C   UNL A   1      38.655  23.335  25.999  1.00  0.00     0.118 C 
BRANCH  27  28
ATOM     28  N   UNL A   1      40.013  23.284  26.542  1.00  0.00    -0.352 N 
ATOM     29  C   UNL A   1      40.759  24.313  27.091  1.00  0.00     0.251 C 
ATOM     30  H   UNL A   1      40.454  22.404  26.514  1.00  0.00     0.163 HD
ATOM     31  O   UNL A   1      41.936  24.213  27.390  1.00  0.00    -0.269 OA
BRANCH  29  32
ATOM     32  C   UNL A   1      40.015  25.550  27.378  1.00  0.00     0.039 A 
ATOM     33  C   UNL A   1      40.370  26.676  26.626  1.00  0.00     0.014 A 
ATOM     34  C   UNL A   1      39.364  25.651  28.604  1.00  0.00     0.014 A 
ATOM     35  C   UNL A   1      40.262  27.932  27.209  1.00  0.00     0.010 A 
ATOM     36  C   UNL A   1      39.345  26.891  29.213  1.00  0.00     0.010 A 
ATOM     37  C   UNL A   1      39.857  28.013  28.539  1.00  0.00    -0.014 A 
BRANCH  37  38
ATOM     38  C   UNL A   1      40.022  29.220  29.341  1.00  0.00     0.031 A 
ATOM     39  C   UNL A   1      38.989  30.274  29.261  1.00  0.00     0.074 A 
ATOM     40  C   UNL A   1      41.084  29.356  30.168  1.00  0.00     0.049 A 
ATOM     41  N   UNL A   1      39.185  31.520  29.529  1.00  0.00    -0.248 NA
ATOM     42  C   UNL A   1      37.643  29.994  28.773  1.00  0.00     0.031 C 
ATOM     43  C   UNL A   1      41.261  30.372  31.201  1.00  0.00     0.029 A 
ATOM     44  N   UNL A   1      42.332  28.729  30.095  1.00  0.00    -0.354 N 
ATOM     45  C   UNL A   1      37.952  32.135  29.543  1.00  0.00     0.074 A 
ATOM     46  C   UNL A   1      37.048  31.174  28.959  1.00  0.00     0.031 C 
ATOM     47  C   UNL A   1      42.574  30.514  31.443  1.00  0.00     0.029 A 
ATOM     48  C   UNL A   1      43.282  29.691  30.475  1.00  0.00     0.049 A 
ATOM     49  H   UNL A   1      42.509  27.797  29.831  1.00  0.00     0.167 HD
ATOM     50  C   UNL A   1      37.802  33.330  30.186  1.00  0.00     0.031 A 
ATOM     51  C   UNL A   1      44.291  30.127  29.663  1.00  0.00     0.031 A 
ATOM     52  C   UNL A   1      39.096  33.872  30.598  1.00  0.00     0.049 A 
ATOM     53  C   UNL A   1      44.215  31.616  29.388  1.00  0.00     0.074 A 
ATOM     54  C   UNL A   1      39.772  33.881  31.808  1.00  0.00     0.029 A 
ATOM     55  N   UNL A   1      40.023  34.232  29.626  1.00  0.00    -0.354 N 
ATOM     56  N   UNL A   1      43.166  32.349  29.642  1.00  0.00    -0.248 NA
ATOM     57  C   UNL A   1      45.288  32.382  28.758  1.00  0.00     0.031 C 
ATOM     58  C   UNL A   1      41.144  34.126  31.536  1.00  0.00     0.029 A 
ATOM     59  C   UNL A   1      41.291  34.312  30.172  1.00  0.00     0.049 A 
ATOM     60  H   UNL A   1      39.807  34.406  28.681  1.00  0.00     0.167 HD
ATOM     61  C   UNL A   1      43.386  33.631  29.217  1.00  0.00     0.074 A 
ATOM     62  C   UNL A   1      44.735  33.607  28.681  1.00  0.00     0.031 C 
ATOM     63  C   UNL A   1      42.439  34.609  29.324  1.00  0.00     0.031 A 
BRANCH  50  64
ATOM     64  C   UNL A   1      36.467  33.836  30.704  1.00  0.00    -0.014 A 
ATOM     65  C   UNL A   1      35.438  34.145  29.789  1.00  0.00     0.010 A 
ATOM     66  C   UNL A   1      36.188  34.125  32.053  1.00  0.00     0.010 A 
ATOM     67  C   UNL A   1      34.255  34.796  30.185  1.00  0.00     0.020 A 
ATOM     68  C   UNL A   1      35.027  34.799  32.462  1.00  0.00     0.020 A 
ATOM     69  C   UNL A   1      34.072  35.147  31.520  1.00  0.00     0.054 A 
BRANCH  69  70
ATOM     70  S   UNL A   1      32.590  36.065  32.011  1.00  0.00     0.124 S 
ATOM     71  O   UNL A   1      33.103  36.961  33.045  1.00  0.00    -0.237 OA
ATOM     72  O   UNL A   1      32.189  36.705  30.762  1.00  0.00    -0.237 OA
ATOM     73  O   UNL A   1      31.681  35.027  32.495  1.00  0.00    -0.744 OA
ENDBRANCH  69  70
ENDBRANCH  50  64
BRANCH  51  74
ATOM     74  C   UNL A   1      44.805  29.107  28.709  1.00  0.00    -0.014 A 
ATOM     75  C   UNL A   1      44.258  29.101  27.409  1.00  0.00     0.010 A 
ATOM     76  C   UNL A   1      46.045  28.483  28.927  1.00  0.00     0.010 A 
ATOM     77  C   UNL A   1      45.005  28.638  26.323  1.00  0.00     0.020 A 
ATOM     78  C   UNL A   1      46.799  28.021  27.837  1.00  0.00     0.020 A 
ATOM     79  C   UNL A   1      46.297  28.160  26.538  1.00  0.00     0.054 A 
BRANCH  79  80
ATOM     80  S   UNL A   1      47.372  27.927  25.089  1.00  0.00     0.124 S 
ATOM     81  O   UNL A   1      48.592  28.617  25.495  1.00  0.00    -0.237 OA
ATOM     82  O   UNL A   1      47.473  26.468  25.008  1.00  0.00    -0.237 OA
ATOM     83  O   UNL A   1      46.618  28.554  24.010  1.00  0.00    -0.744 OA
ENDBRANCH  79  80
ENDBRANCH  51  74
BRANCH  63  84
ATOM     84  C   UNL A   1      42.537  35.975  28.700  1.00  0.00    -0.014 A 
ATOM     85  C   UNL A   1      42.004  36.296  27.441  1.00  0.00     0.010 A 
ATOM     86  C   UNL A   1      43.072  37.037  29.466  1.00  0.00     0.010 A 
ATOM     87  C   UNL A   1      42.063  37.605  26.941  1.00  0.00     0.020 A 
ATOM     88  C   UNL A   1      43.098  38.351  28.995  1.00  0.00     0.020 A 
ATOM     89  C   UNL A   1      42.617  38.623  27.718  1.00  0.00     0.054 A 
BRANCH  89  90
ATOM     90  S   UNL A   1      42.645  40.319  27.087  1.00  0.00     0.124 S 
ATOM     91  O   UNL A   1      43.511  40.985  28.057  1.00  0.00    -0.237 OA
ATOM     92  O   UNL A   1      43.209  40.163  25.749  1.00  0.00    -0.237 OA
ATOM     93  O   UNL A   1      41.240  40.720  27.121  1.00  0.00    -0.744 OA
ENDBRANCH  89  90
ENDBRANCH  63  84
ENDBRANCH  37  38
ENDBRANCH  29  32
ENDBRANCH  27  28
ENDBRANCH   1  27
TORSDOF 15
ENDMDL
MODEL 3
REMARK VINA RESULT:     -14.6      1.101      2.081
REMARK SMILES Cc1ccc(-c2nc(C)cc(N3CCCC[C@H]3C(=O)NCCCNC(=O)c3ccc(-c4c5nc(c(-c6ccc(S(=O)(=O)[O-])cc6)c6ccc([nH]6)c(-c6ccc(S(=O)(=O)[O-])cc6)c6nc(c(-c7ccc(S(=O)(=O)[O-])cc7)c7ccc4[nH]7)C=C6)C=C5)cc3)n2)cc1
REMARK SMILES IDX 22 1 21 2 20 3 18 4 19 5 17 7 12 8 13 9 14 10 16 11 15 12
REMARK SMILES IDX 11 13 6 14 7 15 87 16 8 17 9 18 10 19 5 20 1 21 2 22 3 23
REMARK SMILES IDX 89 24 4 25 88 26 23 27 24 28 25 29 26 31 27 32 28 33 86 34
REMARK SMILES IDX 29 35 85 36 30 37 31 38 32 39 79 40 33 41 84 42 78 43 80 44
REMARK SMILES IDX 34 45 83 46 77 47 76 48 35 50 65 51 46 52 64 53 47 54 50 55
REMARK SMILES IDX 63 56 81 57 48 58 49 59 62 61 82 62 51 63 36 64 37 65 45 66
REMARK SMILES IDX 38 67 44 68 39 69 40 70 41 71 42 72 43 73 66 74 67 75 75 76
REMARK SMILES IDX 68 77 74 78 69 79 70 80 71 81 72 82 73 83 52 84 53 85 61 86
REMARK SMILES IDX 54 87 60 88 55 89 56 90 57 91 58 92 59 93
REMARK H PARENT 20 6 24 30 80 49 50 60
REMARK Flexibility Score: inf
ROOT
ATOM      1  C   UNL A   1      33.121  30.542  27.211  1.00  0.00     0.042 C 
ENDROOT
BRANCH   1   2
ATOM      2  C   UNL A   1      32.509  29.743  26.068  1.00  0.00     0.117 C 
BRANCH   2   3
ATOM      3  N   UNL A   1      31.935  28.491  26.539  1.00  0.00    -0.354 N 
ATOM      4  C   UNL A   1      31.987  27.198  26.133  1.00  0.00     0.242 C 
ATOM      5  O   UNL A   1      31.359  26.410  26.862  1.00  0.00    -0.273 OA
ATOM      6  H   UNL A   1      31.377  28.611  27.340  1.00  0.00     0.163 HD
BRANCH   4   7
ATOM      7  C   UNL A   1      32.807  26.618  24.932  1.00  0.00     0.173 C 
ATOM      8  N   UNL A   1      31.977  25.594  24.244  1.00  0.00    -0.344 N 
ATOM      9  C   UNL A   1      30.961  26.076  23.317  1.00  0.00     0.119 C 
ATOM     10  C   UNL A   1      31.595  26.902  22.204  1.00  0.00     0.022 C 
ATOM     11  C   UNL A   1      33.447  27.487  23.841  1.00  0.00     0.035 C 
ATOM     12  C   UNL A   1      32.476  28.004  22.779  1.00  0.00     0.004 C 
BRANCH   8  13
ATOM     13  C   UNL A   1      32.535  24.351  23.999  1.00  0.00     0.133 A 
ATOM     14  C   UNL A   1      34.299  22.895  24.146  1.00  0.00     0.161 A 
ATOM     15  N   UNL A   1      33.706  21.947  23.399  1.00  0.00    -0.233 NA
ATOM     16  N   UNL A   1      33.768  24.087  24.458  1.00  0.00    -0.211 NA
ATOM     17  C   UNL A   1      32.463  22.231  22.962  1.00  0.00     0.043 A 
ATOM     18  C   UNL A   1      31.797  21.192  22.114  1.00  0.00     0.067 C 
ATOM     19  C   UNL A   1      31.832  23.425  23.253  1.00  0.00     0.070 A 
BRANCH  14  20
ATOM     20  C   UNL A   1      35.626  22.593  24.689  1.00  0.00     0.019 A 
ATOM     21  C   UNL A   1      39.543  21.698  26.306  1.00  0.00     0.044 C 
ATOM     22  C   UNL A   1      38.186  22.015  25.755  1.00  0.00    -0.051 A 
ATOM     23  C   UNL A   1      37.426  21.012  25.144  1.00  0.00     0.004 A 
ATOM     24  C   UNL A   1      37.667  23.313  25.820  1.00  0.00     0.004 A 
ATOM     25  C   UNL A   1      36.157  21.296  24.627  1.00  0.00     0.012 A 
ATOM     26  C   UNL A   1      36.406  23.598  25.287  1.00  0.00     0.012 A 
ENDBRANCH  14  20
ENDBRANCH   8  13
ENDBRANCH   4   7
ENDBRANCH   2   3
ENDBRANCH   1   2
BRANCH   1  27
ATOM     27  C   UNL A   1      34.519  30.078  27.608  1.00  0.00     0.118 C 
BRANCH  27  28
ATOM     28  N   UNL A   1      35.349  31.189  28.078  1.00  0.00    -0.352 N 
ATOM     29  C   UNL A   1      36.645  31.150  28.561  1.00  0.00     0.251 C 
ATOM     30  H   UNL A   1      34.930  32.079  28.047  1.00  0.00     0.163 HD
ATOM     31  O   UNL A   1      37.210  32.105  29.064  1.00  0.00    -0.269 OA
BRANCH  29  32
ATOM     32  C   UNL A   1      37.358  29.878  28.358  1.00  0.00     0.039 A 
ATOM     33  C   UNL A   1      37.512  29.065  29.486  1.00  0.00     0.014 A 
ATOM     34  C   UNL A   1      38.182  29.763  27.242  1.00  0.00     0.014 A 
ATOM     35  C   UNL A   1      38.643  28.268  29.588  1.00  0.00     0.010 A 
ATOM     36  C   UNL A   1      39.350  29.040  27.388  1.00  0.00     0.010 A 
ATOM     37  C   UNL A   1      39.607  28.352  28.585  1.00  0.00    -0.014 A 
BRANCH  37  38
ATOM     38  C   UNL A   1      40.957  27.825  28.745  1.00  0.00     0.031 A 
ATOM     39  C   UNL A   1      41.221  26.420  28.371  1.00  0.00     0.074 A 
ATOM     40  C   UNL A   1      41.956  28.619  29.193  1.00  0.00     0.049 A 
ATOM     41  N   UNL A   1      42.182  25.700  28.842  1.00  0.00    -0.248 NA
ATOM     42  C   UNL A   1      40.335  25.684  27.475  1.00  0.00     0.031 C 
ATOM     43  C   UNL A   1      43.385  28.320  29.173  1.00  0.00     0.029 A 
ATOM     44  N   UNL A   1      41.867  29.780  29.969  1.00  0.00    -0.354 N 
ATOM     45  C   UNL A   1      42.221  24.537  28.104  1.00  0.00     0.074 A 
ATOM     46  C   UNL A   1      40.991  24.529  27.351  1.00  0.00     0.031 C 
ATOM     47  C   UNL A   1      43.991  29.055  30.119  1.00  0.00     0.029 A 
ATOM     48  C   UNL A   1      42.949  29.743  30.864  1.00  0.00     0.049 A 
ATOM     49  H   UNL A   1      41.181  30.483  29.900  1.00  0.00     0.167 HD
ATOM     50  C   UNL A   1      43.359  23.783  28.095  1.00  0.00     0.031 A 
ATOM     51  C   UNL A   1      42.813  29.725  32.222  1.00  0.00     0.031 A 
ATOM     52  C   UNL A   1      44.320  24.268  29.086  1.00  0.00     0.049 A 
ATOM     53  C   UNL A   1      43.412  28.482  32.851  1.00  0.00     0.074 A 
ATOM     54  C   UNL A   1      45.450  25.064  28.992  1.00  0.00     0.029 A 
ATOM     55  N   UNL A   1      43.994  24.204  30.436  1.00  0.00    -0.354 N 
ATOM     56  N   UNL A   1      43.755  27.419  32.176  1.00  0.00    -0.248 NA
ATOM     57  C   UNL A   1      43.621  28.317  34.288  1.00  0.00     0.031 C 
ATOM     58  C   UNL A   1      45.725  25.581  30.286  1.00  0.00     0.029 A 
ATOM     59  C   UNL A   1      44.793  25.062  31.169  1.00  0.00     0.049 A 
ATOM     60  H   UNL A   1      43.293  23.627  30.818  1.00  0.00     0.167 HD
ATOM     61  C   UNL A   1      44.196  26.450  33.035  1.00  0.00     0.074 A 
ATOM     62  C   UNL A   1      44.106  27.063  34.347  1.00  0.00     0.031 C 
ATOM     63  C   UNL A   1      44.587  25.215  32.604  1.00  0.00     0.031 A 
BRANCH  50  64
ATOM     64  C   UNL A   1      43.710  22.814  26.979  1.00  0.00    -0.014 A 
ATOM     65  C   UNL A   1      42.943  21.641  26.810  1.00  0.00     0.010 A 
ATOM     66  C   UNL A   1      44.826  22.938  26.131  1.00  0.00     0.010 A 
ATOM     67  C   UNL A   1      43.328  20.616  25.928  1.00  0.00     0.020 A 
ATOM     68  C   UNL A   1      45.241  21.914  25.266  1.00  0.00     0.020 A 
ATOM     69  C   UNL A   1      44.497  20.748  25.181  1.00  0.00     0.054 A 
BRANCH  69  70
ATOM     70  S   UNL A   1      45.039  19.387  24.116  1.00  0.00     0.124 S 
ATOM     71  O   UNL A   1      44.447  19.741  22.827  1.00  0.00    -0.237 OA
ATOM     72  O   UNL A   1      46.493  19.487  24.193  1.00  0.00    -0.237 OA
ATOM     73  O   UNL A   1      44.465  18.200  24.749  1.00  0.00    -0.744 OA
ENDBRANCH  69  70
ENDBRANCH  50  64
BRANCH  51  74
ATOM     74  C   UNL A   1      41.621  30.453  32.738  1.00  0.00    -0.014 A 
ATOM     75  C   UNL A   1      40.424  29.719  32.880  1.00  0.00     0.010 A 
ATOM     76  C   UNL A   1      41.769  31.656  33.448  1.00  0.00     0.010 A 
ATOM     77  C   UNL A   1      39.473  30.085  33.835  1.00  0.00     0.020 A 
ATOM     78  C   UNL A   1      40.815  32.023  34.411  1.00  0.00     0.020 A 
ATOM     79  C   UNL A   1      39.707  31.200  34.638  1.00  0.00     0.054 A 
BRANCH  79  80
ATOM     80  S   UNL A   1      38.658  31.428  36.107  1.00  0.00     0.124 S 
ATOM     81  O   UNL A   1      37.438  31.987  35.533  1.00  0.00    -0.237 OA
ATOM     82  O   UNL A   1      38.541  30.061  36.620  1.00  0.00    -0.237 OA
ATOM     83  O   UNL A   1      39.441  32.335  36.939  1.00  0.00    -0.744 OA
ENDBRANCH  79  80
ENDBRANCH  51  74
BRANCH  63  84
ATOM     84  C   UNL A   1      44.887  24.044  33.501  1.00  0.00    -0.014 A 
ATOM     85  C   UNL A   1      43.948  23.053  33.828  1.00  0.00     0.010 A 
ATOM     86  C   UNL A   1      46.217  23.844  33.937  1.00  0.00     0.010 A 
ATOM     87  C   UNL A   1      44.305  21.946  34.613  1.00  0.00     0.020 A 
ATOM     88  C   UNL A   1      46.593  22.725  34.683  1.00  0.00     0.020 A 
ATOM     89  C   UNL A   1      45.624  21.794  35.041  1.00  0.00     0.054 A 
BRANCH  89  90
ATOM     90  S   UNL A   1      46.089  20.338  36.011  1.00  0.00     0.124 S 
ATOM     91  O   UNL A   1      45.281  19.292  35.387  1.00  0.00    -0.237 OA
ATOM     92  O   UNL A   1      47.528  20.235  35.784  1.00  0.00    -0.237 OA
ATOM     93  O   UNL A   1      45.705  20.698  37.374  1.00  0.00    -0.744 OA
ENDBRANCH  89  90
ENDBRANCH  63  84
ENDBRANCH  37  38
ENDBRANCH  29  32
ENDBRANCH  27  28
ENDBRANCH   1  27
TORSDOF 15
ENDMDL
