MODEL 1
REMARK VINA RESULT:     -12.8      0.000      0.000
REMARK SMILES C[NH+]1CCN(c2nc3c(cc2F)c(=O)c(C(=O)NCCCNC(=O)c2ccc(-c4c5nc(c(-c6ccc(S(=O)(=O)[O-])cc6)c6ccc([nH]6)c(-c6ccc(S(=O)(=O)[O-])cc6)c6nc(c(-c7ccc(S(=O)(=O)[O-])cc7)c7ccc4[nH]7)C=C6)C=C5)cc2)cn3-c2ccc(F)cc2F)CC1
REMARK SMILES IDX 21 1 20 2 19 3 18 4 16 5 17 6 15 8 6 9 7 10 11 11 8 12 10 13
REMARK SMILES IDX 12 14 9 15 86 16 13 17 85 18 14 19 5 20 1 21 2 22 3 23 96 24
REMARK SMILES IDX 4 26 95 27 87 28 88 29 93 30 89 31 92 32 94 33 90 34 91 35
REMARK SMILES IDX 22 36 23 37 24 39 25 40 26 41 84 42 27 43 83 44 28 45 29 46
REMARK SMILES IDX 30 47 77 48 31 49 82 50 76 51 78 52 32 53 81 54 75 55 74 56
REMARK SMILES IDX 33 58 63 59 44 60 62 61 45 62 48 63 61 64 79 65 46 66 47 67
REMARK SMILES IDX 60 69 80 70 49 71 34 72 35 73 43 74 36 75 42 76 37 77 38 78
REMARK SMILES IDX 39 79 40 80 41 81 64 82 65 83 73 84 66 85 72 86 67 87 68 88
REMARK SMILES IDX 69 89 70 90 71 91 50 92 51 93 59 94 52 95 58 96 53 97 54 98
REMARK SMILES IDX 55 99 56 100 57 101
REMARK H PARENT 18 7 2 25 22 38 78 57 48 68
REMARK Flexibility Score: inf
ROOT
ATOM      1  C   UNL A   1      34.160  28.408  26.320  1.00  0.00     0.118 C 
ENDROOT
BRANCH   1   2
ATOM      2  C   UNL A   1      34.041  28.393  24.805  1.00  0.00     0.042 C 
BRANCH   2   3
ATOM      3  C   UNL A   1      32.999  27.400  24.292  1.00  0.00     0.118 C 
BRANCH   3   4
ATOM      4  N   UNL A   1      33.164  27.146  22.871  1.00  0.00    -0.352 N 
ATOM      5  C   UNL A   1      33.367  26.004  22.163  1.00  0.00     0.256 C 
ATOM      6  O   UNL A   1      33.431  26.127  20.935  1.00  0.00    -0.269 OA
ATOM      7  H   UNL A   1      33.117  27.956  22.313  1.00  0.00     0.163 HD
BRANCH   5   8
ATOM      8  C   UNL A   1      33.425  24.649  22.779  1.00  0.00     0.104 A 
ATOM      9  C   UNL A   1      33.423  19.765  24.183  1.00  0.00     0.167 A 
ATOM     10  N   UNL A   1      34.255  20.810  24.419  1.00  0.00    -0.209 NA
ATOM     11  C   UNL A   1      32.255  19.926  23.432  1.00  0.00     0.166 A 
ATOM     12  C   UNL A   1      33.957  22.035  23.911  1.00  0.00     0.151 A 
ATOM     13  C   UNL A   1      31.903  21.178  22.969  1.00  0.00     0.059 A 
ATOM     14  F   UNL A   1      31.435  18.893  23.195  1.00  0.00    -0.203 F 
ATOM     15  C   UNL A   1      32.764  22.244  23.223  1.00  0.00     0.069 A 
ATOM     16  N   UNL A   1      34.861  23.135  24.072  1.00  0.00    -0.297 N 
ATOM     17  C   UNL A   1      32.383  23.601  22.808  1.00  0.00     0.203 A 
ATOM     18  C   UNL A   1      34.551  24.343  23.450  1.00  0.00     0.111 A 
ATOM     19  O   UNL A   1      31.206  23.799  22.543  1.00  0.00    -0.288 OA
BRANCH   9  20
ATOM     20  N   UNL A   1      33.769  18.556  24.730  1.00  0.00    -0.343 N 
ATOM     21  C   UNL A   1      32.520  14.535  25.309  1.00  0.00     0.332 C 
ATOM     22  N   UNL A   1      33.289  15.777  25.354  1.00  0.00    -0.334 N 
ATOM     23  C   UNL A   1      32.502  16.859  25.998  1.00  0.00     0.283 C 
ATOM     24  C   UNL A   1      33.656  16.202  23.983  1.00  0.00     0.283 C 
ATOM     25  H   UNL A   1      34.133  15.603  25.899  1.00  0.00     0.347 HD
ATOM     26  C   UNL A   1      33.270  18.207  26.057  1.00  0.00     0.179 C 
ATOM     27  C   UNL A   1      34.459  17.520  23.974  1.00  0.00     0.179 C 
ENDBRANCH   9  20
BRANCH  16  28
ATOM     28  C   UNL A   1      36.092  23.009  24.785  1.00  0.00     0.083 A 
ATOM     29  C   UNL A   1      36.972  21.944  24.519  1.00  0.00     0.033 A 
ATOM     30  C   UNL A   1      36.464  23.944  25.767  1.00  0.00     0.150 A 
ATOM     31  C   UNL A   1      38.178  21.828  25.214  1.00  0.00     0.041 A 
ATOM     32  C   UNL A   1      37.656  23.826  26.474  1.00  0.00     0.080 A 
ATOM     33  F   UNL A   1      35.650  24.969  26.060  1.00  0.00    -0.205 F 
ATOM     34  C   UNL A   1      38.504  22.767  26.188  1.00  0.00     0.126 A 
ATOM     35  F   UNL A   1      39.657  22.645  26.858  1.00  0.00    -0.207 F 
ENDBRANCH  16  28
ENDBRANCH   5   8
ENDBRANCH   3   4
ENDBRANCH   2   3
ENDBRANCH   1   2
BRANCH   1  36
ATOM     36  N   UNL A   1      33.867  29.723  26.874  1.00  0.00    -0.352 N 
ATOM     37  C   UNL A   1      34.583  30.452  27.791  1.00  0.00     0.251 C 
ATOM     38  H   UNL A   1      33.042  30.148  26.543  1.00  0.00     0.163 HD
ATOM     39  O   UNL A   1      34.073  31.430  28.329  1.00  0.00    -0.269 OA
BRANCH  37  40
ATOM     40  C   UNL A   1      35.963  30.047  28.133  1.00  0.00     0.039 A 
ATOM     41  C   UNL A   1      36.224  29.522  29.401  1.00  0.00     0.014 A 
ATOM     42  C   UNL A   1      37.000  30.204  27.207  1.00  0.00     0.014 A 
ATOM     43  C   UNL A   1      37.520  29.114  29.725  1.00  0.00     0.010 A 
ATOM     44  C   UNL A   1      38.275  29.732  27.506  1.00  0.00     0.010 A 
ATOM     45  C   UNL A   1      38.549  29.203  28.774  1.00  0.00    -0.014 A 
BRANCH  45  46
ATOM     46  C   UNL A   1      39.936  28.811  29.121  1.00  0.00     0.031 A 
ATOM     47  C   UNL A   1      40.804  29.765  29.893  1.00  0.00     0.074 A 
ATOM     48  C   UNL A   1      40.415  27.612  28.735  1.00  0.00     0.049 A 
ATOM     49  N   UNL A   1      42.029  29.600  30.317  1.00  0.00    -0.248 NA
ATOM     50  C   UNL A   1      40.228  31.081  30.221  1.00  0.00     0.031 C 
ATOM     51  C   UNL A   1      39.676  26.619  27.952  1.00  0.00     0.029 A 
ATOM     52  N   UNL A   1      41.633  27.022  28.956  1.00  0.00    -0.354 N 
ATOM     53  C   UNL A   1      42.367  30.785  30.959  1.00  0.00     0.074 A 
ATOM     54  C   UNL A   1      41.244  31.683  30.822  1.00  0.00     0.031 C 
ATOM     55  C   UNL A   1      40.445  25.528  27.790  1.00  0.00     0.029 A 
ATOM     56  C   UNL A   1      41.735  25.753  28.437  1.00  0.00     0.049 A 
ATOM     57  H   UNL A   1      42.366  27.466  29.442  1.00  0.00     0.167 HD
ATOM     58  C   UNL A   1      43.500  31.086  31.631  1.00  0.00     0.031 A 
ATOM     59  C   UNL A   1      42.748  24.865  28.488  1.00  0.00     0.031 A 
ATOM     60  C   UNL A   1      44.604  30.183  31.788  1.00  0.00     0.049 A 
ATOM     61  C   UNL A   1      44.007  25.227  29.227  1.00  0.00     0.074 A 
ATOM     62  C   UNL A   1      45.774  30.375  32.500  1.00  0.00     0.029 A 
ATOM     63  N   UNL A   1      44.672  28.916  31.230  1.00  0.00    -0.354 N 
ATOM     64  N   UNL A   1      44.284  26.331  29.879  1.00  0.00    -0.248 NA
ATOM     65  C   UNL A   1      45.087  24.230  29.245  1.00  0.00     0.031 C 
ATOM     66  C   UNL A   1      46.568  29.239  32.341  1.00  0.00     0.029 A 
ATOM     67  C   UNL A   1      45.874  28.323  31.564  1.00  0.00     0.049 A 
ATOM     68  H   UNL A   1      43.969  28.501  30.679  1.00  0.00     0.167 HD
ATOM     69  C   UNL A   1      45.559  26.154  30.400  1.00  0.00     0.074 A 
ATOM     70  C   UNL A   1      46.003  24.837  29.991  1.00  0.00     0.031 C 
ATOM     71  C   UNL A   1      46.294  27.007  31.153  1.00  0.00     0.031 A 
BRANCH  58  72
ATOM     72  C   UNL A   1      43.595  32.441  32.272  1.00  0.00    -0.014 A 
ATOM     73  C   UNL A   1      44.038  33.552  31.532  1.00  0.00     0.010 A 
ATOM     74  C   UNL A   1      43.174  32.622  33.601  1.00  0.00     0.010 A 
ATOM     75  C   UNL A   1      44.075  34.819  32.117  1.00  0.00     0.020 A 
ATOM     76  C   UNL A   1      43.190  33.893  34.183  1.00  0.00     0.020 A 
ATOM     77  C   UNL A   1      43.645  34.982  33.437  1.00  0.00     0.054 A 
BRANCH  77  78
ATOM     78  S   UNL A   1      43.676  36.648  34.152  1.00  0.00     0.124 S 
ATOM     79  O   UNL A   1      42.253  36.940  34.309  1.00  0.00    -0.237 OA
ATOM     80  O   UNL A   1      44.416  36.444  35.393  1.00  0.00    -0.237 OA
ATOM     81  O   UNL A   1      44.362  37.450  33.140  1.00  0.00    -0.744 OA
ENDBRANCH  77  78
ENDBRANCH  58  72
BRANCH  59  82
ATOM     82  C   UNL A   1      42.586  23.531  27.849  1.00  0.00    -0.014 A 
ATOM     83  C   UNL A   1      42.897  23.356  26.489  1.00  0.00     0.010 A 
ATOM     84  C   UNL A   1      42.179  22.420  28.608  1.00  0.00     0.010 A 
ATOM     85  C   UNL A   1      42.806  22.090  25.901  1.00  0.00     0.020 A 
ATOM     86  C   UNL A   1      42.104  21.150  28.027  1.00  0.00     0.020 A 
ATOM     87  C   UNL A   1      42.422  20.993  26.677  1.00  0.00     0.054 A 
BRANCH  87  88
ATOM     88  S   UNL A   1      42.376  19.353  25.900  1.00  0.00     0.124 S 
ATOM     89  O   UNL A   1      40.956  19.191  25.605  1.00  0.00    -0.237 OA
ATOM     90  O   UNL A   1      43.246  19.538  24.741  1.00  0.00    -0.237 OA
ATOM     91  O   UNL A   1      42.904  18.466  26.934  1.00  0.00    -0.744 OA
ENDBRANCH  87  88
ENDBRANCH  59  82
BRANCH  71  92
ATOM     92  C   UNL A   1      47.656  26.570  31.610  1.00  0.00    -0.014 A 
ATOM     93  C   UNL A   1      47.812  25.892  32.830  1.00  0.00     0.010 A 
ATOM     94  C   UNL A   1      48.746  26.667  30.724  1.00  0.00     0.010 A 
ATOM     95  C   UNL A   1      49.033  25.292  33.146  1.00  0.00     0.020 A 
ATOM     96  C   UNL A   1      49.962  26.054  31.032  1.00  0.00     0.020 A 
ATOM     97  C   UNL A   1      50.093  25.359  32.236  1.00  0.00     0.054 A 
BRANCH  97  98
ATOM     98  S   UNL A   1      51.623  24.464  32.625  1.00  0.00     0.124 S 
ATOM     99  O   UNL A   1      51.744  24.672  34.065  1.00  0.00    -0.237 OA
ATOM    100  O   UNL A   1      51.302  23.101  32.211  1.00  0.00    -0.237 OA
ATOM    101  O   UNL A   1      52.636  25.137  31.814  1.00  0.00    -0.744 OA
ENDBRANCH  97  98
ENDBRANCH  71  92
ENDBRANCH  45  46
ENDBRANCH  37  40
ENDBRANCH   1  36
TORSDOF 15
ENDMDL
MODEL 2
REMARK VINA RESULT:     -12.3      0.920      7.808
REMARK SMILES C[NH+]1CCN(c2nc3c(cc2F)c(=O)c(C(=O)NCCCNC(=O)c2ccc(-c4c5nc(c(-c6ccc(S(=O)(=O)[O-])cc6)c6ccc([nH]6)c(-c6ccc(S(=O)(=O)[O-])cc6)c6nc(c(-c7ccc(S(=O)(=O)[O-])cc7)c7ccc4[nH]7)C=C6)C=C5)cc2)cn3-c2ccc(F)cc2F)CC1
REMARK SMILES IDX 21 1 20 2 19 3 18 4 16 5 17 6 15 8 6 9 7 10 11 11 8 12 10 13
REMARK SMILES IDX 12 14 9 15 86 16 13 17 85 18 14 19 5 20 1 21 2 22 3 23 96 24
REMARK SMILES IDX 4 26 95 27 87 28 88 29 93 30 89 31 92 32 94 33 90 34 91 35
REMARK SMILES IDX 22 36 23 37 24 39 25 40 26 41 84 42 27 43 83 44 28 45 29 46
REMARK SMILES IDX 30 47 77 48 31 49 82 50 76 51 78 52 32 53 81 54 75 55 74 56
REMARK SMILES IDX 33 58 63 59 44 60 62 61 45 62 48 63 61 64 79 65 46 66 47 67
REMARK SMILES IDX 60 69 80 70 49 71 34 72 35 73 43 74 36 75 42 76 37 77 38 78
REMARK SMILES IDX 39 79 40 80 41 81 64 82 65 83 73 84 66 85 72 86 67 87 68 88
REMARK SMILES IDX 69 89 70 90 71 91 50 92 51 93 59 94 52 95 58 96 53 97 54 98
REMARK SMILES IDX 55 99 56 100 57 101
REMARK H PARENT 18 7 2 25 22 38 78 57 48 68
REMARK Flexibility Score: inf
ROOT
ATOM      1  C   UNL A   1      34.029  27.906  26.434  1.00  0.00     0.118 C 
ENDROOT
BRANCH   1   2
ATOM      2  C   UNL A   1      34.186  27.732  24.932  1.00  0.00     0.042 C 
BRANCH   2   3
ATOM      3  C   UNL A   1      32.854  27.594  24.199  1.00  0.00     0.118 C 
BRANCH   3   4
ATOM      4  N   UNL A   1      33.052  27.320  22.785  1.00  0.00    -0.352 N 
ATOM      5  C   UNL A   1      33.291  26.172  22.100  1.00  0.00     0.256 C 
ATOM      6  O   UNL A   1      33.379  26.276  20.872  1.00  0.00    -0.269 OA
ATOM      7  H   UNL A   1      33.002  28.121  22.214  1.00  0.00     0.163 HD
BRANCH   5   8
ATOM      8  C   UNL A   1      33.362  24.828  22.739  1.00  0.00     0.104 A 
ATOM      9  C   UNL A   1      33.442  19.966  24.217  1.00  0.00     0.167 A 
ATOM     10  N   UNL A   1      34.231  21.039  24.473  1.00  0.00    -0.209 NA
ATOM     11  C   UNL A   1      32.304  20.081  23.413  1.00  0.00     0.166 A 
ATOM     12  C   UNL A   1      33.920  22.247  23.934  1.00  0.00     0.151 A 
ATOM     13  C   UNL A   1      31.936  21.316  22.915  1.00  0.00     0.059 A 
ATOM     14  F   UNL A   1      31.526  19.020  23.155  1.00  0.00    -0.203 F 
ATOM     15  C   UNL A   1      32.753  22.410  23.191  1.00  0.00     0.069 A 
ATOM     16  N   UNL A   1      34.783  23.376  24.118  1.00  0.00    -0.297 N 
ATOM     17  C   UNL A   1      32.351  23.750  22.738  1.00  0.00     0.203 A 
ATOM     18  C   UNL A   1      34.465  24.565  23.464  1.00  0.00     0.111 A 
ATOM     19  O   UNL A   1      31.182  23.908  22.418  1.00  0.00    -0.288 OA
BRANCH   9  20
ATOM     20  N   UNL A   1      33.799  18.777  24.797  1.00  0.00    -0.343 N 
ATOM     21  C   UNL A   1      32.689  14.706  25.309  1.00  0.00     0.332 C 
ATOM     22  N   UNL A   1      33.396  15.981  25.403  1.00  0.00    -0.334 N 
ATOM     23  C   UNL A   1      32.516  17.029  25.977  1.00  0.00     0.283 C 
ATOM     24  C   UNL A   1      33.848  16.417  24.061  1.00  0.00     0.283 C 
ATOM     25  H   UNL A   1      34.203  15.848  26.012  1.00  0.00     0.347 HD
ATOM     26  C   UNL A   1      33.215  18.410  26.085  1.00  0.00     0.179 C 
ATOM     27  C   UNL A   1      34.589  17.769  24.104  1.00  0.00     0.179 C 
ENDBRANCH   9  20
BRANCH  16  28
ATOM     28  C   UNL A   1      35.984  23.298  24.887  1.00  0.00     0.083 A 
ATOM     29  C   UNL A   1      36.118  24.018  26.087  1.00  0.00     0.033 A 
ATOM     30  C   UNL A   1      37.063  22.498  24.471  1.00  0.00     0.150 A 
ATOM     31  C   UNL A   1      37.292  23.933  26.839  1.00  0.00     0.041 A 
ATOM     32  C   UNL A   1      38.241  22.421  25.206  1.00  0.00     0.080 A 
ATOM     33  F   UNL A   1      36.982  21.802  23.327  1.00  0.00    -0.205 F 
ATOM     34  C   UNL A   1      38.343  23.140  26.388  1.00  0.00     0.126 A 
ATOM     35  F   UNL A   1      39.470  23.071  27.108  1.00  0.00    -0.207 F 
ENDBRANCH  16  28
ENDBRANCH   5   8
ENDBRANCH   3   4
ENDBRANCH   2   3
ENDBRANCH   1   2
BRANCH   1  36
ATOM     36  N   UNL A   1      33.625  29.261  26.783  1.00  0.00    -0.352 N 
ATOM     37  C   UNL A   1      34.267  30.172  27.586  1.00  0.00     0.251 C 
ATOM     38  H   UNL A   1      32.776  29.566  26.389  1.00  0.00     0.163 HD
ATOM     39  O   UNL A   1      33.673  31.176  27.969  1.00  0.00    -0.269 OA
BRANCH  37  40
ATOM     40  C   UNL A   1      35.667  29.933  27.993  1.00  0.00     0.039 A 
ATOM     41  C   UNL A   1      36.685  30.070  27.047  1.00  0.00     0.014 A 
ATOM     42  C   UNL A   1      35.970  29.554  29.306  1.00  0.00     0.014 A 
ATOM     43  C   UNL A   1      38.013  29.870  27.430  1.00  0.00     0.010 A 
ATOM     44  C   UNL A   1      37.297  29.423  29.702  1.00  0.00     0.010 A 
ATOM     45  C   UNL A   1      38.329  29.560  28.762  1.00  0.00    -0.014 A 
BRANCH  45  46
ATOM     46  C   UNL A   1      39.730  29.305  29.169  1.00  0.00     0.031 A 
ATOM     47  C   UNL A   1      40.357  27.971  28.871  1.00  0.00     0.074 A 
ATOM     48  C   UNL A   1      40.431  30.260  29.813  1.00  0.00     0.049 A 
ATOM     49  N   UNL A   1      41.574  27.563  29.118  1.00  0.00    -0.248 NA
ATOM     50  C   UNL A   1      39.505  26.959  28.224  1.00  0.00     0.031 C 
ATOM     51  C   UNL A   1      39.916  31.579  30.186  1.00  0.00     0.029 A 
ATOM     52  N   UNL A   1      41.728  30.272  30.257  1.00  0.00    -0.354 N 
ATOM     53  C   UNL A   1      41.631  26.254  28.658  1.00  0.00     0.074 A 
ATOM     54  C   UNL A   1      40.316  25.913  28.168  1.00  0.00     0.031 C 
ATOM     55  C   UNL A   1      40.899  32.284  30.771  1.00  0.00     0.029 A 
ATOM     56  C   UNL A   1      42.105  31.462  30.833  1.00  0.00     0.049 A 
ATOM     57  H   UNL A   1      42.334  29.500  30.171  1.00  0.00     0.167 HD
ATOM     58  C   UNL A   1      42.695  25.420  28.616  1.00  0.00     0.031 A 
ATOM     59  C   UNL A   1      43.291  31.852  31.342  1.00  0.00     0.031 A 
ATOM     60  C   UNL A   1      44.007  25.771  29.079  1.00  0.00     0.049 A 
ATOM     61  C   UNL A   1      44.456  30.903  31.301  1.00  0.00     0.074 A 
ATOM     62  C   UNL A   1      45.164  25.014  29.027  1.00  0.00     0.029 A 
ATOM     63  N   UNL A   1      44.338  26.979  29.672  1.00  0.00    -0.354 N 
ATOM     64  N   UNL A   1      44.507  29.689  30.806  1.00  0.00    -0.248 NA
ATOM     65  C   UNL A   1      45.725  31.370  31.878  1.00  0.00     0.031 C 
ATOM     66  C   UNL A   1      46.188  25.750  29.625  1.00  0.00     0.029 A 
ATOM     67  C   UNL A   1      45.677  26.981  30.011  1.00  0.00     0.049 A 
ATOM     68  H   UNL A   1      43.713  27.723  29.828  1.00  0.00     0.167 HD
ATOM     69  C   UNL A   1      45.812  29.255  30.995  1.00  0.00     0.074 A 
ATOM     70  C   UNL A   1      46.525  30.335  31.647  1.00  0.00     0.031 C 
ATOM     71  C   UNL A   1      46.370  28.069  30.653  1.00  0.00     0.031 A 
BRANCH  58  72
ATOM     72  C   UNL A   1      42.491  24.054  28.027  1.00  0.00    -0.014 A 
ATOM     73  C   UNL A   1      42.613  23.849  26.641  1.00  0.00     0.010 A 
ATOM     74  C   UNL A   1      42.246  22.954  28.867  1.00  0.00     0.010 A 
ATOM     75  C   UNL A   1      42.476  22.568  26.103  1.00  0.00     0.020 A 
ATOM     76  C   UNL A   1      42.129  21.667  28.334  1.00  0.00     0.020 A 
ATOM     77  C   UNL A   1      42.241  21.484  26.954  1.00  0.00     0.054 A 
BRANCH  77  78
ATOM     78  S   UNL A   1      42.100  19.831  26.223  1.00  0.00     0.124 S 
ATOM     79  O   UNL A   1      42.512  18.971  27.330  1.00  0.00    -0.237 OA
ATOM     80  O   UNL A   1      40.686  19.764  25.867  1.00  0.00    -0.237 OA
ATOM     81  O   UNL A   1      43.027  19.869  25.093  1.00  0.00    -0.744 OA
ENDBRANCH  77  78
ENDBRANCH  58  72
BRANCH  59  82
ATOM     82  C   UNL A   1      43.434  33.225  31.896  1.00  0.00    -0.014 A 
ATOM     83  C   UNL A   1      43.845  34.284  31.067  1.00  0.00     0.010 A 
ATOM     84  C   UNL A   1      43.106  33.492  33.237  1.00  0.00     0.010 A 
ATOM     85  C   UNL A   1      43.920  35.587  31.569  1.00  0.00     0.020 A 
ATOM     86  C   UNL A   1      43.163  34.797  33.737  1.00  0.00     0.020 A 
ATOM     87  C   UNL A   1      43.567  35.837  32.898  1.00  0.00     0.054 A 
BRANCH  87  88
ATOM     88  S   UNL A   1      43.615  37.548  33.502  1.00  0.00     0.124 S 
ATOM     89  O   UNL A   1      42.392  37.630  34.295  1.00  0.00    -0.237 OA
ATOM     90  O   UNL A   1      44.863  37.572  34.258  1.00  0.00    -0.237 OA
ATOM     91  O   UNL A   1      43.619  38.346  32.277  1.00  0.00    -0.744 OA
ENDBRANCH  87  88
ENDBRANCH  59  82
BRANCH  71  92
ATOM     92  C   UNL A   1      47.824  27.847  30.956  1.00  0.00    -0.014 A 
ATOM     93  C   UNL A   1      48.210  27.171  32.125  1.00  0.00     0.010 A 
ATOM     94  C   UNL A   1      48.787  28.142  29.974  1.00  0.00     0.010 A 
ATOM     95  C   UNL A   1      49.536  26.769  32.295  1.00  0.00     0.020 A 
ATOM     96  C   UNL A   1      50.111  27.727  30.134  1.00  0.00     0.020 A 
ATOM     97  C   UNL A   1      50.474  27.032  31.290  1.00  0.00     0.054 A 
BRANCH  97  98
ATOM     98  S   UNL A   1      52.158  26.387  31.490  1.00  0.00     0.124 S 
ATOM     99  O   UNL A   1      52.737  27.327  32.445  1.00  0.00    -0.237 OA
ATOM    100  O   UNL A   1      51.919  25.039  32.000  1.00  0.00    -0.237 OA
ATOM    101  O   UNL A   1      52.717  26.450  30.141  1.00  0.00    -0.744 OA
ENDBRANCH  97  98
ENDBRANCH  71  92
ENDBRANCH  45  46
ENDBRANCH  37  40
ENDBRANCH   1  36
TORSDOF 15
ENDMDL
MODEL 3
REMARK VINA RESULT:     -12.1      1.980      2.547
REMARK SMILES C[NH+]1CCN(c2nc3c(cc2F)c(=O)c(C(=O)NCCCNC(=O)c2ccc(-c4c5nc(c(-c6ccc(S(=O)(=O)[O-])cc6)c6ccc([nH]6)c(-c6ccc(S(=O)(=O)[O-])cc6)c6nc(c(-c7ccc(S(=O)(=O)[O-])cc7)c7ccc4[nH]7)C=C6)C=C5)cc2)cn3-c2ccc(F)cc2F)CC1
REMARK SMILES IDX 21 1 20 2 19 3 18 4 16 5 17 6 15 8 6 9 7 10 11 11 8 12 10 13
REMARK SMILES IDX 12 14 9 15 86 16 13 17 85 18 14 19 5 20 1 21 2 22 3 23 96 24
REMARK SMILES IDX 4 26 95 27 87 28 88 29 93 30 89 31 92 32 94 33 90 34 91 35
REMARK SMILES IDX 22 36 23 37 24 39 25 40 26 41 84 42 27 43 83 44 28 45 29 46
REMARK SMILES IDX 30 47 77 48 31 49 82 50 76 51 78 52 32 53 81 54 75 55 74 56
REMARK SMILES IDX 33 58 63 59 44 60 62 61 45 62 48 63 61 64 79 65 46 66 47 67
REMARK SMILES IDX 60 69 80 70 49 71 34 72 35 73 43 74 36 75 42 76 37 77 38 78
REMARK SMILES IDX 39 79 40 80 41 81 64 82 65 83 73 84 66 85 72 86 67 87 68 88
REMARK SMILES IDX 69 89 70 90 71 91 50 92 51 93 59 94 52 95 58 96 53 97 54 98
REMARK SMILES IDX 55 99 56 100 57 101
REMARK H PARENT 18 7 2 25 22 38 78 57 48 68
REMARK Flexibility Score: inf
ROOT
ATOM      1  C   UNL A   1      34.024  28.819  26.164  1.00  0.00     0.118 C 
ENDROOT
BRANCH   1   2
ATOM      2  C   UNL A   1      34.000  28.597  24.660  1.00  0.00     0.042 C 
BRANCH   2   3
ATOM      3  C   UNL A   1      33.124  27.419  24.238  1.00  0.00     0.118 C 
BRANCH   3   4
ATOM      4  N   UNL A   1      33.256  27.142  22.818  1.00  0.00    -0.352 N 
ATOM      5  C   UNL A   1      33.431  25.988  22.123  1.00  0.00     0.256 C 
ATOM      6  O   UNL A   1      33.470  26.092  20.892  1.00  0.00    -0.269 OA
ATOM      7  H   UNL A   1      33.206  27.945  22.249  1.00  0.00     0.163 HD
BRANCH   5   8
ATOM      8  C   UNL A   1      33.486  24.642  22.758  1.00  0.00     0.104 A 
ATOM      9  C   UNL A   1      33.478  19.777  24.227  1.00  0.00     0.167 A 
ATOM     10  N   UNL A   1      34.309  20.825  24.452  1.00  0.00    -0.209 NA
ATOM     11  C   UNL A   1      32.313  19.928  23.471  1.00  0.00     0.166 A 
ATOM     12  C   UNL A   1      34.014  22.043  23.927  1.00  0.00     0.151 A 
ATOM     13  C   UNL A   1      31.962  21.174  22.989  1.00  0.00     0.059 A 
ATOM     14  F   UNL A   1      31.493  18.892  23.245  1.00  0.00    -0.203 F 
ATOM     15  C   UNL A   1      32.823  22.243  23.232  1.00  0.00     0.069 A 
ATOM     16  N   UNL A   1      34.918  23.145  24.076  1.00  0.00    -0.297 N 
ATOM     17  C   UNL A   1      32.444  23.595  22.797  1.00  0.00     0.203 A 
ATOM     18  C   UNL A   1      34.610  24.344  23.436  1.00  0.00     0.111 A 
ATOM     19  O   UNL A   1      31.268  23.789  22.525  1.00  0.00    -0.288 OA
BRANCH   9  20
ATOM     20  N   UNL A   1      33.822  18.576  24.792  1.00  0.00    -0.343 N 
ATOM     21  C   UNL A   1      32.612  14.539  25.343  1.00  0.00     0.332 C 
ATOM     22  N   UNL A   1      33.360  15.792  25.410  1.00  0.00    -0.334 N 
ATOM     23  C   UNL A   1      32.535  16.864  26.020  1.00  0.00     0.283 C 
ATOM     24  C   UNL A   1      33.772  16.218  24.052  1.00  0.00     0.283 C 
ATOM     25  H   UNL A   1      34.187  15.634  25.987  1.00  0.00     0.347 HD
ATOM     26  C   UNL A   1      33.280  18.224  26.101  1.00  0.00     0.179 C 
ATOM     27  C   UNL A   1      34.554  17.547  24.066  1.00  0.00     0.179 C 
ENDBRANCH   9  20
BRANCH  16  28
ATOM     28  C   UNL A   1      36.146  23.028  24.794  1.00  0.00     0.083 A 
ATOM     29  C   UNL A   1      37.027  21.961  24.544  1.00  0.00     0.033 A 
ATOM     30  C   UNL A   1      36.513  23.975  25.767  1.00  0.00     0.150 A 
ATOM     31  C   UNL A   1      38.231  21.854  25.245  1.00  0.00     0.041 A 
ATOM     32  C   UNL A   1      37.703  23.867  26.479  1.00  0.00     0.080 A 
ATOM     33  F   UNL A   1      35.698  25.003  26.045  1.00  0.00    -0.205 F 
ATOM     34  C   UNL A   1      38.553  22.805  26.208  1.00  0.00     0.126 A 
ATOM     35  F   UNL A   1      39.703  22.691  26.884  1.00  0.00    -0.207 F 
ENDBRANCH  16  28
ENDBRANCH   5   8
ENDBRANCH   3   4
ENDBRANCH   2   3
ENDBRANCH   1   2
BRANCH   1  36
ATOM     36  N   UNL A   1      33.656  30.184  26.516  1.00  0.00    -0.352 N 
ATOM     37  C   UNL A   1      34.193  30.999  27.481  1.00  0.00     0.251 C 
ATOM     38  H   UNL A   1      32.923  30.575  25.988  1.00  0.00     0.163 HD
ATOM     39  O   UNL A   1      33.607  32.028  27.809  1.00  0.00    -0.269 OA
BRANCH  37  40
ATOM     40  C   UNL A   1      35.467  30.628  28.130  1.00  0.00     0.039 A 
ATOM     41  C   UNL A   1      36.641  31.282  27.750  1.00  0.00     0.014 A 
ATOM     42  C   UNL A   1      35.503  29.620  29.100  1.00  0.00     0.014 A 
ATOM     43  C   UNL A   1      37.846  30.954  28.375  1.00  0.00     0.010 A 
ATOM     44  C   UNL A   1      36.691  29.343  29.771  1.00  0.00     0.010 A 
ATOM     45  C   UNL A   1      37.876  29.994  29.399  1.00  0.00    -0.014 A 
BRANCH  45  46
ATOM     46  C   UNL A   1      39.155  29.610  30.041  1.00  0.00     0.031 A 
ATOM     47  C   UNL A   1      39.604  30.328  31.284  1.00  0.00     0.074 A 
ATOM     48  C   UNL A   1      39.913  28.633  29.505  1.00  0.00     0.049 A 
ATOM     49  N   UNL A   1      40.672  30.123  32.008  1.00  0.00    -0.248 NA
ATOM     50  C   UNL A   1      38.752  31.427  31.769  1.00  0.00     0.031 C 
ATOM     51  C   UNL A   1      39.596  27.891  28.283  1.00  0.00     0.029 A 
ATOM     52  N   UNL A   1      41.101  28.090  29.925  1.00  0.00    -0.354 N 
ATOM     53  C   UNL A   1      40.618  31.062  33.030  1.00  0.00     0.074 A 
ATOM     54  C   UNL A   1      39.447  31.876  32.804  1.00  0.00     0.031 C 
ATOM     55  C   UNL A   1      40.548  26.966  28.073  1.00  0.00     0.029 A 
ATOM     56  C   UNL A   1      41.551  27.062  29.130  1.00  0.00     0.049 A 
ATOM     57  H   UNL A   1      41.586  28.407  30.721  1.00  0.00     0.167 HD
ATOM     58  C   UNL A   1      41.454  31.213  34.082  1.00  0.00     0.031 A 
ATOM     59  C   UNL A   1      42.640  26.278  29.246  1.00  0.00     0.031 A 
ATOM     60  C   UNL A   1      42.602  30.386  34.319  1.00  0.00     0.049 A 
ATOM     61  C   UNL A   1      43.565  26.474  30.415  1.00  0.00     0.074 A 
ATOM     62  C   UNL A   1      43.479  30.424  35.388  1.00  0.00     0.029 A 
ATOM     63  N   UNL A   1      43.031  29.371  33.479  1.00  0.00    -0.354 N 
ATOM     64  N   UNL A   1      43.465  27.329  31.405  1.00  0.00    -0.248 NA
ATOM     65  C   UNL A   1      44.747  25.601  30.493  1.00  0.00     0.031 C 
ATOM     66  C   UNL A   1      44.462  29.456  35.175  1.00  0.00     0.029 A 
ATOM     67  C   UNL A   1      44.172  28.789  33.994  1.00  0.00     0.049 A 
ATOM     68  H   UNL A   1      42.587  29.105  32.641  1.00  0.00     0.167 HD
ATOM     69  C   UNL A   1      44.555  27.086  32.230  1.00  0.00     0.074 A 
ATOM     70  C   UNL A   1      45.305  26.002  31.629  1.00  0.00     0.031 C 
ATOM     71  C   UNL A   1      44.900  27.705  33.385  1.00  0.00     0.031 A 
BRANCH  58  72
ATOM     72  C   UNL A   1      41.143  32.297  35.074  1.00  0.00    -0.014 A 
ATOM     73  C   UNL A   1      40.338  32.029  36.196  1.00  0.00     0.010 A 
ATOM     74  C   UNL A   1      41.713  33.573  34.925  1.00  0.00     0.010 A 
ATOM     75  C   UNL A   1      40.095  33.025  37.143  1.00  0.00     0.020 A 
ATOM     76  C   UNL A   1      41.489  34.566  35.882  1.00  0.00     0.020 A 
ATOM     77  C   UNL A   1      40.677  34.286  36.983  1.00  0.00     0.054 A 
BRANCH  77  78
ATOM     78  S   UNL A   1      40.365  35.544  38.251  1.00  0.00     0.124 S 
ATOM     79  O   UNL A   1      39.435  34.855  39.143  1.00  0.00    -0.237 OA
ATOM     80  O   UNL A   1      41.699  35.780  38.794  1.00  0.00    -0.237 OA
ATOM     81  O   UNL A   1      39.790  36.659  37.502  1.00  0.00    -0.744 OA
ENDBRANCH  77  78
ENDBRANCH  58  72
BRANCH  59  82
ATOM     82  C   UNL A   1      42.885  25.209  28.241  1.00  0.00    -0.014 A 
ATOM     83  C   UNL A   1      43.616  25.489  27.073  1.00  0.00     0.010 A 
ATOM     84  C   UNL A   1      42.439  23.896  28.472  1.00  0.00     0.010 A 
ATOM     85  C   UNL A   1      43.902  24.471  26.157  1.00  0.00     0.020 A 
ATOM     86  C   UNL A   1      42.738  22.872  27.567  1.00  0.00     0.020 A 
ATOM     87  C   UNL A   1      43.471  23.167  26.416  1.00  0.00     0.054 A 
BRANCH  87  88
ATOM     88  S   UNL A   1      43.912  21.858  25.238  1.00  0.00     0.124 S 
ATOM     89  O   UNL A   1      45.264  21.506  25.660  1.00  0.00    -0.237 OA
ATOM     90  O   UNL A   1      42.885  20.853  25.498  1.00  0.00    -0.237 OA
ATOM     91  O   UNL A   1      43.816  22.518  23.937  1.00  0.00    -0.744 OA
ENDBRANCH  87  88
ENDBRANCH  59  82
BRANCH  71  92
ATOM     92  C   UNL A   1      46.133  27.242  34.106  1.00  0.00    -0.014 A 
ATOM     93  C   UNL A   1      46.070  26.155  34.994  1.00  0.00     0.010 A 
ATOM     94  C   UNL A   1      47.385  27.771  33.743  1.00  0.00     0.010 A 
ATOM     95  C   UNL A   1      47.245  25.586  35.488  1.00  0.00     0.020 A 
ATOM     96  C   UNL A   1      48.563  27.193  34.223  1.00  0.00     0.020 A 
ATOM     97  C   UNL A   1      48.484  26.096  35.083  1.00  0.00     0.054 A 
BRANCH  97  98
ATOM     98  S   UNL A   1      49.990  25.254  35.647  1.00  0.00     0.124 S 
ATOM     99  O   UNL A   1      50.604  26.264  36.505  1.00  0.00    -0.237 OA
ATOM    100  O   UNL A   1      49.455  24.084  36.337  1.00  0.00    -0.237 OA
ATOM    101  O   UNL A   1      50.713  24.968  34.410  1.00  0.00    -0.744 OA
ENDBRANCH  97  98
ENDBRANCH  71  92
ENDBRANCH  45  46
ENDBRANCH  37  40
ENDBRANCH   1  36
TORSDOF 15
ENDMDL
