MODEL 1
REMARK VINA RESULT:     -11.2      0.000      0.000
REMARK SMILES CCOc1cccc(C(=O)Nc2ccc(Cl)c(C(=O)NCCCNC(=O)c3ccc(-c4c5nc(c(-c6ccc(S(=O)(=O)[O-])cc6)c6ccc([nH]6)c(-c6ccc(S(=O)(=O)[O-])cc6)c6nc(c(-c7ccc(S(=O)(=O)[O-])cc7)c7ccc4[nH]7)C=C6)C=C5)cc3)c2)c1
REMARK SMILES IDX 21 1 20 2 18 3 19 4 17 6 12 7 13 8 87 9 14 10 15 11 16 12
REMARK SMILES IDX 11 13 9 14 10 15 8 17 4 18 5 19 88 20 6 21 7 22 3 23 2 24
REMARK SMILES IDX 1 25 22 26 23 27 24 28 25 29 26 31 27 32 28 33 86 34 29 35
REMARK SMILES IDX 85 36 30 37 31 38 32 39 79 40 33 41 84 42 78 43 80 44 34 45
REMARK SMILES IDX 83 46 77 47 76 48 35 50 65 51 46 52 64 53 47 54 50 55 63 56
REMARK SMILES IDX 81 57 48 58 49 59 62 61 82 62 51 63 36 64 37 65 45 66 38 67
REMARK SMILES IDX 44 68 39 69 40 70 41 71 42 72 43 73 66 74 67 75 75 76 68 77
REMARK SMILES IDX 74 78 69 79 70 80 71 81 72 82 73 83 52 84 53 85 61 86 54 87
REMARK SMILES IDX 60 88 55 89 56 90 57 91 58 92 59 93
REMARK H PARENT 20 5 11 16 24 30 80 49 50 60
REMARK Flexibility Score: inf
ROOT
ATOM      1  C   UNL A   1      31.440  31.209  26.355  1.00  0.00     0.118 C 
ENDROOT
BRANCH   1   2
ATOM      2  N   UNL A   1      32.747  30.594  26.246  1.00  0.00    -0.352 N 
ATOM      3  C   UNL A   1      33.184  29.340  25.896  1.00  0.00     0.252 C 
ATOM      4  O   UNL A   1      34.383  29.136  26.079  1.00  0.00    -0.269 OA
ATOM      5  H   UNL A   1      33.482  31.209  26.470  1.00  0.00     0.163 HD
BRANCH   3   6
ATOM      6  C   UNL A   1      32.312  28.281  25.287  1.00  0.00     0.060 A 
ATOM      7  C   UNL A   1      31.715  26.832  23.405  1.00  0.00     0.042 A 
ATOM      8  C   UNL A   1      30.781  26.166  24.187  1.00  0.00     0.028 A 
ATOM      9  C   UNL A   1      32.381  27.948  23.923  1.00  0.00     0.041 A 
ATOM     10  C   UNL A   1      30.634  26.520  25.525  1.00  0.00     0.023 A 
ATOM     11  C   UNL A   1      31.415  27.541  26.087  1.00  0.00     0.053 A 
ATOM     12  Cl  UNL A   1      31.231  27.731  27.800  1.00  0.00    -0.083 Cl
BRANCH   7  13
ATOM     13  N   UNL A   1      31.979  26.319  22.128  1.00  0.00    -0.322 N 
ATOM     14  C   UNL A   1      32.817  25.305  21.702  1.00  0.00     0.255 C 
ATOM     15  O   UNL A   1      33.042  25.209  20.494  1.00  0.00    -0.269 OA
ATOM     16  H   UNL A   1      31.478  26.761  21.404  1.00  0.00     0.170 HD
BRANCH  14  17
ATOM     17  C   UNL A   1      33.371  24.247  22.608  1.00  0.00     0.043 A 
ATOM     18  C   UNL A   1      35.103  23.296  24.023  1.00  0.00     0.120 A 
ATOM     19  C   UNL A   1      34.357  22.125  24.155  1.00  0.00     0.046 A 
ATOM     20  C   UNL A   1      34.578  24.378  23.312  1.00  0.00     0.060 A 
ATOM     21  C   UNL A   1      33.097  22.027  23.568  1.00  0.00     0.005 A 
ATOM     22  C   UNL A   1      32.616  23.076  22.780  1.00  0.00     0.014 A 
BRANCH  18  23
ATOM     23  O   UNL A   1      36.417  23.202  24.392  1.00  0.00    -0.494 OA
BRANCH  23  24
ATOM     24  C   UNL A   1      37.061  21.940  24.250  1.00  0.00     0.226 C 
ATOM     25  C   UNL A   1      37.927  21.578  25.445  1.00  0.00     0.049 C 
ENDBRANCH  23  24
ENDBRANCH  18  23
ENDBRANCH  14  17
ENDBRANCH   7  13
ENDBRANCH   3   6
ENDBRANCH   1   2
BRANCH   1  26
ATOM     26  C   UNL A   1      31.563  32.697  26.651  1.00  0.00     0.042 C 
BRANCH  26  27
ATOM     27  C   UNL A   1      32.847  33.011  27.400  1.00  0.00     0.118 C 
BRANCH  27  28
ATOM     28  N   UNL A   1      32.878  34.399  27.847  1.00  0.00    -0.352 N 
ATOM     29  C   UNL A   1      33.608  34.971  28.856  1.00  0.00     0.251 C 
ATOM     30  H   UNL A   1      32.288  35.014  27.352  1.00  0.00     0.163 HD
ATOM     31  O   UNL A   1      33.328  36.106  29.244  1.00  0.00    -0.269 OA
BRANCH  29  32
ATOM     32  C   UNL A   1      34.709  34.216  29.485  1.00  0.00     0.039 A 
ATOM     33  C   UNL A   1      36.021  34.449  29.064  1.00  0.00     0.014 A 
ATOM     34  C   UNL A   1      34.449  33.288  30.497  1.00  0.00     0.014 A 
ATOM     35  C   UNL A   1      37.074  33.796  29.705  1.00  0.00     0.010 A 
ATOM     36  C   UNL A   1      35.505  32.718  31.200  1.00  0.00     0.010 A 
ATOM     37  C   UNL A   1      36.827  32.957  30.805  1.00  0.00    -0.014 A 
BRANCH  37  38
ATOM     38  C   UNL A   1      37.940  32.320  31.554  1.00  0.00     0.031 A 
ATOM     39  C   UNL A   1      38.356  32.862  32.895  1.00  0.00     0.074 A 
ATOM     40  C   UNL A   1      38.613  31.295  30.995  1.00  0.00     0.049 A 
ATOM     41  N   UNL A   1      39.326  32.465  33.678  1.00  0.00    -0.248 NA
ATOM     42  C   UNL A   1      37.604  34.017  33.414  1.00  0.00     0.031 C 
ATOM     43  C   UNL A   1      38.337  30.717  29.677  1.00  0.00     0.029 A 
ATOM     44  N   UNL A   1      39.669  30.554  31.465  1.00  0.00    -0.354 N 
ATOM     45  C   UNL A   1      39.311  33.328  34.768  1.00  0.00     0.074 A 
ATOM     46  C   UNL A   1      38.274  34.305  34.521  1.00  0.00     0.031 C 
ATOM     47  C   UNL A   1      39.177  29.691  29.461  1.00  0.00     0.029 A 
ATOM     48  C   UNL A   1      40.079  29.566  30.600  1.00  0.00     0.049 A 
ATOM     49  H   UNL A   1      40.093  30.716  32.339  1.00  0.00     0.167 HD
ATOM     50  C   UNL A   1      40.075  33.297  35.885  1.00  0.00     0.031 A 
ATOM     51  C   UNL A   1      41.073  28.664  30.709  1.00  0.00     0.031 A 
ATOM     52  C   UNL A   1      41.096  32.313  36.129  1.00  0.00     0.049 A 
ATOM     53  C   UNL A   1      41.911  28.653  31.957  1.00  0.00     0.074 A 
ATOM     54  C   UNL A   1      41.885  32.156  37.255  1.00  0.00     0.029 A 
ATOM     55  N   UNL A   1      41.473  31.323  35.234  1.00  0.00    -0.354 N 
ATOM     56  N   UNL A   1      41.829  29.429  33.012  1.00  0.00    -0.248 NA
ATOM     57  C   UNL A   1      42.968  27.634  32.037  1.00  0.00     0.031 C 
ATOM     58  C   UNL A   1      42.780  31.109  37.017  1.00  0.00     0.029 A 
ATOM     59  C   UNL A   1      42.503  30.569  35.770  1.00  0.00     0.049 A 
ATOM     60  H   UNL A   1      41.069  31.179  34.348  1.00  0.00     0.167 HD
ATOM     61  C   UNL A   1      42.804  28.974  33.893  1.00  0.00     0.074 A 
ATOM     62  C   UNL A   1      43.450  27.846  33.254  1.00  0.00     0.031 C 
ATOM     63  C   UNL A   1      43.135  29.448  35.119  1.00  0.00     0.031 A 
BRANCH  50  64
ATOM     64  C   UNL A   1      39.837  34.358  36.927  1.00  0.00    -0.014 A 
ATOM     65  C   UNL A   1      39.002  34.119  38.035  1.00  0.00     0.010 A 
ATOM     66  C   UNL A   1      40.496  35.597  36.825  1.00  0.00     0.010 A 
ATOM     67  C   UNL A   1      38.802  35.110  38.999  1.00  0.00     0.020 A 
ATOM     68  C   UNL A   1      40.323  36.580  37.805  1.00  0.00     0.020 A 
ATOM     69  C   UNL A   1      39.465  36.335  38.879  1.00  0.00     0.054 A 
BRANCH  69  70
ATOM     70  S   UNL A   1      39.213  37.588  40.165  1.00  0.00     0.124 S 
ATOM     71  O   UNL A   1      38.172  38.424  39.571  1.00  0.00    -0.237 OA
ATOM     72  O   UNL A   1      38.794  36.788  41.313  1.00  0.00    -0.237 OA
ATOM     73  O   UNL A   1      40.523  38.222  40.294  1.00  0.00    -0.744 OA
ENDBRANCH  69  70
ENDBRANCH  50  64
BRANCH  51  74
ATOM     74  C   UNL A   1      41.319  27.691  29.609  1.00  0.00    -0.014 A 
ATOM     75  C   UNL A   1      40.448  26.607  29.401  1.00  0.00     0.010 A 
ATOM     76  C   UNL A   1      42.427  27.848  28.754  1.00  0.00     0.010 A 
ATOM     77  C   UNL A   1      40.692  25.687  28.377  1.00  0.00     0.020 A 
ATOM     78  C   UNL A   1      42.656  26.949  27.709  1.00  0.00     0.020 A 
ATOM     79  C   UNL A   1      41.794  25.865  27.535  1.00  0.00     0.054 A 
BRANCH  79  80
ATOM     80  S   UNL A   1      42.067  24.682  26.188  1.00  0.00     0.124 S 
ATOM     81  O   UNL A   1      40.936  23.773  26.348  1.00  0.00    -0.237 OA
ATOM     82  O   UNL A   1      42.029  25.538  25.004  1.00  0.00    -0.237 OA
ATOM     83  O   UNL A   1      43.377  24.112  26.493  1.00  0.00    -0.744 OA
ENDBRANCH  79  80
ENDBRANCH  51  74
BRANCH  63  84
ATOM     84  C   UNL A   1      44.221  28.726  35.872  1.00  0.00    -0.014 A 
ATOM     85  C   UNL A   1      43.935  27.612  36.679  1.00  0.00     0.010 A 
ATOM     86  C   UNL A   1      45.558  29.139  35.721  1.00  0.00     0.010 A 
ATOM     87  C   UNL A   1      44.963  26.944  37.350  1.00  0.00     0.020 A 
ATOM     88  C   UNL A   1      46.592  28.454  36.364  1.00  0.00     0.020 A 
ATOM     89  C   UNL A   1      46.285  27.369  37.186  1.00  0.00     0.054 A 
BRANCH  89  90
ATOM     90  S   UNL A   1      47.604  26.457  38.032  1.00  0.00     0.124 S 
ATOM     91  O   UNL A   1      48.194  27.490  38.878  1.00  0.00    -0.237 OA
ATOM     92  O   UNL A   1      46.870  25.411  38.738  1.00  0.00    -0.237 OA
ATOM     93  O   UNL A   1      48.455  25.985  36.941  1.00  0.00    -0.744 OA
ENDBRANCH  89  90
ENDBRANCH  63  84
ENDBRANCH  37  38
ENDBRANCH  29  32
ENDBRANCH  27  28
ENDBRANCH  26  27
ENDBRANCH   1  26
TORSDOF 17
ENDMDL
MODEL 2
REMARK VINA RESULT:     -11.2      5.287     10.222
REMARK SMILES CCOc1cccc(C(=O)Nc2ccc(Cl)c(C(=O)NCCCNC(=O)c3ccc(-c4c5nc(c(-c6ccc(S(=O)(=O)[O-])cc6)c6ccc([nH]6)c(-c6ccc(S(=O)(=O)[O-])cc6)c6nc(c(-c7ccc(S(=O)(=O)[O-])cc7)c7ccc4[nH]7)C=C6)C=C5)cc3)c2)c1
REMARK SMILES IDX 21 1 20 2 18 3 19 4 17 6 12 7 13 8 87 9 14 10 15 11 16 12
REMARK SMILES IDX 11 13 9 14 10 15 8 17 4 18 5 19 88 20 6 21 7 22 3 23 2 24
REMARK SMILES IDX 1 25 22 26 23 27 24 28 25 29 26 31 27 32 28 33 86 34 29 35
REMARK SMILES IDX 85 36 30 37 31 38 32 39 79 40 33 41 84 42 78 43 80 44 34 45
REMARK SMILES IDX 83 46 77 47 76 48 35 50 65 51 46 52 64 53 47 54 50 55 63 56
REMARK SMILES IDX 81 57 48 58 49 59 62 61 82 62 51 63 36 64 37 65 45 66 38 67
REMARK SMILES IDX 44 68 39 69 40 70 41 71 42 72 43 73 66 74 67 75 75 76 68 77
REMARK SMILES IDX 74 78 69 79 70 80 71 81 72 82 73 83 52 84 53 85 61 86 54 87
REMARK SMILES IDX 60 88 55 89 56 90 57 91 58 92 59 93
REMARK H PARENT 20 5 11 16 24 30 80 49 50 60
REMARK Flexibility Score: inf
ROOT
ATOM      1  C   UNL A   1      34.894  23.538  23.956  1.00  0.00     0.118 C 
ENDROOT
BRANCH   1   2
ATOM      2  N   UNL A   1      34.495  24.413  22.872  1.00  0.00    -0.352 N 
ATOM      3  C   UNL A   1      33.493  25.338  22.714  1.00  0.00     0.252 C 
ATOM      4  O   UNL A   1      33.364  25.778  21.573  1.00  0.00    -0.269 OA
ATOM      5  H   UNL A   1      35.068  24.326  22.076  1.00  0.00     0.163 HD
BRANCH   3   6
ATOM      6  C   UNL A   1      32.625  25.843  23.831  1.00  0.00     0.060 A 
ATOM      7  C   UNL A   1      30.956  25.450  25.579  1.00  0.00     0.042 A 
ATOM      8  C   UNL A   1      31.112  26.747  26.048  1.00  0.00     0.028 A 
ATOM      9  C   UNL A   1      31.621  25.051  24.415  1.00  0.00     0.041 A 
ATOM     10  C   UNL A   1      32.046  27.584  25.445  1.00  0.00     0.023 A 
ATOM     11  C   UNL A   1      32.827  27.131  24.370  1.00  0.00     0.053 A 
ATOM     12  Cl  UNL A   1      34.059  28.236  23.858  1.00  0.00    -0.083 Cl
BRANCH   7  13
ATOM     13  N   UNL A   1      30.159  24.577  26.331  1.00  0.00    -0.322 N 
ATOM     14  C   UNL A   1      30.310  23.239  26.648  1.00  0.00     0.255 C 
ATOM     15  O   UNL A   1      29.344  22.646  27.130  1.00  0.00    -0.269 OA
ATOM     16  H   UNL A   1      29.345  24.991  26.701  1.00  0.00     0.170 HD
BRANCH  14  17
ATOM     17  C   UNL A   1      31.612  22.502  26.550  1.00  0.00     0.043 A 
ATOM     18  C   UNL A   1      33.135  20.924  25.503  1.00  0.00     0.120 A 
ATOM     19  C   UNL A   1      34.022  21.068  26.569  1.00  0.00     0.046 A 
ATOM     20  C   UNL A   1      31.969  21.694  25.460  1.00  0.00     0.060 A 
ATOM     21  C   UNL A   1      33.741  21.964  27.598  1.00  0.00     0.005 A 
ATOM     22  C   UNL A   1      32.532  22.663  27.598  1.00  0.00     0.014 A 
BRANCH  18  23
ATOM     23  O   UNL A   1      33.353  19.842  24.695  1.00  0.00    -0.494 OA
BRANCH  23  24
ATOM     24  C   UNL A   1      32.394  18.789  24.715  1.00  0.00     0.226 C 
ATOM     25  C   UNL A   1      32.782  17.650  25.641  1.00  0.00     0.049 C 
ENDBRANCH  23  24
ENDBRANCH  18  23
ENDBRANCH  14  17
ENDBRANCH   7  13
ENDBRANCH   3   6
ENDBRANCH   1   2
BRANCH   1  26
ATOM     26  C   UNL A   1      36.305  23.863  24.425  1.00  0.00     0.042 C 
BRANCH  26  27
ATOM     27  C   UNL A   1      36.486  23.551  25.900  1.00  0.00     0.118 C 
BRANCH  27  28
ATOM     28  N   UNL A   1      37.512  22.535  26.109  1.00  0.00    -0.352 N 
ATOM     29  C   UNL A   1      38.839  22.689  26.413  1.00  0.00     0.251 C 
ATOM     30  H   UNL A   1      37.205  21.603  26.018  1.00  0.00     0.163 HD
ATOM     31  O   UNL A   1      39.603  21.729  26.316  1.00  0.00    -0.269 OA
BRANCH  29  32
ATOM     32  C   UNL A   1      39.348  24.011  26.832  1.00  0.00     0.039 A 
ATOM     33  C   UNL A   1      39.286  24.366  28.181  1.00  0.00     0.014 A 
ATOM     34  C   UNL A   1      39.896  24.892  25.896  1.00  0.00     0.014 A 
ATOM     35  C   UNL A   1      39.834  25.580  28.597  1.00  0.00     0.010 A 
ATOM     36  C   UNL A   1      40.529  26.052  26.327  1.00  0.00     0.010 A 
ATOM     37  C   UNL A   1      40.496  26.414  27.679  1.00  0.00    -0.014 A 
BRANCH  37  38
ATOM     38  C   UNL A   1      41.159  27.668  28.118  1.00  0.00     0.031 A 
ATOM     39  C   UNL A   1      42.655  27.804  28.028  1.00  0.00     0.074 A 
ATOM     40  C   UNL A   1      40.416  28.658  28.652  1.00  0.00     0.049 A 
ATOM     41  N   UNL A   1      43.414  28.804  28.395  1.00  0.00    -0.248 NA
ATOM     42  C   UNL A   1      43.401  26.658  27.479  1.00  0.00     0.031 C 
ATOM     43  C   UNL A   1      38.963  28.621  28.841  1.00  0.00     0.029 A 
ATOM     44  N   UNL A   1      40.780  29.890  29.136  1.00  0.00    -0.354 N 
ATOM     45  C   UNL A   1      44.720  28.402  28.139  1.00  0.00     0.074 A 
ATOM     46  C   UNL A   1      44.657  27.048  27.639  1.00  0.00     0.031 C 
ATOM     47  C   UNL A   1      38.557  29.789  29.366  1.00  0.00     0.029 A 
ATOM     48  C   UNL A   1      39.721  30.639  29.593  1.00  0.00     0.049 A 
ATOM     49  H   UNL A   1      41.712  30.207  29.155  1.00  0.00     0.167 HD
ATOM     50  C   UNL A   1      45.868  29.105  28.286  1.00  0.00     0.031 A 
ATOM     51  C   UNL A   1      39.689  31.869  30.140  1.00  0.00     0.031 A 
ATOM     52  C   UNL A   1      45.921  30.458  28.772  1.00  0.00     0.049 A 
ATOM     53  C   UNL A   1      40.978  32.628  30.297  1.00  0.00     0.074 A 
ATOM     54  C   UNL A   1      47.026  31.282  28.900  1.00  0.00     0.029 A 
ATOM     55  N   UNL A   1      44.826  31.185  29.214  1.00  0.00    -0.354 N 
ATOM     56  N   UNL A   1      42.196  32.260  29.975  1.00  0.00    -0.248 NA
ATOM     57  C   UNL A   1      40.888  33.976  30.877  1.00  0.00     0.031 C 
ATOM     58  C   UNL A   1      46.608  32.485  29.476  1.00  0.00     0.029 A 
ATOM     59  C   UNL A   1      45.232  32.437  29.643  1.00  0.00     0.049 A 
ATOM     60  H   UNL A   1      43.897  30.859  29.223  1.00  0.00     0.167 HD
ATOM     61  C   UNL A   1      43.013  33.341  30.287  1.00  0.00     0.074 A 
ATOM     62  C   UNL A   1      42.148  34.381  30.806  1.00  0.00     0.031 C 
ATOM     63  C   UNL A   1      44.356  33.461  30.157  1.00  0.00     0.031 A 
BRANCH  50  64
ATOM     64  C   UNL A   1      47.160  28.424  27.917  1.00  0.00    -0.014 A 
ATOM     65  C   UNL A   1      47.854  27.625  28.844  1.00  0.00     0.010 A 
ATOM     66  C   UNL A   1      47.663  28.544  26.608  1.00  0.00     0.010 A 
ATOM     67  C   UNL A   1      49.044  26.990  28.481  1.00  0.00     0.020 A 
ATOM     68  C   UNL A   1      48.838  27.884  26.233  1.00  0.00     0.020 A 
ATOM     69  C   UNL A   1      49.529  27.122  27.177  1.00  0.00     0.054 A 
BRANCH  69  70
ATOM     70  S   UNL A   1      51.058  26.257  26.726  1.00  0.00     0.124 S 
ATOM     71  O   UNL A   1      51.008  26.299  25.267  1.00  0.00    -0.237 OA
ATOM     72  O   UNL A   1      52.088  27.089  27.342  1.00  0.00    -0.237 OA
ATOM     73  O   UNL A   1      50.894  24.932  27.317  1.00  0.00    -0.744 OA
ENDBRANCH  69  70
ENDBRANCH  50  64
BRANCH  51  74
ATOM     74  C   UNL A   1      38.391  32.462  30.567  1.00  0.00    -0.014 A 
ATOM     75  C   UNL A   1      37.926  32.297  31.884  1.00  0.00     0.010 A 
ATOM     76  C   UNL A   1      37.614  33.203  29.657  1.00  0.00     0.010 A 
ATOM     77  C   UNL A   1      36.699  32.842  32.276  1.00  0.00     0.020 A 
ATOM     78  C   UNL A   1      36.403  33.777  30.054  1.00  0.00     0.020 A 
ATOM     79  C   UNL A   1      35.946  33.581  31.358  1.00  0.00     0.054 A 
BRANCH  79  80
ATOM     80  S   UNL A   1      34.379  34.313  31.901  1.00  0.00     0.124 S 
ATOM     81  O   UNL A   1      34.826  35.536  32.560  1.00  0.00    -0.237 OA
ATOM     82  O   UNL A   1      33.663  34.498  30.641  1.00  0.00    -0.237 OA
ATOM     83  O   UNL A   1      33.814  33.296  32.786  1.00  0.00    -0.744 OA
ENDBRANCH  79  80
ENDBRANCH  51  74
BRANCH  63  84
ATOM     84  C   UNL A   1      44.976  34.778  30.546  1.00  0.00    -0.014 A 
ATOM     85  C   UNL A   1      45.465  35.001  31.845  1.00  0.00     0.010 A 
ATOM     86  C   UNL A   1      45.121  35.787  29.575  1.00  0.00     0.010 A 
ATOM     87  C   UNL A   1      46.056  36.223  32.176  1.00  0.00     0.020 A 
ATOM     88  C   UNL A   1      45.742  36.997  29.893  1.00  0.00     0.020 A 
ATOM     89  C   UNL A   1      46.192  37.212  31.197  1.00  0.00     0.054 A 
BRANCH  89  90
ATOM     90  S   UNL A   1      47.005  38.772  31.640  1.00  0.00     0.124 S 
ATOM     91  O   UNL A   1      48.261  38.681  30.902  1.00  0.00    -0.237 OA
ATOM     92  O   UNL A   1      46.061  39.774  31.153  1.00  0.00    -0.237 OA
ATOM     93  O   UNL A   1      47.130  38.697  33.095  1.00  0.00    -0.744 OA
ENDBRANCH  89  90
ENDBRANCH  63  84
ENDBRANCH  37  38
ENDBRANCH  29  32
ENDBRANCH  27  28
ENDBRANCH  26  27
ENDBRANCH   1  26
TORSDOF 17
ENDMDL
MODEL 3
REMARK VINA RESULT:     -11.1      6.042      9.975
REMARK SMILES CCOc1cccc(C(=O)Nc2ccc(Cl)c(C(=O)NCCCNC(=O)c3ccc(-c4c5nc(c(-c6ccc(S(=O)(=O)[O-])cc6)c6ccc([nH]6)c(-c6ccc(S(=O)(=O)[O-])cc6)c6nc(c(-c7ccc(S(=O)(=O)[O-])cc7)c7ccc4[nH]7)C=C6)C=C5)cc3)c2)c1
REMARK SMILES IDX 21 1 20 2 18 3 19 4 17 6 12 7 13 8 87 9 14 10 15 11 16 12
REMARK SMILES IDX 11 13 9 14 10 15 8 17 4 18 5 19 88 20 6 21 7 22 3 23 2 24
REMARK SMILES IDX 1 25 22 26 23 27 24 28 25 29 26 31 27 32 28 33 86 34 29 35
REMARK SMILES IDX 85 36 30 37 31 38 32 39 79 40 33 41 84 42 78 43 80 44 34 45
REMARK SMILES IDX 83 46 77 47 76 48 35 50 65 51 46 52 64 53 47 54 50 55 63 56
REMARK SMILES IDX 81 57 48 58 49 59 62 61 82 62 51 63 36 64 37 65 45 66 38 67
REMARK SMILES IDX 44 68 39 69 40 70 41 71 42 72 43 73 66 74 67 75 75 76 68 77
REMARK SMILES IDX 74 78 69 79 70 80 71 81 72 82 73 83 52 84 53 85 61 86 54 87
REMARK SMILES IDX 60 88 55 89 56 90 57 91 58 92 59 93
REMARK H PARENT 20 5 11 16 24 30 80 49 50 60
REMARK Flexibility Score: inf
ROOT
ATOM      1  C   UNL A   1      37.066  20.989  24.755  1.00  0.00     0.118 C 
ENDROOT
BRANCH   1   2
ATOM      2  N   UNL A   1      36.144  21.097  25.867  1.00  0.00    -0.352 N 
ATOM      3  C   UNL A   1      34.818  21.437  25.975  1.00  0.00     0.252 C 
ATOM      4  O   UNL A   1      34.409  21.580  27.126  1.00  0.00    -0.269 OA
ATOM      5  H   UNL A   1      36.558  20.880  26.733  1.00  0.00     0.163 HD
BRANCH   3   6
ATOM      6  C   UNL A   1      33.886  21.585  24.808  1.00  0.00     0.060 A 
ATOM      7  C   UNL A   1      33.175  22.766  22.784  1.00  0.00     0.042 A 
ATOM      8  C   UNL A   1      32.240  21.776  22.511  1.00  0.00     0.028 A 
ATOM      9  C   UNL A   1      33.900  22.721  23.979  1.00  0.00     0.041 A 
ATOM     10  C   UNL A   1      32.148  20.672  23.352  1.00  0.00     0.023 A 
ATOM     11  C   UNL A   1      32.986  20.552  24.472  1.00  0.00     0.053 A 
ATOM     12  Cl  UNL A   1      32.863  19.038  25.306  1.00  0.00    -0.083 Cl
BRANCH   7  13
ATOM     13  N   UNL A   1      33.379  23.755  21.812  1.00  0.00    -0.322 N 
ATOM     14  C   UNL A   1      32.844  25.022  21.666  1.00  0.00     0.255 C 
ATOM     15  O   UNL A   1      33.012  25.600  20.592  1.00  0.00    -0.269 OA
ATOM     16  H   UNL A   1      34.018  23.501  21.107  1.00  0.00     0.170 HD
BRANCH  14  17
ATOM     17  C   UNL A   1      32.176  25.776  22.776  1.00  0.00     0.043 A 
ATOM     18  C   UNL A   1      32.096  27.514  24.472  1.00  0.00     0.120 A 
ATOM     19  C   UNL A   1      30.890  27.001  24.947  1.00  0.00     0.046 A 
ATOM     20  C   UNL A   1      32.698  26.947  23.346  1.00  0.00     0.060 A 
ATOM     21  C   UNL A   1      30.292  25.916  24.310  1.00  0.00     0.005 A 
ATOM     22  C   UNL A   1      30.943  25.293  23.242  1.00  0.00     0.014 A 
BRANCH  18  23
ATOM     23  O   UNL A   1      32.735  28.387  25.310  1.00  0.00    -0.494 OA
BRANCH  23  24
ATOM     24  C   UNL A   1      33.512  27.844  26.374  1.00  0.00     0.226 C 
ATOM     25  C   UNL A   1      34.423  28.869  27.026  1.00  0.00     0.049 C 
ENDBRANCH  23  24
ENDBRANCH  18  23
ENDBRANCH  14  17
ENDBRANCH   7  13
ENDBRANCH   3   6
ENDBRANCH   1   2
BRANCH   1  26
ATOM     26  C   UNL A   1      38.123  19.928  25.027  1.00  0.00     0.042 C 
BRANCH  26  27
ATOM     27  C   UNL A   1      39.176  20.429  26.000  1.00  0.00     0.118 C 
BRANCH  27  28
ATOM     28  N   UNL A   1      40.305  19.508  26.086  1.00  0.00    -0.352 N 
ATOM     29  C   UNL A   1      41.643  19.781  26.197  1.00  0.00     0.251 C 
ATOM     30  H   UNL A   1      40.070  18.551  26.060  1.00  0.00     0.163 HD
ATOM     31  O   UNL A   1      42.466  18.883  26.016  1.00  0.00    -0.269 OA
BRANCH  29  32
ATOM     32  C   UNL A   1      42.090  21.153  26.510  1.00  0.00     0.039 A 
ATOM     33  C   UNL A   1      42.398  21.482  27.832  1.00  0.00     0.014 A 
ATOM     34  C   UNL A   1      42.215  22.109  25.499  1.00  0.00     0.014 A 
ATOM     35  C   UNL A   1      42.894  22.753  28.125  1.00  0.00     0.010 A 
ATOM     36  C   UNL A   1      42.802  23.338  25.778  1.00  0.00     0.010 A 
ATOM     37  C   UNL A   1      43.138  23.677  27.095  1.00  0.00    -0.014 A 
BRANCH  37  38
ATOM     38  C   UNL A   1      43.744  25.003  27.377  1.00  0.00     0.031 A 
ATOM     39  C   UNL A   1      42.901  26.115  27.942  1.00  0.00     0.074 A 
ATOM     40  C   UNL A   1      45.038  25.219  27.067  1.00  0.00     0.049 A 
ATOM     41  N   UNL A   1      43.242  27.347  28.218  1.00  0.00    -0.248 NA
ATOM     42  C   UNL A   1      41.484  25.814  28.206  1.00  0.00     0.031 C 
ATOM     43  C   UNL A   1      45.942  24.235  26.465  1.00  0.00     0.029 A 
ATOM     44  N   UNL A   1      45.819  26.338  27.213  1.00  0.00    -0.354 N 
ATOM     45  C   UNL A   1      42.084  27.969  28.669  1.00  0.00     0.074 A 
ATOM     46  C   UNL A   1      41.018  26.997  28.577  1.00  0.00     0.031 C 
ATOM     47  C   UNL A   1      47.161  24.782  26.328  1.00  0.00     0.029 A 
ATOM     48  C   UNL A   1      47.116  26.166  26.788  1.00  0.00     0.049 A 
ATOM     49  H   UNL A   1      45.483  27.184  27.588  1.00  0.00     0.167 HD
ATOM     50  C   UNL A   1      41.926  29.229  29.140  1.00  0.00     0.031 A 
ATOM     51  C   UNL A   1      48.152  27.026  26.764  1.00  0.00     0.031 A 
ATOM     52  C   UNL A   1      42.996  30.185  29.240  1.00  0.00     0.049 A 
ATOM     53  C   UNL A   1      47.950  28.421  27.288  1.00  0.00     0.074 A 
ATOM     54  C   UNL A   1      42.955  31.467  29.760  1.00  0.00     0.029 A 
ATOM     55  N   UNL A   1      44.296  29.969  28.809  1.00  0.00    -0.354 N 
ATOM     56  N   UNL A   1      46.864  28.966  27.785  1.00  0.00    -0.248 NA
ATOM     57  C   UNL A   1      49.117  29.315  27.262  1.00  0.00     0.031 C 
ATOM     58  C   UNL A   1      44.215  32.047  29.588  1.00  0.00     0.029 A 
ATOM     59  C   UNL A   1      45.060  31.103  29.025  1.00  0.00     0.049 A 
ATOM     60  H   UNL A   1      44.627  29.133  28.408  1.00  0.00     0.167 HD
ATOM     61  C   UNL A   1      47.225  30.257  28.157  1.00  0.00     0.074 A 
ATOM     62  C   UNL A   1      48.632  30.403  27.844  1.00  0.00     0.031 C 
ATOM     63  C   UNL A   1      46.460  31.232  28.706  1.00  0.00     0.031 A 
BRANCH  50  64
ATOM     64  C   UNL A   1      40.547  29.645  29.581  1.00  0.00    -0.014 A 
ATOM     65  C   UNL A   1      40.209  29.718  30.945  1.00  0.00     0.010 A 
ATOM     66  C   UNL A   1      39.588  30.015  28.620  1.00  0.00     0.010 A 
ATOM     67  C   UNL A   1      38.929  30.118  31.338  1.00  0.00     0.020 A 
ATOM     68  C   UNL A   1      38.317  30.446  29.010  1.00  0.00     0.020 A 
ATOM     69  C   UNL A   1      37.991  30.481  30.367  1.00  0.00     0.054 A 
BRANCH  69  70
ATOM     70  S   UNL A   1      36.349  31.030  30.909  1.00  0.00     0.124 S 
ATOM     71  O   UNL A   1      35.982  29.985  31.861  1.00  0.00    -0.237 OA
ATOM     72  O   UNL A   1      36.627  32.339  31.492  1.00  0.00    -0.237 OA
ATOM     73  O   UNL A   1      35.566  31.052  29.676  1.00  0.00    -0.744 OA
ENDBRANCH  69  70
ENDBRANCH  50  64
BRANCH  51  74
ATOM     74  C   UNL A   1      49.474  26.587  26.237  1.00  0.00    -0.014 A 
ATOM     75  C   UNL A   1      49.827  26.825  24.897  1.00  0.00     0.010 A 
ATOM     76  C   UNL A   1      50.393  25.932  27.078  1.00  0.00     0.010 A 
ATOM     77  C   UNL A   1      51.062  26.397  24.402  1.00  0.00     0.020 A 
ATOM     78  C   UNL A   1      51.642  25.532  26.595  1.00  0.00     0.020 A 
ATOM     79  C   UNL A   1      51.964  25.755  25.256  1.00  0.00     0.054 A 
BRANCH  79  80
ATOM     80  S   UNL A   1      53.577  25.246  24.602  1.00  0.00     0.124 S 
ATOM     81  O   UNL A   1      53.574  23.810  24.868  1.00  0.00    -0.237 OA
ATOM     82  O   UNL A   1      53.483  25.631  23.196  1.00  0.00    -0.237 OA
ATOM     83  O   UNL A   1      54.528  26.026  25.391  1.00  0.00    -0.744 OA
ENDBRANCH  79  80
ENDBRANCH  51  74
BRANCH  63  84
ATOM     84  C   UNL A   1      47.135  32.535  29.043  1.00  0.00    -0.014 A 
ATOM     85  C   UNL A   1      47.737  32.746  30.295  1.00  0.00     0.010 A 
ATOM     86  C   UNL A   1      47.216  33.544  28.065  1.00  0.00     0.010 A 
ATOM     87  C   UNL A   1      48.378  33.956  30.576  1.00  0.00     0.020 A 
ATOM     88  C   UNL A   1      47.883  34.742  28.330  1.00  0.00     0.020 A 
ATOM     89  C   UNL A   1      48.448  34.945  29.590  1.00  0.00     0.054 A 
BRANCH  89  90
ATOM     90  S   UNL A   1      49.324  36.488  29.965  1.00  0.00     0.124 S 
ATOM     91  O   UNL A   1      48.923  36.738  31.347  1.00  0.00    -0.237 OA
ATOM     92  O   UNL A   1      50.724  36.116  29.774  1.00  0.00    -0.237 OA
ATOM     93  O   UNL A   1      48.797  37.434  28.983  1.00  0.00    -0.744 OA
ENDBRANCH  89  90
ENDBRANCH  63  84
ENDBRANCH  37  38
ENDBRANCH  29  32
ENDBRANCH  27  28
ENDBRANCH  26  27
ENDBRANCH   1  26
TORSDOF 17
ENDMDL
