MODEL 1
REMARK VINA RESULT:     -10.6      0.000      0.000
REMARK SMILES CCC[NH2+][C@]1(C(=O)NCCCNC(=O)c2ccc(-c3c4nc(c(-c5ccc(S(=O)(=O)[O-])cc5)c5ccc([nH]5)c(-c5ccc(S(=O)(=O)[O-])cc5)c5nc(c(-c6ccc(S(=O)(=O)[O-])cc6)c6ccc3[nH]6)C=C5)C=C4)cc2)CCC[C@H](Sc2nnc(C)o2)C1
REMARK SMILES IDX 10 1 9 2 8 3 6 4 7 5 5 7 75 8 86 9 76 10 78 11 77 12 4 13
REMARK SMILES IDX 3 16 2 17 1 18 79 19 80 20 81 21 85 22 82 23 83 24 84 25
REMARK SMILES IDX 11 26 12 27 13 28 14 30 15 31 16 32 74 33 17 34 73 35 18 36
REMARK SMILES IDX 19 37 20 38 67 39 21 40 72 41 66 42 68 43 22 44 71 45 65 46
REMARK SMILES IDX 64 47 23 49 53 50 34 51 52 52 35 53 38 54 51 55 69 56 36 57
REMARK SMILES IDX 37 58 50 60 70 61 39 62 24 63 25 64 33 65 26 66 32 67 27 68
REMARK SMILES IDX 28 69 29 70 30 71 31 72 54 73 55 74 63 75 56 76 62 77 57 78
REMARK SMILES IDX 58 79 59 80 60 81 61 82 40 83 41 84 49 85 42 86 48 87 43 88
REMARK SMILES IDX 44 89 45 90 46 91 47 92
REMARK H PARENT 8 6 4 14 4 15 12 29 68 48 38 59
REMARK Flexibility Score: inf
ROOT
ATOM      1  C   UNL A   1      32.389  28.025  26.390  1.00  0.00     0.042 C 
ENDROOT
BRANCH   1   2
ATOM      2  C   UNL A   1      32.600  26.529  26.236  1.00  0.00     0.118 C 
BRANCH   2   3
ATOM      3  N   UNL A   1      31.387  25.764  26.465  1.00  0.00    -0.351 N 
ATOM      4  C   UNL A   1      31.114  24.436  26.371  1.00  0.00     0.281 C 
ATOM      5  O   UNL A   1      30.044  24.081  26.881  1.00  0.00    -0.268 OA
ATOM      6  H   UNL A   1      30.617  26.311  26.741  1.00  0.00     0.163 HD
BRANCH   4   7
ATOM      7  C   UNL A   1      32.095  23.410  25.708  1.00  0.00     0.176 C 
ATOM      8  C   UNL A   1      33.540  23.579  26.228  1.00  0.00     0.079 C 
ATOM      9  C   UNL A   1      31.561  21.967  25.972  1.00  0.00     0.094 C 
ATOM     10  C   UNL A   1      34.475  22.460  25.773  1.00  0.00     0.008 C 
ATOM     11  C   UNL A   1      32.517  20.814  25.600  1.00  0.00     0.063 C 
ATOM     12  C   UNL A   1      33.922  21.089  26.153  1.00  0.00     0.015 C 
BRANCH   7  13
ATOM     13  N   UNL A   1      32.023  23.573  24.225  1.00  0.00    -0.334 N 
ATOM     14  H   UNL A   1      32.805  24.167  23.949  1.00  0.00     0.347 HD
ATOM     15  H   UNL A   1      32.036  22.617  23.868  1.00  0.00     0.347 HD
BRANCH  13  16
ATOM     16  C   UNL A   1      30.816  24.154  23.645  1.00  0.00     0.261 C 
BRANCH  16  17
ATOM     17  C   UNL A   1      31.180  25.373  22.784  1.00  0.00     0.058 C 
ATOM     18  C   UNL A   1      32.493  25.240  22.022  1.00  0.00     0.010 C 
ENDBRANCH  16  17
ENDBRANCH  13  16
ENDBRANCH   7  13
BRANCH  11  19
ATOM     19  S   UNL A   1      32.462  20.522  23.797  1.00  0.00    -0.062 SA
BRANCH  19  20
ATOM     20  C   UNL A   1      32.940  18.873  23.630  1.00  0.00     0.276 A 
ATOM     21  N   UNL A   1      32.645  18.063  22.635  1.00  0.00    -0.101 NA
ATOM     22  O   UNL A   1      33.722  18.267  24.577  1.00  0.00    -0.416 OA
ATOM     23  N   UNL A   1      33.239  16.848  22.921  1.00  0.00    -0.112 NA
ATOM     24  C   UNL A   1      33.863  17.011  24.066  1.00  0.00     0.214 A 
ATOM     25  C   UNL A   1      34.674  16.065  24.848  1.00  0.00     0.113 C 
ENDBRANCH  19  20
ENDBRANCH  11  19
ENDBRANCH   4   7
ENDBRANCH   2   3
ENDBRANCH   1   2
BRANCH   1  26
ATOM     26  C   UNL A   1      33.671  28.842  26.338  1.00  0.00     0.118 C 
BRANCH  26  27
ATOM     27  N   UNL A   1      33.534  30.158  26.950  1.00  0.00    -0.352 N 
ATOM     28  C   UNL A   1      34.369  30.808  27.829  1.00  0.00     0.251 C 
ATOM     29  H   UNL A   1      32.724  30.656  26.696  1.00  0.00     0.163 HD
ATOM     30  O   UNL A   1      33.999  31.845  28.371  1.00  0.00    -0.269 OA
BRANCH  28  31
ATOM     31  C   UNL A   1      35.694  30.233  28.137  1.00  0.00     0.039 A 
ATOM     32  C   UNL A   1      36.711  30.312  27.183  1.00  0.00     0.014 A 
ATOM     33  C   UNL A   1      35.938  29.642  29.378  1.00  0.00     0.014 A 
ATOM     34  C   UNL A   1      37.996  29.874  27.510  1.00  0.00     0.010 A 
ATOM     35  C   UNL A   1      37.236  29.300  29.735  1.00  0.00     0.010 A 
ATOM     36  C   UNL A   1      38.279  29.408  28.803  1.00  0.00    -0.014 A 
BRANCH  36  37
ATOM     37  C   UNL A   1      39.651  29.011  29.210  1.00  0.00     0.031 A 
ATOM     38  C   UNL A   1      40.543  30.008  29.901  1.00  0.00     0.074 A 
ATOM     39  C   UNL A   1      40.123  27.791  28.883  1.00  0.00     0.049 A 
ATOM     40  N   UNL A   1      41.806  29.900  30.224  1.00  0.00    -0.248 NA
ATOM     41  C   UNL A   1      39.946  31.311  30.242  1.00  0.00     0.031 C 
ATOM     42  C   UNL A   1      39.377  26.752  28.166  1.00  0.00     0.029 A 
ATOM     43  N   UNL A   1      41.353  27.222  29.099  1.00  0.00    -0.354 N 
ATOM     44  C   UNL A   1      42.158  31.124  30.780  1.00  0.00     0.074 A 
ATOM     45  C   UNL A   1      40.994  31.978  30.702  1.00  0.00     0.031 C 
ATOM     46  C   UNL A   1      40.157  25.668  28.024  1.00  0.00     0.029 A 
ATOM     47  C   UNL A   1      41.469  25.946  28.600  1.00  0.00     0.049 A 
ATOM     48  H   UNL A   1      42.086  27.685  29.567  1.00  0.00     0.167 HD
ATOM     49  C   UNL A   1      43.338  31.499  31.329  1.00  0.00     0.031 A 
ATOM     50  C   UNL A   1      42.514  25.097  28.597  1.00  0.00     0.031 A 
ATOM     51  C   UNL A   1      44.484  30.639  31.436  1.00  0.00     0.049 A 
ATOM     52  C   UNL A   1      43.807  25.527  29.236  1.00  0.00     0.074 A 
ATOM     53  C   UNL A   1      45.710  30.906  32.020  1.00  0.00     0.029 A 
ATOM     54  N   UNL A   1      44.543  29.338  30.960  1.00  0.00    -0.354 N 
ATOM     55  N   UNL A   1      44.106  26.675  29.798  1.00  0.00    -0.248 NA
ATOM     56  C   UNL A   1      44.900  24.546  29.250  1.00  0.00     0.031 C 
ATOM     57  C   UNL A   1      46.520  29.776  31.871  1.00  0.00     0.029 A 
ATOM     58  C   UNL A   1      45.783  28.790  31.233  1.00  0.00     0.049 A 
ATOM     59  H   UNL A   1      43.809  28.872  30.497  1.00  0.00     0.167 HD
ATOM     60  C   UNL A   1      45.411  26.542  30.257  1.00  0.00     0.074 A 
ATOM     61  C   UNL A   1      45.839  25.200  29.920  1.00  0.00     0.031 C 
ATOM     62  C   UNL A   1      46.185  27.449  30.900  1.00  0.00     0.031 A 
BRANCH  49  63
ATOM     63  C   UNL A   1      43.439  32.900  31.870  1.00  0.00    -0.014 A 
ATOM     64  C   UNL A   1      43.125  33.178  33.213  1.00  0.00     0.010 A 
ATOM     65  C   UNL A   1      43.888  33.943  31.040  1.00  0.00     0.010 A 
ATOM     66  C   UNL A   1      43.221  34.481  33.707  1.00  0.00     0.020 A 
ATOM     67  C   UNL A   1      44.011  35.244  31.539  1.00  0.00     0.020 A 
ATOM     68  C   UNL A   1      43.662  35.506  32.865  1.00  0.00     0.054 A 
BRANCH  68  69
ATOM     69  S   UNL A   1      43.806  37.183  33.542  1.00  0.00     0.124 S 
ATOM     70  O   UNL A   1      42.607  37.277  34.369  1.00  0.00    -0.237 OA
ATOM     71  O   UNL A   1      45.069  37.127  34.273  1.00  0.00    -0.237 OA
ATOM     72  O   UNL A   1      43.814  38.036  32.355  1.00  0.00    -0.744 OA
ENDBRANCH  68  69
ENDBRANCH  49  63
BRANCH  50  73
ATOM     73  C   UNL A   1      42.383  23.749  27.981  1.00  0.00    -0.014 A 
ATOM     74  C   UNL A   1      42.506  23.585  26.590  1.00  0.00     0.010 A 
ATOM     75  C   UNL A   1      42.133  22.620  28.784  1.00  0.00     0.010 A 
ATOM     76  C   UNL A   1      42.352  22.322  26.009  1.00  0.00     0.020 A 
ATOM     77  C   UNL A   1      42.004  21.353  28.208  1.00  0.00     0.020 A 
ATOM     78  C   UNL A   1      42.099  21.215  26.822  1.00  0.00     0.054 A 
BRANCH  78  79
ATOM     79  S   UNL A   1      41.937  19.579  26.053  1.00  0.00     0.124 S 
ATOM     80  O   UNL A   1      42.375  18.695  27.128  1.00  0.00    -0.237 OA
ATOM     81  O   UNL A   1      40.514  19.522  25.725  1.00  0.00    -0.237 OA
ATOM     82  O   UNL A   1      42.830  19.656  24.899  1.00  0.00    -0.744 OA
ENDBRANCH  78  79
ENDBRANCH  50  73
BRANCH  62  83
ATOM     83  C   UNL A   1      47.561  27.011  31.321  1.00  0.00    -0.014 A 
ATOM     84  C   UNL A   1      47.785  26.423  32.579  1.00  0.00     0.010 A 
ATOM     85  C   UNL A   1      48.632  27.134  30.418  1.00  0.00     0.010 A 
ATOM     86  C   UNL A   1      49.064  25.990  32.936  1.00  0.00     0.020 A 
ATOM     87  C   UNL A   1      49.907  26.680  30.763  1.00  0.00     0.020 A 
ATOM     88  C   UNL A   1      50.118  26.122  32.026  1.00  0.00     0.054 A 
BRANCH  88  89
ATOM     89  S   UNL A   1      51.759  25.507  32.492  1.00  0.00     0.124 S 
ATOM     90  O   UNL A   1      51.747  25.681  33.941  1.00  0.00    -0.237 OA
ATOM     91  O   UNL A   1      51.728  24.123  32.025  1.00  0.00    -0.237 OA
ATOM     92  O   UNL A   1      52.675  26.382  31.766  1.00  0.00    -0.744 OA
ENDBRANCH  88  89
ENDBRANCH  62  83
ENDBRANCH  36  37
ENDBRANCH  28  31
ENDBRANCH  26  27
ENDBRANCH   1  26
TORSDOF 18
ENDMDL
MODEL 2
REMARK VINA RESULT:     -10.6      1.766      2.674
REMARK SMILES CCC[NH2+][C@]1(C(=O)NCCCNC(=O)c2ccc(-c3c4nc(c(-c5ccc(S(=O)(=O)[O-])cc5)c5ccc([nH]5)c(-c5ccc(S(=O)(=O)[O-])cc5)c5nc(c(-c6ccc(S(=O)(=O)[O-])cc6)c6ccc3[nH]6)C=C5)C=C4)cc2)CCC[C@H](Sc2nnc(C)o2)C1
REMARK SMILES IDX 10 1 9 2 8 3 6 4 7 5 5 7 75 8 86 9 76 10 78 11 77 12 4 13
REMARK SMILES IDX 3 16 2 17 1 18 79 19 80 20 81 21 85 22 82 23 83 24 84 25
REMARK SMILES IDX 11 26 12 27 13 28 14 30 15 31 16 32 74 33 17 34 73 35 18 36
REMARK SMILES IDX 19 37 20 38 67 39 21 40 72 41 66 42 68 43 22 44 71 45 65 46
REMARK SMILES IDX 64 47 23 49 53 50 34 51 52 52 35 53 38 54 51 55 69 56 36 57
REMARK SMILES IDX 37 58 50 60 70 61 39 62 24 63 25 64 33 65 26 66 32 67 27 68
REMARK SMILES IDX 28 69 29 70 30 71 31 72 54 73 55 74 63 75 56 76 62 77 57 78
REMARK SMILES IDX 58 79 59 80 60 81 61 82 40 83 41 84 49 85 42 86 48 87 43 88
REMARK SMILES IDX 44 89 45 90 46 91 47 92
REMARK H PARENT 8 6 4 14 4 15 12 29 68 48 38 59
REMARK Flexibility Score: inf
ROOT
ATOM      1  C   UNL A   1      33.595  28.695  25.419  1.00  0.00     0.042 C 
ENDROOT
BRANCH   1   2
ATOM      2  C   UNL A   1      32.163  28.771  24.919  1.00  0.00     0.118 C 
BRANCH   2   3
ATOM      3  N   UNL A   1      31.267  27.891  25.647  1.00  0.00    -0.351 N 
ATOM      4  C   UNL A   1      31.041  26.552  25.571  1.00  0.00     0.281 C 
ATOM      5  O   UNL A   1      30.392  26.074  26.510  1.00  0.00    -0.268 OA
ATOM      6  H   UNL A   1      30.719  28.350  26.324  1.00  0.00     0.163 HD
BRANCH   4   7
ATOM      7  C   UNL A   1      31.595  25.660  24.409  1.00  0.00     0.176 C 
ATOM      8  C   UNL A   1      31.171  26.194  23.023  1.00  0.00     0.079 C 
ATOM      9  C   UNL A   1      33.149  25.581  24.538  1.00  0.00     0.094 C 
ATOM     10  C   UNL A   1      31.871  25.483  21.867  1.00  0.00     0.008 C 
ATOM     11  C   UNL A   1      33.893  24.941  23.347  1.00  0.00     0.063 C 
ATOM     12  C   UNL A   1      33.389  25.534  22.024  1.00  0.00     0.015 C 
BRANCH   7  13
ATOM     13  N   UNL A   1      31.127  24.257  24.623  1.00  0.00    -0.334 N 
ATOM     14  H   UNL A   1      30.109  24.265  24.549  1.00  0.00     0.347 HD
ATOM     15  H   UNL A   1      31.625  23.718  23.914  1.00  0.00     0.347 HD
BRANCH  13  16
ATOM     16  C   UNL A   1      31.463  23.593  25.878  1.00  0.00     0.261 C 
BRANCH  16  17
ATOM     17  C   UNL A   1      30.493  22.430  26.135  1.00  0.00     0.058 C 
ATOM     18  C   UNL A   1      29.481  22.683  27.246  1.00  0.00     0.010 C 
ENDBRANCH  16  17
ENDBRANCH  13  16
ENDBRANCH   7  13
BRANCH  11  19
ATOM     19  S   UNL A   1      33.777  23.121  23.450  1.00  0.00    -0.062 SA
BRANCH  19  20
ATOM     20  C   UNL A   1      35.139  22.672  24.408  1.00  0.00     0.276 A 
ATOM     21  N   UNL A   1      35.422  21.469  24.863  1.00  0.00    -0.101 NA
ATOM     22  O   UNL A   1      36.084  23.597  24.767  1.00  0.00    -0.416 OA
ATOM     23  N   UNL A   1      36.602  21.580  25.574  1.00  0.00    -0.112 NA
ATOM     24  C   UNL A   1      36.958  22.843  25.490  1.00  0.00     0.214 A 
ATOM     25  C   UNL A   1      38.133  23.536  26.041  1.00  0.00     0.113 C 
ENDBRANCH  19  20
ENDBRANCH  11  19
ENDBRANCH   4   7
ENDBRANCH   2   3
ENDBRANCH   1   2
BRANCH   1  26
ATOM     26  C   UNL A   1      33.726  28.698  26.934  1.00  0.00     0.118 C 
BRANCH  26  27
ATOM     27  N   UNL A   1      33.648  30.035  27.510  1.00  0.00    -0.352 N 
ATOM     28  C   UNL A   1      34.567  30.716  28.274  1.00  0.00     0.251 C 
ATOM     29  H   UNL A   1      32.813  30.524  27.325  1.00  0.00     0.163 HD
ATOM     30  O   UNL A   1      34.252  31.772  28.814  1.00  0.00    -0.269 OA
BRANCH  28  31
ATOM     31  C   UNL A   1      35.919  30.154  28.462  1.00  0.00     0.039 A 
ATOM     32  C   UNL A   1      36.841  30.225  27.414  1.00  0.00     0.014 A 
ATOM     33  C   UNL A   1      36.285  29.582  29.682  1.00  0.00     0.014 A 
ATOM     34  C   UNL A   1      38.155  29.800  27.623  1.00  0.00     0.010 A 
ATOM     35  C   UNL A   1      37.614  29.252  29.918  1.00  0.00     0.010 A 
ATOM     36  C   UNL A   1      38.562  29.353  28.890  1.00  0.00    -0.014 A 
BRANCH  36  37
ATOM     37  C   UNL A   1      39.970  28.970  29.169  1.00  0.00     0.031 A 
ATOM     38  C   UNL A   1      40.919  29.986  29.747  1.00  0.00     0.074 A 
ATOM     39  C   UNL A   1      40.415  27.744  28.825  1.00  0.00     0.049 A 
ATOM     40  N   UNL A   1      42.208  29.889  29.948  1.00  0.00    -0.248 NA
ATOM     41  C   UNL A   1      40.351  31.294  30.116  1.00  0.00     0.031 C 
ATOM     42  C   UNL A   1      39.607  26.687  28.208  1.00  0.00     0.029 A 
ATOM     43  N   UNL A   1      41.663  27.184  28.932  1.00  0.00    -0.354 N 
ATOM     44  C   UNL A   1      42.607  31.126  30.439  1.00  0.00     0.074 A 
ATOM     45  C   UNL A   1      41.435  31.974  30.456  1.00  0.00     0.031 C 
ATOM     46  C   UNL A   1      40.376  25.602  28.015  1.00  0.00     0.029 A 
ATOM     47  C   UNL A   1      41.736  25.897  28.454  1.00  0.00     0.049 A 
ATOM     48  H   UNL A   1      42.435  27.660  29.316  1.00  0.00     0.167 HD
ATOM     49  C   UNL A   1      43.832  31.517  30.862  1.00  0.00     0.031 A 
ATOM     50  C   UNL A   1      42.781  25.052  28.368  1.00  0.00     0.031 A 
ATOM     51  C   UNL A   1      44.988  30.663  30.876  1.00  0.00     0.049 A 
ATOM     52  C   UNL A   1      44.127  25.501  28.867  1.00  0.00     0.074 A 
ATOM     53  C   UNL A   1      46.263  30.948  31.331  1.00  0.00     0.029 A 
ATOM     54  N   UNL A   1      45.007  29.352  30.426  1.00  0.00    -0.354 N 
ATOM     55  N   UNL A   1      44.473  26.663  29.372  1.00  0.00    -0.248 NA
ATOM     56  C   UNL A   1      45.222  24.524  28.797  1.00  0.00     0.031 C 
ATOM     57  C   UNL A   1      47.061  29.818  31.129  1.00  0.00     0.029 A 
ATOM     58  C   UNL A   1      46.271  28.815  30.589  1.00  0.00     0.049 A 
ATOM     59  H   UNL A   1      44.234  28.873  30.047  1.00  0.00     0.167 HD
ATOM     60  C   UNL A   1      45.818  26.544  29.704  1.00  0.00     0.074 A 
ATOM     61  C   UNL A   1      46.219  25.196  29.357  1.00  0.00     0.031 C 
ATOM     62  C   UNL A   1      46.646  27.468  30.248  1.00  0.00     0.031 A 
BRANCH  49  63
ATOM     63  C   UNL A   1      43.978  32.931  31.359  1.00  0.00    -0.014 A 
ATOM     64  C   UNL A   1      44.252  33.983  30.467  1.00  0.00     0.010 A 
ATOM     65  C   UNL A   1      43.802  33.217  32.725  1.00  0.00     0.010 A 
ATOM     66  C   UNL A   1      44.386  35.292  30.937  1.00  0.00     0.020 A 
ATOM     67  C   UNL A   1      43.908  34.530  33.194  1.00  0.00     0.020 A 
ATOM     68  C   UNL A   1      44.215  35.556  32.299  1.00  0.00     0.054 A 
BRANCH  68  69
ATOM     69  S   UNL A   1      44.365  37.269  32.876  1.00  0.00     0.124 S 
ATOM     70  O   UNL A   1      45.562  37.202  33.710  1.00  0.00    -0.237 OA
ATOM     71  O   UNL A   1      44.510  38.017  31.629  1.00  0.00    -0.237 OA
ATOM     72  O   UNL A   1      43.115  37.502  33.596  1.00  0.00    -0.744 OA
ENDBRANCH  68  69
ENDBRANCH  49  63
BRANCH  50  73
ATOM     73  C   UNL A   1      42.598  23.690  27.798  1.00  0.00    -0.014 A 
ATOM     74  C   UNL A   1      42.295  22.600  28.634  1.00  0.00     0.010 A 
ATOM     75  C   UNL A   1      42.728  23.474  26.413  1.00  0.00     0.010 A 
ATOM     76  C   UNL A   1      42.155  21.316  28.101  1.00  0.00     0.020 A 
ATOM     77  C   UNL A   1      42.562  22.194  25.874  1.00  0.00     0.020 A 
ATOM     78  C   UNL A   1      42.292  21.121  26.725  1.00  0.00     0.054 A 
BRANCH  78  79
ATOM     79  S   UNL A   1      42.072  19.451  26.048  1.00  0.00     0.124 S 
ATOM     80  O   UNL A   1      42.921  19.493  24.861  1.00  0.00    -0.237 OA
ATOM     81  O   UNL A   1      42.546  18.602  27.138  1.00  0.00    -0.237 OA
ATOM     82  O   UNL A   1      40.635  19.376  25.791  1.00  0.00    -0.744 OA
ENDBRANCH  78  79
ENDBRANCH  50  73
BRANCH  62  83
ATOM     83  C   UNL A   1      48.059  27.044  30.542  1.00  0.00    -0.014 A 
ATOM     84  C   UNL A   1      49.086  27.230  29.600  1.00  0.00     0.010 A 
ATOM     85  C   UNL A   1      48.370  26.507  31.804  1.00  0.00     0.010 A 
ATOM     86  C   UNL A   1      50.398  26.862  29.908  1.00  0.00     0.020 A 
ATOM     87  C   UNL A   1      49.685  26.161  32.124  1.00  0.00     0.020 A 
ATOM     88  C   UNL A   1      50.689  26.329  31.168  1.00  0.00     0.054 A 
BRANCH  88  89
ATOM     89  S   UNL A   1      52.408  25.905  31.563  1.00  0.00     0.124 S 
ATOM     90  O   UNL A   1      52.747  26.916  32.560  1.00  0.00    -0.237 OA
ATOM     91  O   UNL A   1      52.294  24.539  32.066  1.00  0.00    -0.237 OA
ATOM     92  O   UNL A   1      53.099  26.035  30.283  1.00  0.00    -0.744 OA
ENDBRANCH  88  89
ENDBRANCH  62  83
ENDBRANCH  36  37
ENDBRANCH  28  31
ENDBRANCH  26  27
ENDBRANCH   1  26
TORSDOF 18
ENDMDL
MODEL 3
REMARK VINA RESULT:     -10.5      2.283      2.746
REMARK SMILES CCC[NH2+][C@]1(C(=O)NCCCNC(=O)c2ccc(-c3c4nc(c(-c5ccc(S(=O)(=O)[O-])cc5)c5ccc([nH]5)c(-c5ccc(S(=O)(=O)[O-])cc5)c5nc(c(-c6ccc(S(=O)(=O)[O-])cc6)c6ccc3[nH]6)C=C5)C=C4)cc2)CCC[C@H](Sc2nnc(C)o2)C1
REMARK SMILES IDX 10 1 9 2 8 3 6 4 7 5 5 7 75 8 86 9 76 10 78 11 77 12 4 13
REMARK SMILES IDX 3 16 2 17 1 18 79 19 80 20 81 21 85 22 82 23 83 24 84 25
REMARK SMILES IDX 11 26 12 27 13 28 14 30 15 31 16 32 74 33 17 34 73 35 18 36
REMARK SMILES IDX 19 37 20 38 67 39 21 40 72 41 66 42 68 43 22 44 71 45 65 46
REMARK SMILES IDX 64 47 23 49 53 50 34 51 52 52 35 53 38 54 51 55 69 56 36 57
REMARK SMILES IDX 37 58 50 60 70 61 39 62 24 63 25 64 33 65 26 66 32 67 27 68
REMARK SMILES IDX 28 69 29 70 30 71 31 72 54 73 55 74 63 75 56 76 62 77 57 78
REMARK SMILES IDX 58 79 59 80 60 81 61 82 40 83 41 84 49 85 42 86 48 87 43 88
REMARK SMILES IDX 44 89 45 90 46 91 47 92
REMARK H PARENT 8 6 4 14 4 15 12 29 68 48 38 59
REMARK Flexibility Score: inf
ROOT
ATOM      1  C   UNL A   1      32.208  28.132  27.132  1.00  0.00     0.042 C 
ENDROOT
BRANCH   1   2
ATOM      2  C   UNL A   1      31.712  27.285  25.974  1.00  0.00     0.118 C 
BRANCH   2   3
ATOM      3  N   UNL A   1      30.965  26.119  26.410  1.00  0.00    -0.351 N 
ATOM      4  C   UNL A   1      31.280  24.797  26.456  1.00  0.00     0.281 C 
ATOM      5  O   UNL A   1      30.507  24.095  27.121  1.00  0.00    -0.268 OA
ATOM      6  H   UNL A   1      30.058  26.325  26.735  1.00  0.00     0.163 HD
BRANCH   4   7
ATOM      7  C   UNL A   1      32.550  24.200  25.761  1.00  0.00     0.176 C 
ATOM      8  C   UNL A   1      33.757  25.161  25.848  1.00  0.00     0.079 C 
ATOM      9  C   UNL A   1      32.874  22.820  26.415  1.00  0.00     0.094 C 
ATOM     10  C   UNL A   1      35.063  24.525  25.379  1.00  0.00     0.008 C 
ATOM     11  C   UNL A   1      34.227  22.189  26.024  1.00  0.00     0.063 C 
ATOM     12  C   UNL A   1      35.350  23.230  26.134  1.00  0.00     0.015 C 
BRANCH   7  13
ATOM     13  N   UNL A   1      32.208  23.875  24.343  1.00  0.00    -0.334 N 
ATOM     14  H   UNL A   1      33.066  23.560  23.892  1.00  0.00     0.347 HD
ATOM     15  H   UNL A   1      31.460  23.184  24.420  1.00  0.00     0.347 HD
BRANCH  13  16
ATOM     16  C   UNL A   1      31.639  24.925  23.505  1.00  0.00     0.261 C 
BRANCH  16  17
ATOM     17  C   UNL A   1      32.748  25.599  22.681  1.00  0.00     0.058 C 
ATOM     18  C   UNL A   1      32.571  25.489  21.172  1.00  0.00     0.010 C 
ENDBRANCH  16  17
ENDBRANCH  13  16
ENDBRANCH   7  13
BRANCH  11  19
ATOM     19  S   UNL A   1      34.091  21.398  24.383  1.00  0.00    -0.062 SA
BRANCH  19  20
ATOM     20  C   UNL A   1      33.432  19.841  24.727  1.00  0.00     0.276 A 
ATOM     21  N   UNL A   1      32.177  19.561  25.009  1.00  0.00    -0.101 NA
ATOM     22  O   UNL A   1      34.222  18.722  24.713  1.00  0.00    -0.416 OA
ATOM     23  N   UNL A   1      32.109  18.194  25.209  1.00  0.00    -0.112 NA
ATOM     24  C   UNL A   1      33.329  17.741  25.022  1.00  0.00     0.214 A 
ATOM     25  C   UNL A   1      33.851  16.367  25.091  1.00  0.00     0.113 C 
ENDBRANCH  19  20
ENDBRANCH  11  19
ENDBRANCH   4   7
ENDBRANCH   2   3
ENDBRANCH   1   2
BRANCH   1  26
ATOM     26  C   UNL A   1      33.575  28.758  26.904  1.00  0.00     0.118 C 
BRANCH  26  27
ATOM     27  N   UNL A   1      33.570  30.209  27.048  1.00  0.00    -0.352 N 
ATOM     28  C   UNL A   1      34.450  31.027  27.717  1.00  0.00     0.251 C 
ATOM     29  H   UNL A   1      32.826  30.672  26.598  1.00  0.00     0.163 HD
ATOM     30  O   UNL A   1      34.184  32.215  27.872  1.00  0.00    -0.269 OA
BRANCH  28  31
ATOM     31  C   UNL A   1      35.695  30.460  28.273  1.00  0.00     0.039 A 
ATOM     32  C   UNL A   1      36.916  30.772  27.670  1.00  0.00     0.014 A 
ATOM     33  C   UNL A   1      35.657  29.645  29.406  1.00  0.00     0.014 A 
ATOM     34  C   UNL A   1      38.105  30.333  28.257  1.00  0.00     0.010 A 
ATOM     35  C   UNL A   1      36.842  29.295  30.042  1.00  0.00     0.010 A 
ATOM     36  C   UNL A   1      38.078  29.631  29.472  1.00  0.00    -0.014 A 
BRANCH  36  37
ATOM     37  C   UNL A   1      39.326  29.221  30.166  1.00  0.00     0.031 A 
ATOM     38  C   UNL A   1      39.780  29.970  31.391  1.00  0.00     0.074 A 
ATOM     39  C   UNL A   1      40.092  28.238  29.649  1.00  0.00     0.049 A 
ATOM     40  N   UNL A   1      40.894  29.849  32.066  1.00  0.00    -0.248 NA
ATOM     41  C   UNL A   1      38.877  31.014  31.905  1.00  0.00     0.031 C 
ATOM     42  C   UNL A   1      39.789  27.471  28.436  1.00  0.00     0.029 A 
ATOM     43  N   UNL A   1      41.292  27.725  30.072  1.00  0.00    -0.354 N 
ATOM     44  C   UNL A   1      40.838  30.816  33.062  1.00  0.00     0.074 A 
ATOM     45  C   UNL A   1      39.606  31.550  32.873  1.00  0.00     0.031 C 
ATOM     46  C   UNL A   1      40.766  26.572  28.229  1.00  0.00     0.029 A 
ATOM     47  C   UNL A   1      41.782  26.724  29.266  1.00  0.00     0.049 A 
ATOM     48  H   UNL A   1      41.760  28.044  30.877  1.00  0.00     0.167 HD
ATOM     49  C   UNL A   1      41.719  31.058  34.060  1.00  0.00     0.031 A 
ATOM     50  C   UNL A   1      42.923  26.015  29.345  1.00  0.00     0.031 A 
ATOM     51  C   UNL A   1      42.927  30.306  34.268  1.00  0.00     0.049 A 
ATOM     52  C   UNL A   1      43.875  26.285  30.479  1.00  0.00     0.074 A 
ATOM     53  C   UNL A   1      43.861  30.439  35.279  1.00  0.00     0.029 A 
ATOM     54  N   UNL A   1      43.361  29.271  33.455  1.00  0.00    -0.354 N 
ATOM     55  N   UNL A   1      43.780  27.175  31.439  1.00  0.00    -0.248 NA
ATOM     56  C   UNL A   1      45.082  25.450  30.547  1.00  0.00     0.031 C 
ATOM     57  C   UNL A   1      44.877  29.503  35.061  1.00  0.00     0.029 A 
ATOM     58  C   UNL A   1      44.551  28.758  33.939  1.00  0.00     0.049 A 
ATOM     59  H   UNL A   1      42.891  28.947  32.652  1.00  0.00     0.167 HD
ATOM     60  C   UNL A   1      44.901  26.986  32.240  1.00  0.00     0.074 A 
ATOM     61  C   UNL A   1      45.651  25.890  31.661  1.00  0.00     0.031 C 
ATOM     62  C   UNL A   1      45.275  27.659  33.355  1.00  0.00     0.031 A 
BRANCH  49  63
ATOM     63  C   UNL A   1      41.397  32.176  35.016  1.00  0.00    -0.014 A 
ATOM     64  C   UNL A   1      40.685  31.926  36.203  1.00  0.00     0.010 A 
ATOM     65  C   UNL A   1      41.843  33.482  34.745  1.00  0.00     0.010 A 
ATOM     66  C   UNL A   1      40.391  32.969  37.084  1.00  0.00     0.020 A 
ATOM     67  C   UNL A   1      41.573  34.524  35.638  1.00  0.00     0.020 A 
ATOM     68  C   UNL A   1      40.835  34.263  36.794  1.00  0.00     0.054 A 
BRANCH  68  69
ATOM     69  S   UNL A   1      40.464  35.593  37.971  1.00  0.00     0.124 S 
ATOM     70  O   UNL A   1      40.084  36.685  37.080  1.00  0.00    -0.237 OA
ATOM     71  O   UNL A   1      39.377  35.024  38.765  1.00  0.00    -0.237 OA
ATOM     72  O   UNL A   1      41.723  35.781  38.688  1.00  0.00    -0.744 OA
ENDBRANCH  68  69
ENDBRANCH  49  63
BRANCH  50  73
ATOM     73  C   UNL A   1      43.229  24.971  28.330  1.00  0.00    -0.014 A 
ATOM     74  C   UNL A   1      43.957  25.293  27.170  1.00  0.00     0.010 A 
ATOM     75  C   UNL A   1      42.791  23.646  28.516  1.00  0.00     0.010 A 
ATOM     76  C   UNL A   1      44.216  24.319  26.202  1.00  0.00     0.020 A 
ATOM     77  C   UNL A   1      43.071  22.664  27.562  1.00  0.00     0.020 A 
ATOM     78  C   UNL A   1      43.769  23.011  26.403  1.00  0.00     0.054 A 
BRANCH  78  79
ATOM     79  S   UNL A   1      44.146  21.752  25.151  1.00  0.00     0.124 S 
ATOM     80  O   UNL A   1      45.522  21.396  25.485  1.00  0.00    -0.237 OA
ATOM     81  O   UNL A   1      43.142  20.725  25.422  1.00  0.00    -0.237 OA
ATOM     82  O   UNL A   1      43.970  22.465  23.888  1.00  0.00    -0.744 OA
ENDBRANCH  78  79
ENDBRANCH  50  73
BRANCH  62  83
ATOM     83  C   UNL A   1      46.529  27.205  34.050  1.00  0.00    -0.014 A 
ATOM     84  C   UNL A   1      46.494  26.201  35.033  1.00  0.00     0.010 A 
ATOM     85  C   UNL A   1      47.767  27.751  33.667  1.00  0.00     0.010 A 
ATOM     86  C   UNL A   1      47.675  25.768  35.640  1.00  0.00     0.020 A 
ATOM     87  C   UNL A   1      48.953  27.304  34.254  1.00  0.00     0.020 A 
ATOM     88  C   UNL A   1      48.898  26.323  35.248  1.00  0.00     0.054 A 
BRANCH  88  89
ATOM     89  S   UNL A   1      50.423  25.711  36.014  1.00  0.00     0.124 S 
ATOM     90  O   UNL A   1      49.974  25.387  37.365  1.00  0.00    -0.237 OA
ATOM     91  O   UNL A   1      50.767  24.566  35.174  1.00  0.00    -0.237 OA
ATOM     92  O   UNL A   1      51.339  26.844  35.916  1.00  0.00    -0.744 OA
ENDBRANCH  88  89
ENDBRANCH  62  83
ENDBRANCH  36  37
ENDBRANCH  28  31
ENDBRANCH  26  27
ENDBRANCH   1  26
TORSDOF 18
ENDMDL
