MODEL 1
REMARK VINA RESULT:     -12.7      0.000      0.000
REMARK SMILES Cc1cc(S(F)(F)(F)(F)F)cc2c1O[C@H](C(F)(F)F)C(C(=O)NCCCNC(=O)c1ccc(-c3c4nc(c(-c5ccc(S(=O)(=O)[O-])cc5)c5ccc([nH]5)c(-c5ccc(S(=O)(=O)[O-])cc5)c5nc(c(-c6ccc(S(=O)(=O)[O-])cc6)c6ccc3[nH]6)C=C5)C=C4)cc1)=C2
REMARK SMILES IDX 26 1 25 2 24 3 23 4 21 5 22 6 20 8 1 9 2 10 3 11 13 12 4 13
REMARK SMILES IDX 12 14 14 15 11 16 90 17 15 18 5 19 6 20 7 21 8 22 9 23 10 24
REMARK SMILES IDX 16 25 17 26 18 27 19 28 27 29 28 30 29 32 30 33 31 34 89 35
REMARK SMILES IDX 32 36 88 37 33 38 34 39 35 40 82 41 36 42 87 43 81 44 83 45
REMARK SMILES IDX 37 46 86 47 80 48 79 49 38 51 68 52 49 53 67 54 50 55 53 56
REMARK SMILES IDX 66 57 84 58 51 59 52 60 65 62 85 63 54 64 39 65 40 66 48 67
REMARK SMILES IDX 41 68 47 69 42 70 43 71 44 72 45 73 46 74 69 75 70 76 78 77
REMARK SMILES IDX 71 78 77 79 72 80 73 81 74 82 75 83 76 84 55 85 56 86 64 87
REMARK SMILES IDX 57 88 63 89 58 90 59 91 60 92 61 93 62 94
REMARK H PARENT 23 7 27 31 83 50 53 61
REMARK Flexibility Score: inf
ROOT
ATOM      1  C   UNL A   1      39.129  20.717  25.813  1.00  0.00     0.118 C 
ENDROOT
BRANCH   1   2
ATOM      2  C   UNL A   1      37.901  20.497  24.946  1.00  0.00     0.042 C 
BRANCH   2   3
ATOM      3  C   UNL A   1      36.870  21.572  25.245  1.00  0.00     0.118 C 
BRANCH   3   4
ATOM      4  N   UNL A   1      35.847  21.031  26.151  1.00  0.00    -0.352 N 
ATOM      5  C   UNL A   1      34.561  21.726  26.308  1.00  0.00     0.251 C 
ATOM      6  O   UNL A   1      33.677  21.258  27.092  1.00  0.00    -0.270 OA
ATOM      7  H   UNL A   1      36.022  20.203  26.654  1.00  0.00     0.163 HD
BRANCH   5   8
ATOM      8  C   UNL A   1      34.289  23.005  25.531  1.00  0.00     0.067 C 
ATOM      9  C   UNL A   1      33.461  26.477  21.838  1.00  0.00     0.048 C 
ATOM     10  C   UNL A   1      33.545  26.501  23.355  1.00  0.00    -0.007 A 
ATOM     11  C   UNL A   1      33.377  27.683  24.044  1.00  0.00     0.031 A 
ATOM     12  C   UNL A   1      33.794  25.326  24.063  1.00  0.00     0.130 A 
ATOM     13  C   UNL A   1      33.457  27.714  25.431  1.00  0.00     0.108 A 
ATOM     14  C   UNL A   1      33.869  25.361  25.474  1.00  0.00     0.019 A 
ATOM     15  O   UNL A   1      33.982  24.035  23.389  1.00  0.00    -0.475 OA
ATOM     16  C   UNL A   1      33.694  26.573  26.145  1.00  0.00     0.036 A 
ATOM     17  C   UNL A   1      34.131  24.113  26.191  1.00  0.00     0.025 C 
ATOM     18  C   UNL A   1      34.220  22.940  24.140  1.00  0.00     0.314 C 
BRANCH  13  19
ATOM     19  S   UNL A   1      33.246  29.285  26.302  1.00  0.00     0.310 S 
ATOM     20  F   UNL A   1      33.141  28.563  27.710  1.00  0.00    -0.094 F 
ATOM     21  F   UNL A   1      31.686  29.115  26.174  1.00  0.00    -0.094 F 
ATOM     22  F   UNL A   1      33.066  30.636  27.050  1.00  0.00    -0.094 F 
ATOM     23  F   UNL A   1      34.806  29.370  26.544  1.00  0.00    -0.094 F 
ATOM     24  F   UNL A   1      33.440  27.861  25.644  1.00  0.00    -0.094 F 
ENDBRANCH  13  19
BRANCH  18  25
ATOM     25  C   UNL A   1      32.962  22.117  23.917  1.00  0.00     0.429 C 
ATOM     26  F   UNL A   1      32.498  22.338  22.689  1.00  0.00    -0.167 F 
ATOM     27  F   UNL A   1      33.246  20.825  24.056  1.00  0.00    -0.167 F 
ATOM     28  F   UNL A   1      32.039  22.466  24.808  1.00  0.00    -0.167 F 
ENDBRANCH  18  25
ENDBRANCH   5   8
ENDBRANCH   3   4
ENDBRANCH   2   3
ENDBRANCH   1   2
BRANCH   1  29
ATOM     29  N   UNL A   1      39.948  19.496  25.823  1.00  0.00    -0.352 N 
ATOM     30  C   UNL A   1      41.383  19.574  26.134  1.00  0.00     0.251 C 
ATOM     31  H   UNL A   1      39.535  18.625  25.620  1.00  0.00     0.163 HD
ATOM     32  O   UNL A   1      42.090  18.518  26.142  1.00  0.00    -0.269 OA
BRANCH  30  33
ATOM     33  C   UNL A   1      42.019  20.919  26.446  1.00  0.00     0.039 A 
ATOM     34  C   UNL A   1      42.508  21.730  25.427  1.00  0.00     0.014 A 
ATOM     35  C   UNL A   1      42.103  21.353  27.685  1.00  0.00     0.014 A 
ATOM     36  C   UNL A   1      42.584  23.114  25.705  1.00  0.00     0.010 A 
ATOM     37  C   UNL A   1      42.678  22.596  27.972  1.00  0.00     0.010 A 
ATOM     38  C   UNL A   1      42.915  23.465  27.011  1.00  0.00    -0.014 A 
BRANCH  38  39
ATOM     39  C   UNL A   1      43.535  24.817  27.322  1.00  0.00     0.031 A 
ATOM     40  C   UNL A   1      44.905  24.973  27.105  1.00  0.00     0.074 A 
ATOM     41  C   UNL A   1      42.704  25.826  27.779  1.00  0.00     0.049 A 
ATOM     42  N   UNL A   1      45.632  26.082  27.255  1.00  0.00    -0.248 NA
ATOM     43  C   UNL A   1      45.795  23.894  26.651  1.00  0.00     0.031 C 
ATOM     44  C   UNL A   1      41.320  25.680  27.992  1.00  0.00     0.029 A 
ATOM     45  N   UNL A   1      43.046  27.120  28.104  1.00  0.00    -0.354 N 
ATOM     46  C   UNL A   1      46.905  25.845  26.933  1.00  0.00     0.074 A 
ATOM     47  C   UNL A   1      47.030  24.433  26.545  1.00  0.00     0.031 C 
ATOM     48  C   UNL A   1      40.836  26.864  28.451  1.00  0.00     0.029 A 
ATOM     49  C   UNL A   1      41.909  27.771  28.531  1.00  0.00     0.049 A 
ATOM     50  H   UNL A   1      43.946  27.512  28.042  1.00  0.00     0.167 HD
ATOM     51  C   UNL A   1      47.967  26.751  26.945  1.00  0.00     0.031 A 
ATOM     52  C   UNL A   1      41.796  29.080  28.970  1.00  0.00     0.031 A 
ATOM     53  C   UNL A   1      47.844  28.074  27.343  1.00  0.00     0.049 A 
ATOM     54  C   UNL A   1      42.870  29.971  29.038  1.00  0.00     0.074 A 
ATOM     55  C   UNL A   1      48.902  29.002  27.353  1.00  0.00     0.029 A 
ATOM     56  N   UNL A   1      46.713  28.717  27.794  1.00  0.00    -0.354 N 
ATOM     57  N   UNL A   1      44.134  29.746  28.677  1.00  0.00    -0.248 NA
ATOM     58  C   UNL A   1      42.767  31.351  29.532  1.00  0.00     0.031 C 
ATOM     59  C   UNL A   1      48.419  30.187  27.812  1.00  0.00     0.029 A 
ATOM     60  C   UNL A   1      47.050  30.017  28.097  1.00  0.00     0.049 A 
ATOM     61  H   UNL A   1      45.818  28.316  27.883  1.00  0.00     0.167 HD
ATOM     62  C   UNL A   1      44.869  30.843  28.869  1.00  0.00     0.074 A 
ATOM     63  C   UNL A   1      44.002  31.889  29.428  1.00  0.00     0.031 C 
ATOM     64  C   UNL A   1      46.227  31.015  28.596  1.00  0.00     0.031 A 
BRANCH  51  65
ATOM     65  C   UNL A   1      49.334  26.262  26.495  1.00  0.00    -0.014 A 
ATOM     66  C   UNL A   1      49.706  26.319  25.156  1.00  0.00     0.010 A 
ATOM     67  C   UNL A   1      50.194  25.773  27.363  1.00  0.00     0.010 A 
ATOM     68  C   UNL A   1      51.092  26.339  24.886  1.00  0.00     0.020 A 
ATOM     69  C   UNL A   1      51.449  25.315  26.946  1.00  0.00     0.020 A 
ATOM     70  C   UNL A   1      51.898  25.587  25.739  1.00  0.00     0.054 A 
BRANCH  70  71
ATOM     71  S   UNL A   1      53.522  24.998  25.200  1.00  0.00     0.124 S 
ATOM     72  O   UNL A   1      54.577  25.384  26.239  1.00  0.00    -0.237 OA
ATOM     73  O   UNL A   1      53.489  23.475  25.049  1.00  0.00    -0.237 OA
ATOM     74  O   UNL A   1      53.916  25.709  23.695  1.00  0.00    -0.744 OA
ENDBRANCH  70  71
ENDBRANCH  51  65
BRANCH  52  75
ATOM     75  C   UNL A   1      40.425  29.575  29.404  1.00  0.00    -0.014 A 
ATOM     76  C   UNL A   1      40.114  29.721  30.750  1.00  0.00     0.010 A 
ATOM     77  C   UNL A   1      39.504  29.876  28.513  1.00  0.00     0.010 A 
ATOM     78  C   UNL A   1      39.075  30.626  31.065  1.00  0.00     0.020 A 
ATOM     79  C   UNL A   1      38.240  30.322  28.914  1.00  0.00     0.020 A 
ATOM     80  C   UNL A   1      38.020  30.694  30.158  1.00  0.00     0.054 A 
BRANCH  80  81
ATOM     81  S   UNL A   1      36.388  31.276  30.676  1.00  0.00     0.124 S 
ATOM     82  O   UNL A   1      35.444  31.291  29.471  1.00  0.00    -0.237 OA
ATOM     83  O   UNL A   1      35.829  30.340  31.750  1.00  0.00    -0.237 OA
ATOM     84  O   UNL A   1      36.522  32.857  31.314  1.00  0.00    -0.744 OA
ENDBRANCH  80  81
ENDBRANCH  52  75
BRANCH  64  85
ATOM     85  C   UNL A   1      46.841  32.380  28.862  1.00  0.00    -0.014 A 
ATOM     86  C   UNL A   1      47.440  32.666  30.085  1.00  0.00     0.010 A 
ATOM     87  C   UNL A   1      46.845  33.310  27.931  1.00  0.00     0.010 A 
ATOM     88  C   UNL A   1      48.421  33.683  30.083  1.00  0.00     0.020 A 
ATOM     89  C   UNL A   1      47.429  34.559  28.169  1.00  0.00     0.020 A 
ATOM     90  C   UNL A   1      48.203  34.752  29.217  1.00  0.00     0.054 A 
BRANCH  90  91
ATOM     91  S   UNL A   1      48.964  36.364  29.524  1.00  0.00     0.124 S 
ATOM     92  O   UNL A   1      48.365  36.979  30.791  1.00  0.00    -0.237 OA
ATOM     93  O   UNL A   1      50.473  36.191  29.705  1.00  0.00    -0.237 OA
ATOM     94  O   UNL A   1      48.665  37.398  28.194  1.00  0.00    -0.744 OA
ENDBRANCH  90  91
ENDBRANCH  64  85
ENDBRANCH  38  39
ENDBRANCH  30  33
ENDBRANCH   1  29
TORSDOF 15
ENDMDL
MODEL 2
REMARK VINA RESULT:     -12.6      0.418      8.073
REMARK SMILES Cc1cc(S(F)(F)(F)(F)F)cc2c1O[C@H](C(F)(F)F)C(C(=O)NCCCNC(=O)c1ccc(-c3c4nc(c(-c5ccc(S(=O)(=O)[O-])cc5)c5ccc([nH]5)c(-c5ccc(S(=O)(=O)[O-])cc5)c5nc(c(-c6ccc(S(=O)(=O)[O-])cc6)c6ccc3[nH]6)C=C5)C=C4)cc1)=C2
REMARK SMILES IDX 26 1 25 2 24 3 23 4 21 5 22 6 20 8 1 9 2 10 3 11 13 12 4 13
REMARK SMILES IDX 12 14 14 15 11 16 90 17 15 18 5 19 6 20 7 21 8 22 9 23 10 24
REMARK SMILES IDX 16 25 17 26 18 27 19 28 27 29 28 30 29 32 30 33 31 34 89 35
REMARK SMILES IDX 32 36 88 37 33 38 34 39 35 40 82 41 36 42 87 43 81 44 83 45
REMARK SMILES IDX 37 46 86 47 80 48 79 49 38 51 68 52 49 53 67 54 50 55 53 56
REMARK SMILES IDX 66 57 84 58 51 59 52 60 65 62 85 63 54 64 39 65 40 66 48 67
REMARK SMILES IDX 41 68 47 69 42 70 43 71 44 72 45 73 46 74 69 75 70 76 78 77
REMARK SMILES IDX 71 78 77 79 72 80 73 81 74 82 75 83 76 84 55 85 56 86 64 87
REMARK SMILES IDX 57 88 63 89 58 90 59 91 60 92 61 93 62 94
REMARK H PARENT 23 7 27 31 83 50 53 61
REMARK Flexibility Score: inf
ROOT
ATOM      1  C   UNL A   1      38.914  20.568  25.748  1.00  0.00     0.118 C 
ENDROOT
BRANCH   1   2
ATOM      2  C   UNL A   1      37.797  20.287  24.757  1.00  0.00     0.042 C 
BRANCH   2   3
ATOM      3  C   UNL A   1      36.689  21.312  24.939  1.00  0.00     0.118 C 
BRANCH   3   4
ATOM      4  N   UNL A   1      35.655  20.763  25.827  1.00  0.00    -0.352 N 
ATOM      5  C   UNL A   1      34.403  21.504  26.044  1.00  0.00     0.251 C 
ATOM      6  O   UNL A   1      33.509  21.029  26.812  1.00  0.00    -0.270 OA
ATOM      7  H   UNL A   1      35.799  19.899  26.277  1.00  0.00     0.163 HD
BRANCH   5   8
ATOM      8  C   UNL A   1      34.179  22.837  25.349  1.00  0.00     0.067 C 
ATOM      9  C   UNL A   1      33.526  26.568  21.879  1.00  0.00     0.048 C 
ATOM     10  C   UNL A   1      33.567  26.488  23.396  1.00  0.00    -0.007 A 
ATOM     11  C   UNL A   1      33.403  27.623  24.158  1.00  0.00     0.031 A 
ATOM     12  C   UNL A   1      33.772  25.262  24.029  1.00  0.00     0.130 A 
ATOM     13  C   UNL A   1      33.443  27.560  25.546  1.00  0.00     0.108 A 
ATOM     14  C   UNL A   1      33.807  25.200  25.440  1.00  0.00     0.019 A 
ATOM     15  O   UNL A   1      33.954  24.016  23.274  1.00  0.00    -0.475 OA
ATOM     16  C   UNL A   1      33.637  26.368  26.187  1.00  0.00     0.036 A 
ATOM     17  C   UNL A   1      34.024  23.902  26.078  1.00  0.00     0.025 C 
ATOM     18  C   UNL A   1      34.149  22.868  23.955  1.00  0.00     0.314 C 
BRANCH  13  19
ATOM     19  S   UNL A   1      33.239  29.073  26.516  1.00  0.00     0.310 S 
ATOM     20  F   UNL A   1      33.167  29.974  25.213  1.00  0.00    -0.094 F 
ATOM     21  F   UNL A   1      34.802  29.271  26.484  1.00  0.00    -0.094 F 
ATOM     22  F   UNL A   1      33.064  30.372  27.351  1.00  0.00    -0.094 F 
ATOM     23  F   UNL A   1      31.668  28.934  26.419  1.00  0.00    -0.094 F 
ATOM     24  F   UNL A   1      33.395  27.814  25.573  1.00  0.00    -0.094 F 
ENDBRANCH  13  19
BRANCH  18  25
ATOM     25  C   UNL A   1      32.881  22.089  23.643  1.00  0.00     0.429 C 
ATOM     26  F   UNL A   1      31.935  22.410  24.522  1.00  0.00    -0.167 F 
ATOM     27  F   UNL A   1      32.465  22.393  22.416  1.00  0.00    -0.167 F 
ATOM     28  F   UNL A   1      33.131  20.785  23.716  1.00  0.00    -0.167 F 
ENDBRANCH  18  25
ENDBRANCH   5   8
ENDBRANCH   3   4
ENDBRANCH   2   3
ENDBRANCH   1   2
BRANCH   1  29
ATOM     29  N   UNL A   1      39.810  19.404  25.819  1.00  0.00    -0.352 N 
ATOM     30  C   UNL A   1      41.232  19.589  26.140  1.00  0.00     0.251 C 
ATOM     31  H   UNL A   1      39.457  18.500  25.649  1.00  0.00     0.163 HD
ATOM     32  O   UNL A   1      42.006  18.582  26.201  1.00  0.00    -0.269 OA
BRANCH  30  33
ATOM     33  C   UNL A   1      41.776  20.984  26.401  1.00  0.00     0.039 A 
ATOM     34  C   UNL A   1      41.822  21.501  27.692  1.00  0.00     0.014 A 
ATOM     35  C   UNL A   1      42.233  21.724  25.415  1.00  0.00     0.014 A 
ATOM     36  C   UNL A   1      42.778  22.514  27.932  1.00  0.00     0.010 A 
ATOM     37  C   UNL A   1      42.746  23.004  25.657  1.00  0.00     0.010 A 
ATOM     38  C   UNL A   1      43.017  23.399  26.883  1.00  0.00    -0.014 A 
BRANCH  38  39
ATOM     39  C   UNL A   1      43.577  24.787  27.147  1.00  0.00     0.031 A 
ATOM     40  C   UNL A   1      42.695  25.775  27.589  1.00  0.00     0.074 A 
ATOM     41  C   UNL A   1      44.934  24.989  26.959  1.00  0.00     0.049 A 
ATOM     42  N   UNL A   1      42.985  27.031  27.931  1.00  0.00    -0.248 NA
ATOM     43  C   UNL A   1      41.248  25.571  27.757  1.00  0.00     0.031 C 
ATOM     44  C   UNL A   1      45.832  23.996  26.523  1.00  0.00     0.029 A 
ATOM     45  N   UNL A   1      45.650  26.150  27.152  1.00  0.00    -0.354 N 
ATOM     46  C   UNL A   1      41.880  27.669  28.321  1.00  0.00     0.074 A 
ATOM     47  C   UNL A   1      40.746  26.742  28.210  1.00  0.00     0.031 C 
ATOM     48  C   UNL A   1      47.070  24.552  26.441  1.00  0.00     0.029 A 
ATOM     49  C   UNL A   1      46.966  25.902  26.826  1.00  0.00     0.049 A 
ATOM     50  H   UNL A   1      45.286  27.007  27.467  1.00  0.00     0.167 HD
ATOM     51  C   UNL A   1      41.774  28.988  28.767  1.00  0.00     0.031 A 
ATOM     52  C   UNL A   1      48.028  26.791  26.856  1.00  0.00     0.031 A 
ATOM     53  C   UNL A   1      42.846  29.864  28.838  1.00  0.00     0.049 A 
ATOM     54  C   UNL A   1      47.912  28.126  27.247  1.00  0.00     0.074 A 
ATOM     55  C   UNL A   1      42.756  31.193  29.294  1.00  0.00     0.029 A 
ATOM     56  N   UNL A   1      44.156  29.624  28.490  1.00  0.00    -0.354 N 
ATOM     57  N   UNL A   1      46.815  28.753  27.676  1.00  0.00    -0.248 NA
ATOM     58  C   UNL A   1      49.024  29.086  27.252  1.00  0.00     0.031 C 
ATOM     59  C   UNL A   1      43.994  31.750  29.212  1.00  0.00     0.029 A 
ATOM     60  C   UNL A   1      44.876  30.777  28.704  1.00  0.00     0.049 A 
ATOM     61  H   UNL A   1      44.515  28.773  28.147  1.00  0.00     0.167 HD
ATOM     62  C   UNL A   1      47.098  30.022  27.977  1.00  0.00     0.074 A 
ATOM     63  C   UNL A   1      48.522  30.256  27.702  1.00  0.00     0.031 C 
ATOM     64  C   UNL A   1      46.227  30.992  28.474  1.00  0.00     0.031 A 
BRANCH  51  65
ATOM     65  C   UNL A   1      40.406  29.491  29.201  1.00  0.00    -0.014 A 
ATOM     66  C   UNL A   1      40.103  29.658  30.548  1.00  0.00     0.010 A 
ATOM     67  C   UNL A   1      39.480  29.778  28.312  1.00  0.00     0.010 A 
ATOM     68  C   UNL A   1      39.067  30.568  30.854  1.00  0.00     0.020 A 
ATOM     69  C   UNL A   1      38.219  30.232  28.712  1.00  0.00     0.020 A 
ATOM     70  C   UNL A   1      38.006  30.622  29.951  1.00  0.00     0.054 A 
BRANCH  70  71
ATOM     71  S   UNL A   1      36.377  31.214  30.471  1.00  0.00     0.124 S 
ATOM     72  O   UNL A   1      35.392  31.088  29.306  1.00  0.00    -0.237 OA
ATOM     73  O   UNL A   1      35.881  30.373  31.650  1.00  0.00    -0.237 OA
ATOM     74  O   UNL A   1      36.490  32.852  30.948  1.00  0.00    -0.744 OA
ENDBRANCH  70  71
ENDBRANCH  51  65
BRANCH  52  75
ATOM     75  C   UNL A   1      49.400  26.283  26.439  1.00  0.00    -0.014 A 
ATOM     76  C   UNL A   1      49.818  26.367  25.116  1.00  0.00     0.010 A 
ATOM     77  C   UNL A   1      50.220  25.754  27.322  1.00  0.00     0.010 A 
ATOM     78  C   UNL A   1      51.213  26.364  24.892  1.00  0.00     0.020 A 
ATOM     79  C   UNL A   1      51.479  25.279  26.935  1.00  0.00     0.020 A 
ATOM     80  C   UNL A   1      51.974  25.573  25.751  1.00  0.00     0.054 A 
BRANCH  80  81
ATOM     81  S   UNL A   1      53.603  24.963  25.251  1.00  0.00     0.124 S 
ATOM     82  O   UNL A   1      54.616  25.242  26.364  1.00  0.00    -0.237 OA
ATOM     83  O   UNL A   1      53.528  23.457  24.995  1.00  0.00    -0.237 OA
ATOM     84  O   UNL A   1      54.095  25.760  23.819  1.00  0.00    -0.744 OA
ENDBRANCH  80  81
ENDBRANCH  52  75
BRANCH  64  85
ATOM     85  C   UNL A   1      46.793  32.369  28.782  1.00  0.00    -0.014 A 
ATOM     86  C   UNL A   1      46.735  33.391  27.841  1.00  0.00     0.010 A 
ATOM     87  C   UNL A   1      47.323  32.631  29.958  1.00  0.00     0.010 A 
ATOM     88  C   UNL A   1      46.765  34.712  28.341  1.00  0.00     0.020 A 
ATOM     89  C   UNL A   1      47.825  33.904  30.249  1.00  0.00     0.020 A 
ATOM     90  C   UNL A   1      47.557  34.929  29.467  1.00  0.00     0.054 A 
BRANCH  90  91
ATOM     91  S   UNL A   1      48.201  36.577  29.844  1.00  0.00     0.124 S 
ATOM     92  O   UNL A   1      48.683  36.617  31.296  1.00  0.00    -0.237 OA
ATOM     93  O   UNL A   1      49.370  36.895  28.909  1.00  0.00    -0.237 OA
ATOM     94  O   UNL A   1      46.963  37.737  29.623  1.00  0.00    -0.744 OA
ENDBRANCH  90  91
ENDBRANCH  64  85
ENDBRANCH  38  39
ENDBRANCH  30  33
ENDBRANCH   1  29
TORSDOF 15
ENDMDL
MODEL 3
REMARK VINA RESULT:     -12.6      2.618      8.626
REMARK SMILES Cc1cc(S(F)(F)(F)(F)F)cc2c1O[C@H](C(F)(F)F)C(C(=O)NCCCNC(=O)c1ccc(-c3c4nc(c(-c5ccc(S(=O)(=O)[O-])cc5)c5ccc([nH]5)c(-c5ccc(S(=O)(=O)[O-])cc5)c5nc(c(-c6ccc(S(=O)(=O)[O-])cc6)c6ccc3[nH]6)C=C5)C=C4)cc1)=C2
REMARK SMILES IDX 26 1 25 2 24 3 23 4 21 5 22 6 20 8 1 9 2 10 3 11 13 12 4 13
REMARK SMILES IDX 12 14 14 15 11 16 90 17 15 18 5 19 6 20 7 21 8 22 9 23 10 24
REMARK SMILES IDX 16 25 17 26 18 27 19 28 27 29 28 30 29 32 30 33 31 34 89 35
REMARK SMILES IDX 32 36 88 37 33 38 34 39 35 40 82 41 36 42 87 43 81 44 83 45
REMARK SMILES IDX 37 46 86 47 80 48 79 49 38 51 68 52 49 53 67 54 50 55 53 56
REMARK SMILES IDX 66 57 84 58 51 59 52 60 65 62 85 63 54 64 39 65 40 66 48 67
REMARK SMILES IDX 41 68 47 69 42 70 43 71 44 72 45 73 46 74 69 75 70 76 78 77
REMARK SMILES IDX 71 78 77 79 72 80 73 81 74 82 75 83 76 84 55 85 56 86 64 87
REMARK SMILES IDX 57 88 63 89 58 90 59 91 60 92 61 93 62 94
REMARK H PARENT 23 7 27 31 83 50 53 61
REMARK Flexibility Score: inf
ROOT
ATOM      1  C   UNL A   1      36.105  30.846  28.225  1.00  0.00     0.118 C 
ENDROOT
BRANCH   1   2
ATOM      2  C   UNL A   1      34.910  30.706  27.297  1.00  0.00     0.042 C 
BRANCH   2   3
ATOM      3  C   UNL A   1      34.465  29.253  27.259  1.00  0.00     0.118 C 
BRANCH   3   4
ATOM      4  N   UNL A   1      33.136  29.132  27.873  1.00  0.00    -0.352 N 
ATOM      5  C   UNL A   1      32.162  28.171  27.336  1.00  0.00     0.251 C 
ATOM      6  O   UNL A   1      31.012  28.065  27.868  1.00  0.00    -0.270 OA
ATOM      7  H   UNL A   1      32.896  29.694  28.646  1.00  0.00     0.163 HD
BRANCH   5   8
ATOM      8  C   UNL A   1      32.530  27.301  26.144  1.00  0.00     0.067 C 
ATOM      9  C   UNL A   1      32.764  25.068  21.524  1.00  0.00     0.048 C 
ATOM     10  C   UNL A   1      33.510  24.926  22.840  1.00  0.00    -0.007 A 
ATOM     11  C   UNL A   1      34.529  24.007  22.969  1.00  0.00     0.031 A 
ATOM     12  C   UNL A   1      33.170  25.726  23.931  1.00  0.00     0.130 A 
ATOM     13  C   UNL A   1      35.213  23.869  24.170  1.00  0.00     0.108 A 
ATOM     14  C   UNL A   1      33.871  25.586  25.149  1.00  0.00     0.019 A 
ATOM     15  O   UNL A   1      32.094  26.724  23.859  1.00  0.00    -0.475 OA
ATOM     16  C   UNL A   1      34.900  24.647  25.249  1.00  0.00     0.036 A 
ATOM     17  C   UNL A   1      33.493  26.439  26.276  1.00  0.00     0.025 C 
ATOM     18  C   UNL A   1      31.820  27.462  24.954  1.00  0.00     0.314 C 
BRANCH  13  19
ATOM     19  S   UNL A   1      36.536  22.641  24.308  1.00  0.00     0.310 S 
ATOM     20  F   UNL A   1      36.734  22.585  22.735  1.00  0.00    -0.094 F 
ATOM     21  F   UNL A   1      35.458  21.504  24.145  1.00  0.00    -0.094 F 
ATOM     22  F   UNL A   1      37.672  21.587  24.428  1.00  0.00    -0.094 F 
ATOM     23  F   UNL A   1      37.616  23.795  24.329  1.00  0.00    -0.094 F 
ATOM     24  F   UNL A   1      35.407  23.723  24.074  1.00  0.00    -0.094 F 
ENDBRANCH  13  19
BRANCH  18  25
ATOM     25  C   UNL A   1      32.236  28.856  24.516  1.00  0.00     0.429 C 
ATOM     26  F   UNL A   1      31.652  29.760  25.299  1.00  0.00    -0.167 F 
ATOM     27  F   UNL A   1      33.558  28.975  24.612  1.00  0.00    -0.167 F 
ATOM     28  F   UNL A   1      31.863  29.056  23.255  1.00  0.00    -0.167 F 
ENDBRANCH  18  25
ENDBRANCH   5   8
ENDBRANCH   3   4
ENDBRANCH   2   3
ENDBRANCH   1   2
BRANCH   1  29
ATOM     29  N   UNL A   1      35.704  30.496  29.596  1.00  0.00    -0.352 N 
ATOM     30  C   UNL A   1      36.652  29.814  30.488  1.00  0.00     0.251 C 
ATOM     31  H   UNL A   1      34.799  30.718  29.916  1.00  0.00     0.163 HD
ATOM     32  O   UNL A   1      36.306  29.512  31.673  1.00  0.00    -0.269 OA
BRANCH  30  33
ATOM     33  C   UNL A   1      38.048  29.471  29.994  1.00  0.00     0.039 A 
ATOM     34  C   UNL A   1      38.256  29.047  28.685  1.00  0.00     0.014 A 
ATOM     35  C   UNL A   1      39.091  29.588  30.786  1.00  0.00     0.014 A 
ATOM     36  C   UNL A   1      39.548  29.256  28.152  1.00  0.00     0.010 A 
ATOM     37  C   UNL A   1      40.378  29.284  30.327  1.00  0.00     0.010 A 
ATOM     38  C   UNL A   1      40.612  29.122  29.041  1.00  0.00    -0.014 A 
BRANCH  38  39
ATOM     39  C   UNL A   1      42.010  28.796  28.540  1.00  0.00     0.031 A 
ATOM     40  C   UNL A   1      42.941  29.835  28.481  1.00  0.00     0.074 A 
ATOM     41  C   UNL A   1      42.290  27.485  28.194  1.00  0.00     0.049 A 
ATOM     42  N   UNL A   1      44.226  29.758  28.130  1.00  0.00    -0.248 NA
ATOM     43  C   UNL A   1      42.636  31.234  28.817  1.00  0.00     0.031 C 
ATOM     44  C   UNL A   1      41.360  26.430  28.259  1.00  0.00     0.029 A 
ATOM     45  N   UNL A   1      43.482  26.969  27.735  1.00  0.00    -0.354 N 
ATOM     46  C   UNL A   1      44.799  30.959  28.215  1.00  0.00     0.074 A 
ATOM     47  C   UNL A   1      43.785  31.928  28.653  1.00  0.00     0.031 C 
ATOM     48  C   UNL A   1      41.977  25.296  27.833  1.00  0.00     0.029 A 
ATOM     49  C   UNL A   1      43.304  25.623  27.497  1.00  0.00     0.049 A 
ATOM     50  H   UNL A   1      44.316  27.473  27.600  1.00  0.00     0.167 HD
ATOM     51  C   UNL A   1      46.130  31.285  27.947  1.00  0.00     0.031 A 
ATOM     52  C   UNL A   1      44.234  24.718  27.013  1.00  0.00     0.031 A 
ATOM     53  C   UNL A   1      47.072  30.369  27.504  1.00  0.00     0.049 A 
ATOM     54  C   UNL A   1      45.550  25.056  26.689  1.00  0.00     0.074 A 
ATOM     55  C   UNL A   1      48.419  30.680  27.238  1.00  0.00     0.029 A 
ATOM     56  N   UNL A   1      46.888  29.030  27.243  1.00  0.00    -0.354 N 
ATOM     57  N   UNL A   1      46.134  26.248  26.813  1.00  0.00    -0.248 NA
ATOM     58  C   UNL A   1      46.534  24.111  26.145  1.00  0.00     0.031 C 
ATOM     59  C   UNL A   1      49.037  29.546  26.813  1.00  0.00     0.029 A 
ATOM     60  C   UNL A   1      48.085  28.508  26.806  1.00  0.00     0.049 A 
ATOM     61  H   UNL A   1      46.045  28.531  27.351  1.00  0.00     0.167 HD
ATOM     62  C   UNL A   1      47.408  26.178  26.421  1.00  0.00     0.074 A 
ATOM     63  C   UNL A   1      47.682  24.804  25.979  1.00  0.00     0.031 C 
ATOM     64  C   UNL A   1      48.354  27.205  26.418  1.00  0.00     0.031 A 
BRANCH  51  65
ATOM     65  C   UNL A   1      46.572  32.725  28.154  1.00  0.00    -0.014 A 
ATOM     66  C   UNL A   1      46.473  33.655  27.124  1.00  0.00     0.010 A 
ATOM     67  C   UNL A   1      47.058  33.122  29.310  1.00  0.00     0.010 A 
ATOM     68  C   UNL A   1      46.410  35.014  27.504  1.00  0.00     0.020 A 
ATOM     69  C   UNL A   1      47.473  34.445  29.496  1.00  0.00     0.020 A 
ATOM     70  C   UNL A   1      47.161  35.378  28.621  1.00  0.00     0.054 A 
BRANCH  70  71
ATOM     71  S   UNL A   1      47.693  37.091  28.861  1.00  0.00     0.124 S 
ATOM     72  O   UNL A   1      47.227  37.941  27.678  1.00  0.00    -0.237 OA
ATOM     73  O   UNL A   1      47.084  37.638  30.154  1.00  0.00    -0.237 OA
ATOM     74  O   UNL A   1      49.399  37.148  28.968  1.00  0.00    -0.744 OA
ENDBRANCH  70  71
ENDBRANCH  51  65
BRANCH  52  75
ATOM     75  C   UNL A   1      43.797  23.274  26.823  1.00  0.00    -0.014 A 
ATOM     76  C   UNL A   1      43.480  22.476  27.916  1.00  0.00     0.010 A 
ATOM     77  C   UNL A   1      43.710  22.749  25.619  1.00  0.00     0.010 A 
ATOM     78  C   UNL A   1      42.629  21.375  27.669  1.00  0.00     0.020 A 
ATOM     79  C   UNL A   1      43.317  21.416  25.446  1.00  0.00     0.020 A 
ATOM     80  C   UNL A   1      42.786  20.737  26.441  1.00  0.00     0.054 A 
BRANCH  80  81
ATOM     81  S   UNL A   1      42.273  19.016  26.218  1.00  0.00     0.124 S 
ATOM     82  O   UNL A   1      40.796  18.971  25.815  1.00  0.00    -0.237 OA
ATOM     83  O   UNL A   1      43.120  18.368  25.121  1.00  0.00    -0.237 OA
ATOM     84  O   UNL A   1      42.490  18.161  27.684  1.00  0.00    -0.744 OA
ENDBRANCH  80  81
ENDBRANCH  52  75
BRANCH  64  85
ATOM     85  C   UNL A   1      49.765  26.873  25.960  1.00  0.00    -0.014 A 
ATOM     86  C   UNL A   1      50.142  27.040  24.632  1.00  0.00     0.010 A 
ATOM     87  C   UNL A   1      50.669  26.450  26.818  1.00  0.00     0.010 A 
ATOM     88  C   UNL A   1      51.519  27.239  24.387  1.00  0.00     0.020 A 
ATOM     89  C   UNL A   1      51.974  26.165  26.401  1.00  0.00     0.020 A 
ATOM     90  C   UNL A   1      52.400  26.548  25.215  1.00  0.00     0.054 A 
BRANCH  90  91
ATOM     91  S   UNL A   1      54.089  26.185  24.676  1.00  0.00     0.124 S 
ATOM     92  O   UNL A   1      54.205  26.417  23.167  1.00  0.00    -0.237 OA
ATOM     93  O   UNL A   1      55.068  27.104  25.410  1.00  0.00    -0.237 OA
ATOM     94  O   UNL A   1      54.463  24.554  25.031  1.00  0.00    -0.744 OA
ENDBRANCH  90  91
ENDBRANCH  64  85
ENDBRANCH  38  39
ENDBRANCH  30  33
ENDBRANCH   1  29
TORSDOF 15
ENDMDL
