MODEL 1
REMARK VINA RESULT:     -13.3      0.000      0.000
REMARK SMILES O=C(NCCCNC(=O)[C@H]1Cc2c([nH]c3ccccc23)[C@H](c2c[nH]c3ccccc23)[NH2+]1)c1ccc(-c2c3nc(c(-c4ccc(S(=O)(=O)[O-])cc4)c4ccc([nH]4)c(-c4ccc(S(=O)(=O)[O-])cc4)c4nc(c(-c5ccc(S(=O)(=O)[O-])cc5)c5ccc2[nH]5)C=C4)C=C3)cc1
REMARK SMILES IDX 4 1 3 2 1 3 2 4 32 6 33 7 91 8 34 9 90 10 35 11 36 12 37 13
REMARK SMILES IDX 84 14 38 15 89 16 83 17 85 18 39 19 88 20 82 21 81 22 40 24
REMARK SMILES IDX 70 25 51 26 69 27 52 28 55 29 68 30 86 31 53 32 54 33 67 35
REMARK SMILES IDX 87 36 56 37 41 38 42 39 50 40 43 41 49 42 44 43 45 44 46 45
REMARK SMILES IDX 47 46 48 47 71 48 72 49 80 50 73 51 79 52 74 53 75 54 76 55
REMARK SMILES IDX 77 56 78 57 57 58 58 59 66 60 59 61 65 62 60 63 61 64 62 65
REMARK SMILES IDX 63 66 64 67 5 68 6 69 7 70 8 71 9 73 10 74 11 75 31 76 12 77
REMARK SMILES IDX 21 78 13 81 20 82 14 83 15 84 19 85 16 87 18 88 17 89 22 90
REMARK SMILES IDX 23 91 30 92 24 93 25 94 29 95 26 97 28 98 27 99
REMARK H PARENT 3 5 85 23 55 34 7 72 31 79 31 80 14 86 24 96
REMARK Flexibility Score: inf
ROOT
ATOM      1  C   UNL A   1      38.334  24.299  26.555  1.00  0.00     0.118 C 
ENDROOT
BRANCH   1   2
ATOM      2  N   UNL A   1      39.654  24.447  25.941  1.00  0.00    -0.352 N 
ATOM      3  O   UNL A   1      41.526  25.547  25.343  1.00  0.00    -0.269 OA
ATOM      4  C   UNL A   1      40.625  25.393  26.159  1.00  0.00     0.251 C 
ATOM      5  H   UNL A   1      39.880  23.765  25.268  1.00  0.00     0.163 HD
BRANCH   4   6
ATOM      6  C   UNL A   1      40.574  26.205  27.389  1.00  0.00     0.039 A 
ATOM      7  C   UNL A   1      41.384  27.336  27.495  1.00  0.00     0.014 A 
ATOM      8  C   UNL A   1      39.695  25.864  28.420  1.00  0.00     0.014 A 
ATOM      9  C   UNL A   1      41.447  28.028  28.688  1.00  0.00     0.010 A 
ATOM     10  C   UNL A   1      39.655  26.653  29.573  1.00  0.00     0.010 A 
ATOM     11  C   UNL A   1      40.540  27.732  29.716  1.00  0.00    -0.014 A 
BRANCH  11  12
ATOM     12  C   UNL A   1      40.455  28.675  30.853  1.00  0.00     0.031 A 
ATOM     13  C   UNL A   1      41.373  28.566  32.032  1.00  0.00     0.074 A 
ATOM     14  C   UNL A   1      39.545  29.668  30.766  1.00  0.00     0.049 A 
ATOM     15  N   UNL A   1      41.431  29.334  33.088  1.00  0.00    -0.248 NA
ATOM     16  C   UNL A   1      42.343  27.459  32.038  1.00  0.00     0.031 C 
ATOM     17  C   UNL A   1      38.600  29.853  29.654  1.00  0.00     0.029 A 
ATOM     18  N   UNL A   1      39.277  30.720  31.598  1.00  0.00    -0.354 N 
ATOM     19  C   UNL A   1      42.420  28.791  33.899  1.00  0.00     0.074 A 
ATOM     20  C   UNL A   1      42.931  27.622  33.218  1.00  0.00     0.031 C 
ATOM     21  C   UNL A   1      37.907  30.981  29.845  1.00  0.00     0.029 A 
ATOM     22  C   UNL A   1      38.282  31.548  31.130  1.00  0.00     0.049 A 
ATOM     23  H   UNL A   1      39.748  30.870  32.449  1.00  0.00     0.167 HD
ATOM     24  C   UNL A   1      42.850  29.235  35.103  1.00  0.00     0.031 A 
ATOM     25  C   UNL A   1      37.705  32.626  31.691  1.00  0.00     0.031 A 
ATOM     26  C   UNL A   1      42.330  30.408  35.759  1.00  0.00     0.049 A 
ATOM     27  C   UNL A   1      38.184  33.065  33.042  1.00  0.00     0.074 A 
ATOM     28  C   UNL A   1      42.728  30.965  36.961  1.00  0.00     0.029 A 
ATOM     29  N   UNL A   1      41.295  31.196  35.277  1.00  0.00    -0.354 N 
ATOM     30  N   UNL A   1      39.154  32.565  33.770  1.00  0.00    -0.248 NA
ATOM     31  C   UNL A   1      37.493  34.207  33.648  1.00  0.00     0.031 C 
ATOM     32  C   UNL A   1      41.892  32.051  37.238  1.00  0.00     0.029 A 
ATOM     33  C   UNL A   1      41.017  32.212  36.175  1.00  0.00     0.049 A 
ATOM     34  H   UNL A   1      40.828  31.055  34.422  1.00  0.00     0.167 HD
ATOM     35  C   UNL A   1      39.196  33.341  34.921  1.00  0.00     0.074 A 
ATOM     36  C   UNL A   1      38.178  34.363  34.772  1.00  0.00     0.031 C 
ATOM     37  C   UNL A   1      39.996  33.216  36.007  1.00  0.00     0.031 A 
BRANCH  24  38
ATOM     38  C   UNL A   1      43.915  28.444  35.817  1.00  0.00    -0.014 A 
ATOM     39  C   UNL A   1      45.277  28.757  35.679  1.00  0.00     0.010 A 
ATOM     40  C   UNL A   1      43.532  27.441  36.727  1.00  0.00     0.010 A 
ATOM     41  C   UNL A   1      46.239  28.075  36.432  1.00  0.00     0.020 A 
ATOM     42  C   UNL A   1      44.487  26.772  37.498  1.00  0.00     0.020 A 
ATOM     43  C   UNL A   1      45.836  27.092  37.342  1.00  0.00     0.054 A 
BRANCH  43  44
ATOM     44  S   UNL A   1      47.100  26.278  38.358  1.00  0.00     0.124 S 
ATOM     45  O   UNL A   1      47.515  25.174  37.497  1.00  0.00    -0.237 OA
ATOM     46  O   UNL A   1      48.090  27.335  38.543  1.00  0.00    -0.237 OA
ATOM     47  O   UNL A   1      46.378  25.886  39.565  1.00  0.00    -0.744 OA
ENDBRANCH  43  44
ENDBRANCH  24  38
BRANCH  25  48
ATOM     48  C   UNL A   1      36.578  33.312  31.005  1.00  0.00    -0.014 A 
ATOM     49  C   UNL A   1      36.792  34.067  29.839  1.00  0.00     0.010 A 
ATOM     50  C   UNL A   1      35.273  33.216  31.527  1.00  0.00     0.010 A 
ATOM     51  C   UNL A   1      35.730  34.746  29.234  1.00  0.00     0.020 A 
ATOM     52  C   UNL A   1      34.204  33.859  30.904  1.00  0.00     0.020 A 
ATOM     53  C   UNL A   1      34.444  34.641  29.773  1.00  0.00     0.054 A 
BRANCH  53  54
ATOM     54  S   UNL A   1      33.081  35.526  28.970  1.00  0.00     0.124 S 
ATOM     55  O   UNL A   1      32.432  34.459  28.216  1.00  0.00    -0.237 OA
ATOM     56  O   UNL A   1      32.327  36.046  30.109  1.00  0.00    -0.237 OA
ATOM     57  O   UNL A   1      33.759  36.540  28.165  1.00  0.00    -0.744 OA
ENDBRANCH  53  54
ENDBRANCH  25  48
BRANCH  37  58
ATOM     58  C   UNL A   1      39.815  34.226  37.104  1.00  0.00    -0.014 A 
ATOM     59  C   UNL A   1      40.448  35.482  37.048  1.00  0.00     0.010 A 
ATOM     60  C   UNL A   1      38.974  33.927  38.192  1.00  0.00     0.010 A 
ATOM     61  C   UNL A   1      40.269  36.406  38.079  1.00  0.00     0.020 A 
ATOM     62  C   UNL A   1      38.768  34.862  39.207  1.00  0.00     0.020 A 
ATOM     63  C   UNL A   1      39.430  36.090  39.152  1.00  0.00     0.054 A 
BRANCH  63  64
ATOM     64  S   UNL A   1      39.185  37.323  40.457  1.00  0.00     0.124 S 
ATOM     65  O   UNL A   1      38.677  36.507  41.555  1.00  0.00    -0.237 OA
ATOM     66  O   UNL A   1      40.530  37.862  40.644  1.00  0.00    -0.237 OA
ATOM     67  O   UNL A   1      38.221  38.256  39.876  1.00  0.00    -0.744 OA
ENDBRANCH  63  64
ENDBRANCH  37  58
ENDBRANCH  11  12
ENDBRANCH   4   6
ENDBRANCH   1   2
BRANCH   1  68
ATOM     68  C   UNL A   1      37.409  23.476  25.678  1.00  0.00     0.042 C 
BRANCH  68  69
ATOM     69  C   UNL A   1      36.007  24.054  25.685  1.00  0.00     0.118 C 
BRANCH  69  70
ATOM     70  N   UNL A   1      35.355  23.920  24.390  1.00  0.00    -0.351 N 
ATOM     71  C   UNL A   1      34.382  24.595  23.724  1.00  0.00     0.278 C 
ATOM     72  H   UNL A   1      35.701  23.157  23.875  1.00  0.00     0.163 HD
ATOM     73  O   UNL A   1      34.113  24.150  22.596  1.00  0.00    -0.268 OA
BRANCH  71  74
ATOM     74  C   UNL A   1      33.596  25.818  24.260  1.00  0.00     0.277 C 
ATOM     75  C   UNL A   1      34.399  26.737  25.167  1.00  0.00     0.114 C 
ATOM     76  N   UNL A   1      33.040  26.556  23.080  1.00  0.00    -0.324 N 
ATOM     77  C   UNL A   1      33.720  28.013  25.413  1.00  0.00    -0.006 A 
ATOM     78  C   UNL A   1      32.157  27.689  23.409  1.00  0.00     0.264 C 
ATOM     79  H   UNL A   1      32.508  25.894  22.514  1.00  0.00     0.347 HD
ATOM     80  H   UNL A   1      33.842  26.954  22.590  1.00  0.00     0.347 HD
ATOM     81  C   UNL A   1      32.726  28.456  24.576  1.00  0.00     0.083 A 
ATOM     82  C   UNL A   1      34.003  28.998  26.377  1.00  0.00     0.003 A 
ATOM     83  N   UNL A   1      32.419  29.732  24.977  1.00  0.00    -0.353 N 
ATOM     84  C   UNL A   1      33.186  30.085  26.075  1.00  0.00     0.046 A 
ATOM     85  C   UNL A   1      34.909  29.077  27.451  1.00  0.00     0.010 A 
ATOM     86  H   UNL A   1      31.751  30.313  24.546  1.00  0.00     0.166 HD
ATOM     87  C   UNL A   1      33.240  31.271  26.817  1.00  0.00     0.026 A 
ATOM     88  C   UNL A   1      34.966  30.249  28.205  1.00  0.00     0.001 A 
ATOM     89  C   UNL A   1      34.145  31.329  27.888  1.00  0.00     0.002 A 
BRANCH  78  90
ATOM     90  C   UNL A   1      30.699  27.309  23.618  1.00  0.00     0.041 A 
ATOM     91  C   UNL A   1      30.322  26.041  24.050  1.00  0.00     0.093 A 
ATOM     92  C   UNL A   1      29.459  28.051  23.478  1.00  0.00     0.009 A 
ATOM     93  N   UNL A   1      28.963  25.954  24.066  1.00  0.00    -0.361 N 
ATOM     94  C   UNL A   1      28.407  27.158  23.720  1.00  0.00     0.046 A 
ATOM     95  C   UNL A   1      29.091  29.382  23.163  1.00  0.00     0.011 A 
ATOM     96  H   UNL A   1      28.454  25.143  24.293  1.00  0.00     0.166 HD
ATOM     97  C   UNL A   1      27.053  27.504  23.611  1.00  0.00     0.026 A 
ATOM     98  C   UNL A   1      27.743  29.748  23.050  1.00  0.00     0.001 A 
ATOM     99  C   UNL A   1      26.738  28.814  23.261  1.00  0.00     0.002 A 
ENDBRANCH  78  90
ENDBRANCH  71  74
ENDBRANCH  69  70
ENDBRANCH  68  69
ENDBRANCH   1  68
TORSDOF 14
ENDMDL
MODEL 2
REMARK VINA RESULT:     -13.1      6.359     11.558
REMARK SMILES O=C(NCCCNC(=O)[C@H]1Cc2c([nH]c3ccccc23)[C@H](c2c[nH]c3ccccc23)[NH2+]1)c1ccc(-c2c3nc(c(-c4ccc(S(=O)(=O)[O-])cc4)c4ccc([nH]4)c(-c4ccc(S(=O)(=O)[O-])cc4)c4nc(c(-c5ccc(S(=O)(=O)[O-])cc5)c5ccc2[nH]5)C=C4)C=C3)cc1
REMARK SMILES IDX 4 1 3 2 1 3 2 4 32 6 33 7 91 8 34 9 90 10 35 11 36 12 37 13
REMARK SMILES IDX 84 14 38 15 89 16 83 17 85 18 39 19 88 20 82 21 81 22 40 24
REMARK SMILES IDX 70 25 51 26 69 27 52 28 55 29 68 30 86 31 53 32 54 33 67 35
REMARK SMILES IDX 87 36 56 37 41 38 42 39 50 40 43 41 49 42 44 43 45 44 46 45
REMARK SMILES IDX 47 46 48 47 71 48 72 49 80 50 73 51 79 52 74 53 75 54 76 55
REMARK SMILES IDX 77 56 78 57 57 58 58 59 66 60 59 61 65 62 60 63 61 64 62 65
REMARK SMILES IDX 63 66 64 67 5 68 6 69 7 70 8 71 9 73 10 74 11 75 31 76 12 77
REMARK SMILES IDX 21 78 13 81 20 82 14 83 15 84 19 85 16 87 18 88 17 89 22 90
REMARK SMILES IDX 23 91 30 92 24 93 25 94 29 95 26 97 28 98 27 99
REMARK H PARENT 3 5 85 23 55 34 7 72 31 79 31 80 14 86 24 96
REMARK Flexibility Score: inf
ROOT
ATOM      1  C   UNL A   1      35.856  31.832  28.693  1.00  0.00     0.118 C 
ENDROOT
BRANCH   1   2
ATOM      2  N   UNL A   1      35.733  31.243  30.027  1.00  0.00    -0.352 N 
ATOM      3  O   UNL A   1      36.098  29.705  31.631  1.00  0.00    -0.269 OA
ATOM      4  C   UNL A   1      36.522  30.310  30.653  1.00  0.00     0.251 C 
ATOM      5  H   UNL A   1      34.967  31.563  30.555  1.00  0.00     0.163 HD
BRANCH   4   6
ATOM      6  C   UNL A   1      37.882  30.059  30.141  1.00  0.00     0.039 A 
ATOM      7  C   UNL A   1      38.937  29.923  31.043  1.00  0.00     0.014 A 
ATOM      8  C   UNL A   1      38.102  29.922  28.768  1.00  0.00     0.014 A 
ATOM      9  C   UNL A   1      40.233  29.823  30.576  1.00  0.00     0.010 A 
ATOM     10  C   UNL A   1      39.397  29.675  28.304  1.00  0.00     0.010 A 
ATOM     11  C   UNL A   1      40.470  29.635  29.208  1.00  0.00    -0.014 A 
BRANCH  11  12
ATOM     12  C   UNL A   1      41.836  29.250  28.790  1.00  0.00     0.031 A 
ATOM     13  C   UNL A   1      42.967  30.233  28.809  1.00  0.00     0.074 A 
ATOM     14  C   UNL A   1      42.035  27.964  28.433  1.00  0.00     0.049 A 
ATOM     15  N   UNL A   1      44.220  30.033  28.495  1.00  0.00    -0.248 NA
ATOM     16  C   UNL A   1      42.663  31.612  29.223  1.00  0.00     0.031 C 
ATOM     17  C   UNL A   1      40.989  26.932  28.379  1.00  0.00     0.029 A 
ATOM     18  N   UNL A   1      43.173  27.293  28.077  1.00  0.00    -0.354 N 
ATOM     19  C   UNL A   1      44.850  31.263  28.645  1.00  0.00     0.074 A 
ATOM     20  C   UNL A   1      43.840  32.207  29.068  1.00  0.00     0.031 C 
ATOM     21  C   UNL A   1      41.545  25.753  28.075  1.00  0.00     0.029 A 
ATOM     22  C   UNL A   1      42.961  25.959  27.818  1.00  0.00     0.049 A 
ATOM     23  H   UNL A   1      44.056  27.723  28.013  1.00  0.00     0.167 HD
ATOM     24  C   UNL A   1      46.153  31.564  28.439  1.00  0.00     0.031 A 
ATOM     25  C   UNL A   1      43.807  25.007  27.383  1.00  0.00     0.031 A 
ATOM     26  C   UNL A   1      47.144  30.603  28.022  1.00  0.00     0.049 A 
ATOM     27  C   UNL A   1      45.235  25.389  27.132  1.00  0.00     0.074 A 
ATOM     28  C   UNL A   1      48.499  30.800  27.827  1.00  0.00     0.029 A 
ATOM     29  N   UNL A   1      46.886  29.272  27.728  1.00  0.00    -0.354 N 
ATOM     30  N   UNL A   1      45.820  26.547  27.324  1.00  0.00    -0.248 NA
ATOM     31  C   UNL A   1      46.114  24.342  26.601  1.00  0.00     0.031 C 
ATOM     32  C   UNL A   1      49.050  29.606  27.352  1.00  0.00     0.029 A 
ATOM     33  C   UNL A   1      48.050  28.646  27.316  1.00  0.00     0.049 A 
ATOM     34  H   UNL A   1      46.006  28.836  27.801  1.00  0.00     0.167 HD
ATOM     35  C   UNL A   1      47.144  26.363  26.948  1.00  0.00     0.074 A 
ATOM     36  C   UNL A   1      47.277  24.975  26.551  1.00  0.00     0.031 C 
ATOM     37  C   UNL A   1      48.157  27.263  26.923  1.00  0.00     0.031 A 
BRANCH  24  38
ATOM     38  C   UNL A   1      46.595  32.992  28.625  1.00  0.00    -0.014 A 
ATOM     39  C   UNL A   1      46.525  33.924  27.576  1.00  0.00     0.010 A 
ATOM     40  C   UNL A   1      46.984  33.430  29.905  1.00  0.00     0.010 A 
ATOM     41  C   UNL A   1      46.844  35.267  27.801  1.00  0.00     0.020 A 
ATOM     42  C   UNL A   1      47.281  34.776  30.140  1.00  0.00     0.020 A 
ATOM     43  C   UNL A   1      47.213  35.685  29.084  1.00  0.00     0.054 A 
BRANCH  43  44
ATOM     44  S   UNL A   1      47.547  37.447  29.361  1.00  0.00     0.124 S 
ATOM     45  O   UNL A   1      46.290  37.905  29.948  1.00  0.00    -0.237 OA
ATOM     46  O   UNL A   1      48.688  37.415  30.272  1.00  0.00    -0.237 OA
ATOM     47  O   UNL A   1      47.834  37.963  28.025  1.00  0.00    -0.744 OA
ENDBRANCH  43  44
ENDBRANCH  24  38
BRANCH  25  48
ATOM     48  C   UNL A   1      43.308  23.635  27.101  1.00  0.00    -0.014 A 
ATOM     49  C   UNL A   1      43.083  22.718  28.141  1.00  0.00     0.010 A 
ATOM     50  C   UNL A   1      43.060  23.237  25.772  1.00  0.00     0.010 A 
ATOM     51  C   UNL A   1      42.660  21.416  27.855  1.00  0.00     0.020 A 
ATOM     52  C   UNL A   1      42.600  21.951  25.486  1.00  0.00     0.020 A 
ATOM     53  C   UNL A   1      42.425  21.041  26.528  1.00  0.00     0.054 A 
BRANCH  53  54
ATOM     54  S   UNL A   1      41.873  19.350  26.180  1.00  0.00     0.124 S 
ATOM     55  O   UNL A   1      42.667  19.010  25.005  1.00  0.00    -0.237 OA
ATOM     56  O   UNL A   1      42.225  18.642  27.409  1.00  0.00    -0.237 OA
ATOM     57  O   UNL A   1      40.438  19.500  25.946  1.00  0.00    -0.744 OA
ENDBRANCH  53  54
ENDBRANCH  25  48
BRANCH  37  58
ATOM     58  C   UNL A   1      49.501  26.761  26.474  1.00  0.00    -0.014 A 
ATOM     59  C   UNL A   1      50.346  26.061  27.353  1.00  0.00     0.010 A 
ATOM     60  C   UNL A   1      49.909  26.966  25.143  1.00  0.00     0.010 A 
ATOM     61  C   UNL A   1      51.592  25.604  26.918  1.00  0.00     0.020 A 
ATOM     62  C   UNL A   1      51.139  26.482  24.697  1.00  0.00     0.020 A 
ATOM     63  C   UNL A   1      51.980  25.818  25.592  1.00  0.00     0.054 A 
BRANCH  63  64
ATOM     64  S   UNL A   1      53.586  25.181  25.043  1.00  0.00     0.124 S 
ATOM     65  O   UNL A   1      53.587  25.540  23.628  1.00  0.00    -0.237 OA
ATOM     66  O   UNL A   1      54.527  25.922  25.880  1.00  0.00    -0.237 OA
ATOM     67  O   UNL A   1      53.504  23.749  25.323  1.00  0.00    -0.744 OA
ENDBRANCH  63  64
ENDBRANCH  37  58
ENDBRANCH  11  12
ENDBRANCH   4   6
ENDBRANCH   1   2
BRANCH   1  68
ATOM     68  C   UNL A   1      34.630  31.544  27.849  1.00  0.00     0.042 C 
BRANCH  68  69
ATOM     69  C   UNL A   1      34.582  30.081  27.451  1.00  0.00     0.118 C 
BRANCH  69  70
ATOM     70  N   UNL A   1      33.420  29.402  28.005  1.00  0.00    -0.351 N 
ATOM     71  C   UNL A   1      32.546  28.462  27.560  1.00  0.00     0.278 C 
ATOM     72  H   UNL A   1      33.219  29.694  28.923  1.00  0.00     0.163 HD
ATOM     73  O   UNL A   1      31.670  28.131  28.377  1.00  0.00    -0.268 OA
BRANCH  71  74
ATOM     74  C   UNL A   1      32.547  27.817  26.150  1.00  0.00     0.277 C 
ATOM     75  C   UNL A   1      33.436  26.591  26.018  1.00  0.00     0.114 C 
ATOM     76  N   UNL A   1      31.125  27.509  25.789  1.00  0.00    -0.324 N 
ATOM     77  C   UNL A   1      33.188  25.853  24.776  1.00  0.00    -0.006 A 
ATOM     78  C   UNL A   1      30.924  26.998  24.422  1.00  0.00     0.264 C 
ATOM     79  H   UNL A   1      30.580  28.366  25.889  1.00  0.00     0.347 HD
ATOM     80  H   UNL A   1      30.827  26.763  26.418  1.00  0.00     0.347 HD
ATOM     81  C   UNL A   1      32.017  26.017  24.080  1.00  0.00     0.083 A 
ATOM     82  C   UNL A   1      33.960  24.841  24.176  1.00  0.00     0.003 A 
ATOM     83  N   UNL A   1      32.025  25.080  23.077  1.00  0.00    -0.353 N 
ATOM     84  C   UNL A   1      33.202  24.350  23.115  1.00  0.00     0.046 A 
ATOM     85  C   UNL A   1      35.214  24.273  24.465  1.00  0.00     0.010 A 
ATOM     86  H   UNL A   1      31.299  24.945  22.425  1.00  0.00     0.166 HD
ATOM     87  C   UNL A   1      33.655  23.292  22.318  1.00  0.00     0.026 A 
ATOM     88  C   UNL A   1      35.683  23.225  23.672  1.00  0.00     0.001 A 
ATOM     89  C   UNL A   1      34.911  22.742  22.617  1.00  0.00     0.002 A 
BRANCH  78  90
ATOM     90  C   UNL A   1      30.759  28.078  23.364  1.00  0.00     0.041 A 
ATOM     91  C   UNL A   1      31.836  28.553  22.623  1.00  0.00     0.093 A 
ATOM     92  C   UNL A   1      29.603  28.803  22.869  1.00  0.00     0.009 A 
ATOM     93  N   UNL A   1      31.418  29.570  21.818  1.00  0.00    -0.361 N 
ATOM     94  C   UNL A   1      30.066  29.749  21.946  1.00  0.00     0.046 A 
ATOM     95  C   UNL A   1      28.206  28.782  23.098  1.00  0.00     0.011 A 
ATOM     96  H   UNL A   1      32.004  30.099  21.229  1.00  0.00     0.166 HD
ATOM     97  C   UNL A   1      29.237  30.680  21.305  1.00  0.00     0.026 A 
ATOM     98  C   UNL A   1      27.360  29.705  22.467  1.00  0.00     0.001 A 
ATOM     99  C   UNL A   1      27.874  30.649  21.590  1.00  0.00     0.002 A 
ENDBRANCH  78  90
ENDBRANCH  71  74
ENDBRANCH  69  70
ENDBRANCH  68  69
ENDBRANCH   1  68
TORSDOF 14
ENDMDL
MODEL 3
REMARK VINA RESULT:     -13.1      4.559     10.290
REMARK SMILES O=C(NCCCNC(=O)[C@H]1Cc2c([nH]c3ccccc23)[C@H](c2c[nH]c3ccccc23)[NH2+]1)c1ccc(-c2c3nc(c(-c4ccc(S(=O)(=O)[O-])cc4)c4ccc([nH]4)c(-c4ccc(S(=O)(=O)[O-])cc4)c4nc(c(-c5ccc(S(=O)(=O)[O-])cc5)c5ccc2[nH]5)C=C4)C=C3)cc1
REMARK SMILES IDX 4 1 3 2 1 3 2 4 32 6 33 7 91 8 34 9 90 10 35 11 36 12 37 13
REMARK SMILES IDX 84 14 38 15 89 16 83 17 85 18 39 19 88 20 82 21 81 22 40 24
REMARK SMILES IDX 70 25 51 26 69 27 52 28 55 29 68 30 86 31 53 32 54 33 67 35
REMARK SMILES IDX 87 36 56 37 41 38 42 39 50 40 43 41 49 42 44 43 45 44 46 45
REMARK SMILES IDX 47 46 48 47 71 48 72 49 80 50 73 51 79 52 74 53 75 54 76 55
REMARK SMILES IDX 77 56 78 57 57 58 58 59 66 60 59 61 65 62 60 63 61 64 62 65
REMARK SMILES IDX 63 66 64 67 5 68 6 69 7 70 8 71 9 73 10 74 11 75 31 76 12 77
REMARK SMILES IDX 21 78 13 81 20 82 14 83 15 84 19 85 16 87 18 88 17 89 22 90
REMARK SMILES IDX 23 91 30 92 24 93 25 94 29 95 26 97 28 98 27 99
REMARK H PARENT 3 5 85 23 55 34 7 72 31 79 31 80 14 86 24 96
REMARK Flexibility Score: inf
ROOT
ATOM      1  C   UNL A   1      34.085  28.517  26.264  1.00  0.00     0.118 C 
ENDROOT
BRANCH   1   2
ATOM      2  N   UNL A   1      33.861  29.892  26.712  1.00  0.00    -0.352 N 
ATOM      3  O   UNL A   1      34.009  31.638  28.126  1.00  0.00    -0.269 OA
ATOM      4  C   UNL A   1      34.524  30.626  27.663  1.00  0.00     0.251 C 
ATOM      5  H   UNL A   1      33.122  30.361  26.262  1.00  0.00     0.163 HD
BRANCH   4   6
ATOM      6  C   UNL A   1      35.860  30.189  28.107  1.00  0.00     0.039 A 
ATOM      7  C   UNL A   1      36.960  30.402  27.276  1.00  0.00     0.014 A 
ATOM      8  C   UNL A   1      36.026  29.599  29.363  1.00  0.00     0.014 A 
ATOM      9  C   UNL A   1      38.192  29.879  27.616  1.00  0.00     0.010 A 
ATOM     10  C   UNL A   1      37.302  29.200  29.768  1.00  0.00     0.010 A 
ATOM     11  C   UNL A   1      38.389  29.329  28.890  1.00  0.00    -0.014 A 
BRANCH  11  12
ATOM     12  C   UNL A   1      39.779  29.045  29.311  1.00  0.00     0.031 A 
ATOM     13  C   UNL A   1      40.568  30.026  30.124  1.00  0.00     0.074 A 
ATOM     14  C   UNL A   1      40.295  27.845  28.971  1.00  0.00     0.049 A 
ATOM     15  N   UNL A   1      41.785  29.903  30.585  1.00  0.00    -0.248 NA
ATOM     16  C   UNL A   1      39.923  31.306  30.459  1.00  0.00     0.031 C 
ATOM     17  C   UNL A   1      39.601  26.823  28.174  1.00  0.00     0.029 A 
ATOM     18  N   UNL A   1      41.497  27.264  29.268  1.00  0.00    -0.354 N 
ATOM     19  C   UNL A   1      42.065  31.096  31.240  1.00  0.00     0.074 A 
ATOM     20  C   UNL A   1      40.895  31.936  31.109  1.00  0.00     0.031 C 
ATOM     21  C   UNL A   1      40.362  25.725  28.102  1.00  0.00     0.029 A 
ATOM     22  C   UNL A   1      41.631  25.993  28.759  1.00  0.00     0.049 A 
ATOM     23  H   UNL A   1      42.198  27.712  29.794  1.00  0.00     0.167 HD
ATOM     24  C   UNL A   1      43.202  31.449  31.884  1.00  0.00     0.031 A 
ATOM     25  C   UNL A   1      42.676  25.146  28.783  1.00  0.00     0.031 A 
ATOM     26  C   UNL A   1      44.354  30.591  32.007  1.00  0.00     0.049 A 
ATOM     27  C   UNL A   1      43.931  25.588  29.475  1.00  0.00     0.074 A 
ATOM     28  C   UNL A   1      45.539  30.839  32.676  1.00  0.00     0.029 A 
ATOM     29  N   UNL A   1      44.470  29.330  31.442  1.00  0.00    -0.354 N 
ATOM     30  N   UNL A   1      44.158  26.702  30.128  1.00  0.00    -0.248 NA
ATOM     31  C   UNL A   1      45.068  24.664  29.430  1.00  0.00     0.031 C 
ATOM     32  C   UNL A   1      46.397  29.756  32.461  1.00  0.00     0.029 A 
ATOM     33  C   UNL A   1      45.721  28.803  31.716  1.00  0.00     0.049 A 
ATOM     34  H   UNL A   1      43.768  28.874  30.924  1.00  0.00     0.167 HD
ATOM     35  C   UNL A   1      45.467  26.608  30.583  1.00  0.00     0.074 A 
ATOM     36  C   UNL A   1      45.964  25.314  30.160  1.00  0.00     0.031 C 
ATOM     37  C   UNL A   1      46.196  27.513  31.280  1.00  0.00     0.031 A 
BRANCH  24  38
ATOM     38  C   UNL A   1      43.286  32.828  32.484  1.00  0.00    -0.014 A 
ATOM     39  C   UNL A   1      42.916  33.071  33.817  1.00  0.00     0.010 A 
ATOM     40  C   UNL A   1      43.848  33.874  31.728  1.00  0.00     0.010 A 
ATOM     41  C   UNL A   1      43.099  34.338  34.381  1.00  0.00     0.020 A 
ATOM     42  C   UNL A   1      44.054  35.135  32.295  1.00  0.00     0.020 A 
ATOM     43  C   UNL A   1      43.674  35.359  33.619  1.00  0.00     0.054 A 
BRANCH  43  44
ATOM     44  S   UNL A   1      43.967  36.969  34.401  1.00  0.00     0.124 S 
ATOM     45  O   UNL A   1      43.626  36.695  35.795  1.00  0.00    -0.237 OA
ATOM     46  O   UNL A   1      45.385  37.198  34.137  1.00  0.00    -0.237 OA
ATOM     47  O   UNL A   1      43.053  37.869  33.703  1.00  0.00    -0.744 OA
ENDBRANCH  43  44
ENDBRANCH  24  38
BRANCH  25  48
ATOM     48  C   UNL A   1      42.594  23.838  28.080  1.00  0.00    -0.014 A 
ATOM     49  C   UNL A   1      42.114  22.693  28.736  1.00  0.00     0.010 A 
ATOM     50  C   UNL A   1      43.010  23.734  26.738  1.00  0.00     0.010 A 
ATOM     51  C   UNL A   1      42.089  21.460  28.076  1.00  0.00     0.020 A 
ATOM     52  C   UNL A   1      42.950  22.514  26.064  1.00  0.00     0.020 A 
ATOM     53  C   UNL A   1      42.511  21.379  26.745  1.00  0.00     0.054 A 
BRANCH  53  54
ATOM     54  S   UNL A   1      42.467  19.772  25.907  1.00  0.00     0.124 S 
ATOM     55  O   UNL A   1      43.493  19.938  24.884  1.00  0.00    -0.237 OA
ATOM     56  O   UNL A   1      42.794  18.843  26.987  1.00  0.00    -0.237 OA
ATOM     57  O   UNL A   1      41.095  19.682  25.412  1.00  0.00    -0.744 OA
ENDBRANCH  53  54
ENDBRANCH  25  48
BRANCH  37  58
ATOM     58  C   UNL A   1      47.598  27.118  31.647  1.00  0.00    -0.014 A 
ATOM     59  C   UNL A   1      48.695  27.521  30.864  1.00  0.00     0.010 A 
ATOM     60  C   UNL A   1      47.823  26.360  32.811  1.00  0.00     0.010 A 
ATOM     61  C   UNL A   1      49.991  27.142  31.220  1.00  0.00     0.020 A 
ATOM     62  C   UNL A   1      49.120  26.008  33.188  1.00  0.00     0.020 A 
ATOM     63  C   UNL A   1      50.195  26.388  32.381  1.00  0.00     0.054 A 
BRANCH  63  64
ATOM     64  S   UNL A   1      51.890  25.942  32.841  1.00  0.00     0.124 S 
ATOM     65  O   UNL A   1      52.584  27.220  32.718  1.00  0.00    -0.237 OA
ATOM     66  O   UNL A   1      51.730  25.442  34.204  1.00  0.00    -0.237 OA
ATOM     67  O   UNL A   1      52.264  24.933  31.852  1.00  0.00    -0.744 OA
ENDBRANCH  63  64
ENDBRANCH  37  58
ENDBRANCH  11  12
ENDBRANCH   4   6
ENDBRANCH   1   2
BRANCH   1  68
ATOM     68  C   UNL A   1      33.096  27.561  26.904  1.00  0.00     0.042 C 
BRANCH  68  69
ATOM     69  C   UNL A   1      32.343  26.778  25.846  1.00  0.00     0.118 C 
BRANCH  69  70
ATOM     70  N   UNL A   1      31.487  25.755  26.429  1.00  0.00    -0.351 N 
ATOM     71  C   UNL A   1      31.558  24.407  26.581  1.00  0.00     0.278 C 
ATOM     72  H   UNL A   1      30.657  26.130  26.801  1.00  0.00     0.163 HD
ATOM     73  O   UNL A   1      30.589  23.893  27.165  1.00  0.00    -0.268 OA
BRANCH  71  74
ATOM     74  C   UNL A   1      32.705  23.496  26.076  1.00  0.00     0.277 C 
ATOM     75  C   UNL A   1      34.103  24.013  26.380  1.00  0.00     0.114 C 
ATOM     76  N   UNL A   1      32.487  22.128  26.649  1.00  0.00    -0.324 N 
ATOM     77  C   UNL A   1      35.135  22.999  26.148  1.00  0.00    -0.006 A 
ATOM     78  C   UNL A   1      33.423  21.094  26.173  1.00  0.00     0.264 C 
ATOM     79  H   UNL A   1      31.540  21.831  26.408  1.00  0.00     0.347 HD
ATOM     80  H   UNL A   1      32.642  22.212  27.654  1.00  0.00     0.347 HD
ATOM     81  C   UNL A   1      34.817  21.665  26.100  1.00  0.00     0.083 A 
ATOM     82  C   UNL A   1      36.532  23.157  26.066  1.00  0.00     0.003 A 
ATOM     83  N   UNL A   1      36.005  20.982  26.038  1.00  0.00    -0.353 N 
ATOM     84  C   UNL A   1      37.067  21.872  26.016  1.00  0.00     0.046 A 
ATOM     85  C   UNL A   1      37.387  24.274  26.070  1.00  0.00     0.010 A 
ATOM     86  H   UNL A   1      36.092  20.001  26.014  1.00  0.00     0.166 HD
ATOM     87  C   UNL A   1      38.449  21.655  25.971  1.00  0.00     0.026 A 
ATOM     88  C   UNL A   1      38.766  24.073  26.016  1.00  0.00     0.001 A 
ATOM     89  C   UNL A   1      39.286  22.781  25.971  1.00  0.00     0.002 A 
BRANCH  78  90
ATOM     90  C   UNL A   1      33.004  20.413  24.880  1.00  0.00     0.041 A 
ATOM     91  C   UNL A   1      32.127  21.013  23.982  1.00  0.00     0.093 A 
ATOM     92  C   UNL A   1      33.361  19.141  24.276  1.00  0.00     0.009 A 
ATOM     93  N   UNL A   1      31.862  20.149  22.963  1.00  0.00    -0.361 N 
ATOM     94  C   UNL A   1      32.594  19.000  23.114  1.00  0.00     0.046 A 
ATOM     95  C   UNL A   1      34.242  18.075  24.580  1.00  0.00     0.011 A 
ATOM     96  H   UNL A   1      31.235  20.325  22.224  1.00  0.00     0.166 HD
ATOM     97  C   UNL A   1      32.621  17.860  22.298  1.00  0.00     0.026 A 
ATOM     98  C   UNL A   1      34.285  16.927  23.776  1.00  0.00     0.001 A 
ATOM     99  C   UNL A   1      33.474  16.819  22.655  1.00  0.00     0.002 A 
ENDBRANCH  78  90
ENDBRANCH  71  74
ENDBRANCH  69  70
ENDBRANCH  68  69
ENDBRANCH   1  68
TORSDOF 14
ENDMDL
