MODEL 1
REMARK VINA RESULT:      -9.4      0.000      0.000
REMARK SMILES O=C(NCCCNC(=O)[C@@H]1CCn2c(C(=O)c3ccccc3)ccc21)c1ccc(-c2c3nc(c(-c4ccc(S(=O)(=O)[O-])cc4)c4ccc([nH]4)c(-c4ccc(S(=O)(=O)[O-])cc4)c4nc(c(-c5ccc(S(=O)(=O)[O-])cc5)c5ccc2[nH]5)C=C4)C=C3)cc1
REMARK SMILES IDX 4 1 3 2 1 3 2 4 26 6 27 7 85 8 28 9 84 10 29 11 30 12 31 13
REMARK SMILES IDX 78 14 32 15 83 16 77 17 79 18 33 19 82 20 76 21 75 22 34 24
REMARK SMILES IDX 64 25 45 26 63 27 46 28 49 29 62 30 80 31 47 32 48 33 61 35
REMARK SMILES IDX 81 36 50 37 35 38 36 39 44 40 37 41 43 42 38 43 39 44 40 45
REMARK SMILES IDX 41 46 42 47 65 48 66 49 74 50 67 51 73 52 68 53 69 54 70 55
REMARK SMILES IDX 71 56 72 57 51 58 52 59 60 60 53 61 59 62 54 63 55 64 56 65
REMARK SMILES IDX 57 66 58 67 5 68 6 69 7 70 8 71 9 73 10 74 11 75 25 76 12 77
REMARK SMILES IDX 13 78 24 79 14 80 23 81 15 82 16 83 17 84 18 85 22 86 19 87
REMARK SMILES IDX 21 88 20 89
REMARK H PARENT 3 5 79 23 49 34 7 72
REMARK Flexibility Score: inf
ROOT
ATOM      1  C   UNL A   1      34.693  32.595  28.655  1.00  0.00     0.118 C 
ENDROOT
BRANCH   1   2
ATOM      2  N   UNL A   1      33.981  31.383  28.265  1.00  0.00    -0.352 N 
ATOM      3  O   UNL A   1      33.737  29.322  27.399  1.00  0.00    -0.269 OA
ATOM      4  C   UNL A   1      34.471  30.140  27.953  1.00  0.00     0.251 C 
ATOM      5  H   UNL A   1      33.001  31.469  28.221  1.00  0.00     0.163 HD
BRANCH   4   6
ATOM      6  C   UNL A   1      35.870  29.789  28.277  1.00  0.00     0.039 A 
ATOM      7  C   UNL A   1      36.875  29.956  27.324  1.00  0.00     0.014 A 
ATOM      8  C   UNL A   1      36.189  29.326  29.557  1.00  0.00     0.014 A 
ATOM      9  C   UNL A   1      38.163  29.519  27.594  1.00  0.00     0.010 A 
ATOM     10  C   UNL A   1      37.514  28.995  29.865  1.00  0.00     0.010 A 
ATOM     11  C   UNL A   1      38.507  29.069  28.879  1.00  0.00    -0.014 A 
BRANCH  11  12
ATOM     12  C   UNL A   1      39.934  28.779  29.166  1.00  0.00     0.031 A 
ATOM     13  C   UNL A   1      40.558  27.464  28.793  1.00  0.00     0.074 A 
ATOM     14  C   UNL A   1      40.679  29.756  29.722  1.00  0.00     0.049 A 
ATOM     15  N   UNL A   1      41.804  27.084  28.924  1.00  0.00    -0.248 NA
ATOM     16  C   UNL A   1      39.678  26.443  28.204  1.00  0.00     0.031 C 
ATOM     17  C   UNL A   1      40.171  31.070  30.138  1.00  0.00     0.029 A 
ATOM     18  N   UNL A   1      42.018  29.819  30.005  1.00  0.00    -0.354 N 
ATOM     19  C   UNL A   1      41.860  25.784  28.438  1.00  0.00     0.074 A 
ATOM     20  C   UNL A   1      40.514  25.423  28.048  1.00  0.00     0.031 C 
ATOM     21  C   UNL A   1      41.193  31.826  30.560  1.00  0.00     0.029 A 
ATOM     22  C   UNL A   1      42.413  31.030  30.522  1.00  0.00     0.049 A 
ATOM     23  H   UNL A   1      42.638  29.069  29.852  1.00  0.00     0.167 HD
ATOM     24  C   UNL A   1      42.938  24.972  28.319  1.00  0.00     0.031 A 
ATOM     25  C   UNL A   1      43.618  31.453  30.944  1.00  0.00     0.031 A 
ATOM     26  C   UNL A   1      44.272  25.338  28.726  1.00  0.00     0.049 A 
ATOM     27  C   UNL A   1      44.786  30.515  30.840  1.00  0.00     0.074 A 
ATOM     28  C   UNL A   1      45.432  24.586  28.651  1.00  0.00     0.029 A 
ATOM     29  N   UNL A   1      44.624  26.557  29.286  1.00  0.00    -0.354 N 
ATOM     30  N   UNL A   1      44.819  29.295  30.358  1.00  0.00    -0.248 NA
ATOM     31  C   UNL A   1      46.077  31.010  31.330  1.00  0.00     0.031 C 
ATOM     32  C   UNL A   1      46.474  25.332  29.211  1.00  0.00     0.029 A 
ATOM     33  C   UNL A   1      45.978  26.573  29.576  1.00  0.00     0.049 A 
ATOM     34  H   UNL A   1      44.002  27.303  29.452  1.00  0.00     0.167 HD
ATOM     35  C   UNL A   1      46.140  28.883  30.472  1.00  0.00     0.074 A 
ATOM     36  C   UNL A   1      46.877  29.995  31.037  1.00  0.00     0.031 C 
ATOM     37  C   UNL A   1      46.693  27.688  30.145  1.00  0.00     0.031 A 
BRANCH  24  38
ATOM     38  C   UNL A   1      42.721  23.600  27.732  1.00  0.00    -0.014 A 
ATOM     39  C   UNL A   1      42.968  23.346  26.370  1.00  0.00     0.010 A 
ATOM     40  C   UNL A   1      42.325  22.535  28.563  1.00  0.00     0.010 A 
ATOM     41  C   UNL A   1      42.791  22.063  25.844  1.00  0.00     0.020 A 
ATOM     42  C   UNL A   1      42.175  21.243  28.046  1.00  0.00     0.020 A 
ATOM     43  C   UNL A   1      42.395  21.019  26.685  1.00  0.00     0.054 A 
BRANCH  43  44
ATOM     44  S   UNL A   1      42.201  19.361  25.977  1.00  0.00     0.124 S 
ATOM     45  O   UNL A   1      42.694  18.511  27.058  1.00  0.00    -0.237 OA
ATOM     46  O   UNL A   1      40.764  19.287  25.726  1.00  0.00    -0.237 OA
ATOM     47  O   UNL A   1      43.038  19.392  24.780  1.00  0.00    -0.744 OA
ENDBRANCH  43  44
ENDBRANCH  24  38
BRANCH  25  48
ATOM     48  C   UNL A   1      43.764  32.811  31.538  1.00  0.00    -0.014 A 
ATOM     49  C   UNL A   1      43.558  33.031  32.910  1.00  0.00     0.010 A 
ATOM     50  C   UNL A   1      44.114  33.900  30.716  1.00  0.00     0.010 A 
ATOM     51  C   UNL A   1      43.667  34.319  33.444  1.00  0.00     0.020 A 
ATOM     52  C   UNL A   1      44.261  35.180  31.252  1.00  0.00     0.020 A 
ATOM     53  C   UNL A   1      44.016  35.386  32.609  1.00  0.00     0.054 A 
BRANCH  53  54
ATOM     54  S   UNL A   1      44.170  37.045  33.323  1.00  0.00     0.124 S 
ATOM     55  O   UNL A   1      44.265  37.879  32.130  1.00  0.00    -0.237 OA
ATOM     56  O   UNL A   1      42.934  37.175  34.091  1.00  0.00    -0.237 OA
ATOM     57  O   UNL A   1      45.387  36.960  34.127  1.00  0.00    -0.744 OA
ENDBRANCH  53  54
ENDBRANCH  25  48
BRANCH  37  58
ATOM     58  C   UNL A   1      48.176  27.543  30.365  1.00  0.00    -0.014 A 
ATOM     59  C   UNL A   1      48.690  27.012  31.561  1.00  0.00     0.010 A 
ATOM     60  C   UNL A   1      49.067  27.927  29.346  1.00  0.00     0.010 A 
ATOM     61  C   UNL A   1      50.070  26.914  31.754  1.00  0.00     0.020 A 
ATOM     62  C   UNL A   1      50.446  27.799  29.522  1.00  0.00     0.020 A 
ATOM     63  C   UNL A   1      50.940  27.312  30.734  1.00  0.00     0.054 A 
BRANCH  63  64
ATOM     64  S   UNL A   1      52.726  27.154  31.002  1.00  0.00     0.124 S 
ATOM     65  O   UNL A   1      52.952  28.087  32.101  1.00  0.00    -0.237 OA
ATOM     66  O   UNL A   1      52.876  25.739  31.335  1.00  0.00    -0.237 OA
ATOM     67  O   UNL A   1      53.305  27.550  29.719  1.00  0.00    -0.744 OA
ENDBRANCH  63  64
ENDBRANCH  37  58
ENDBRANCH  11  12
ENDBRANCH   4   6
ENDBRANCH   1   2
BRANCH   1  68
ATOM     68  C   UNL A   1      34.589  32.851  30.151  1.00  0.00     0.042 C 
BRANCH  68  69
ATOM     69  C   UNL A   1      35.300  34.131  30.580  1.00  0.00     0.117 C 
BRANCH  69  70
ATOM     70  N   UNL A   1      36.633  34.213  30.019  1.00  0.00    -0.355 N 
ATOM     71  C   UNL A   1      37.874  34.241  30.571  1.00  0.00     0.229 C 
ATOM     72  H   UNL A   1      36.641  34.259  29.036  1.00  0.00     0.163 HD
ATOM     73  O   UNL A   1      38.804  34.310  29.755  1.00  0.00    -0.274 OA
BRANCH  71  74
ATOM     74  C   UNL A   1      38.170  34.123  32.075  1.00  0.00     0.127 C 
ATOM     75  C   UNL A   1      39.569  34.435  32.642  1.00  0.00     0.042 C 
ATOM     76  C   UNL A   1      37.992  32.714  32.557  1.00  0.00     0.031 A 
ATOM     77  C   UNL A   1      39.760  33.519  33.850  1.00  0.00     0.124 C 
ATOM     78  N   UNL A   1      38.905  32.394  33.526  1.00  0.00    -0.341 N 
ATOM     79  C   UNL A   1      37.189  31.625  32.354  1.00  0.00     0.025 A 
ATOM     80  C   UNL A   1      38.803  31.093  33.915  1.00  0.00     0.090 A 
ATOM     81  C   UNL A   1      37.701  30.606  33.206  1.00  0.00     0.032 A 
BRANCH  80  82
ATOM     82  C   UNL A   1      39.639  30.317  34.823  1.00  0.00     0.209 C 
ATOM     83  O   UNL A   1      39.343  30.116  35.999  1.00  0.00    -0.287 OA
BRANCH  82  84
ATOM     84  C   UNL A   1      40.880  29.676  34.339  1.00  0.00     0.024 A 
ATOM     85  C   UNL A   1      40.780  28.579  33.478  1.00  0.00     0.012 A 
ATOM     86  C   UNL A   1      42.135  30.157  34.733  1.00  0.00     0.012 A 
ATOM     87  C   UNL A   1      41.939  28.001  32.960  1.00  0.00     0.001 A 
ATOM     88  C   UNL A   1      43.290  29.588  34.194  1.00  0.00     0.001 A 
ATOM     89  C   UNL A   1      43.190  28.517  33.304  1.00  0.00     0.000 A 
ENDBRANCH  82  84
ENDBRANCH  80  82
ENDBRANCH  71  74
ENDBRANCH  69  70
ENDBRANCH  68  69
ENDBRANCH   1  68
TORSDOF 15
ENDMDL
MODEL 2
REMARK VINA RESULT:      -9.3      0.771      8.304
REMARK SMILES O=C(NCCCNC(=O)[C@@H]1CCn2c(C(=O)c3ccccc3)ccc21)c1ccc(-c2c3nc(c(-c4ccc(S(=O)(=O)[O-])cc4)c4ccc([nH]4)c(-c4ccc(S(=O)(=O)[O-])cc4)c4nc(c(-c5ccc(S(=O)(=O)[O-])cc5)c5ccc2[nH]5)C=C4)C=C3)cc1
REMARK SMILES IDX 4 1 3 2 1 3 2 4 26 6 27 7 85 8 28 9 84 10 29 11 30 12 31 13
REMARK SMILES IDX 78 14 32 15 83 16 77 17 79 18 33 19 82 20 76 21 75 22 34 24
REMARK SMILES IDX 64 25 45 26 63 27 46 28 49 29 62 30 80 31 47 32 48 33 61 35
REMARK SMILES IDX 81 36 50 37 35 38 36 39 44 40 37 41 43 42 38 43 39 44 40 45
REMARK SMILES IDX 41 46 42 47 65 48 66 49 74 50 67 51 73 52 68 53 69 54 70 55
REMARK SMILES IDX 71 56 72 57 51 58 52 59 60 60 53 61 59 62 54 63 55 64 56 65
REMARK SMILES IDX 57 66 58 67 5 68 6 69 7 70 8 71 9 73 10 74 11 75 25 76 12 77
REMARK SMILES IDX 13 78 24 79 14 80 23 81 15 82 16 83 17 84 18 85 22 86 19 87
REMARK SMILES IDX 21 88 20 89
REMARK H PARENT 3 5 79 23 49 34 7 72
REMARK Flexibility Score: inf
ROOT
ATOM      1  C   UNL A   1      34.651  32.580  28.007  1.00  0.00     0.118 C 
ENDROOT
BRANCH   1   2
ATOM      2  N   UNL A   1      33.912  31.327  27.901  1.00  0.00    -0.352 N 
ATOM      3  O   UNL A   1      33.614  29.138  27.484  1.00  0.00    -0.269 OA
ATOM      4  C   UNL A   1      34.378  30.039  27.829  1.00  0.00     0.251 C 
ATOM      5  H   UNL A   1      32.933  31.419  27.879  1.00  0.00     0.163 HD
BRANCH   4   6
ATOM      6  C   UNL A   1      35.786  29.736  28.161  1.00  0.00     0.039 A 
ATOM      7  C   UNL A   1      36.788  29.918  27.207  1.00  0.00     0.014 A 
ATOM      8  C   UNL A   1      36.117  29.305  29.450  1.00  0.00     0.014 A 
ATOM      9  C   UNL A   1      38.088  29.526  27.487  1.00  0.00     0.010 A 
ATOM     10  C   UNL A   1      37.450  29.021  29.766  1.00  0.00     0.010 A 
ATOM     11  C   UNL A   1      38.444  29.109  28.780  1.00  0.00    -0.014 A 
BRANCH  11  12
ATOM     12  C   UNL A   1      39.878  28.868  29.075  1.00  0.00     0.031 A 
ATOM     13  C   UNL A   1      40.712  29.886  29.799  1.00  0.00     0.074 A 
ATOM     14  C   UNL A   1      40.403  27.676  28.727  1.00  0.00     0.049 A 
ATOM     15  N   UNL A   1      41.961  29.797  30.182  1.00  0.00    -0.248 NA
ATOM     16  C   UNL A   1      40.073  31.168  30.133  1.00  0.00     0.031 C 
ATOM     17  C   UNL A   1      39.685  26.616  28.007  1.00  0.00     0.029 A 
ATOM     18  N   UNL A   1      41.642  27.136  28.954  1.00  0.00    -0.354 N 
ATOM     19  C   UNL A   1      42.259  31.005  30.798  1.00  0.00     0.074 A 
ATOM     20  C   UNL A   1      41.073  31.830  30.702  1.00  0.00     0.031 C 
ATOM     21  C   UNL A   1      40.472  25.536  27.909  1.00  0.00     0.029 A 
ATOM     22  C   UNL A   1      41.773  25.850  28.485  1.00  0.00     0.049 A 
ATOM     23  H   UNL A   1      42.368  27.621  29.409  1.00  0.00     0.167 HD
ATOM     24  C   UNL A   1      43.413  31.386  31.399  1.00  0.00     0.031 A 
ATOM     25  C   UNL A   1      42.829  25.016  28.493  1.00  0.00     0.031 A 
ATOM     26  C   UNL A   1      44.593  30.561  31.474  1.00  0.00     0.049 A 
ATOM     27  C   UNL A   1      44.108  25.483  29.127  1.00  0.00     0.074 A 
ATOM     28  C   UNL A   1      45.813  30.855  32.057  1.00  0.00     0.029 A 
ATOM     29  N   UNL A   1      44.701  29.281  30.949  1.00  0.00    -0.354 N 
ATOM     30  N   UNL A   1      44.361  26.624  29.722  1.00  0.00    -0.248 NA
ATOM     31  C   UNL A   1      45.239  24.549  29.096  1.00  0.00     0.031 C 
ATOM     32  C   UNL A   1      46.674  29.774  31.841  1.00  0.00     0.029 A 
ATOM     33  C   UNL A   1      45.972  28.780  31.180  1.00  0.00     0.049 A 
ATOM     34  H   UNL A   1      43.980  28.800  30.482  1.00  0.00     0.167 HD
ATOM     35  C   UNL A   1      45.678  26.539  30.152  1.00  0.00     0.074 A 
ATOM     36  C   UNL A   1      46.155  25.224  29.777  1.00  0.00     0.031 C 
ATOM     37  C   UNL A   1      46.430  27.469  30.793  1.00  0.00     0.031 A 
BRANCH  24  38
ATOM     38  C   UNL A   1      43.462  32.762  32.015  1.00  0.00    -0.014 A 
ATOM     39  C   UNL A   1      43.890  33.875  31.268  1.00  0.00     0.010 A 
ATOM     40  C   UNL A   1      43.018  32.957  33.336  1.00  0.00     0.010 A 
ATOM     41  C   UNL A   1      43.904  35.150  31.842  1.00  0.00     0.020 A 
ATOM     42  C   UNL A   1      43.004  34.235  33.904  1.00  0.00     0.020 A 
ATOM     43  C   UNL A   1      43.461  35.322  33.156  1.00  0.00     0.054 A 
BRANCH  43  44
ATOM     44  S   UNL A   1      43.466  36.994  33.861  1.00  0.00     0.124 S 
ATOM     45  O   UNL A   1      42.204  37.014  34.599  1.00  0.00    -0.237 OA
ATOM     46  O   UNL A   1      44.674  36.990  34.683  1.00  0.00    -0.237 OA
ATOM     47  O   UNL A   1      43.515  37.867  32.691  1.00  0.00    -0.744 OA
ENDBRANCH  43  44
ENDBRANCH  24  38
BRANCH  25  48
ATOM     48  C   UNL A   1      42.727  23.679  27.845  1.00  0.00    -0.014 A 
ATOM     49  C   UNL A   1      43.116  23.486  26.509  1.00  0.00     0.010 A 
ATOM     50  C   UNL A   1      42.231  22.583  28.577  1.00  0.00     0.010 A 
ATOM     51  C   UNL A   1      42.981  22.231  25.908  1.00  0.00     0.020 A 
ATOM     52  C   UNL A   1      42.130  21.321  27.992  1.00  0.00     0.020 A 
ATOM     53  C   UNL A   1      42.487  21.156  26.654  1.00  0.00     0.054 A 
BRANCH  53  54
ATOM     54  S   UNL A   1      42.337  19.532  25.862  1.00  0.00     0.124 S 
ATOM     55  O   UNL A   1      42.696  18.631  26.952  1.00  0.00    -0.237 OA
ATOM     56  O   UNL A   1      40.933  19.508  25.455  1.00  0.00    -0.237 OA
ATOM     57  O   UNL A   1      43.295  19.599  24.761  1.00  0.00    -0.744 OA
ENDBRANCH  53  54
ENDBRANCH  25  48
BRANCH  37  58
ATOM     58  C   UNL A   1      47.837  27.074  31.155  1.00  0.00    -0.014 A 
ATOM     59  C   UNL A   1      48.909  27.292  30.271  1.00  0.00     0.010 A 
ATOM     60  C   UNL A   1      48.091  26.492  32.410  1.00  0.00     0.010 A 
ATOM     61  C   UNL A   1      50.201  26.890  30.616  1.00  0.00     0.020 A 
ATOM     62  C   UNL A   1      49.388  26.120  32.773  1.00  0.00     0.020 A 
ATOM     63  C   UNL A   1      50.432  26.304  31.865  1.00  0.00     0.054 A 
BRANCH  63  64
ATOM     64  S   UNL A   1      52.123  25.812  32.296  1.00  0.00     0.124 S 
ATOM     65  O   UNL A   1      52.880  26.275  31.137  1.00  0.00    -0.237 OA
ATOM     66  O   UNL A   1      52.361  26.544  33.538  1.00  0.00    -0.237 OA
ATOM     67  O   UNL A   1      52.033  24.360  32.443  1.00  0.00    -0.744 OA
ENDBRANCH  63  64
ENDBRANCH  37  58
ENDBRANCH  11  12
ENDBRANCH   4   6
ENDBRANCH   1   2
BRANCH   1  68
ATOM     68  C   UNL A   1      34.097  33.468  29.111  1.00  0.00     0.042 C 
BRANCH  68  69
ATOM     69  C   UNL A   1      35.035  34.617  29.470  1.00  0.00     0.117 C 
BRANCH  69  70
ATOM     70  N   UNL A   1      36.385  34.365  29.010  1.00  0.00    -0.355 N 
ATOM     71  C   UNL A   1      37.579  34.256  29.647  1.00  0.00     0.229 C 
ATOM     72  H   UNL A   1      36.451  34.251  28.034  1.00  0.00     0.163 HD
ATOM     73  O   UNL A   1      38.545  34.024  28.906  1.00  0.00    -0.274 OA
BRANCH  71  74
ATOM     74  C   UNL A   1      37.772  34.329  31.171  1.00  0.00     0.127 C 
ATOM     75  C   UNL A   1      39.160  34.584  31.791  1.00  0.00     0.042 C 
ATOM     76  C   UNL A   1      37.419  33.027  31.828  1.00  0.00     0.031 A 
ATOM     77  C   UNL A   1      39.184  33.838  33.124  1.00  0.00     0.124 C 
ATOM     78  N   UNL A   1      38.235  32.765  32.896  1.00  0.00    -0.341 N 
ATOM     79  C   UNL A   1      36.521  32.001  31.719  1.00  0.00     0.025 A 
ATOM     80  C   UNL A   1      37.975  31.549  33.452  1.00  0.00     0.090 A 
ATOM     81  C   UNL A   1      36.872  31.072  32.738  1.00  0.00     0.032 A 
BRANCH  80  82
ATOM     82  C   UNL A   1      38.670  30.836  34.516  1.00  0.00     0.209 C 
ATOM     83  O   UNL A   1      38.293  30.845  35.687  1.00  0.00    -0.287 OA
BRANCH  82  84
ATOM     84  C   UNL A   1      39.855  30.004  34.215  1.00  0.00     0.024 A 
ATOM     85  C   UNL A   1      39.729  28.964  33.289  1.00  0.00     0.012 A 
ATOM     86  C   UNL A   1      41.082  30.252  34.842  1.00  0.00     0.012 A 
ATOM     87  C   UNL A   1      40.851  28.209  32.943  1.00  0.00     0.001 A 
ATOM     88  C   UNL A   1      42.204  29.508  34.476  1.00  0.00     0.001 A 
ATOM     89  C   UNL A   1      42.089  28.494  33.524  1.00  0.00     0.000 A 
ENDBRANCH  82  84
ENDBRANCH  80  82
ENDBRANCH  71  74
ENDBRANCH  69  70
ENDBRANCH  68  69
ENDBRANCH   1  68
TORSDOF 15
ENDMDL
MODEL 3
REMARK VINA RESULT:      -9.0      4.220      7.371
REMARK SMILES O=C(NCCCNC(=O)[C@@H]1CCn2c(C(=O)c3ccccc3)ccc21)c1ccc(-c2c3nc(c(-c4ccc(S(=O)(=O)[O-])cc4)c4ccc([nH]4)c(-c4ccc(S(=O)(=O)[O-])cc4)c4nc(c(-c5ccc(S(=O)(=O)[O-])cc5)c5ccc2[nH]5)C=C4)C=C3)cc1
REMARK SMILES IDX 4 1 3 2 1 3 2 4 26 6 27 7 85 8 28 9 84 10 29 11 30 12 31 13
REMARK SMILES IDX 78 14 32 15 83 16 77 17 79 18 33 19 82 20 76 21 75 22 34 24
REMARK SMILES IDX 64 25 45 26 63 27 46 28 49 29 62 30 80 31 47 32 48 33 61 35
REMARK SMILES IDX 81 36 50 37 35 38 36 39 44 40 37 41 43 42 38 43 39 44 40 45
REMARK SMILES IDX 41 46 42 47 65 48 66 49 74 50 67 51 73 52 68 53 69 54 70 55
REMARK SMILES IDX 71 56 72 57 51 58 52 59 60 60 53 61 59 62 54 63 55 64 56 65
REMARK SMILES IDX 57 66 58 67 5 68 6 69 7 70 8 71 9 73 10 74 11 75 25 76 12 77
REMARK SMILES IDX 13 78 24 79 14 80 23 81 15 82 16 83 17 84 18 85 22 86 19 87
REMARK SMILES IDX 21 88 20 89
REMARK H PARENT 3 5 79 23 49 34 7 72
REMARK Flexibility Score: inf
ROOT
ATOM      1  C   UNL A   1      34.059  28.237  26.835  1.00  0.00     0.118 C 
ENDROOT
BRANCH   1   2
ATOM      2  N   UNL A   1      33.865  29.628  27.227  1.00  0.00    -0.352 N 
ATOM      3  O   UNL A   1      34.202  31.498  28.429  1.00  0.00    -0.269 OA
ATOM      4  C   UNL A   1      34.659  30.441  27.996  1.00  0.00     0.251 C 
ATOM      5  H   UNL A   1      33.041  30.047  26.889  1.00  0.00     0.163 HD
BRANCH   4   6
ATOM      6  C   UNL A   1      36.050  30.048  28.302  1.00  0.00     0.039 A 
ATOM      7  C   UNL A   1      37.057  30.232  27.354  1.00  0.00     0.014 A 
ATOM      8  C   UNL A   1      36.363  29.528  29.563  1.00  0.00     0.014 A 
ATOM      9  C   UNL A   1      38.337  29.758  27.604  1.00  0.00     0.010 A 
ATOM     10  C   UNL A   1      37.680  29.159  29.854  1.00  0.00     0.010 A 
ATOM     11  C   UNL A   1      38.673  29.251  28.869  1.00  0.00    -0.014 A 
BRANCH  11  12
ATOM     12  C   UNL A   1      40.094  28.921  29.142  1.00  0.00     0.031 A 
ATOM     13  C   UNL A   1      40.673  27.583  28.777  1.00  0.00     0.074 A 
ATOM     14  C   UNL A   1      40.876  29.881  29.675  1.00  0.00     0.049 A 
ATOM     15  N   UNL A   1      41.908  27.166  28.897  1.00  0.00    -0.248 NA
ATOM     16  C   UNL A   1      39.754  26.581  28.213  1.00  0.00     0.031 C 
ATOM     17  C   UNL A   1      40.415  31.215  30.080  1.00  0.00     0.029 A 
ATOM     18  N   UNL A   1      42.220  29.906  29.939  1.00  0.00    -0.354 N 
ATOM     19  C   UNL A   1      41.917  25.859  28.428  1.00  0.00     0.074 A 
ATOM     20  C   UNL A   1      40.555  25.535  28.059  1.00  0.00     0.031 C 
ATOM     21  C   UNL A   1      41.465  31.945  30.479  1.00  0.00     0.029 A 
ATOM     22  C   UNL A   1      42.659  31.111  30.436  1.00  0.00     0.049 A 
ATOM     23  H   UNL A   1      42.815  29.136  29.788  1.00  0.00     0.167 HD
ATOM     24  C   UNL A   1      42.968  25.012  28.305  1.00  0.00     0.031 A 
ATOM     25  C   UNL A   1      43.883  31.502  30.836  1.00  0.00     0.031 A 
ATOM     26  C   UNL A   1      44.318  25.342  28.690  1.00  0.00     0.049 A 
ATOM     27  C   UNL A   1      45.019  30.527  30.729  1.00  0.00     0.074 A 
ATOM     28  C   UNL A   1      45.453  24.554  28.609  1.00  0.00     0.029 A 
ATOM     29  N   UNL A   1      44.715  26.557  29.229  1.00  0.00    -0.354 N 
ATOM     30  N   UNL A   1      45.009  29.300  30.263  1.00  0.00    -0.248 NA
ATOM     31  C   UNL A   1      46.331  30.988  31.196  1.00  0.00     0.031 C 
ATOM     32  C   UNL A   1      46.525  25.274  29.146  1.00  0.00     0.029 A 
ATOM     33  C   UNL A   1      46.073  26.534  29.502  1.00  0.00     0.049 A 
ATOM     34  H   UNL A   1      44.119  27.324  29.394  1.00  0.00     0.167 HD
ATOM     35  C   UNL A   1      46.317  28.849  30.365  1.00  0.00     0.074 A 
ATOM     36  C   UNL A   1      47.096  29.945  30.906  1.00  0.00     0.031 C 
ATOM     37  C   UNL A   1      46.829  27.634  30.047  1.00  0.00     0.031 A 
BRANCH  24  38
ATOM     38  C   UNL A   1      42.702  23.640  27.739  1.00  0.00    -0.014 A 
ATOM     39  C   UNL A   1      42.843  23.384  26.362  1.00  0.00     0.010 A 
ATOM     40  C   UNL A   1      42.366  22.578  28.599  1.00  0.00     0.010 A 
ATOM     41  C   UNL A   1      42.620  22.100  25.854  1.00  0.00     0.020 A 
ATOM     42  C   UNL A   1      42.171  21.286  28.098  1.00  0.00     0.020 A 
ATOM     43  C   UNL A   1      42.286  21.060  26.725  1.00  0.00     0.054 A 
BRANCH  43  44
ATOM     44  S   UNL A   1      42.031  19.401  26.036  1.00  0.00     0.124 S 
ATOM     45  O   UNL A   1      42.511  18.547  27.121  1.00  0.00    -0.237 OA
ATOM     46  O   UNL A   1      40.589  19.370  25.804  1.00  0.00    -0.237 OA
ATOM     47  O   UNL A   1      42.854  19.394  24.829  1.00  0.00    -0.744 OA
ENDBRANCH  43  44
ENDBRANCH  24  38
BRANCH  25  48
ATOM     48  C   UNL A   1      44.078  32.862  31.410  1.00  0.00    -0.014 A 
ATOM     49  C   UNL A   1      44.435  33.951  30.598  1.00  0.00     0.010 A 
ATOM     50  C   UNL A   1      43.905  33.070  32.793  1.00  0.00     0.010 A 
ATOM     51  C   UNL A   1      44.648  35.214  31.160  1.00  0.00     0.020 A 
ATOM     52  C   UNL A   1      44.079  34.335  33.352  1.00  0.00     0.020 A 
ATOM     53  C   UNL A   1      44.469  35.396  32.535  1.00  0.00     0.054 A 
BRANCH  53  54
ATOM     54  S   UNL A   1      44.731  37.045  33.243  1.00  0.00     0.124 S 
ATOM     55  O   UNL A   1      43.469  37.279  33.937  1.00  0.00    -0.237 OA
ATOM     56  O   UNL A   1      45.897  36.839  34.099  1.00  0.00    -0.237 OA
ATOM     57  O   UNL A   1      44.969  37.886  32.072  1.00  0.00    -0.744 OA
ENDBRANCH  53  54
ENDBRANCH  25  48
BRANCH  37  58
ATOM     58  C   UNL A   1      48.310  27.446  30.248  1.00  0.00    -0.014 A 
ATOM     59  C   UNL A   1      48.823  26.914  31.445  1.00  0.00     0.010 A 
ATOM     60  C   UNL A   1      49.198  27.790  29.214  1.00  0.00     0.010 A 
ATOM     61  C   UNL A   1      50.202  26.776  31.621  1.00  0.00     0.020 A 
ATOM     62  C   UNL A   1      50.576  27.622  29.373  1.00  0.00     0.020 A 
ATOM     63  C   UNL A   1      51.070  27.134  30.584  1.00  0.00     0.054 A 
BRANCH  63  64
ATOM     64  S   UNL A   1      52.854  26.924  30.831  1.00  0.00     0.124 S 
ATOM     65  O   UNL A   1      52.899  25.918  31.887  1.00  0.00    -0.237 OA
ATOM     66  O   UNL A   1      53.308  26.478  29.516  1.00  0.00    -0.237 OA
ATOM     67  O   UNL A   1      53.308  28.258  31.221  1.00  0.00    -0.744 OA
ENDBRANCH  63  64
ENDBRANCH  37  58
ENDBRANCH  11  12
ENDBRANCH   4   6
ENDBRANCH   1   2
BRANCH   1  68
ATOM     68  C   UNL A   1      32.810  27.655  26.191  1.00  0.00     0.042 C 
BRANCH  68  69
ATOM     69  C   UNL A   1      33.118  26.504  25.238  1.00  0.00     0.117 C 
BRANCH  69  70
ATOM     70  N   UNL A   1      33.494  26.986  23.925  1.00  0.00    -0.355 N 
ATOM     71  C   UNL A   1      33.340  26.487  22.672  1.00  0.00     0.229 C 
ATOM     72  H   UNL A   1      33.958  27.855  23.945  1.00  0.00     0.163 HD
ATOM     73  O   UNL A   1      33.795  27.201  21.768  1.00  0.00    -0.274 OA
BRANCH  71  74
ATOM     74  C   UNL A   1      32.603  25.181  22.331  1.00  0.00     0.127 C 
ATOM     75  C   UNL A   1      31.189  24.896  22.873  1.00  0.00     0.042 C 
ATOM     76  C   UNL A   1      33.340  23.986  22.857  1.00  0.00     0.031 A 
ATOM     77  C   UNL A   1      31.094  23.382  23.060  1.00  0.00     0.124 C 
ATOM     78  N   UNL A   1      32.478  23.009  23.280  1.00  0.00    -0.341 N 
ATOM     79  C   UNL A   1      34.617  23.532  23.043  1.00  0.00     0.025 A 
ATOM     80  C   UNL A   1      33.134  21.951  23.832  1.00  0.00     0.090 A 
ATOM     81  C   UNL A   1      34.487  22.255  23.658  1.00  0.00     0.032 A 
BRANCH  80  82
ATOM     82  C   UNL A   1      32.610  20.767  24.501  1.00  0.00     0.209 C 
ATOM     83  O   UNL A   1      31.746  20.818  25.375  1.00  0.00    -0.287 OA
BRANCH  82  84
ATOM     84  C   UNL A   1      33.066  19.417  24.108  1.00  0.00     0.024 A 
ATOM     85  C   UNL A   1      32.386  18.749  23.085  1.00  0.00     0.012 A 
ATOM     86  C   UNL A   1      34.159  18.817  24.745  1.00  0.00     0.012 A 
ATOM     87  C   UNL A   1      32.840  17.501  22.655  1.00  0.00     0.001 A 
ATOM     88  C   UNL A   1      34.621  17.579  24.296  1.00  0.00     0.001 A 
ATOM     89  C   UNL A   1      33.967  16.927  23.249  1.00  0.00     0.000 A 
ENDBRANCH  82  84
ENDBRANCH  80  82
ENDBRANCH  71  74
ENDBRANCH  69  70
ENDBRANCH  68  69
ENDBRANCH   1  68
TORSDOF 15
ENDMDL
