MODEL 1
REMARK VINA RESULT:     -10.5      0.000      0.000
REMARK SMILES CC[N@@H+]1CCO[C@H](C[NH2+][C@@H]2CCC[C@H](C(=O)NCCCNC(=O)c3ccc(-c4c5nc(c(-c6ccc(S(=O)(=O)[O-])cc6)c6ccc([nH]6)c(-c6ccc(S(=O)(=O)[O-])cc6)c6nc(c(-c7ccc(S(=O)(=O)[O-])cc7)c7ccc4[nH]7)C=C6)C=C5)cc3)C2)C1
REMARK SMILES IDX 18 1 17 2 15 3 16 4 14 6 10 7 11 8 84 9 12 10 13 11 9 12
REMARK SMILES IDX 8 15 7 16 3 17 4 18 85 19 5 21 6 22 2 23 1 24 19 25 20 26
REMARK SMILES IDX 21 27 22 28 23 30 24 31 25 32 83 33 26 34 82 35 27 36 28 37
REMARK SMILES IDX 29 38 76 39 30 40 81 41 75 42 77 43 31 44 80 45 74 46 73 47
REMARK SMILES IDX 32 49 62 50 43 51 61 52 44 53 47 54 60 55 78 56 45 57 46 58
REMARK SMILES IDX 59 60 79 61 48 62 33 63 34 64 42 65 35 66 41 67 36 68 37 69
REMARK SMILES IDX 38 70 39 71 40 72 63 73 64 74 72 75 65 76 71 77 66 78 67 79
REMARK SMILES IDX 68 80 69 81 70 82 49 83 50 84 58 85 51 86 57 87 52 88 53 89
REMARK SMILES IDX 54 90 55 91 56 92
REMARK H PARENT 17 5 9 13 9 14 3 20 21 29 77 48 47 59
REMARK Flexibility Score: inf
ROOT
ATOM      1  C   UNL A   1      34.488  24.339  25.544  1.00  0.00     0.117 C 
ENDROOT
BRANCH   1   2
ATOM      2  N   UNL A   1      34.473  24.270  24.088  1.00  0.00    -0.356 N 
ATOM      3  C   UNL A   1      33.479  23.887  23.239  1.00  0.00     0.223 C 
ATOM      4  O   UNL A   1      33.692  23.919  22.027  1.00  0.00    -0.275 OA
ATOM      5  H   UNL A   1      35.312  24.544  23.650  1.00  0.00     0.163 HD
BRANCH   3   6
ATOM      6  C   UNL A   1      32.134  23.434  23.785  1.00  0.00     0.084 C 
ATOM      7  C   UNL A   1      30.450  24.492  25.503  1.00  0.00     0.183 C 
ATOM      8  C   UNL A   1      30.737  23.270  26.387  1.00  0.00     0.065 C 
ATOM      9  C   UNL A   1      31.324  24.655  24.251  1.00  0.00     0.078 C 
ATOM     10  C   UNL A   1      31.069  22.028  25.586  1.00  0.00     0.007 C 
ATOM     11  C   UNL A   1      32.322  22.285  24.775  1.00  0.00     0.014 C 
BRANCH   7  12
ATOM     12  N   UNL A   1      30.480  25.660  26.398  1.00  0.00    -0.341 N 
ATOM     13  H   UNL A   1      29.673  26.241  26.171  1.00  0.00     0.346 HD
ATOM     14  H   UNL A   1      30.481  25.268  27.340  1.00  0.00     0.346 HD
BRANCH  12  15
ATOM     15  C   UNL A   1      31.663  26.512  26.346  1.00  0.00     0.299 C 
BRANCH  15  16
ATOM     16  C   UNL A   1      31.542  28.064  26.465  1.00  0.00     0.227 C 
ATOM     17  N   UNL A   1      33.251  29.384  24.983  1.00  0.00    -0.331 N 
ATOM     18  C   UNL A   1      33.886  29.718  26.275  1.00  0.00     0.291 C 
ATOM     19  C   UNL A   1      31.841  28.989  25.248  1.00  0.00     0.300 C 
ATOM     20  H   UNL A   1      33.283  30.209  24.384  1.00  0.00     0.348 HD
ATOM     21  C   UNL A   1      33.657  28.668  27.373  1.00  0.00     0.222 C 
ATOM     22  O   UNL A   1      32.260  28.511  27.636  1.00  0.00    -0.361 OA
BRANCH  17  23
ATOM     23  C   UNL A   1      33.964  28.348  24.241  1.00  0.00     0.258 C 
ATOM     24  C   UNL A   1      33.226  27.701  23.078  1.00  0.00     0.071 C 
ENDBRANCH  17  23
ENDBRANCH  15  16
ENDBRANCH  12  15
ENDBRANCH   7  12
ENDBRANCH   3   6
ENDBRANCH   1   2
BRANCH   1  25
ATOM     25  C   UNL A   1      35.772  23.794  26.134  1.00  0.00     0.042 C 
BRANCH  25  26
ATOM     26  C   UNL A   1      36.897  23.698  25.122  1.00  0.00     0.118 C 
BRANCH  26  27
ATOM     27  N   UNL A   1      37.914  22.732  25.510  1.00  0.00    -0.352 N 
ATOM     28  C   UNL A   1      39.102  22.932  26.171  1.00  0.00     0.251 C 
ATOM     29  H   UNL A   1      37.723  21.798  25.262  1.00  0.00     0.163 HD
ATOM     30  O   UNL A   1      39.927  22.028  26.229  1.00  0.00    -0.269 OA
BRANCH  28  31
ATOM     31  C   UNL A   1      39.382  24.245  26.788  1.00  0.00     0.039 A 
ATOM     32  C   UNL A   1      38.965  24.480  28.100  1.00  0.00     0.014 A 
ATOM     33  C   UNL A   1      40.065  25.238  26.081  1.00  0.00     0.014 A 
ATOM     34  C   UNL A   1      39.296  25.685  28.721  1.00  0.00     0.010 A 
ATOM     35  C   UNL A   1      40.487  26.387  26.735  1.00  0.00     0.010 A 
ATOM     36  C   UNL A   1      40.095  26.632  28.057  1.00  0.00    -0.014 A 
BRANCH  36  37
ATOM     37  C   UNL A   1      40.513  27.891  28.722  1.00  0.00     0.031 A 
ATOM     38  C   UNL A   1      41.904  28.017  29.287  1.00  0.00     0.074 A 
ATOM     39  C   UNL A   1      39.630  28.902  28.855  1.00  0.00     0.049 A 
ATOM     40  N   UNL A   1      42.440  29.016  29.939  1.00  0.00    -0.248 NA
ATOM     41  C   UNL A   1      42.803  26.862  29.118  1.00  0.00     0.031 C 
ATOM     42  C   UNL A   1      38.243  28.887  28.382  1.00  0.00     0.029 A 
ATOM     43  N   UNL A   1      39.769  30.142  29.427  1.00  0.00    -0.354 N 
ATOM     44  C   UNL A   1      43.731  28.609  30.257  1.00  0.00     0.074 A 
ATOM     45  C   UNL A   1      43.876  27.249  29.791  1.00  0.00     0.031 C 
ATOM     46  C   UNL A   1      37.676  30.077  28.642  1.00  0.00     0.029 A 
ATOM     47  C   UNL A   1      38.637  30.919  29.344  1.00  0.00     0.049 A 
ATOM     48  H   UNL A   1      40.602  30.447  29.854  1.00  0.00     0.167 HD
ATOM     49  C   UNL A   1      44.721  29.315  30.853  1.00  0.00     0.031 A 
ATOM     50  C   UNL A   1      38.400  32.168  29.790  1.00  0.00     0.031 A 
ATOM     51  C   UNL A   1      44.576  30.671  31.311  1.00  0.00     0.049 A 
ATOM     52  C   UNL A   1      39.503  32.912  30.494  1.00  0.00     0.074 A 
ATOM     53  C   UNL A   1      45.526  31.483  31.905  1.00  0.00     0.029 A 
ATOM     54  N   UNL A   1      43.410  31.416  31.222  1.00  0.00    -0.354 N 
ATOM     55  N   UNL A   1      40.734  32.528  30.738  1.00  0.00    -0.248 NA
ATOM     56  C   UNL A   1      39.188  34.265  30.974  1.00  0.00     0.031 C 
ATOM     57  C   UNL A   1      44.919  32.703  32.222  1.00  0.00     0.029 A 
ATOM     58  C   UNL A   1      43.611  32.672  31.766  1.00  0.00     0.049 A 
ATOM     59  H   UNL A   1      42.565  31.098  30.830  1.00  0.00     0.167 HD
ATOM     60  C   UNL A   1      41.349  33.607  31.363  1.00  0.00     0.074 A 
ATOM     61  C   UNL A   1      40.362  34.662  31.446  1.00  0.00     0.031 C 
ATOM     62  C   UNL A   1      42.619  33.715  31.827  1.00  0.00     0.031 A 
BRANCH  49  63
ATOM     63  C   UNL A   1      46.053  28.637  31.030  1.00  0.00    -0.014 A 
ATOM     64  C   UNL A   1      47.055  28.749  30.049  1.00  0.00     0.010 A 
ATOM     65  C   UNL A   1      46.332  27.927  32.212  1.00  0.00     0.010 A 
ATOM     66  C   UNL A   1      48.298  28.138  30.229  1.00  0.00     0.020 A 
ATOM     67  C   UNL A   1      47.586  27.340  32.412  1.00  0.00     0.020 A 
ATOM     68  C   UNL A   1      48.556  27.439  31.412  1.00  0.00     0.054 A 
BRANCH  68  69
ATOM     69  S   UNL A   1      50.195  26.695  31.636  1.00  0.00     0.124 S 
ATOM     70  O   UNL A   1      50.730  26.729  30.277  1.00  0.00    -0.237 OA
ATOM     71  O   UNL A   1      50.831  27.606  32.585  1.00  0.00    -0.237 OA
ATOM     72  O   UNL A   1      49.903  25.361  32.158  1.00  0.00    -0.744 OA
ENDBRANCH  68  69
ENDBRANCH  49  63
BRANCH  50  73
ATOM     73  C   UNL A   1      37.069  32.805  29.581  1.00  0.00    -0.014 A 
ATOM     74  C   UNL A   1      36.711  33.315  28.319  1.00  0.00     0.010 A 
ATOM     75  C   UNL A   1      36.163  32.936  30.650  1.00  0.00     0.010 A 
ATOM     76  C   UNL A   1      35.495  33.980  28.142  1.00  0.00     0.020 A 
ATOM     77  C   UNL A   1      34.931  33.570  30.467  1.00  0.00     0.020 A 
ATOM     78  C   UNL A   1      34.614  34.107  29.219  1.00  0.00     0.054 A 
BRANCH  78  79
ATOM     79  S   UNL A   1      33.038  34.970  28.965  1.00  0.00     0.124 S 
ATOM     80  O   UNL A   1      32.393  34.132  27.960  1.00  0.00    -0.237 OA
ATOM     81  O   UNL A   1      32.442  34.937  30.297  1.00  0.00    -0.237 OA
ATOM     82  O   UNL A   1      33.447  36.296  28.506  1.00  0.00    -0.744 OA
ENDBRANCH  78  79
ENDBRANCH  50  73
BRANCH  62  83
ATOM     83  C   UNL A   1      43.031  35.038  32.419  1.00  0.00    -0.014 A 
ATOM     84  C   UNL A   1      43.586  36.056  31.625  1.00  0.00     0.010 A 
ATOM     85  C   UNL A   1      42.807  35.280  33.788  1.00  0.00     0.010 A 
ATOM     86  C   UNL A   1      43.942  37.282  32.197  1.00  0.00     0.020 A 
ATOM     87  C   UNL A   1      43.129  36.515  34.356  1.00  0.00     0.020 A 
ATOM     88  C   UNL A   1      43.709  37.503  33.558  1.00  0.00     0.054 A 
BRANCH  88  89
ATOM     89  S   UNL A   1      44.137  39.118  34.262  1.00  0.00     0.124 S 
ATOM     90  O   UNL A   1      45.449  39.369  33.674  1.00  0.00    -0.237 OA
ATOM     91  O   UNL A   1      43.057  39.974  33.778  1.00  0.00    -0.237 OA
ATOM     92  O   UNL A   1      44.136  38.879  35.704  1.00  0.00    -0.744 OA
ENDBRANCH  88  89
ENDBRANCH  62  83
ENDBRANCH  36  37
ENDBRANCH  28  31
ENDBRANCH  26  27
ENDBRANCH  25  26
ENDBRANCH   1  25
TORSDOF 17
ENDMDL
MODEL 2
REMARK VINA RESULT:     -10.1      3.791      5.474
REMARK SMILES CC[N@@H+]1CCO[C@H](C[NH2+][C@@H]2CCC[C@H](C(=O)NCCCNC(=O)c3ccc(-c4c5nc(c(-c6ccc(S(=O)(=O)[O-])cc6)c6ccc([nH]6)c(-c6ccc(S(=O)(=O)[O-])cc6)c6nc(c(-c7ccc(S(=O)(=O)[O-])cc7)c7ccc4[nH]7)C=C6)C=C5)cc3)C2)C1
REMARK SMILES IDX 18 1 17 2 15 3 16 4 14 6 10 7 11 8 84 9 12 10 13 11 9 12
REMARK SMILES IDX 8 15 7 16 3 17 4 18 85 19 5 21 6 22 2 23 1 24 19 25 20 26
REMARK SMILES IDX 21 27 22 28 23 30 24 31 25 32 83 33 26 34 82 35 27 36 28 37
REMARK SMILES IDX 29 38 76 39 30 40 81 41 75 42 77 43 31 44 80 45 74 46 73 47
REMARK SMILES IDX 32 49 62 50 43 51 61 52 44 53 47 54 60 55 78 56 45 57 46 58
REMARK SMILES IDX 59 60 79 61 48 62 33 63 34 64 42 65 35 66 41 67 36 68 37 69
REMARK SMILES IDX 38 70 39 71 40 72 63 73 64 74 72 75 65 76 71 77 66 78 67 79
REMARK SMILES IDX 68 80 69 81 70 82 49 83 50 84 58 85 51 86 57 87 52 88 53 89
REMARK SMILES IDX 54 90 55 91 56 92
REMARK H PARENT 17 5 9 13 9 14 3 20 21 29 77 48 47 59
REMARK Flexibility Score: inf
ROOT
ATOM      1  C   UNL A   1      38.308  22.188  25.802  1.00  0.00     0.117 C 
ENDROOT
BRANCH   1   2
ATOM      2  N   UNL A   1      37.625  22.434  24.538  1.00  0.00    -0.356 N 
ATOM      3  C   UNL A   1      36.377  22.928  24.299  1.00  0.00     0.223 C 
ATOM      4  O   UNL A   1      36.008  23.060  23.132  1.00  0.00    -0.275 OA
ATOM      5  H   UNL A   1      38.145  22.209  23.733  1.00  0.00     0.163 HD
BRANCH   3   6
ATOM      6  C   UNL A   1      35.466  23.308  25.455  1.00  0.00     0.084 C 
ATOM      7  C   UNL A   1      33.280  22.234  26.442  1.00  0.00     0.183 C 
ATOM      8  C   UNL A   1      32.570  23.528  26.018  1.00  0.00     0.065 C 
ATOM      9  C   UNL A   1      34.731  22.061  25.971  1.00  0.00     0.078 C 
ATOM     10  C   UNL A   1      33.480  24.738  26.059  1.00  0.00     0.007 C 
ATOM     11  C   UNL A   1      34.623  24.530  25.087  1.00  0.00     0.014 C 
BRANCH   7  12
ATOM     12  N   UNL A   1      32.394  21.131  26.036  1.00  0.00    -0.341 N 
ATOM     13  H   UNL A   1      31.712  20.995  26.783  1.00  0.00     0.346 HD
ATOM     14  H   UNL A   1      32.003  21.425  25.140  1.00  0.00     0.346 HD
BRANCH  12  15
ATOM     15  C   UNL A   1      33.014  19.838  25.768  1.00  0.00     0.299 C 
BRANCH  15  16
ATOM     16  C   UNL A   1      33.235  19.339  24.305  1.00  0.00     0.227 C 
ATOM     17  N   UNL A   1      32.796  16.779  23.973  1.00  0.00    -0.331 N 
ATOM     18  C   UNL A   1      34.263  16.700  23.815  1.00  0.00     0.291 C 
ATOM     19  C   UNL A   1      32.377  18.183  23.713  1.00  0.00     0.300 C 
ATOM     20  H   UNL A   1      32.363  16.147  23.299  1.00  0.00     0.348 HD
ATOM     21  C   UNL A   1      35.031  17.800  24.562  1.00  0.00     0.222 C 
ATOM     22  O   UNL A   1      34.643  19.093  24.092  1.00  0.00    -0.361 OA
BRANCH  17  23
ATOM     23  C   UNL A   1      32.331  16.317  25.278  1.00  0.00     0.258 C 
ATOM     24  C   UNL A   1      32.571  14.854  25.618  1.00  0.00     0.071 C 
ENDBRANCH  17  23
ENDBRANCH  15  16
ENDBRANCH  12  15
ENDBRANCH   7  12
ENDBRANCH   3   6
ENDBRANCH   1   2
BRANCH   1  25
ATOM     25  C   UNL A   1      38.992  23.430  26.338  1.00  0.00     0.042 C 
BRANCH  25  26
ATOM     26  C   UNL A   1      40.353  23.145  26.941  1.00  0.00     0.118 C 
BRANCH  26  27
ATOM     27  N   UNL A   1      41.443  23.648  26.117  1.00  0.00    -0.352 N 
ATOM     28  C   UNL A   1      42.014  24.898  26.093  1.00  0.00     0.251 C 
ATOM     29  H   UNL A   1      41.825  22.999  25.483  1.00  0.00     0.163 HD
ATOM     30  O   UNL A   1      42.783  25.199  25.188  1.00  0.00    -0.269 OA
BRANCH  28  31
ATOM     31  C   UNL A   1      41.677  25.875  27.149  1.00  0.00     0.039 A 
ATOM     32  C   UNL A   1      40.875  25.467  28.217  1.00  0.00     0.014 A 
ATOM     33  C   UNL A   1      42.160  27.185  27.094  1.00  0.00     0.014 A 
ATOM     34  C   UNL A   1      40.618  26.356  29.262  1.00  0.00     0.010 A 
ATOM     35  C   UNL A   1      41.995  28.029  28.184  1.00  0.00     0.010 A 
ATOM     36  C   UNL A   1      41.210  27.631  29.273  1.00  0.00    -0.014 A 
BRANCH  36  37
ATOM     37  C   UNL A   1      41.002  28.568  30.406  1.00  0.00     0.031 A 
ATOM     38  C   UNL A   1      41.878  28.474  31.628  1.00  0.00     0.074 A 
ATOM     39  C   UNL A   1      40.002  29.472  30.352  1.00  0.00     0.049 A 
ATOM     40  N   UNL A   1      41.825  29.172  32.733  1.00  0.00    -0.248 NA
ATOM     41  C   UNL A   1      42.936  27.449  31.618  1.00  0.00     0.031 C 
ATOM     42  C   UNL A   1      39.065  29.636  29.237  1.00  0.00     0.029 A 
ATOM     43  N   UNL A   1      39.609  30.425  31.256  1.00  0.00    -0.354 N 
ATOM     44  C   UNL A   1      42.836  28.670  33.545  1.00  0.00     0.074 A 
ATOM     45  C   UNL A   1      43.440  27.564  32.838  1.00  0.00     0.031 C 
ATOM     46  C   UNL A   1      38.237  30.659  29.506  1.00  0.00     0.029 A 
ATOM     47  C   UNL A   1      38.548  31.189  30.828  1.00  0.00     0.049 A 
ATOM     48  H   UNL A   1      40.047  30.552  32.129  1.00  0.00     0.167 HD
ATOM     49  C   UNL A   1      43.249  29.110  34.757  1.00  0.00     0.031 A 
ATOM     50  C   UNL A   1      37.896  32.199  31.436  1.00  0.00     0.031 A 
ATOM     51  C   UNL A   1      42.650  30.215  35.456  1.00  0.00     0.049 A 
ATOM     52  C   UNL A   1      38.345  32.636  32.805  1.00  0.00     0.074 A 
ATOM     53  C   UNL A   1      43.011  30.756  36.678  1.00  0.00     0.029 A 
ATOM     54  N   UNL A   1      41.569  30.951  34.995  1.00  0.00    -0.354 N 
ATOM     55  N   UNL A   1      39.337  32.181  33.534  1.00  0.00    -0.248 NA
ATOM     56  C   UNL A   1      37.590  33.732  33.431  1.00  0.00     0.031 C 
ATOM     57  C   UNL A   1      42.115  31.786  36.980  1.00  0.00     0.029 A 
ATOM     58  C   UNL A   1      41.238  31.930  35.916  1.00  0.00     0.049 A 
ATOM     59  H   UNL A   1      41.106  30.799  34.140  1.00  0.00     0.167 HD
ATOM     60  C   UNL A   1      39.350  32.962  34.684  1.00  0.00     0.074 A 
ATOM     61  C   UNL A   1      38.278  33.926  34.548  1.00  0.00     0.031 C 
ATOM     62  C   UNL A   1      40.176  32.890  35.757  1.00  0.00     0.031 A 
BRANCH  49  63
ATOM     63  C   UNL A   1      44.415  28.404  35.397  1.00  0.00    -0.014 A 
ATOM     64  C   UNL A   1      44.218  27.255  36.184  1.00  0.00     0.010 A 
ATOM     65  C   UNL A   1      45.727  28.856  35.166  1.00  0.00     0.010 A 
ATOM     66  C   UNL A   1      45.305  26.590  36.755  1.00  0.00     0.020 A 
ATOM     67  C   UNL A   1      46.821  28.175  35.710  1.00  0.00     0.020 A 
ATOM     68  C   UNL A   1      46.601  27.053  36.511  1.00  0.00     0.054 A 
BRANCH  68  69
ATOM     69  S   UNL A   1      47.994  26.141  37.230  1.00  0.00     0.124 S 
ATOM     70  O   UNL A   1      47.727  26.261  38.661  1.00  0.00    -0.237 OA
ATOM     71  O   UNL A   1      47.822  24.803  36.669  1.00  0.00    -0.237 OA
ATOM     72  O   UNL A   1      49.168  26.868  36.753  1.00  0.00    -0.744 OA
ENDBRANCH  68  69
ENDBRANCH  49  63
BRANCH  50  73
ATOM     73  C   UNL A   1      36.755  32.878  30.760  1.00  0.00    -0.014 A 
ATOM     74  C   UNL A   1      36.987  33.893  29.813  1.00  0.00     0.010 A 
ATOM     75  C   UNL A   1      35.428  32.538  31.082  1.00  0.00     0.010 A 
ATOM     76  C   UNL A   1      35.917  34.582  29.236  1.00  0.00     0.020 A 
ATOM     77  C   UNL A   1      34.355  33.201  30.480  1.00  0.00     0.020 A 
ATOM     78  C   UNL A   1      34.607  34.235  29.576  1.00  0.00     0.054 A 
BRANCH  78  79
ATOM     79  S   UNL A   1      33.234  35.139  28.810  1.00  0.00     0.124 S 
ATOM     80  O   UNL A   1      33.935  36.174  28.058  1.00  0.00    -0.237 OA
ATOM     81  O   UNL A   1      32.582  34.106  28.011  1.00  0.00    -0.237 OA
ATOM     82  O   UNL A   1      32.457  35.613  29.955  1.00  0.00    -0.744 OA
ENDBRANCH  78  79
ENDBRANCH  50  73
BRANCH  62  83
ATOM     83  C   UNL A   1      39.988  33.911  36.848  1.00  0.00    -0.014 A 
ATOM     84  C   UNL A   1      40.635  35.159  36.804  1.00  0.00     0.010 A 
ATOM     85  C   UNL A   1      39.106  33.634  37.909  1.00  0.00     0.010 A 
ATOM     86  C   UNL A   1      40.428  36.097  37.819  1.00  0.00     0.020 A 
ATOM     87  C   UNL A   1      38.870  34.581  38.907  1.00  0.00     0.020 A 
ATOM     88  C   UNL A   1      39.545  35.802  38.863  1.00  0.00     0.054 A 
BRANCH  88  89
ATOM     89  S   UNL A   1      39.259  37.056  40.142  1.00  0.00     0.124 S 
ATOM     90  O   UNL A   1      40.622  37.412  40.528  1.00  0.00    -0.237 OA
ATOM     91  O   UNL A   1      38.521  38.087  39.419  1.00  0.00    -0.237 OA
ATOM     92  O   UNL A   1      38.490  36.344  41.160  1.00  0.00    -0.744 OA
ENDBRANCH  88  89
ENDBRANCH  62  83
ENDBRANCH  36  37
ENDBRANCH  28  31
ENDBRANCH  26  27
ENDBRANCH  25  26
ENDBRANCH   1  25
TORSDOF 17
ENDMDL
MODEL 3
REMARK VINA RESULT:     -10.1      3.782      5.189
REMARK SMILES CC[N@@H+]1CCO[C@H](C[NH2+][C@@H]2CCC[C@H](C(=O)NCCCNC(=O)c3ccc(-c4c5nc(c(-c6ccc(S(=O)(=O)[O-])cc6)c6ccc([nH]6)c(-c6ccc(S(=O)(=O)[O-])cc6)c6nc(c(-c7ccc(S(=O)(=O)[O-])cc7)c7ccc4[nH]7)C=C6)C=C5)cc3)C2)C1
REMARK SMILES IDX 18 1 17 2 15 3 16 4 14 6 10 7 11 8 84 9 12 10 13 11 9 12
REMARK SMILES IDX 8 15 7 16 3 17 4 18 85 19 5 21 6 22 2 23 1 24 19 25 20 26
REMARK SMILES IDX 21 27 22 28 23 30 24 31 25 32 83 33 26 34 82 35 27 36 28 37
REMARK SMILES IDX 29 38 76 39 30 40 81 41 75 42 77 43 31 44 80 45 74 46 73 47
REMARK SMILES IDX 32 49 62 50 43 51 61 52 44 53 47 54 60 55 78 56 45 57 46 58
REMARK SMILES IDX 59 60 79 61 48 62 33 63 34 64 42 65 35 66 41 67 36 68 37 69
REMARK SMILES IDX 38 70 39 71 40 72 63 73 64 74 72 75 65 76 71 77 66 78 67 79
REMARK SMILES IDX 68 80 69 81 70 82 49 83 50 84 58 85 51 86 57 87 52 88 53 89
REMARK SMILES IDX 54 90 55 91 56 92
REMARK H PARENT 17 5 9 13 9 14 3 20 21 29 77 48 47 59
REMARK Flexibility Score: inf
ROOT
ATOM      1  C   UNL A   1      37.313  21.500  24.858  1.00  0.00     0.117 C 
ENDROOT
BRANCH   1   2
ATOM      2  N   UNL A   1      36.263  21.632  25.861  1.00  0.00    -0.356 N 
ATOM      3  C   UNL A   1      34.914  21.741  25.706  1.00  0.00     0.223 C 
ATOM      4  O   UNL A   1      34.210  21.833  26.713  1.00  0.00    -0.275 OA
ATOM      5  H   UNL A   1      36.578  21.643  26.794  1.00  0.00     0.163 HD
BRANCH   3   6
ATOM      6  C   UNL A   1      34.296  21.744  24.317  1.00  0.00     0.084 C 
ATOM      7  C   UNL A   1      32.888  23.520  22.987  1.00  0.00     0.183 C 
ATOM      8  C   UNL A   1      31.743  22.497  23.026  1.00  0.00     0.065 C 
ATOM      9  C   UNL A   1      34.132  23.190  23.824  1.00  0.00     0.078 C 
ATOM     10  C   UNL A   1      32.235  21.064  23.036  1.00  0.00     0.007 C 
ATOM     11  C   UNL A   1      33.066  20.836  24.281  1.00  0.00     0.014 C 
BRANCH   7  12
ATOM     12  N   UNL A   1      32.284  24.821  23.318  1.00  0.00    -0.341 N 
ATOM     13  H   UNL A   1      31.678  25.084  22.540  1.00  0.00     0.346 HD
ATOM     14  H   UNL A   1      31.807  24.670  24.207  1.00  0.00     0.346 HD
BRANCH  12  15
ATOM     15  C   UNL A   1      33.191  25.937  23.563  1.00  0.00     0.299 C 
BRANCH  15  16
ATOM     16  C   UNL A   1      32.869  27.367  23.029  1.00  0.00     0.227 C 
ATOM     17  N   UNL A   1      33.414  29.288  24.724  1.00  0.00    -0.331 N 
ATOM     18  C   UNL A   1      31.945  29.411  24.827  1.00  0.00     0.291 C 
ATOM     19  C   UNL A   1      33.733  28.594  23.447  1.00  0.00     0.300 C 
ATOM     20  H   UNL A   1      33.820  30.224  24.732  1.00  0.00     0.348 HD
ATOM     21  C   UNL A   1      31.188  28.106  24.542  1.00  0.00     0.222 C 
ATOM     22  O   UNL A   1      31.463  27.643  23.218  1.00  0.00    -0.361 OA
BRANCH  17  23
ATOM     23  C   UNL A   1      34.017  28.605  25.866  1.00  0.00     0.258 C 
ATOM     24  C   UNL A   1      33.784  29.219  27.238  1.00  0.00     0.071 C 
ENDBRANCH  17  23
ENDBRANCH  15  16
ENDBRANCH  12  15
ENDBRANCH   7  12
ENDBRANCH   3   6
ENDBRANCH   1   2
BRANCH   1  25
ATOM     25  C   UNL A   1      38.187  20.286  25.095  1.00  0.00     0.042 C 
BRANCH  25  26
ATOM     26  C   UNL A   1      39.302  20.542  26.089  1.00  0.00     0.118 C 
BRANCH  26  27
ATOM     27  N   UNL A   1      40.305  19.486  26.085  1.00  0.00    -0.352 N 
ATOM     28  C   UNL A   1      41.675  19.581  26.129  1.00  0.00     0.251 C 
ATOM     29  H   UNL A   1      39.949  18.569  26.044  1.00  0.00     0.163 HD
ATOM     30  O   UNL A   1      42.362  18.591  25.909  1.00  0.00    -0.269 OA
BRANCH  28  31
ATOM     31  C   UNL A   1      42.306  20.886  26.420  1.00  0.00     0.039 A 
ATOM     32  C   UNL A   1      42.610  21.742  25.359  1.00  0.00     0.014 A 
ATOM     33  C   UNL A   1      42.586  21.270  27.734  1.00  0.00     0.014 A 
ATOM     34  C   UNL A   1      43.130  23.009  25.626  1.00  0.00     0.010 A 
ATOM     35  C   UNL A   1      42.999  22.568  28.002  1.00  0.00     0.010 A 
ATOM     36  C   UNL A   1      43.290  23.448  26.952  1.00  0.00    -0.014 A 
BRANCH  36  37
ATOM     37  C   UNL A   1      43.780  24.814  27.259  1.00  0.00     0.031 A 
ATOM     38  C   UNL A   1      45.233  25.156  27.049  1.00  0.00     0.074 A 
ATOM     39  C   UNL A   1      42.931  25.732  27.764  1.00  0.00     0.049 A 
ATOM     40  N   UNL A   1      45.858  26.278  27.298  1.00  0.00    -0.248 NA
ATOM     41  C   UNL A   1      46.101  24.094  26.511  1.00  0.00     0.031 C 
ATOM     42  C   UNL A   1      41.510  25.511  28.046  1.00  0.00     0.029 A 
ATOM     43  N   UNL A   1      43.139  27.038  28.129  1.00  0.00    -0.354 N 
ATOM     44  C   UNL A   1      47.186  26.054  26.950  1.00  0.00     0.074 A 
ATOM     45  C   UNL A   1      47.292  24.673  26.541  1.00  0.00     0.031 C 
ATOM     46  C   UNL A   1      40.967  26.654  28.496  1.00  0.00     0.029 A 
ATOM     47  C   UNL A   1      42.006  27.672  28.584  1.00  0.00     0.049 A 
ATOM     48  H   UNL A   1      44.017  27.480  28.069  1.00  0.00     0.167 HD
ATOM     49  C   UNL A   1      48.219  26.929  26.938  1.00  0.00     0.031 A 
ATOM     50  C   UNL A   1      41.828  28.932  29.026  1.00  0.00     0.031 A 
ATOM     51  C   UNL A   1      48.110  28.305  27.341  1.00  0.00     0.049 A 
ATOM     52  C   UNL A   1      43.005  29.870  29.051  1.00  0.00     0.074 A 
ATOM     53  C   UNL A   1      49.092  29.281  27.342  1.00  0.00     0.029 A 
ATOM     54  N   UNL A   1      46.949  28.903  27.808  1.00  0.00    -0.354 N 
ATOM     55  N   UNL A   1      44.242  29.653  28.667  1.00  0.00    -0.248 NA
ATOM     56  C   UNL A   1      42.761  31.228  29.557  1.00  0.00     0.031 C 
ATOM     57  C   UNL A   1      48.537  30.456  27.860  1.00  0.00     0.029 A 
ATOM     58  C   UNL A   1      47.195  30.230  28.118  1.00  0.00     0.049 A 
ATOM     59  H   UNL A   1      46.081  28.451  27.905  1.00  0.00     0.167 HD
ATOM     60  C   UNL A   1      44.910  30.859  28.850  1.00  0.00     0.074 A 
ATOM     61  C   UNL A   1      43.939  31.803  29.362  1.00  0.00     0.031 C 
ATOM     62  C   UNL A   1      46.212  31.159  28.614  1.00  0.00     0.031 A 
BRANCH  49  63
ATOM     63  C   UNL A   1      49.556  26.425  26.461  1.00  0.00    -0.014 A 
ATOM     64  C   UNL A   1      49.978  26.646  25.138  1.00  0.00     0.010 A 
ATOM     65  C   UNL A   1      50.424  25.773  27.355  1.00  0.00     0.010 A 
ATOM     66  C   UNL A   1      51.229  26.198  24.707  1.00  0.00     0.020 A 
ATOM     67  C   UNL A   1      51.690  25.350  26.938  1.00  0.00     0.020 A 
ATOM     68  C   UNL A   1      52.079  25.555  25.612  1.00  0.00     0.054 A 
BRANCH  68  69
ATOM     69  S   UNL A   1      53.714  25.025  25.035  1.00  0.00     0.124 S 
ATOM     70  O   UNL A   1      53.605  23.570  25.115  1.00  0.00    -0.237 OA
ATOM     71  O   UNL A   1      53.769  25.577  23.683  1.00  0.00    -0.237 OA
ATOM     72  O   UNL A   1      54.635  25.634  25.992  1.00  0.00    -0.744 OA
ENDBRANCH  68  69
ENDBRANCH  49  63
BRANCH  50  73
ATOM     73  C   UNL A   1      40.484  29.392  29.478  1.00  0.00    -0.014 A 
ATOM     74  C   UNL A   1      39.536  29.851  28.545  1.00  0.00     0.010 A 
ATOM     75  C   UNL A   1      40.154  29.405  30.846  1.00  0.00     0.010 A 
ATOM     76  C   UNL A   1      38.304  30.353  28.974  1.00  0.00     0.020 A 
ATOM     77  C   UNL A   1      38.910  29.874  31.275  1.00  0.00     0.020 A 
ATOM     78  C   UNL A   1      38.001  30.366  30.338  1.00  0.00     0.054 A 
BRANCH  78  79
ATOM     79  S   UNL A   1      36.394  31.017  30.871  1.00  0.00     0.124 S 
ATOM     80  O   UNL A   1      35.622  30.971  29.634  1.00  0.00    -0.237 OA
ATOM     81  O   UNL A   1      35.995  30.065  31.904  1.00  0.00    -0.237 OA
ATOM     82  O   UNL A   1      36.715  32.357  31.360  1.00  0.00    -0.744 OA
ENDBRANCH  78  79
ENDBRANCH  50  73
BRANCH  62  83
ATOM     83  C   UNL A   1      46.652  32.578  28.857  1.00  0.00    -0.014 A 
ATOM     84  C   UNL A   1      46.652  33.534  27.825  1.00  0.00     0.010 A 
ATOM     85  C   UNL A   1      47.021  32.973  30.157  1.00  0.00     0.010 A 
ATOM     86  C   UNL A   1      47.047  34.850  28.082  1.00  0.00     0.020 A 
ATOM     87  C   UNL A   1      47.384  34.295  30.425  1.00  0.00     0.020 A 
ATOM     88  C   UNL A   1      47.408  35.221  29.381  1.00  0.00     0.054 A 
BRANCH  88  89
ATOM     89  S   UNL A   1      47.870  36.947  29.695  1.00  0.00     0.124 S 
ATOM     90  O   UNL A   1      48.043  37.467  28.342  1.00  0.00    -0.237 OA
ATOM     91  O   UNL A   1      46.713  37.460  30.424  1.00  0.00    -0.237 OA
ATOM     92  O   UNL A   1      49.097  36.840  30.482  1.00  0.00    -0.744 OA
ENDBRANCH  88  89
ENDBRANCH  62  83
ENDBRANCH  36  37
ENDBRANCH  28  31
ENDBRANCH  26  27
ENDBRANCH  25  26
ENDBRANCH   1  25
TORSDOF 17
ENDMDL
