MODEL 1
REMARK VINA RESULT:     -10.4      0.000      0.000
REMARK SMILES O=C(C[C@H](C(=O)OC[C@@H]1CCCO1)[NH+]1CCOCC1)NCCCNC(=O)c1ccc(-c2c3nc(c(-c4ccc(S(=O)(=O)[O-])cc4)c4ccc([nH]4)c(-c4ccc(S(=O)(=O)[O-])cc4)c4nc(c(-c5ccc(S(=O)(=O)[O-])cc5)c5ccc2[nH]5)C=C4)C=C3)cc1
REMARK SMILES IDX 21 1 20 2 1 3 2 4 3 6 4 7 14 8 15 9 19 10 16 12 18 13 17 14
REMARK SMILES IDX 5 15 6 16 7 17 8 18 9 19 10 20 13 21 11 22 12 23 22 24 23 25
REMARK SMILES IDX 24 26 25 27 26 29 27 30 28 31 86 32 29 33 85 34 30 35 31 36
REMARK SMILES IDX 32 37 79 38 33 39 84 40 78 41 80 42 34 43 83 44 77 45 76 46
REMARK SMILES IDX 35 48 65 49 46 50 64 51 47 52 50 53 63 54 81 55 48 56 49 57
REMARK SMILES IDX 62 59 82 60 51 61 36 62 37 63 45 64 38 65 44 66 39 67 40 68
REMARK SMILES IDX 41 69 42 70 43 71 66 72 67 73 75 74 68 75 74 76 69 77 70 78
REMARK SMILES IDX 71 79 72 80 73 81 52 82 53 83 61 84 54 85 60 86 55 87 56 88
REMARK SMILES IDX 57 89 58 90 59 91
REMARK H PARENT 20 5 14 11 24 28 80 47 50 58
REMARK Flexibility Score: inf
ROOT
ATOM      1  C   UNL A   1      31.992  26.658  26.487  1.00  0.00     0.117 C 
ENDROOT
BRANCH   1   2
ATOM      2  N   UNL A   1      33.107  25.779  26.199  1.00  0.00    -0.356 N 
ATOM      3  O   UNL A   1      32.103  23.869  26.978  1.00  0.00    -0.275 OA
ATOM      4  C   UNL A   1      33.006  24.416  26.350  1.00  0.00     0.226 C 
ATOM      5  H   UNL A   1      33.957  26.166  25.889  1.00  0.00     0.163 HD
BRANCH   4   6
ATOM      6  C   UNL A   1      34.077  23.624  25.647  1.00  0.00     0.177 C 
BRANCH   6   7
ATOM      7  C   UNL A   1      33.622  22.356  24.892  1.00  0.00     0.304 C 
BRANCH   7   8
ATOM      8  N   UNL A   1      33.072  22.439  23.511  1.00  0.00    -0.319 N 
ATOM      9  C   UNL A   1      33.825  23.343  22.614  1.00  0.00     0.291 C 
ATOM     10  C   UNL A   1      31.634  22.665  23.296  1.00  0.00     0.291 C 
ATOM     11  H   UNL A   1      33.209  21.458  23.269  1.00  0.00     0.348 HD
ATOM     12  C   UNL A   1      33.336  24.806  22.606  1.00  0.00     0.221 C 
ATOM     13  C   UNL A   1      31.180  24.131  23.284  1.00  0.00     0.221 C 
ATOM     14  O   UNL A   1      31.932  24.895  22.337  1.00  0.00    -0.370 OA
ENDBRANCH   7   8
BRANCH   7  15
ATOM     15  C   UNL A   1      34.564  21.177  25.150  1.00  0.00     0.365 C 
ATOM     16  O   UNL A   1      35.513  21.240  25.926  1.00  0.00    -0.245 OA
BRANCH  15  17
ATOM     17  O   UNL A   1      34.190  20.052  24.479  1.00  0.00    -0.459 OA
BRANCH  17  18
ATOM     18  C   UNL A   1      33.362  19.150  25.239  1.00  0.00     0.265 C 
BRANCH  18  19
ATOM     19  C   UNL A   1      33.383  17.730  24.661  1.00  0.00     0.156 C 
ATOM     20  C   UNL A   1      32.554  16.739  25.469  1.00  0.00     0.038 C 
ATOM     21  O   UNL A   1      34.725  17.203  24.588  1.00  0.00    -0.375 OA
ATOM     22  C   UNL A   1      33.295  15.444  25.253  1.00  0.00     0.031 C 
ATOM     23  C   UNL A   1      34.733  15.912  25.214  1.00  0.00     0.161 C 
ENDBRANCH  18  19
ENDBRANCH  17  18
ENDBRANCH  15  17
ENDBRANCH   7  15
ENDBRANCH   6   7
ENDBRANCH   4   6
ENDBRANCH   1   2
BRANCH   1  24
ATOM     24  C   UNL A   1      32.333  28.133  26.399  1.00  0.00     0.042 C 
BRANCH  24  25
ATOM     25  C   UNL A   1      33.566  28.557  27.185  1.00  0.00     0.118 C 
BRANCH  25  26
ATOM     26  N   UNL A   1      33.533  29.936  27.656  1.00  0.00    -0.352 N 
ATOM     27  C   UNL A   1      34.531  30.682  28.244  1.00  0.00     0.251 C 
ATOM     28  H   UNL A   1      32.674  30.402  27.537  1.00  0.00     0.163 HD
ATOM     29  O   UNL A   1      34.296  31.819  28.628  1.00  0.00    -0.269 OA
BRANCH  27  30
ATOM     30  C   UNL A   1      35.875  30.090  28.440  1.00  0.00     0.039 A 
ATOM     31  C   UNL A   1      36.796  30.143  27.391  1.00  0.00     0.014 A 
ATOM     32  C   UNL A   1      36.242  29.524  29.664  1.00  0.00     0.014 A 
ATOM     33  C   UNL A   1      38.110  29.712  27.599  1.00  0.00     0.010 A 
ATOM     34  C   UNL A   1      37.570  29.179  29.896  1.00  0.00     0.010 A 
ATOM     35  C   UNL A   1      38.522  29.272  28.868  1.00  0.00    -0.014 A 
BRANCH  35  36
ATOM     36  C   UNL A   1      39.939  28.920  29.146  1.00  0.00     0.031 A 
ATOM     37  C   UNL A   1      40.869  29.936  29.754  1.00  0.00     0.074 A 
ATOM     38  C   UNL A   1      40.411  27.708  28.788  1.00  0.00     0.049 A 
ATOM     39  N   UNL A   1      42.146  29.831  30.018  1.00  0.00    -0.248 NA
ATOM     40  C   UNL A   1      40.296  31.252  30.081  1.00  0.00     0.031 C 
ATOM     41  C   UNL A   1      39.631  26.650  28.141  1.00  0.00     0.029 A 
ATOM     42  N   UNL A   1      41.666  27.163  28.909  1.00  0.00    -0.354 N 
ATOM     43  C   UNL A   1      42.532  31.068  30.523  1.00  0.00     0.074 A 
ATOM     44  C   UNL A   1      41.367  31.924  30.478  1.00  0.00     0.031 C 
ATOM     45  C   UNL A   1      40.414  25.575  27.954  1.00  0.00     0.029 A 
ATOM     46  C   UNL A   1      41.761  25.878  28.429  1.00  0.00     0.049 A 
ATOM     47  H   UNL A   1      42.427  27.647  29.305  1.00  0.00     0.167 HD
ATOM     48  C   UNL A   1      43.739  31.453  31.003  1.00  0.00     0.031 A 
ATOM     49  C   UNL A   1      42.812  25.036  28.373  1.00  0.00     0.031 A 
ATOM     50  C   UNL A   1      44.894  30.597  31.063  1.00  0.00     0.049 A 
ATOM     51  C   UNL A   1      44.141  25.483  28.916  1.00  0.00     0.074 A 
ATOM     52  C   UNL A   1      46.144  30.875  31.588  1.00  0.00     0.029 A 
ATOM     53  N   UNL A   1      44.942  29.296  30.583  1.00  0.00    -0.354 N 
ATOM     54  N   UNL A   1      44.465  26.634  29.456  1.00  0.00    -0.248 NA
ATOM     55  C   UNL A   1      45.242  24.512  28.858  1.00  0.00     0.031 C 
ATOM     56  C   UNL A   1      46.962  29.759  31.382  1.00  0.00     0.029 A 
ATOM     57  C   UNL A   1      46.205  28.766  30.781  1.00  0.00     0.049 A 
ATOM     58  H   UNL A   1      44.189  28.821  30.165  1.00  0.00     0.167 HD
ATOM     59  C   UNL A   1      45.800  26.515  29.826  1.00  0.00     0.074 A 
ATOM     60  C   UNL A   1      46.217  25.176  29.463  1.00  0.00     0.031 C 
ATOM     61  C   UNL A   1      46.608  27.432  30.415  1.00  0.00     0.031 A 
BRANCH  48  62
ATOM     62  C   UNL A   1      43.868  32.867  31.504  1.00  0.00    -0.014 A 
ATOM     63  C   UNL A   1      43.581  33.192  32.843  1.00  0.00     0.010 A 
ATOM     64  C   UNL A   1      44.315  33.880  30.635  1.00  0.00     0.010 A 
ATOM     65  C   UNL A   1      43.693  34.511  33.292  1.00  0.00     0.020 A 
ATOM     66  C   UNL A   1      44.457  35.195  31.088  1.00  0.00     0.020 A 
ATOM     67  C   UNL A   1      44.126  35.505  32.409  1.00  0.00     0.054 A 
BRANCH  67  68
ATOM     68  S   UNL A   1      44.274  37.205  33.022  1.00  0.00     0.124 S 
ATOM     69  O   UNL A   1      45.459  37.116  33.872  1.00  0.00    -0.237 OA
ATOM     70  O   UNL A   1      44.441  37.976  31.792  1.00  0.00    -0.237 OA
ATOM     71  O   UNL A   1      43.016  37.430  33.729  1.00  0.00    -0.744 OA
ENDBRANCH  67  68
ENDBRANCH  48  62
BRANCH  49  72
ATOM     72  C   UNL A   1      42.643  23.672  27.800  1.00  0.00    -0.014 A 
ATOM     73  C   UNL A   1      42.109  22.632  28.582  1.00  0.00     0.010 A 
ATOM     74  C   UNL A   1      43.005  23.407  26.467  1.00  0.00     0.010 A 
ATOM     75  C   UNL A   1      41.960  21.348  28.049  1.00  0.00     0.020 A 
ATOM     76  C   UNL A   1      42.831  22.131  25.922  1.00  0.00     0.020 A 
ATOM     77  C   UNL A   1      42.319  21.107  26.721  1.00  0.00     0.054 A 
BRANCH  77  78
ATOM     78  S   UNL A   1      42.068  19.445  26.035  1.00  0.00     0.124 S 
ATOM     79  O   UNL A   1      42.859  19.501  24.810  1.00  0.00    -0.237 OA
ATOM     80  O   UNL A   1      42.596  18.585  27.090  1.00  0.00    -0.237 OA
ATOM     81  O   UNL A   1      40.621  19.370  25.845  1.00  0.00    -0.744 OA
ENDBRANCH  77  78
ENDBRANCH  49  72
BRANCH  61  82
ATOM     82  C   UNL A   1      48.016  27.009  30.738  1.00  0.00    -0.014 A 
ATOM     83  C   UNL A   1      49.078  27.268  29.853  1.00  0.00     0.010 A 
ATOM     84  C   UNL A   1      48.285  26.385  31.970  1.00  0.00     0.010 A 
ATOM     85  C   UNL A   1      50.380  26.880  30.182  1.00  0.00     0.020 A 
ATOM     86  C   UNL A   1      49.590  26.022  32.313  1.00  0.00     0.020 A 
ATOM     87  C   UNL A   1      50.627  26.257  31.409  1.00  0.00     0.054 A 
BRANCH  87  88
ATOM     88  S   UNL A   1      52.332  25.798  31.829  1.00  0.00     0.124 S 
ATOM     89  O   UNL A   1      52.180  24.401  32.224  1.00  0.00    -0.237 OA
ATOM     90  O   UNL A   1      53.043  26.023  30.573  1.00  0.00    -0.237 OA
ATOM     91  O   UNL A   1      52.681  26.717  32.909  1.00  0.00    -0.744 OA
ENDBRANCH  87  88
ENDBRANCH  61  82
ENDBRANCH  35  36
ENDBRANCH  27  30
ENDBRANCH  25  26
ENDBRANCH  24  25
ENDBRANCH   1  24
TORSDOF 19
ENDMDL
MODEL 2
REMARK VINA RESULT:     -10.2      4.618      6.944
REMARK SMILES O=C(C[C@H](C(=O)OC[C@@H]1CCCO1)[NH+]1CCOCC1)NCCCNC(=O)c1ccc(-c2c3nc(c(-c4ccc(S(=O)(=O)[O-])cc4)c4ccc([nH]4)c(-c4ccc(S(=O)(=O)[O-])cc4)c4nc(c(-c5ccc(S(=O)(=O)[O-])cc5)c5ccc2[nH]5)C=C4)C=C3)cc1
REMARK SMILES IDX 21 1 20 2 1 3 2 4 3 6 4 7 14 8 15 9 19 10 16 12 18 13 17 14
REMARK SMILES IDX 5 15 6 16 7 17 8 18 9 19 10 20 13 21 11 22 12 23 22 24 23 25
REMARK SMILES IDX 24 26 25 27 26 29 27 30 28 31 86 32 29 33 85 34 30 35 31 36
REMARK SMILES IDX 32 37 79 38 33 39 84 40 78 41 80 42 34 43 83 44 77 45 76 46
REMARK SMILES IDX 35 48 65 49 46 50 64 51 47 52 50 53 63 54 81 55 48 56 49 57
REMARK SMILES IDX 62 59 82 60 51 61 36 62 37 63 45 64 38 65 44 66 39 67 40 68
REMARK SMILES IDX 41 69 42 70 43 71 66 72 67 73 75 74 68 75 74 76 69 77 70 78
REMARK SMILES IDX 71 79 72 80 73 81 52 82 53 83 61 84 54 85 60 86 55 87 56 88
REMARK SMILES IDX 57 89 58 90 59 91
REMARK H PARENT 20 5 14 11 24 28 80 47 50 58
REMARK Flexibility Score: inf
ROOT
ATOM      1  C   UNL A   1      31.757  30.866  26.724  1.00  0.00     0.117 C 
ENDROOT
BRANCH   1   2
ATOM      2  N   UNL A   1      32.117  30.457  25.382  1.00  0.00    -0.356 N 
ATOM      3  O   UNL A   1      33.870  29.117  26.010  1.00  0.00    -0.275 OA
ATOM      4  C   UNL A   1      33.074  29.495  25.155  1.00  0.00     0.226 C 
ATOM      5  H   UNL A   1      31.666  30.876  24.614  1.00  0.00     0.163 HD
BRANCH   4   6
ATOM      6  C   UNL A   1      33.051  28.898  23.772  1.00  0.00     0.177 C 
BRANCH   6   7
ATOM      7  C   UNL A   1      32.283  27.570  23.600  1.00  0.00     0.304 C 
BRANCH   7   8
ATOM      8  N   UNL A   1      31.913  26.737  24.778  1.00  0.00    -0.319 N 
ATOM      9  C   UNL A   1      32.965  25.786  25.198  1.00  0.00     0.291 C 
ATOM     10  C   UNL A   1      30.617  26.045  24.821  1.00  0.00     0.291 C 
ATOM     11  H   UNL A   1      31.807  27.507  25.439  1.00  0.00     0.348 HD
ATOM     12  C   UNL A   1      32.887  24.396  24.533  1.00  0.00     0.221 C 
ATOM     13  C   UNL A   1      30.574  24.660  24.159  1.00  0.00     0.221 C 
ATOM     14  O   UNL A   1      31.592  23.806  24.687  1.00  0.00    -0.370 OA
ENDBRANCH   7   8
BRANCH   7  15
ATOM     15  C   UNL A   1      31.211  27.675  22.512  1.00  0.00     0.365 C 
ATOM     16  O   UNL A   1      31.059  26.822  21.642  1.00  0.00    -0.245 OA
BRANCH  15  17
ATOM     17  O   UNL A   1      30.416  28.771  22.664  1.00  0.00    -0.459 OA
BRANCH  17  18
ATOM     18  C   UNL A   1      29.004  28.485  22.705  1.00  0.00     0.265 C 
BRANCH  18  19
ATOM     19  C   UNL A   1      28.163  29.702  22.301  1.00  0.00     0.156 C 
ATOM     20  C   UNL A   1      29.003  30.904  21.889  1.00  0.00     0.038 C 
ATOM     21  O   UNL A   1      27.299  30.134  23.374  1.00  0.00    -0.375 OA
ATOM     22  C   UNL A   1      28.132  32.065  22.298  1.00  0.00     0.031 C 
ATOM     23  C   UNL A   1      27.494  31.542  23.566  1.00  0.00     0.161 C 
ENDBRANCH  18  19
ENDBRANCH  17  18
ENDBRANCH  15  17
ENDBRANCH   7  15
ENDBRANCH   6   7
ENDBRANCH   4   6
ENDBRANCH   1   2
BRANCH   1  24
ATOM     24  C   UNL A   1      31.648  32.368  26.900  1.00  0.00     0.042 C 
BRANCH  24  25
ATOM     25  C   UNL A   1      32.949  33.070  27.264  1.00  0.00     0.118 C 
BRANCH  25  26
ATOM     26  N   UNL A   1      32.775  34.297  28.031  1.00  0.00    -0.352 N 
ATOM     27  C   UNL A   1      33.486  34.756  29.118  1.00  0.00     0.251 C 
ATOM     28  H   UNL A   1      32.044  34.884  27.728  1.00  0.00     0.163 HD
ATOM     29  O   UNL A   1      33.153  35.796  29.669  1.00  0.00    -0.269 OA
BRANCH  27  30
ATOM     30  C   UNL A   1      34.629  33.968  29.636  1.00  0.00     0.039 A 
ATOM     31  C   UNL A   1      35.921  34.296  29.215  1.00  0.00     0.014 A 
ATOM     32  C   UNL A   1      34.436  32.941  30.562  1.00  0.00     0.014 A 
ATOM     33  C   UNL A   1      37.021  33.655  29.792  1.00  0.00     0.010 A 
ATOM     34  C   UNL A   1      35.534  32.368  31.200  1.00  0.00     0.010 A 
ATOM     35  C   UNL A   1      36.840  32.721  30.825  1.00  0.00    -0.014 A 
BRANCH  35  36
ATOM     36  C   UNL A   1      37.995  32.114  31.536  1.00  0.00     0.031 A 
ATOM     37  C   UNL A   1      38.428  32.646  32.876  1.00  0.00     0.074 A 
ATOM     38  C   UNL A   1      38.703  31.128  30.945  1.00  0.00     0.049 A 
ATOM     39  N   UNL A   1      39.442  32.282  33.619  1.00  0.00    -0.248 NA
ATOM     40  C   UNL A   1      37.636  33.750  33.442  1.00  0.00     0.031 C 
ATOM     41  C   UNL A   1      38.424  30.558  29.624  1.00  0.00     0.029 A 
ATOM     42  N   UNL A   1      39.808  30.436  31.375  1.00  0.00    -0.354 N 
ATOM     43  C   UNL A   1      39.420  33.122  34.728  1.00  0.00     0.074 A 
ATOM     44  C   UNL A   1      38.327  34.048  34.533  1.00  0.00     0.031 C 
ATOM     45  C   UNL A   1      39.312  29.583  29.368  1.00  0.00     0.029 A 
ATOM     46  C   UNL A   1      40.247  29.484  30.485  1.00  0.00     0.049 A 
ATOM     47  H   UNL A   1      40.245  30.605  32.241  1.00  0.00     0.167 HD
ATOM     48  C   UNL A   1      40.221  33.111  35.820  1.00  0.00     0.031 A 
ATOM     49  C   UNL A   1      41.285  28.628  30.555  1.00  0.00     0.031 A 
ATOM     50  C   UNL A   1      41.299  32.179  36.022  1.00  0.00     0.049 A 
ATOM     51  C   UNL A   1      42.158  28.630  31.780  1.00  0.00     0.074 A 
ATOM     52  C   UNL A   1      42.128  32.048  37.122  1.00  0.00     0.029 A 
ATOM     53  N   UNL A   1      41.698  31.219  35.103  1.00  0.00    -0.354 N 
ATOM     54  N   UNL A   1      42.075  29.385  32.849  1.00  0.00    -0.248 NA
ATOM     55  C   UNL A   1      43.255  27.653  31.814  1.00  0.00     0.031 C 
ATOM     56  C   UNL A   1      43.059  31.041  36.849  1.00  0.00     0.029 A 
ATOM     57  C   UNL A   1      42.774  30.505  35.603  1.00  0.00     0.049 A 
ATOM     58  H   UNL A   1      41.277  31.066  34.227  1.00  0.00     0.167 HD
ATOM     59  C   UNL A   1      43.092  28.956  33.694  1.00  0.00     0.074 A 
ATOM     60  C   UNL A   1      43.766  27.867  33.020  1.00  0.00     0.031 C 
ATOM     61  C   UNL A   1      43.435  29.423  34.921  1.00  0.00     0.031 A 
BRANCH  48  62
ATOM     62  C   UNL A   1      39.957  34.142  36.885  1.00  0.00    -0.014 A 
ATOM     63  C   UNL A   1      40.462  35.451  36.770  1.00  0.00     0.010 A 
ATOM     64  C   UNL A   1      39.165  33.811  38.000  1.00  0.00     0.010 A 
ATOM     65  C   UNL A   1      40.221  36.394  37.772  1.00  0.00     0.020 A 
ATOM     66  C   UNL A   1      38.895  34.760  38.990  1.00  0.00     0.020 A 
ATOM     67  C   UNL A   1      39.442  36.041  38.878  1.00  0.00     0.054 A 
BRANCH  67  68
ATOM     68  S   UNL A   1      39.134  37.290  40.157  1.00  0.00     0.124 S 
ATOM     69  O   UNL A   1      38.291  38.247  39.444  1.00  0.00    -0.237 OA
ATOM     70  O   UNL A   1      38.462  36.520  41.202  1.00  0.00    -0.237 OA
ATOM     71  O   UNL A   1      40.469  37.770  40.501  1.00  0.00    -0.744 OA
ENDBRANCH  67  68
ENDBRANCH  48  62
BRANCH  49  72
ATOM     72  C   UNL A   1      41.542  27.677  29.438  1.00  0.00    -0.014 A 
ATOM     73  C   UNL A   1      42.639  27.866  28.580  1.00  0.00     0.010 A 
ATOM     74  C   UNL A   1      40.697  26.570  29.234  1.00  0.00     0.010 A 
ATOM     75  C   UNL A   1      42.876  26.980  27.524  1.00  0.00     0.020 A 
ATOM     76  C   UNL A   1      40.947  25.666  28.196  1.00  0.00     0.020 A 
ATOM     77  C   UNL A   1      42.029  25.884  27.341  1.00  0.00     0.054 A 
BRANCH  77  78
ATOM     78  S   UNL A   1      42.385  24.717  25.997  1.00  0.00     0.124 S 
ATOM     79  O   UNL A   1      42.237  25.562  24.816  1.00  0.00    -0.237 OA
ATOM     80  O   UNL A   1      43.747  24.290  26.304  1.00  0.00    -0.237 OA
ATOM     81  O   UNL A   1      41.363  23.686  26.162  1.00  0.00    -0.744 OA
ENDBRANCH  77  78
ENDBRANCH  49  72
BRANCH  61  82
ATOM     82  C   UNL A   1      44.570  28.733  35.631  1.00  0.00    -0.014 A 
ATOM     83  C   UNL A   1      45.897  29.178  35.492  1.00  0.00     0.010 A 
ATOM     84  C   UNL A   1      44.294  27.654  36.490  1.00  0.00     0.010 A 
ATOM     85  C   UNL A   1      46.932  28.531  36.173  1.00  0.00     0.020 A 
ATOM     86  C   UNL A   1      45.324  27.024  37.195  1.00  0.00     0.020 A 
ATOM     87  C   UNL A   1      46.639  27.457  37.019  1.00  0.00     0.054 A 
BRANCH  87  88
ATOM     88  S   UNL A   1      47.996  26.660  37.922  1.00  0.00     0.124 S 
ATOM     89  O   UNL A   1      48.784  26.085  36.838  1.00  0.00    -0.237 OA
ATOM     90  O   UNL A   1      48.615  27.780  38.625  1.00  0.00    -0.237 OA
ATOM     91  O   UNL A   1      47.317  25.692  38.781  1.00  0.00    -0.744 OA
ENDBRANCH  87  88
ENDBRANCH  61  82
ENDBRANCH  35  36
ENDBRANCH  27  30
ENDBRANCH  25  26
ENDBRANCH  24  25
ENDBRANCH   1  24
TORSDOF 19
ENDMDL
MODEL 3
REMARK VINA RESULT:     -10.1      3.553      5.734
REMARK SMILES O=C(C[C@H](C(=O)OC[C@@H]1CCCO1)[NH+]1CCOCC1)NCCCNC(=O)c1ccc(-c2c3nc(c(-c4ccc(S(=O)(=O)[O-])cc4)c4ccc([nH]4)c(-c4ccc(S(=O)(=O)[O-])cc4)c4nc(c(-c5ccc(S(=O)(=O)[O-])cc5)c5ccc2[nH]5)C=C4)C=C3)cc1
REMARK SMILES IDX 21 1 20 2 1 3 2 4 3 6 4 7 14 8 15 9 19 10 16 12 18 13 17 14
REMARK SMILES IDX 5 15 6 16 7 17 8 18 9 19 10 20 13 21 11 22 12 23 22 24 23 25
REMARK SMILES IDX 24 26 25 27 26 29 27 30 28 31 86 32 29 33 85 34 30 35 31 36
REMARK SMILES IDX 32 37 79 38 33 39 84 40 78 41 80 42 34 43 83 44 77 45 76 46
REMARK SMILES IDX 35 48 65 49 46 50 64 51 47 52 50 53 63 54 81 55 48 56 49 57
REMARK SMILES IDX 62 59 82 60 51 61 36 62 37 63 45 64 38 65 44 66 39 67 40 68
REMARK SMILES IDX 41 69 42 70 43 71 66 72 67 73 75 74 68 75 74 76 69 77 70 78
REMARK SMILES IDX 71 79 72 80 73 81 52 82 53 83 61 84 54 85 60 86 55 87 56 88
REMARK SMILES IDX 57 89 58 90 59 91
REMARK H PARENT 20 5 14 11 24 28 80 47 50 58
REMARK Flexibility Score: inf
ROOT
ATOM      1  C   UNL A   1      34.543  30.560  27.788  1.00  0.00     0.117 C 
ENDROOT
BRANCH   1   2
ATOM      2  N   UNL A   1      34.357  30.050  26.445  1.00  0.00    -0.356 N 
ATOM      3  O   UNL A   1      32.515  28.772  26.936  1.00  0.00    -0.275 OA
ATOM      4  C   UNL A   1      33.258  29.294  26.109  1.00  0.00     0.226 C 
ATOM      5  H   UNL A   1      35.032  30.248  25.757  1.00  0.00     0.163 HD
BRANCH   4   6
ATOM      6  C   UNL A   1      33.001  29.183  24.629  1.00  0.00     0.177 C 
BRANCH   6   7
ATOM      7  C   UNL A   1      32.547  27.804  24.103  1.00  0.00     0.304 C 
BRANCH   7   8
ATOM      8  N   UNL A   1      32.538  26.608  24.991  1.00  0.00    -0.319 N 
ATOM      9  C   UNL A   1      33.855  25.949  25.129  1.00  0.00     0.291 C 
ATOM     10  C   UNL A   1      31.514  25.565  24.823  1.00  0.00     0.291 C 
ATOM     11  H   UNL A   1      32.261  27.095  25.843  1.00  0.00     0.348 HD
ATOM     12  C   UNL A   1      34.141  24.843  24.093  1.00  0.00     0.221 C 
ATOM     13  C   UNL A   1      31.831  24.473  23.792  1.00  0.00     0.221 C 
ATOM     14  O   UNL A   1      33.097  23.863  24.061  1.00  0.00    -0.370 OA
ENDBRANCH   7   8
BRANCH   7  15
ATOM     15  C   UNL A   1      31.347  27.926  23.160  1.00  0.00     0.365 C 
ATOM     16  O   UNL A   1      31.314  27.398  22.052  1.00  0.00    -0.245 OA
BRANCH  15  17
ATOM     17  O   UNL A   1      30.313  28.618  23.715  1.00  0.00    -0.459 OA
BRANCH  17  18
ATOM     18  C   UNL A   1      29.018  28.299  23.168  1.00  0.00     0.265 C 
BRANCH  18  19
ATOM     19  C   UNL A   1      28.312  29.541  22.611  1.00  0.00     0.156 C 
ATOM     20  C   UNL A   1      29.220  30.762  22.526  1.00  0.00     0.038 C 
ATOM     21  O   UNL A   1      27.172  29.913  23.413  1.00  0.00    -0.375 OA
ATOM     22  C   UNL A   1      28.253  31.900  22.734  1.00  0.00     0.031 C 
ATOM     23  C   UNL A   1      27.286  31.307  23.733  1.00  0.00     0.161 C 
ENDBRANCH  18  19
ENDBRANCH  17  18
ENDBRANCH  15  17
ENDBRANCH   7  15
ENDBRANCH   6   7
ENDBRANCH   4   6
ENDBRANCH   1   2
BRANCH   1  24
ATOM     24  C   UNL A   1      35.162  31.943  27.841  1.00  0.00     0.042 C 
BRANCH  24  25
ATOM     25  C   UNL A   1      36.013  32.221  29.071  1.00  0.00     0.118 C 
BRANCH  25  26
ATOM     26  N   UNL A   1      35.763  31.322  30.191  1.00  0.00    -0.352 N 
ATOM     27  C   UNL A   1      36.596  30.384  30.761  1.00  0.00     0.251 C 
ATOM     28  H   UNL A   1      34.870  31.396  30.599  1.00  0.00     0.163 HD
ATOM     29  O   UNL A   1      36.185  29.677  31.670  1.00  0.00    -0.269 OA
BRANCH  27  30
ATOM     30  C   UNL A   1      37.975  30.214  30.246  1.00  0.00     0.039 A 
ATOM     31  C   UNL A   1      39.040  30.226  31.152  1.00  0.00     0.014 A 
ATOM     32  C   UNL A   1      38.216  30.001  28.887  1.00  0.00     0.014 A 
ATOM     33  C   UNL A   1      40.332  29.933  30.705  1.00  0.00     0.010 A 
ATOM     34  C   UNL A   1      39.486  29.623  28.460  1.00  0.00     0.010 A 
ATOM     35  C   UNL A   1      40.559  29.581  29.364  1.00  0.00    -0.014 A 
BRANCH  35  36
ATOM     36  C   UNL A   1      41.901  29.152  28.889  1.00  0.00     0.031 A 
ATOM     37  C   UNL A   1      43.028  30.147  28.798  1.00  0.00     0.074 A 
ATOM     38  C   UNL A   1      42.091  27.884  28.472  1.00  0.00     0.049 A 
ATOM     39  N   UNL A   1      44.248  29.973  28.358  1.00  0.00    -0.248 NA
ATOM     40  C   UNL A   1      42.738  31.524  29.231  1.00  0.00     0.031 C 
ATOM     41  C   UNL A   1      41.069  26.833  28.456  1.00  0.00     0.029 A 
ATOM     42  N   UNL A   1      43.209  27.262  27.973  1.00  0.00    -0.354 N 
ATOM     43  C   UNL A   1      44.863  31.218  28.444  1.00  0.00     0.074 A 
ATOM     44  C   UNL A   1      43.866  32.148  28.925  1.00  0.00     0.031 C 
ATOM     45  C   UNL A   1      41.616  25.693  28.004  1.00  0.00     0.029 A 
ATOM     46  C   UNL A   1      43.013  25.936  27.660  1.00  0.00     0.049 A 
ATOM     47  H   UNL A   1      44.071  27.722  27.851  1.00  0.00     0.167 HD
ATOM     48  C   UNL A   1      46.146  31.553  28.169  1.00  0.00     0.031 A 
ATOM     49  C   UNL A   1      43.859  25.019  27.152  1.00  0.00     0.031 A 
ATOM     50  C   UNL A   1      47.142  30.624  27.706  1.00  0.00     0.049 A 
ATOM     51  C   UNL A   1      45.281  25.414  26.860  1.00  0.00     0.074 A 
ATOM     52  C   UNL A   1      48.484  30.855  27.457  1.00  0.00     0.029 A 
ATOM     53  N   UNL A   1      46.907  29.287  27.420  1.00  0.00    -0.354 N 
ATOM     54  N   UNL A   1      45.861  26.580  27.016  1.00  0.00    -0.248 NA
ATOM     55  C   UNL A   1      46.167  24.364  26.337  1.00  0.00     0.031 C 
ATOM     56  C   UNL A   1      49.050  29.670  26.977  1.00  0.00     0.029 A 
ATOM     57  C   UNL A   1      48.073  28.686  26.978  1.00  0.00     0.049 A 
ATOM     58  H   UNL A   1      46.039  28.834  27.517  1.00  0.00     0.167 HD
ATOM     59  C   UNL A   1      47.186  26.397  26.637  1.00  0.00     0.074 A 
ATOM     60  C   UNL A   1      47.325  25.006  26.259  1.00  0.00     0.031 C 
ATOM     61  C   UNL A   1      48.198  27.300  26.606  1.00  0.00     0.031 A 
BRANCH  48  62
ATOM     62  C   UNL A   1      46.545  32.992  28.367  1.00  0.00    -0.014 A 
ATOM     63  C   UNL A   1      46.401  33.934  27.330  1.00  0.00     0.010 A 
ATOM     64  C   UNL A   1      47.037  33.418  29.614  1.00  0.00     0.010 A 
ATOM     65  C   UNL A   1      46.788  35.263  27.523  1.00  0.00     0.020 A 
ATOM     66  C   UNL A   1      47.396  34.753  29.820  1.00  0.00     0.020 A 
ATOM     67  C   UNL A   1      47.286  35.663  28.766  1.00  0.00     0.054 A 
BRANCH  67  68
ATOM     68  S   UNL A   1      47.767  37.397  28.991  1.00  0.00     0.124 S 
ATOM     69  O   UNL A   1      49.134  37.399  28.474  1.00  0.00    -0.237 OA
ATOM     70  O   UNL A   1      46.787  38.110  28.175  1.00  0.00    -0.237 OA
ATOM     71  O   UNL A   1      47.645  37.607  30.431  1.00  0.00    -0.744 OA
ENDBRANCH  67  68
ENDBRANCH  48  62
BRANCH  49  72
ATOM     72  C   UNL A   1      43.390  23.627  26.910  1.00  0.00    -0.014 A 
ATOM     73  C   UNL A   1      43.194  23.159  25.599  1.00  0.00     0.010 A 
ATOM     74  C   UNL A   1      43.147  22.758  27.989  1.00  0.00     0.010 A 
ATOM     75  C   UNL A   1      42.744  21.855  25.371  1.00  0.00     0.020 A 
ATOM     76  C   UNL A   1      42.723  21.444  27.764  1.00  0.00     0.020 A 
ATOM     77  C   UNL A   1      42.514  21.006  26.455  1.00  0.00     0.054 A 
BRANCH  77  78
ATOM     78  S   UNL A   1      41.979  19.301  26.134  1.00  0.00     0.124 S 
ATOM     79  O   UNL A   1      42.353  18.628  27.373  1.00  0.00    -0.237 OA
ATOM     80  O   UNL A   1      40.546  19.458  25.906  1.00  0.00    -0.237 OA
ATOM     81  O   UNL A   1      42.752  18.918  24.954  1.00  0.00    -0.744 OA
ENDBRANCH  77  78
ENDBRANCH  49  72
BRANCH  61  82
ATOM     82  C   UNL A   1      49.556  26.805  26.182  1.00  0.00    -0.014 A 
ATOM     83  C   UNL A   1      50.007  26.955  24.859  1.00  0.00     0.010 A 
ATOM     84  C   UNL A   1      50.410  26.227  27.138  1.00  0.00     0.010 A 
ATOM     85  C   UNL A   1      51.278  26.501  24.492  1.00  0.00     0.020 A 
ATOM     86  C   UNL A   1      51.691  25.800  26.781  1.00  0.00     0.020 A 
ATOM     87  C   UNL A   1      52.111  25.925  25.456  1.00  0.00     0.054 A 
BRANCH  87  88
ATOM     88  S   UNL A   1      53.770  25.380  24.963  1.00  0.00     0.124 S 
ATOM     89  O   UNL A   1      53.979  26.125  23.726  1.00  0.00    -0.237 OA
ATOM     90  O   UNL A   1      54.593  25.795  26.096  1.00  0.00    -0.237 OA
ATOM     91  O   UNL A   1      53.625  23.934  24.803  1.00  0.00    -0.744 OA
ENDBRANCH  87  88
ENDBRANCH  61  82
ENDBRANCH  35  36
ENDBRANCH  27  30
ENDBRANCH  25  26
ENDBRANCH  24  25
ENDBRANCH   1  24
TORSDOF 19
ENDMDL
