MODEL 1
REMARK VINA RESULT:     -12.9      0.000      0.000
REMARK SMILES Cc1cccc2[nH]cc(C[C@H](NC(=O)OC(C)(C)C)C(=O)NCCCNC(=O)c3ccc(-c4c5nc(c(-c6ccc(S(=O)(=O)[O-])cc6)c6ccc([nH]6)c(-c6ccc(S(=O)(=O)[O-])cc6)c6nc(c(-c7ccc(S(=O)(=O)[O-])cc7)c7ccc4[nH]7)C=C6)C=C5)cc3)c12
REMARK SMILES IDX 24 1 23 2 22 3 20 4 21 5 11 7 10 8 9 9 1 10 2 11 3 12 89 13
REMARK SMILES IDX 4 14 6 15 5 16 7 17 8 18 12 20 13 21 14 23 15 24 16 25 17 26
REMARK SMILES IDX 18 27 19 28 25 29 26 30 27 31 28 33 29 34 30 35 88 36 31 37
REMARK SMILES IDX 87 38 32 39 33 40 34 41 81 42 35 43 86 44 80 45 82 46 36 47
REMARK SMILES IDX 85 48 79 49 78 50 37 52 67 53 48 54 66 55 49 56 52 57 65 58
REMARK SMILES IDX 83 59 50 60 51 61 64 63 84 64 53 65 38 66 39 67 47 68 40 69
REMARK SMILES IDX 46 70 41 71 42 72 43 73 44 74 45 75 68 76 69 77 77 78 70 79
REMARK SMILES IDX 76 80 71 81 72 82 73 83 74 84 75 85 54 86 55 87 63 88 56 89
REMARK SMILES IDX 62 90 57 91 58 92 59 93 60 94 61 95
REMARK H PARENT 22 6 7 19 12 22 26 32 82 51 52 62
REMARK Flexibility Score: inf
ROOT
ATOM      1  C   UNL A   1      36.270  23.278  25.306  1.00  0.00     0.042 C 
ENDROOT
BRANCH   1   2
ATOM      2  C   UNL A   1      35.400  22.461  24.360  1.00  0.00     0.117 C 
BRANCH   2   3
ATOM      3  N   UNL A   1      34.993  23.162  23.153  1.00  0.00    -0.354 N 
ATOM      4  C   UNL A   1      33.741  23.491  22.712  1.00  0.00     0.243 C 
ATOM      5  O   UNL A   1      33.647  24.299  21.783  1.00  0.00    -0.273 OA
ATOM      6  H   UNL A   1      35.731  23.443  22.564  1.00  0.00     0.163 HD
BRANCH   4   7
ATOM      7  C   UNL A   1      32.488  23.012  23.471  1.00  0.00     0.179 C 
BRANCH   7   8
ATOM      8  C   UNL A   1      32.320  21.524  23.081  1.00  0.00     0.073 C 
BRANCH   8   9
ATOM      9  C   UNL A   1      32.432  20.523  24.183  1.00  0.00    -0.020 A 
ATOM     10  C   UNL A   1      32.382  18.312  21.624  1.00  0.00     0.045 C 
ATOM     11  C   UNL A   1      32.632  18.093  23.094  1.00  0.00    -0.041 A 
ATOM     12  C   UNL A   1      32.939  16.760  23.466  1.00  0.00     0.004 A 
ATOM     13  C   UNL A   1      32.610  19.088  24.118  1.00  0.00     0.006 A 
ATOM     14  C   UNL A   1      33.197  16.400  24.782  1.00  0.00     0.002 A 
ATOM     15  C   UNL A   1      32.866  18.674  25.433  1.00  0.00     0.046 A 
ATOM     16  C   UNL A   1      33.159  17.353  25.790  1.00  0.00     0.027 A 
ATOM     17  N   UNL A   1      32.794  19.779  26.248  1.00  0.00    -0.361 N 
ATOM     18  C   UNL A   1      32.538  20.893  25.511  1.00  0.00     0.087 A 
ATOM     19  H   UNL A   1      32.910  19.766  27.225  1.00  0.00     0.166 HD
ENDBRANCH   8   9
ENDBRANCH   7   8
BRANCH   7  20
ATOM     20  N   UNL A   1      31.325  23.853  23.173  1.00  0.00    -0.309 N 
ATOM     21  C   UNL A   1      30.828  24.834  23.990  1.00  0.00     0.408 C 
ATOM     22  H   UNL A   1      30.863  23.699  22.317  1.00  0.00     0.167 HD
ATOM     23  O   UNL A   1      29.793  25.424  23.695  1.00  0.00    -0.225 OA
BRANCH  21  24
ATOM     24  O   UNL A   1      31.615  25.101  25.057  1.00  0.00    -0.444 OA
BRANCH  24  25
ATOM     25  C   UNL A   1      32.431  26.306  25.140  1.00  0.00     0.106 C 
ATOM     26  C   UNL A   1      33.837  25.987  25.665  1.00  0.00     0.056 C 
ATOM     27  C   UNL A   1      32.484  27.055  23.805  1.00  0.00     0.056 C 
ATOM     28  C   UNL A   1      31.728  27.204  26.173  1.00  0.00     0.056 C 
ENDBRANCH  24  25
ENDBRANCH  21  24
ENDBRANCH   7  20
ENDBRANCH   4   7
ENDBRANCH   2   3
ENDBRANCH   1   2
BRANCH   1  29
ATOM     29  C   UNL A   1      37.736  23.170  24.954  1.00  0.00     0.118 C 
BRANCH  29  30
ATOM     30  N   UNL A   1      38.403  22.101  25.690  1.00  0.00    -0.352 N 
ATOM     31  C   UNL A   1      39.471  22.204  26.551  1.00  0.00     0.251 C 
ATOM     32  H   UNL A   1      38.045  21.195  25.553  1.00  0.00     0.163 HD
ATOM     33  O   UNL A   1      40.133  21.208  26.822  1.00  0.00    -0.269 OA
BRANCH  31  34
ATOM     34  C   UNL A   1      39.793  23.514  27.149  1.00  0.00     0.039 A 
ATOM     35  C   UNL A   1      41.038  23.741  27.737  1.00  0.00     0.014 A 
ATOM     36  C   UNL A   1      38.815  24.513  27.155  1.00  0.00     0.014 A 
ATOM     37  C   UNL A   1      41.294  24.987  28.300  1.00  0.00     0.010 A 
ATOM     38  C   UNL A   1      39.110  25.780  27.585  1.00  0.00     0.010 A 
ATOM     39  C   UNL A   1      40.321  25.998  28.216  1.00  0.00    -0.014 A 
BRANCH  39  40
ATOM     40  C   UNL A   1      40.603  27.352  28.653  1.00  0.00     0.031 A 
ATOM     41  C   UNL A   1      41.825  27.907  28.031  1.00  0.00     0.074 A 
ATOM     42  C   UNL A   1      39.761  28.100  29.397  1.00  0.00     0.049 A 
ATOM     43  N   UNL A   1      42.998  27.950  28.567  1.00  0.00    -0.248 NA
ATOM     44  C   UNL A   1      41.808  28.250  26.599  1.00  0.00     0.031 C 
ATOM     45  C   UNL A   1      38.399  27.794  29.846  1.00  0.00     0.029 A 
ATOM     46  N   UNL A   1      39.948  29.362  29.866  1.00  0.00    -0.354 N 
ATOM     47  C   UNL A   1      43.808  28.580  27.638  1.00  0.00     0.074 A 
ATOM     48  C   UNL A   1      43.097  28.531  26.385  1.00  0.00     0.031 C 
ATOM     49  C   UNL A   1      37.821  28.912  30.350  1.00  0.00     0.029 A 
ATOM     50  C   UNL A   1      38.818  29.966  30.412  1.00  0.00     0.049 A 
ATOM     51  H   UNL A   1      40.821  29.816  29.823  1.00  0.00     0.167 HD
ATOM     52  C   UNL A   1      44.856  29.349  28.040  1.00  0.00     0.031 A 
ATOM     53  C   UNL A   1      38.735  31.232  30.905  1.00  0.00     0.031 A 
ATOM     54  C   UNL A   1      45.145  29.155  29.442  1.00  0.00     0.049 A 
ATOM     55  C   UNL A   1      40.121  31.611  31.279  1.00  0.00     0.074 A 
ATOM     56  C   UNL A   1      45.511  28.075  30.219  1.00  0.00     0.029 A 
ATOM     57  N   UNL A   1      44.621  30.090  30.305  1.00  0.00    -0.354 N 
ATOM     58  N   UNL A   1      40.794  31.016  32.224  1.00  0.00    -0.248 NA
ATOM     59  C   UNL A   1      40.916  32.329  30.298  1.00  0.00     0.031 C 
ATOM     60  C   UNL A   1      44.773  28.226  31.430  1.00  0.00     0.029 A 
ATOM     61  C   UNL A   1      44.060  29.426  31.366  1.00  0.00     0.049 A 
ATOM     62  H   UNL A   1      44.645  31.067  30.183  1.00  0.00     0.167 HD
ATOM     63  C   UNL A   1      42.083  30.909  31.722  1.00  0.00     0.074 A 
ATOM     64  C   UNL A   1      42.117  31.814  30.573  1.00  0.00     0.031 C 
ATOM     65  C   UNL A   1      42.911  29.896  32.112  1.00  0.00     0.031 A 
BRANCH  52  66
ATOM     66  C   UNL A   1      45.310  30.578  27.299  1.00  0.00    -0.014 A 
ATOM     67  C   UNL A   1      46.689  30.828  27.180  1.00  0.00     0.010 A 
ATOM     68  C   UNL A   1      44.433  31.629  26.957  1.00  0.00     0.010 A 
ATOM     69  C   UNL A   1      47.167  32.083  26.779  1.00  0.00     0.020 A 
ATOM     70  C   UNL A   1      44.895  32.869  26.517  1.00  0.00     0.020 A 
ATOM     71  C   UNL A   1      46.263  33.095  26.452  1.00  0.00     0.054 A 
BRANCH  71  72
ATOM     72  S   UNL A   1      46.892  34.734  26.019  1.00  0.00     0.124 S 
ATOM     73  O   UNL A   1      47.970  34.412  25.089  1.00  0.00    -0.237 OA
ATOM     74  O   UNL A   1      45.713  35.363  25.429  1.00  0.00    -0.237 OA
ATOM     75  O   UNL A   1      47.316  35.289  27.301  1.00  0.00    -0.744 OA
ENDBRANCH  71  72
ENDBRANCH  52  66
BRANCH  53  76
ATOM     76  C   UNL A   1      37.661  32.251  30.729  1.00  0.00    -0.014 A 
ATOM     77  C   UNL A   1      37.777  33.242  29.727  1.00  0.00     0.010 A 
ATOM     78  C   UNL A   1      36.390  32.068  31.308  1.00  0.00     0.010 A 
ATOM     79  C   UNL A   1      36.653  33.939  29.249  1.00  0.00     0.020 A 
ATOM     80  C   UNL A   1      35.265  32.769  30.843  1.00  0.00     0.020 A 
ATOM     81  C   UNL A   1      35.394  33.671  29.788  1.00  0.00     0.054 A 
BRANCH  81  82
ATOM     82  S   UNL A   1      33.921  34.429  29.033  1.00  0.00     0.124 S 
ATOM     83  O   UNL A   1      33.117  34.788  30.197  1.00  0.00    -0.237 OA
ATOM     84  O   UNL A   1      34.494  35.549  28.291  1.00  0.00    -0.237 OA
ATOM     85  O   UNL A   1      33.367  33.358  28.206  1.00  0.00    -0.744 OA
ENDBRANCH  81  82
ENDBRANCH  53  76
BRANCH  65  86
ATOM     86  C   UNL A   1      42.513  29.057  33.307  1.00  0.00    -0.014 A 
ATOM     87  C   UNL A   1      41.594  27.989  33.250  1.00  0.00     0.010 A 
ATOM     88  C   UNL A   1      43.267  29.232  34.479  1.00  0.00     0.010 A 
ATOM     89  C   UNL A   1      41.452  27.109  34.338  1.00  0.00     0.020 A 
ATOM     90  C   UNL A   1      43.141  28.353  35.556  1.00  0.00     0.020 A 
ATOM     91  C   UNL A   1      42.243  27.289  35.480  1.00  0.00     0.054 A 
BRANCH  91  92
ATOM     92  S   UNL A   1      42.134  26.099  36.848  1.00  0.00     0.124 S 
ATOM     93  O   UNL A   1      40.696  26.013  37.089  1.00  0.00    -0.237 OA
ATOM     94  O   UNL A   1      42.749  24.902  36.281  1.00  0.00    -0.237 OA
ATOM     95  O   UNL A   1      42.900  26.730  37.922  1.00  0.00    -0.744 OA
ENDBRANCH  91  92
ENDBRANCH  65  86
ENDBRANCH  39  40
ENDBRANCH  31  34
ENDBRANCH  29  30
ENDBRANCH   1  29
TORSDOF 18
ENDMDL
MODEL 2
REMARK VINA RESULT:     -12.8      1.590      3.810
REMARK SMILES Cc1cccc2[nH]cc(C[C@H](NC(=O)OC(C)(C)C)C(=O)NCCCNC(=O)c3ccc(-c4c5nc(c(-c6ccc(S(=O)(=O)[O-])cc6)c6ccc([nH]6)c(-c6ccc(S(=O)(=O)[O-])cc6)c6nc(c(-c7ccc(S(=O)(=O)[O-])cc7)c7ccc4[nH]7)C=C6)C=C5)cc3)c12
REMARK SMILES IDX 24 1 23 2 22 3 20 4 21 5 11 7 10 8 9 9 1 10 2 11 3 12 89 13
REMARK SMILES IDX 4 14 6 15 5 16 7 17 8 18 12 20 13 21 14 23 15 24 16 25 17 26
REMARK SMILES IDX 18 27 19 28 25 29 26 30 27 31 28 33 29 34 30 35 88 36 31 37
REMARK SMILES IDX 87 38 32 39 33 40 34 41 81 42 35 43 86 44 80 45 82 46 36 47
REMARK SMILES IDX 85 48 79 49 78 50 37 52 67 53 48 54 66 55 49 56 52 57 65 58
REMARK SMILES IDX 83 59 50 60 51 61 64 63 84 64 53 65 38 66 39 67 47 68 40 69
REMARK SMILES IDX 46 70 41 71 42 72 43 73 44 74 45 75 68 76 69 77 77 78 70 79
REMARK SMILES IDX 76 80 71 81 72 82 73 83 74 84 75 85 54 86 55 87 63 88 56 89
REMARK SMILES IDX 62 90 57 91 58 92 59 93 60 94 61 95
REMARK H PARENT 22 6 7 19 12 22 26 32 82 51 52 62
REMARK Flexibility Score: inf
ROOT
ATOM      1  C   UNL A   1      37.418  22.245  24.855  1.00  0.00     0.042 C 
ENDROOT
BRANCH   1   2
ATOM      2  C   UNL A   1      36.249  21.331  25.197  1.00  0.00     0.117 C 
BRANCH   2   3
ATOM      3  N   UNL A   1      35.515  21.709  26.395  1.00  0.00    -0.354 N 
ATOM      4  C   UNL A   1      34.222  21.440  26.750  1.00  0.00     0.243 C 
ATOM      5  O   UNL A   1      33.886  21.652  27.919  1.00  0.00    -0.273 OA
ATOM      6  H   UNL A   1      36.026  22.240  27.048  1.00  0.00     0.163 HD
BRANCH   4   7
ATOM      7  C   UNL A   1      33.270  20.722  25.773  1.00  0.00     0.179 C 
BRANCH   7   8
ATOM      8  C   UNL A   1      32.185  21.767  25.422  1.00  0.00     0.073 C 
BRANCH   8   9
ATOM      9  C   UNL A   1      32.296  22.430  24.089  1.00  0.00    -0.020 A 
ATOM     10  C   UNL A   1      32.780  25.201  25.967  1.00  0.00     0.045 C 
ATOM     11  C   UNL A   1      32.896  25.003  24.478  1.00  0.00    -0.041 A 
ATOM     12  C   UNL A   1      33.317  26.141  23.745  1.00  0.00     0.004 A 
ATOM     13  C   UNL A   1      32.648  23.795  23.758  1.00  0.00     0.006 A 
ATOM     14  C   UNL A   1      33.474  26.116  22.366  1.00  0.00     0.002 A 
ATOM     15  C   UNL A   1      32.809  23.822  22.366  1.00  0.00     0.046 A 
ATOM     16  C   UNL A   1      33.216  24.954  21.651  1.00  0.00     0.027 A 
ATOM     17  N   UNL A   1      32.521  22.569  21.880  1.00  0.00    -0.361 N 
ATOM     18  C   UNL A   1      32.216  21.726  22.902  1.00  0.00     0.087 A 
ATOM     19  H   UNL A   1      32.533  22.318  20.929  1.00  0.00     0.166 HD
ENDBRANCH   8   9
ENDBRANCH   7   8
BRANCH   7  20
ATOM     20  N   UNL A   1      32.751  19.477  26.346  1.00  0.00    -0.309 N 
ATOM     21  C   UNL A   1      32.693  18.272  25.696  1.00  0.00     0.408 C 
ATOM     22  H   UNL A   1      32.417  19.509  27.272  1.00  0.00     0.167 HD
ATOM     23  O   UNL A   1      32.156  17.303  26.227  1.00  0.00    -0.225 OA
BRANCH  21  24
ATOM     24  O   UNL A   1      33.326  18.268  24.501  1.00  0.00    -0.444 OA
BRANCH  24  25
ATOM     25  C   UNL A   1      34.397  17.329  24.191  1.00  0.00     0.106 C 
ATOM     26  C   UNL A   1      34.262  16.788  22.762  1.00  0.00     0.056 C 
ATOM     27  C   UNL A   1      35.781  17.937  24.436  1.00  0.00     0.056 C 
ATOM     28  C   UNL A   1      34.204  16.155  25.165  1.00  0.00     0.056 C 
ENDBRANCH  24  25
ENDBRANCH  21  24
ENDBRANCH   7  20
ENDBRANCH   4   7
ENDBRANCH   2   3
ENDBRANCH   1   2
BRANCH   1  29
ATOM     29  C   UNL A   1      38.256  22.564  26.070  1.00  0.00     0.118 C 
BRANCH  29  30
ATOM     30  N   UNL A   1      39.574  21.941  26.012  1.00  0.00    -0.352 N 
ATOM     31  C   UNL A   1      40.801  22.533  26.206  1.00  0.00     0.251 C 
ATOM     32  H   UNL A   1      39.587  20.978  25.809  1.00  0.00     0.163 HD
ATOM     33  O   UNL A   1      41.816  21.980  25.795  1.00  0.00    -0.269 OA
BRANCH  31  34
ATOM     34  C   UNL A   1      40.876  23.820  26.923  1.00  0.00     0.039 A 
ATOM     35  C   UNL A   1      41.614  23.936  28.102  1.00  0.00     0.014 A 
ATOM     36  C   UNL A   1      40.162  24.913  26.425  1.00  0.00     0.014 A 
ATOM     37  C   UNL A   1      41.647  25.165  28.752  1.00  0.00     0.010 A 
ATOM     38  C   UNL A   1      40.303  26.156  26.985  1.00  0.00     0.010 A 
ATOM     39  C   UNL A   1      40.987  26.267  28.181  1.00  0.00    -0.014 A 
BRANCH  39  40
ATOM     40  C   UNL A   1      41.122  27.598  28.743  1.00  0.00     0.031 A 
ATOM     41  C   UNL A   1      42.372  28.268  28.324  1.00  0.00     0.074 A 
ATOM     42  C   UNL A   1      40.146  28.238  29.421  1.00  0.00     0.049 A 
ATOM     43  N   UNL A   1      43.464  28.337  29.009  1.00  0.00    -0.248 NA
ATOM     44  C   UNL A   1      42.512  28.717  26.929  1.00  0.00     0.031 C 
ATOM     45  C   UNL A   1      38.762  27.821  29.668  1.00  0.00     0.029 A 
ATOM     46  N   UNL A   1      40.189  29.469  29.996  1.00  0.00    -0.354 N 
ATOM     47  C   UNL A   1      44.341  29.081  28.238  1.00  0.00     0.074 A 
ATOM     48  C   UNL A   1      43.796  29.087  26.903  1.00  0.00     0.031 C 
ATOM     49  C   UNL A   1      38.052  28.863  30.168  1.00  0.00     0.029 A 
ATOM     50  C   UNL A   1      38.962  29.964  30.431  1.00  0.00     0.049 A 
ATOM     51  H   UNL A   1      41.028  29.974  30.098  1.00  0.00     0.167 HD
ATOM     52  C   UNL A   1      45.277  29.875  28.825  1.00  0.00     0.031 A 
ATOM     53  C   UNL A   1      38.734  31.182  30.994  1.00  0.00     0.031 A 
ATOM     54  C   UNL A   1      45.400  29.591  30.235  1.00  0.00     0.049 A 
ATOM     55  C   UNL A   1      40.035  31.609  31.569  1.00  0.00     0.074 A 
ATOM     56  C   UNL A   1      45.737  28.478  30.978  1.00  0.00     0.029 A 
ATOM     57  N   UNL A   1      44.711  30.426  31.086  1.00  0.00    -0.354 N 
ATOM     58  N   UNL A   1      40.622  30.983  32.551  1.00  0.00    -0.248 NA
ATOM     59  C   UNL A   1      40.896  32.445  30.751  1.00  0.00     0.031 C 
ATOM     60  C   UNL A   1      44.844  28.494  32.091  1.00  0.00     0.029 A 
ATOM     61  C   UNL A   1      44.068  29.653  32.016  1.00  0.00     0.049 A 
ATOM     62  H   UNL A   1      44.686  31.409  31.035  1.00  0.00     0.167 HD
ATOM     63  C   UNL A   1      41.967  30.989  32.214  1.00  0.00     0.074 A 
ATOM     64  C   UNL A   1      42.085  31.979  31.144  1.00  0.00     0.031 C 
ATOM     65  C   UNL A   1      42.805  29.998  32.638  1.00  0.00     0.031 A 
BRANCH  52  66
ATOM     66  C   UNL A   1      45.737  31.181  28.235  1.00  0.00    -0.014 A 
ATOM     67  C   UNL A   1      44.814  32.236  28.117  1.00  0.00     0.010 A 
ATOM     68  C   UNL A   1      46.961  31.316  27.545  1.00  0.00     0.010 A 
ATOM     69  C   UNL A   1      45.086  33.351  27.314  1.00  0.00     0.020 A 
ATOM     70  C   UNL A   1      47.261  32.441  26.777  1.00  0.00     0.020 A 
ATOM     71  C   UNL A   1      46.310  33.443  26.648  1.00  0.00     0.054 A 
BRANCH  71  72
ATOM     72  S   UNL A   1      46.614  34.846  25.549  1.00  0.00     0.124 S 
ATOM     73  O   UNL A   1      45.618  34.636  24.502  1.00  0.00    -0.237 OA
ATOM     74  O   UNL A   1      46.372  35.982  26.435  1.00  0.00    -0.237 OA
ATOM     75  O   UNL A   1      48.004  34.664  25.138  1.00  0.00    -0.744 OA
ENDBRANCH  71  72
ENDBRANCH  52  66
BRANCH  53  76
ATOM     76  C   UNL A   1      37.625  32.149  30.750  1.00  0.00    -0.014 A 
ATOM     77  C   UNL A   1      37.776  33.178  29.792  1.00  0.00     0.010 A 
ATOM     78  C   UNL A   1      36.320  31.879  31.206  1.00  0.00     0.010 A 
ATOM     79  C   UNL A   1      36.662  33.831  29.235  1.00  0.00     0.020 A 
ATOM     80  C   UNL A   1      35.203  32.536  30.661  1.00  0.00     0.020 A 
ATOM     81  C   UNL A   1      35.377  33.479  29.649  1.00  0.00     0.054 A 
BRANCH  81  82
ATOM     82  S   UNL A   1      33.938  34.184  28.785  1.00  0.00     0.124 S 
ATOM     83  O   UNL A   1      33.463  33.058  27.986  1.00  0.00    -0.237 OA
ATOM     84  O   UNL A   1      33.074  34.581  29.893  1.00  0.00    -0.237 OA
ATOM     85  O   UNL A   1      34.505  35.291  28.016  1.00  0.00    -0.744 OA
ENDBRANCH  81  82
ENDBRANCH  53  76
BRANCH  65  86
ATOM     86  C   UNL A   1      42.317  29.048  33.711  1.00  0.00    -0.014 A 
ATOM     87  C   UNL A   1      41.745  27.788  33.447  1.00  0.00     0.010 A 
ATOM     88  C   UNL A   1      42.653  29.370  35.037  1.00  0.00     0.010 A 
ATOM     89  C   UNL A   1      41.535  26.866  34.489  1.00  0.00     0.020 A 
ATOM     90  C   UNL A   1      42.460  28.454  36.072  1.00  0.00     0.020 A 
ATOM     91  C   UNL A   1      41.912  27.202  35.795  1.00  0.00     0.054 A 
BRANCH  91  92
ATOM     92  S   UNL A   1      41.732  25.979  37.127  1.00  0.00     0.124 S 
ATOM     93  O   UNL A   1      41.939  24.711  36.433  1.00  0.00    -0.237 OA
ATOM     94  O   UNL A   1      42.787  26.365  38.060  1.00  0.00    -0.237 OA
ATOM     95  O   UNL A   1      40.372  26.196  37.618  1.00  0.00    -0.744 OA
ENDBRANCH  91  92
ENDBRANCH  65  86
ENDBRANCH  39  40
ENDBRANCH  31  34
ENDBRANCH  29  30
ENDBRANCH   1  29
TORSDOF 18
ENDMDL
MODEL 3
REMARK VINA RESULT:     -12.7      1.613      2.231
REMARK SMILES Cc1cccc2[nH]cc(C[C@H](NC(=O)OC(C)(C)C)C(=O)NCCCNC(=O)c3ccc(-c4c5nc(c(-c6ccc(S(=O)(=O)[O-])cc6)c6ccc([nH]6)c(-c6ccc(S(=O)(=O)[O-])cc6)c6nc(c(-c7ccc(S(=O)(=O)[O-])cc7)c7ccc4[nH]7)C=C6)C=C5)cc3)c12
REMARK SMILES IDX 24 1 23 2 22 3 20 4 21 5 11 7 10 8 9 9 1 10 2 11 3 12 89 13
REMARK SMILES IDX 4 14 6 15 5 16 7 17 8 18 12 20 13 21 14 23 15 24 16 25 17 26
REMARK SMILES IDX 18 27 19 28 25 29 26 30 27 31 28 33 29 34 30 35 88 36 31 37
REMARK SMILES IDX 87 38 32 39 33 40 34 41 81 42 35 43 86 44 80 45 82 46 36 47
REMARK SMILES IDX 85 48 79 49 78 50 37 52 67 53 48 54 66 55 49 56 52 57 65 58
REMARK SMILES IDX 83 59 50 60 51 61 64 63 84 64 53 65 38 66 39 67 47 68 40 69
REMARK SMILES IDX 46 70 41 71 42 72 43 73 44 74 45 75 68 76 69 77 77 78 70 79
REMARK SMILES IDX 76 80 71 81 72 82 73 83 74 84 75 85 54 86 55 87 63 88 56 89
REMARK SMILES IDX 62 90 57 91 58 92 59 93 60 94 61 95
REMARK H PARENT 22 6 7 19 12 22 26 32 82 51 52 62
REMARK Flexibility Score: inf
ROOT
ATOM      1  C   UNL A   1      38.626  21.823  25.754  1.00  0.00     0.042 C 
ENDROOT
BRANCH   1   2
ATOM      2  C   UNL A   1      37.321  22.607  25.713  1.00  0.00     0.117 C 
BRANCH   2   3
ATOM      3  N   UNL A   1      36.656  22.607  24.420  1.00  0.00    -0.354 N 
ATOM      4  C   UNL A   1      35.491  23.212  24.036  1.00  0.00     0.243 C 
ATOM      5  O   UNL A   1      35.243  23.279  22.828  1.00  0.00    -0.273 OA
ATOM      6  H   UNL A   1      37.113  22.094  23.715  1.00  0.00     0.163 HD
BRANCH   4   7
ATOM      7  C   UNL A   1      34.609  23.948  25.065  1.00  0.00     0.179 C 
BRANCH   7   8
ATOM      8  C   UNL A   1      33.218  23.279  24.961  1.00  0.00     0.073 C 
BRANCH   8   9
ATOM      9  C   UNL A   1      33.114  21.868  25.439  1.00  0.00    -0.020 A 
ATOM     10  C   UNL A   1      32.056  21.308  22.276  1.00  0.00     0.045 C 
ATOM     11  C   UNL A   1      32.379  20.334  23.380  1.00  0.00    -0.041 A 
ATOM     12  C   UNL A   1      32.268  18.964  23.033  1.00  0.00     0.004 A 
ATOM     13  C   UNL A   1      32.800  20.660  24.705  1.00  0.00     0.006 A 
ATOM     14  C   UNL A   1      32.536  17.948  23.941  1.00  0.00     0.002 A 
ATOM     15  C   UNL A   1      33.048  19.600  25.588  1.00  0.00     0.046 A 
ATOM     16  C   UNL A   1      32.926  18.251  25.239  1.00  0.00     0.027 A 
ATOM     17  N   UNL A   1      33.435  20.134  26.795  1.00  0.00    -0.361 N 
ATOM     18  C   UNL A   1      33.482  21.490  26.717  1.00  0.00     0.087 A 
ATOM     19  H   UNL A   1      33.647  19.609  27.600  1.00  0.00     0.166 HD
ENDBRANCH   8   9
ENDBRANCH   7   8
BRANCH   7  20
ATOM     20  N   UNL A   1      34.606  25.395  24.831  1.00  0.00    -0.309 N 
ATOM     21  C   UNL A   1      33.702  26.067  24.049  1.00  0.00     0.408 C 
ATOM     22  H   UNL A   1      35.309  25.926  25.269  1.00  0.00     0.167 HD
ATOM     23  O   UNL A   1      33.835  27.270  23.839  1.00  0.00    -0.225 OA
BRANCH  21  24
ATOM     24  O   UNL A   1      32.672  25.299  23.628  1.00  0.00    -0.444 OA
BRANCH  24  25
ATOM     25  C   UNL A   1      31.307  25.803  23.549  1.00  0.00     0.106 C 
ATOM     26  C   UNL A   1      30.859  26.401  24.889  1.00  0.00     0.056 C 
ATOM     27  C   UNL A   1      31.130  26.800  22.400  1.00  0.00     0.056 C 
ATOM     28  C   UNL A   1      30.433  24.571  23.260  1.00  0.00     0.056 C 
ENDBRANCH  24  25
ENDBRANCH  21  24
ENDBRANCH   7  20
ENDBRANCH   4   7
ENDBRANCH   2   3
ENDBRANCH   1   2
BRANCH   1  29
ATOM     29  C   UNL A   1      39.533  22.300  26.865  1.00  0.00     0.118 C 
BRANCH  29  30
ATOM     30  N   UNL A   1      40.939  22.021  26.589  1.00  0.00    -0.352 N 
ATOM     31  C   UNL A   1      41.956  22.923  26.377  1.00  0.00     0.251 C 
ATOM     32  H   UNL A   1      41.190  21.070  26.550  1.00  0.00     0.163 HD
ATOM     33  O   UNL A   1      42.989  22.557  25.827  1.00  0.00    -0.269 OA
BRANCH  31  34
ATOM     34  C   UNL A   1      41.792  24.316  26.832  1.00  0.00     0.039 A 
ATOM     35  C   UNL A   1      41.311  25.296  25.963  1.00  0.00     0.014 A 
ATOM     36  C   UNL A   1      42.164  24.650  28.137  1.00  0.00     0.014 A 
ATOM     37  C   UNL A   1      41.185  26.601  26.430  1.00  0.00     0.010 A 
ATOM     38  C   UNL A   1      41.913  25.899  28.641  1.00  0.00     0.010 A 
ATOM     39  C   UNL A   1      41.488  26.887  27.772  1.00  0.00    -0.014 A 
BRANCH  39  40
ATOM     40  C   UNL A   1      41.226  28.196  28.339  1.00  0.00     0.031 A 
ATOM     41  C   UNL A   1      42.264  29.188  27.983  1.00  0.00     0.074 A 
ATOM     42  C   UNL A   1      40.081  28.536  28.968  1.00  0.00     0.049 A 
ATOM     43  N   UNL A   1      43.261  29.543  28.721  1.00  0.00    -0.248 NA
ATOM     44  C   UNL A   1      42.341  29.678  26.597  1.00  0.00     0.031 C 
ATOM     45  C   UNL A   1      38.854  27.753  29.147  1.00  0.00     0.029 A 
ATOM     46  N   UNL A   1      39.758  29.724  29.545  1.00  0.00    -0.354 N 
ATOM     47  C   UNL A   1      43.936  30.510  27.994  1.00  0.00     0.074 A 
ATOM     48  C   UNL A   1      43.475  30.385  26.634  1.00  0.00     0.031 C 
ATOM     49  C   UNL A   1      37.863  28.554  29.611  1.00  0.00     0.029 A 
ATOM     50  C   UNL A   1      38.423  29.858  29.919  1.00  0.00     0.049 A 
ATOM     51  H   UNL A   1      40.421  30.438  29.688  1.00  0.00     0.167 HD
ATOM     52  C   UNL A   1      44.590  31.521  28.626  1.00  0.00     0.031 A 
ATOM     53  C   UNL A   1      37.844  30.959  30.470  1.00  0.00     0.031 A 
ATOM     54  C   UNL A   1      44.719  31.263  30.041  1.00  0.00     0.049 A 
ATOM     55  C   UNL A   1      38.949  31.719  31.109  1.00  0.00     0.074 A 
ATOM     56  C   UNL A   1      45.312  30.274  30.800  1.00  0.00     0.029 A 
ATOM     57  N   UNL A   1      43.789  31.866  30.857  1.00  0.00    -0.354 N 
ATOM     58  N   UNL A   1      39.638  31.263  32.119  1.00  0.00    -0.248 NA
ATOM     59  C   UNL A   1      39.587  32.769  30.335  1.00  0.00     0.031 C 
ATOM     60  C   UNL A   1      44.398  30.030  31.867  1.00  0.00     0.029 A 
ATOM     61  C   UNL A   1      43.338  30.933  31.755  1.00  0.00     0.049 A 
ATOM     62  H   UNL A   1      43.497  32.805  30.805  1.00  0.00     0.167 HD
ATOM     63  C   UNL A   1      40.945  31.641  31.849  1.00  0.00     0.074 A 
ATOM     64  C   UNL A   1      40.838  32.641  30.785  1.00  0.00     0.031 C 
ATOM     65  C   UNL A   1      42.001  30.912  32.313  1.00  0.00     0.031 A 
BRANCH  52  66
ATOM     66  C   UNL A   1      44.703  32.911  28.060  1.00  0.00    -0.014 A 
ATOM     67  C   UNL A   1      45.982  33.470  27.882  1.00  0.00     0.010 A 
ATOM     68  C   UNL A   1      43.599  33.784  27.955  1.00  0.00     0.010 A 
ATOM     69  C   UNL A   1      46.148  34.842  27.653  1.00  0.00     0.020 A 
ATOM     70  C   UNL A   1      43.750  35.143  27.686  1.00  0.00     0.020 A 
ATOM     71  C   UNL A   1      45.028  35.669  27.559  1.00  0.00     0.054 A 
BRANCH  71  72
ATOM     72  S   UNL A   1      45.259  37.450  27.348  1.00  0.00     0.124 S 
ATOM     73  O   UNL A   1      46.304  37.503  26.330  1.00  0.00    -0.237 OA
ATOM     74  O   UNL A   1      43.931  37.878  26.917  1.00  0.00    -0.237 OA
ATOM     75  O   UNL A   1      45.657  37.904  28.678  1.00  0.00    -0.744 OA
ENDBRANCH  71  72
ENDBRANCH  52  66
BRANCH  53  76
ATOM     76  C   UNL A   1      36.526  31.590  30.172  1.00  0.00    -0.014 A 
ATOM     77  C   UNL A   1      35.904  32.424  31.129  1.00  0.00     0.010 A 
ATOM     78  C   UNL A   1      36.034  31.644  28.854  1.00  0.00     0.010 A 
ATOM     79  C   UNL A   1      34.910  33.350  30.761  1.00  0.00     0.020 A 
ATOM     80  C   UNL A   1      35.034  32.558  28.481  1.00  0.00     0.020 A 
ATOM     81  C   UNL A   1      34.506  33.435  29.428  1.00  0.00     0.054 A 
BRANCH  81  82
ATOM     82  S   UNL A   1      33.368  34.764  28.925  1.00  0.00     0.124 S 
ATOM     83  O   UNL A   1      34.278  35.784  28.411  1.00  0.00    -0.237 OA
ATOM     84  O   UNL A   1      32.536  34.099  27.927  1.00  0.00    -0.237 OA
ATOM     85  O   UNL A   1      32.681  35.118  30.166  1.00  0.00    -0.744 OA
ENDBRANCH  81  82
ENDBRANCH  53  76
BRANCH  65  86
ATOM     86  C   UNL A   1      41.742  29.850  33.360  1.00  0.00    -0.014 A 
ATOM     87  C   UNL A   1      41.472  28.499  33.064  1.00  0.00     0.010 A 
ATOM     88  C   UNL A   1      41.995  30.208  34.696  1.00  0.00     0.010 A 
ATOM     89  C   UNL A   1      41.476  27.529  34.083  1.00  0.00     0.020 A 
ATOM     90  C   UNL A   1      42.015  29.247  35.708  1.00  0.00     0.020 A 
ATOM     91  C   UNL A   1      41.766  27.910  35.399  1.00  0.00     0.054 A 
BRANCH  91  92
ATOM     92  S   UNL A   1      41.868  26.647  36.701  1.00  0.00     0.124 S 
ATOM     93  O   UNL A   1      40.616  26.830  37.429  1.00  0.00    -0.237 OA
ATOM     94  O   UNL A   1      41.976  25.408  35.936  1.00  0.00    -0.237 OA
ATOM     95  O   UNL A   1      43.072  27.012  37.447  1.00  0.00    -0.744 OA
ENDBRANCH  91  92
ENDBRANCH  65  86
ENDBRANCH  39  40
ENDBRANCH  31  34
ENDBRANCH  29  30
ENDBRANCH   1  29
TORSDOF 18
ENDMDL
