MODEL 1
REMARK VINA RESULT:     -10.1      0.000      0.000
REMARK SMILES [NH3+][C@H]1CCC[C@H]1C(=O)NCc1ccc(C(=O)NCCCNC(=O)c2ccc(-c3c4nc(c(-c5ccc(S(=O)(=O)[O-])cc5)c5ccc([nH]5)c(-c5ccc(S(=O)(=O)[O-])cc5)c5nc(c(-c6ccc(S(=O)(=O)[O-])cc6)c6ccc3[nH]6)C=C5)C=C4)cc2)o1
REMARK SMILES IDX 18 1 17 2 15 3 16 4 14 6 11 7 12 8 84 9 13 10 10 11 9 12
REMARK SMILES IDX 7 13 8 14 6 16 2 17 3 18 4 19 5 20 1 21 19 25 20 26 21 27
REMARK SMILES IDX 22 28 23 30 24 31 25 32 83 33 26 34 82 35 27 36 28 37 29 38
REMARK SMILES IDX 76 39 30 40 81 41 75 42 77 43 31 44 80 45 74 46 73 47 32 49
REMARK SMILES IDX 62 50 43 51 61 52 44 53 47 54 60 55 78 56 45 57 46 58 59 60
REMARK SMILES IDX 79 61 48 62 33 63 34 64 42 65 35 66 41 67 36 68 37 69 38 70
REMARK SMILES IDX 39 71 40 72 63 73 64 74 72 75 65 76 71 77 66 78 67 79 68 80
REMARK SMILES IDX 69 81 70 82 49 83 50 84 58 85 51 86 57 87 52 88 53 89 54 90
REMARK SMILES IDX 55 91 56 92
REMARK H PARENT 17 5 9 15 1 22 1 23 1 24 21 29 77 48 47 59
REMARK Flexibility Score: inf
ROOT
ATOM      1  C   UNL A   1      42.210  19.878  27.258  1.00  0.00     0.118 C 
ENDROOT
BRANCH   1   2
ATOM      2  N   UNL A   1      42.493  19.096  26.066  1.00  0.00    -0.349 N 
ATOM      3  C   UNL A   1      43.555  19.195  25.196  1.00  0.00     0.286 C 
ATOM      4  O   UNL A   1      43.751  18.229  24.448  1.00  0.00    -0.266 OA
ATOM      5  H   UNL A   1      41.833  18.398  25.853  1.00  0.00     0.163 HD
BRANCH   3   6
ATOM      6  C   UNL A   1      44.382  20.382  25.185  1.00  0.00     0.191 A 
ATOM      7  C   UNL A   1      44.721  22.568  25.177  1.00  0.00     0.124 A 
ATOM      8  C   UNL A   1      45.965  21.979  25.258  1.00  0.00     0.048 A 
ATOM      9  O   UNL A   1      43.757  21.605  25.151  1.00  0.00    -0.454 OA
ATOM     10  C   UNL A   1      45.748  20.584  25.261  1.00  0.00     0.056 A 
BRANCH   7  11
ATOM     11  C   UNL A   1      44.252  23.980  25.114  1.00  0.00     0.191 C 
BRANCH  11  12
ATOM     12  N   UNL A   1      45.381  24.830  24.802  1.00  0.00    -0.348 N 
ATOM     13  C   UNL A   1      45.630  26.139  25.028  1.00  0.00     0.229 C 
ATOM     14  O   UNL A   1      46.636  26.606  24.478  1.00  0.00    -0.275 OA
ATOM     15  H   UNL A   1      46.111  24.364  24.332  1.00  0.00     0.163 HD
BRANCH  13  16
ATOM     16  C   UNL A   1      44.782  27.048  25.903  1.00  0.00     0.136 C 
ATOM     17  C   UNL A   1      45.409  28.324  26.481  1.00  0.00     0.193 C 
ATOM     18  C   UNL A   1      44.182  28.953  27.157  1.00  0.00     0.066 C 
ATOM     19  C   UNL A   1      43.024  28.700  26.188  1.00  0.00     0.007 C 
ATOM     20  C   UNL A   1      43.403  27.452  25.384  1.00  0.00     0.020 C 
BRANCH  17  21
ATOM     21  N   UNL A   1      45.944  29.279  25.514  1.00  0.00    -0.354 N 
ATOM     22  H   UNL A   1      45.258  30.016  25.350  1.00  0.00     0.344 HD
ATOM     23  H   UNL A   1      46.143  28.798  24.636  1.00  0.00     0.344 HD
ATOM     24  H   UNL A   1      46.803  29.689  25.881  1.00  0.00     0.344 HD
ENDBRANCH  17  21
ENDBRANCH  13  16
ENDBRANCH  11  12
ENDBRANCH   7  11
ENDBRANCH   3   6
ENDBRANCH   1   2
BRANCH   1  25
ATOM     25  C   UNL A   1      40.874  20.613  27.202  1.00  0.00     0.042 C 
BRANCH  25  26
ATOM     26  C   UNL A   1      40.829  21.793  26.236  1.00  0.00     0.118 C 
BRANCH  26  27
ATOM     27  N   UNL A   1      39.487  22.075  25.753  1.00  0.00    -0.352 N 
ATOM     28  C   UNL A   1      38.637  23.118  26.030  1.00  0.00     0.251 C 
ATOM     29  H   UNL A   1      39.128  21.408  25.124  1.00  0.00     0.163 HD
ATOM     30  O   UNL A   1      37.475  23.052  25.632  1.00  0.00    -0.269 OA
BRANCH  28  31
ATOM     31  C   UNL A   1      39.080  24.303  26.807  1.00  0.00     0.039 A 
ATOM     32  C   UNL A   1      39.875  25.260  26.166  1.00  0.00     0.014 A 
ATOM     33  C   UNL A   1      38.787  24.454  28.166  1.00  0.00     0.014 A 
ATOM     34  C   UNL A   1      40.330  26.384  26.865  1.00  0.00     0.010 A 
ATOM     35  C   UNL A   1      39.187  25.605  28.847  1.00  0.00     0.010 A 
ATOM     36  C   UNL A   1      39.971  26.578  28.207  1.00  0.00    -0.014 A 
BRANCH  36  37
ATOM     37  C   UNL A   1      40.423  27.776  28.963  1.00  0.00     0.031 A 
ATOM     38  C   UNL A   1      41.773  27.785  29.631  1.00  0.00     0.074 A 
ATOM     39  C   UNL A   1      39.601  28.835  29.102  1.00  0.00     0.049 A 
ATOM     40  N   UNL A   1      42.303  28.696  30.407  1.00  0.00    -0.248 NA
ATOM     41  C   UNL A   1      42.628  26.607  29.415  1.00  0.00     0.031 C 
ATOM     42  C   UNL A   1      38.256  28.947  28.532  1.00  0.00     0.029 A 
ATOM     43  N   UNL A   1      39.775  30.019  29.776  1.00  0.00    -0.354 N 
ATOM     44  C   UNL A   1      43.537  28.189  30.798  1.00  0.00     0.074 A 
ATOM     45  C   UNL A   1      43.667  26.881  30.192  1.00  0.00     0.031 C 
ATOM     46  C   UNL A   1      37.733  30.139  28.869  1.00  0.00     0.029 A 
ATOM     47  C   UNL A   1      38.690  30.860  29.702  1.00  0.00     0.049 A 
ATOM     48  H   UNL A   1      40.598  30.243  30.265  1.00  0.00     0.167 HD
ATOM     49  C   UNL A   1      44.483  28.762  31.580  1.00  0.00     0.031 A 
ATOM     50  C   UNL A   1      38.483  32.074  30.249  1.00  0.00     0.031 A 
ATOM     51  C   UNL A   1      44.375  30.074  32.159  1.00  0.00     0.049 A 
ATOM     52  C   UNL A   1      39.562  32.705  31.085  1.00  0.00     0.074 A 
ATOM     53  C   UNL A   1      45.302  30.757  32.928  1.00  0.00     0.029 A 
ATOM     54  N   UNL A   1      43.277  30.909  32.023  1.00  0.00    -0.354 N 
ATOM     55  N   UNL A   1      40.735  32.221  31.414  1.00  0.00    -0.248 NA
ATOM     56  C   UNL A   1      39.292  34.050  31.612  1.00  0.00     0.031 C 
ATOM     57  C   UNL A   1      44.755  31.997  33.277  1.00  0.00     0.029 A 
ATOM     58  C   UNL A   1      43.501  32.097  32.696  1.00  0.00     0.049 A 
ATOM     59  H   UNL A   1      42.458  30.689  31.522  1.00  0.00     0.167 HD
ATOM     60  C   UNL A   1      41.352  33.211  32.170  1.00  0.00     0.074 A 
ATOM     61  C   UNL A   1      40.427  34.324  32.241  1.00  0.00     0.031 C 
ATOM     62  C   UNL A   1      42.576  33.199  32.751  1.00  0.00     0.031 A 
BRANCH  49  63
ATOM     63  C   UNL A   1      45.726  27.961  31.860  1.00  0.00    -0.014 A 
ATOM     64  C   UNL A   1      46.837  28.027  31.001  1.00  0.00     0.010 A 
ATOM     65  C   UNL A   1      45.795  27.158  33.012  1.00  0.00     0.010 A 
ATOM     66  C   UNL A   1      47.981  27.270  31.267  1.00  0.00     0.020 A 
ATOM     67  C   UNL A   1      46.944  26.415  33.293  1.00  0.00     0.020 A 
ATOM     68  C   UNL A   1      48.023  26.461  32.407  1.00  0.00     0.054 A 
BRANCH  68  69
ATOM     69  S   UNL A   1      49.523  25.495  32.740  1.00  0.00     0.124 S 
ATOM     70  O   UNL A   1      50.367  26.479  33.414  1.00  0.00    -0.237 OA
ATOM     71  O   UNL A   1      49.031  24.408  33.583  1.00  0.00    -0.237 OA
ATOM     72  O   UNL A   1      49.975  25.092  31.411  1.00  0.00    -0.744 OA
ENDBRANCH  68  69
ENDBRANCH  49  63
BRANCH  50  73
ATOM     73  C   UNL A   1      37.201  32.785  30.008  1.00  0.00    -0.014 A 
ATOM     74  C   UNL A   1      36.132  32.644  30.909  1.00  0.00     0.010 A 
ATOM     75  C   UNL A   1      37.049  33.617  28.884  1.00  0.00     0.010 A 
ATOM     76  C   UNL A   1      34.926  33.314  30.684  1.00  0.00     0.020 A 
ATOM     77  C   UNL A   1      35.851  34.303  28.668  1.00  0.00     0.020 A 
ATOM     78  C   UNL A   1      34.793  34.139  29.563  1.00  0.00     0.054 A 
BRANCH  78  79
ATOM     79  S   UNL A   1      33.242  35.051  29.319  1.00  0.00     0.124 S 
ATOM     80  O   UNL A   1      33.724  36.343  28.843  1.00  0.00    -0.237 OA
ATOM     81  O   UNL A   1      32.540  34.233  28.332  1.00  0.00    -0.237 OA
ATOM     82  O   UNL A   1      32.642  35.055  30.650  1.00  0.00    -0.744 OA
ENDBRANCH  78  79
ENDBRANCH  50  73
BRANCH  62  83
ATOM     83  C   UNL A   1      43.002  34.438  33.487  1.00  0.00    -0.014 A 
ATOM     84  C   UNL A   1      42.907  34.518  34.886  1.00  0.00     0.010 A 
ATOM     85  C   UNL A   1      43.551  35.516  32.769  1.00  0.00     0.010 A 
ATOM     86  C   UNL A   1      43.332  35.669  35.556  1.00  0.00     0.020 A 
ATOM     87  C   UNL A   1      43.993  36.660  33.437  1.00  0.00     0.020 A 
ATOM     88  C   UNL A   1      43.868  36.734  34.826  1.00  0.00     0.054 A 
BRANCH  88  89
ATOM     89  S   UNL A   1      44.456  38.202  35.715  1.00  0.00     0.124 S 
ATOM     90  O   UNL A   1      44.032  39.283  34.830  1.00  0.00    -0.237 OA
ATOM     91  O   UNL A   1      43.746  38.119  36.990  1.00  0.00    -0.237 OA
ATOM     92  O   UNL A   1      45.901  37.996  35.802  1.00  0.00    -0.744 OA
ENDBRANCH  88  89
ENDBRANCH  62  83
ENDBRANCH  36  37
ENDBRANCH  28  31
ENDBRANCH  26  27
ENDBRANCH  25  26
ENDBRANCH   1  25
TORSDOF 17
ENDMDL
MODEL 2
REMARK VINA RESULT:     -10.0      3.783     10.659
REMARK SMILES [NH3+][C@H]1CCC[C@H]1C(=O)NCc1ccc(C(=O)NCCCNC(=O)c2ccc(-c3c4nc(c(-c5ccc(S(=O)(=O)[O-])cc5)c5ccc([nH]5)c(-c5ccc(S(=O)(=O)[O-])cc5)c5nc(c(-c6ccc(S(=O)(=O)[O-])cc6)c6ccc3[nH]6)C=C5)C=C4)cc2)o1
REMARK SMILES IDX 18 1 17 2 15 3 16 4 14 6 11 7 12 8 84 9 13 10 10 11 9 12
REMARK SMILES IDX 7 13 8 14 6 16 2 17 3 18 4 19 5 20 1 21 19 25 20 26 21 27
REMARK SMILES IDX 22 28 23 30 24 31 25 32 83 33 26 34 82 35 27 36 28 37 29 38
REMARK SMILES IDX 76 39 30 40 81 41 75 42 77 43 31 44 80 45 74 46 73 47 32 49
REMARK SMILES IDX 62 50 43 51 61 52 44 53 47 54 60 55 78 56 45 57 46 58 59 60
REMARK SMILES IDX 79 61 48 62 33 63 34 64 42 65 35 66 41 67 36 68 37 69 38 70
REMARK SMILES IDX 39 71 40 72 63 73 64 74 72 75 65 76 71 77 66 78 67 79 68 80
REMARK SMILES IDX 69 81 70 82 49 83 50 84 58 85 51 86 57 87 52 88 53 89 54 90
REMARK SMILES IDX 55 91 56 92
REMARK H PARENT 17 5 9 15 1 22 1 23 1 24 21 29 77 48 47 59
REMARK Flexibility Score: inf
ROOT
ATOM      1  C   UNL A   1      33.279  28.636  24.783  1.00  0.00     0.118 C 
ENDROOT
BRANCH   1   2
ATOM      2  N   UNL A   1      34.034  28.650  23.541  1.00  0.00    -0.349 N 
ATOM      3  C   UNL A   1      33.866  27.873  22.416  1.00  0.00     0.286 C 
ATOM      4  O   UNL A   1      34.408  28.276  21.379  1.00  0.00    -0.266 OA
ATOM      5  H   UNL A   1      34.766  29.305  23.499  1.00  0.00     0.163 HD
BRANCH   3   6
ATOM      6  C   UNL A   1      33.087  26.657  22.478  1.00  0.00     0.191 A 
ATOM      7  C   UNL A   1      32.809  24.465  22.355  1.00  0.00     0.124 A 
ATOM      8  C   UNL A   1      31.595  24.993  22.743  1.00  0.00     0.048 A 
ATOM      9  O   UNL A   1      33.721  25.468  22.211  1.00  0.00    -0.454 OA
ATOM     10  C   UNL A   1      31.772  26.392  22.819  1.00  0.00     0.056 A 
BRANCH   7  11
ATOM     11  C   UNL A   1      33.290  23.084  22.077  1.00  0.00     0.191 C 
BRANCH  11  12
ATOM     12  N   UNL A   1      33.088  22.276  23.261  1.00  0.00    -0.348 N 
ATOM     13  C   UNL A   1      33.879  21.990  24.319  1.00  0.00     0.229 C 
ATOM     14  O   UNL A   1      33.462  21.118  25.092  1.00  0.00    -0.275 OA
ATOM     15  H   UNL A   1      32.201  21.850  23.305  1.00  0.00     0.163 HD
BRANCH  13  16
ATOM     16  C   UNL A   1      35.209  22.664  24.619  1.00  0.00     0.136 C 
ATOM     17  C   UNL A   1      35.389  23.399  25.954  1.00  0.00     0.193 C 
ATOM     18  C   UNL A   1      36.871  23.785  25.859  1.00  0.00     0.066 C 
ATOM     19  C   UNL A   1      37.557  22.569  25.232  1.00  0.00     0.007 C 
ATOM     20  C   UNL A   1      36.483  21.847  24.411  1.00  0.00     0.020 C 
BRANCH  17  21
ATOM     21  N   UNL A   1      35.194  22.604  27.163  1.00  0.00    -0.354 N 
ATOM     22  H   UNL A   1      36.082  22.186  27.441  1.00  0.00     0.344 HD
ATOM     23  H   UNL A   1      34.513  21.866  26.979  1.00  0.00     0.344 HD
ATOM     24  H   UNL A   1      34.851  23.204  27.914  1.00  0.00     0.344 HD
ENDBRANCH  17  21
ENDBRANCH  13  16
ENDBRANCH  11  12
ENDBRANCH   7  11
ENDBRANCH   3   6
ENDBRANCH   1   2
BRANCH   1  25
ATOM     25  C   UNL A   1      33.857  27.697  25.836  1.00  0.00     0.042 C 
BRANCH  25  26
ATOM     26  C   UNL A   1      33.525  28.065  27.279  1.00  0.00     0.118 C 
BRANCH  26  27
ATOM     27  N   UNL A   1      33.384  29.498  27.477  1.00  0.00    -0.352 N 
ATOM     28  C   UNL A   1      34.268  30.424  27.974  1.00  0.00     0.251 C 
ATOM     29  H   UNL A   1      32.509  29.865  27.212  1.00  0.00     0.163 HD
ATOM     30  O   UNL A   1      33.861  31.560  28.210  1.00  0.00    -0.269 OA
BRANCH  28  31
ATOM     31  C   UNL A   1      35.688  30.082  28.248  1.00  0.00     0.039 A 
ATOM     32  C   UNL A   1      36.042  29.702  29.548  1.00  0.00     0.014 A 
ATOM     33  C   UNL A   1      36.681  30.195  27.272  1.00  0.00     0.014 A 
ATOM     34  C   UNL A   1      37.371  29.390  29.855  1.00  0.00     0.010 A 
ATOM     35  C   UNL A   1      37.995  29.823  27.561  1.00  0.00     0.010 A 
ATOM     36  C   UNL A   1      38.357  29.425  28.857  1.00  0.00    -0.014 A 
BRANCH  36  37
ATOM     37  C   UNL A   1      39.770  29.074  29.155  1.00  0.00     0.031 A 
ATOM     38  C   UNL A   1      40.694  30.097  29.762  1.00  0.00     0.074 A 
ATOM     39  C   UNL A   1      40.245  27.855  28.828  1.00  0.00     0.049 A 
ATOM     40  N   UNL A   1      41.976  30.009  30.007  1.00  0.00    -0.248 NA
ATOM     41  C   UNL A   1      40.102  31.396  30.117  1.00  0.00     0.031 C 
ATOM     42  C   UNL A   1      39.468  26.779  28.209  1.00  0.00     0.029 A 
ATOM     43  N   UNL A   1      41.502  27.320  28.964  1.00  0.00    -0.354 N 
ATOM     44  C   UNL A   1      42.352  31.247  30.515  1.00  0.00     0.074 A 
ATOM     45  C   UNL A   1      41.166  32.077  30.520  1.00  0.00     0.031 C 
ATOM     46  C   UNL A   1      40.262  25.709  28.032  1.00  0.00     0.029 A 
ATOM     47  C   UNL A   1      41.608  26.032  28.494  1.00  0.00     0.049 A 
ATOM     48  H   UNL A   1      42.256  27.812  29.361  1.00  0.00     0.167 HD
ATOM     49  C   UNL A   1      43.569  31.656  30.948  1.00  0.00     0.031 A 
ATOM     50  C   UNL A   1      42.670  25.205  28.434  1.00  0.00     0.031 A 
ATOM     51  C   UNL A   1      44.743  30.826  30.975  1.00  0.00     0.049 A 
ATOM     52  C   UNL A   1      44.002  25.668  28.954  1.00  0.00     0.074 A 
ATOM     53  C   UNL A   1      46.009  31.140  31.441  1.00  0.00     0.029 A 
ATOM     54  N   UNL A   1      44.794  29.515  30.530  1.00  0.00    -0.354 N 
ATOM     55  N   UNL A   1      44.326  26.833  29.460  1.00  0.00    -0.248 NA
ATOM     56  C   UNL A   1      45.107  24.702  28.903  1.00  0.00     0.031 C 
ATOM     57  C   UNL A   1      46.833  30.024  31.255  1.00  0.00     0.029 A 
ATOM     58  C   UNL A   1      46.070  29.006  30.705  1.00  0.00     0.049 A 
ATOM     59  H   UNL A   1      44.036  29.018  30.146  1.00  0.00     0.167 HD
ATOM     60  C   UNL A   1      45.667  26.732  29.809  1.00  0.00     0.074 A 
ATOM     61  C   UNL A   1      46.092  25.391  29.464  1.00  0.00     0.031 C 
ATOM     62  C   UNL A   1      46.475  27.668  30.366  1.00  0.00     0.031 A 
BRANCH  49  63
ATOM     63  C   UNL A   1      43.690  33.077  31.428  1.00  0.00    -0.014 A 
ATOM     64  C   UNL A   1      43.467  33.406  32.776  1.00  0.00     0.010 A 
ATOM     65  C   UNL A   1      44.060  34.089  30.525  1.00  0.00     0.010 A 
ATOM     66  C   UNL A   1      43.573  34.731  33.206  1.00  0.00     0.020 A 
ATOM     67  C   UNL A   1      44.186  35.413  30.955  1.00  0.00     0.020 A 
ATOM     68  C   UNL A   1      43.922  35.728  32.289  1.00  0.00     0.054 A 
BRANCH  68  69
ATOM     69  S   UNL A   1      44.065  37.441  32.871  1.00  0.00     0.124 S 
ATOM     70  O   UNL A   1      45.391  37.438  33.486  1.00  0.00    -0.237 OA
ATOM     71  O   UNL A   1      43.948  38.215  31.638  1.00  0.00    -0.237 OA
ATOM     72  O   UNL A   1      42.947  37.583  33.800  1.00  0.00    -0.744 OA
ENDBRANCH  68  69
ENDBRANCH  49  63
BRANCH  50  73
ATOM     73  C   UNL A   1      42.511  23.838  27.872  1.00  0.00    -0.014 A 
ATOM     74  C   UNL A   1      41.955  22.811  28.653  1.00  0.00     0.010 A 
ATOM     75  C   UNL A   1      42.902  23.563  26.550  1.00  0.00     0.010 A 
ATOM     76  C   UNL A   1      41.804  21.525  28.126  1.00  0.00     0.020 A 
ATOM     77  C   UNL A   1      42.734  22.283  26.013  1.00  0.00     0.020 A 
ATOM     78  C   UNL A   1      42.196  21.270  26.808  1.00  0.00     0.054 A 
BRANCH  78  79
ATOM     79  S   UNL A   1      41.935  19.612  26.117  1.00  0.00     0.124 S 
ATOM     80  O   UNL A   1      42.420  18.756  27.195  1.00  0.00    -0.237 OA
ATOM     81  O   UNL A   1      40.494  19.583  25.883  1.00  0.00    -0.237 OA
ATOM     82  O   UNL A   1      42.752  19.621  24.905  1.00  0.00    -0.744 OA
ENDBRANCH  78  79
ENDBRANCH  50  73
BRANCH  62  83
ATOM     83  C   UNL A   1      47.890  27.264  30.670  1.00  0.00    -0.014 A 
ATOM     84  C   UNL A   1      48.220  26.637  31.884  1.00  0.00     0.010 A 
ATOM     85  C   UNL A   1      48.893  27.470  29.706  1.00  0.00     0.010 A 
ATOM     86  C   UNL A   1      49.537  26.246  32.139  1.00  0.00     0.020 A 
ATOM     87  C   UNL A   1      50.206  27.064  29.950  1.00  0.00     0.020 A 
ATOM     88  C   UNL A   1      50.522  26.466  31.172  1.00  0.00     0.054 A 
BRANCH  88  89
ATOM     89  S   UNL A   1      52.218  25.911  31.502  1.00  0.00     0.124 S 
ATOM     90  O   UNL A   1      52.810  25.938  30.167  1.00  0.00    -0.237 OA
ATOM     91  O   UNL A   1      52.718  26.921  32.432  1.00  0.00    -0.237 OA
ATOM     92  O   UNL A   1      52.038  24.579  32.078  1.00  0.00    -0.744 OA
ENDBRANCH  88  89
ENDBRANCH  62  83
ENDBRANCH  36  37
ENDBRANCH  28  31
ENDBRANCH  26  27
ENDBRANCH  25  26
ENDBRANCH   1  25
TORSDOF 17
ENDMDL
MODEL 3
REMARK VINA RESULT:     -10.0      1.357      8.424
REMARK SMILES [NH3+][C@H]1CCC[C@H]1C(=O)NCc1ccc(C(=O)NCCCNC(=O)c2ccc(-c3c4nc(c(-c5ccc(S(=O)(=O)[O-])cc5)c5ccc([nH]5)c(-c5ccc(S(=O)(=O)[O-])cc5)c5nc(c(-c6ccc(S(=O)(=O)[O-])cc6)c6ccc3[nH]6)C=C5)C=C4)cc2)o1
REMARK SMILES IDX 18 1 17 2 15 3 16 4 14 6 11 7 12 8 84 9 13 10 10 11 9 12
REMARK SMILES IDX 7 13 8 14 6 16 2 17 3 18 4 19 5 20 1 21 19 25 20 26 21 27
REMARK SMILES IDX 22 28 23 30 24 31 25 32 83 33 26 34 82 35 27 36 28 37 29 38
REMARK SMILES IDX 76 39 30 40 81 41 75 42 77 43 31 44 80 45 74 46 73 47 32 49
REMARK SMILES IDX 62 50 43 51 61 52 44 53 47 54 60 55 78 56 45 57 46 58 59 60
REMARK SMILES IDX 79 61 48 62 33 63 34 64 42 65 35 66 41 67 36 68 37 69 38 70
REMARK SMILES IDX 39 71 40 72 63 73 64 74 72 75 65 76 71 77 66 78 67 79 68 80
REMARK SMILES IDX 69 81 70 82 49 83 50 84 58 85 51 86 57 87 52 88 53 89 54 90
REMARK SMILES IDX 55 91 56 92
REMARK H PARENT 17 5 9 15 1 22 1 23 1 24 21 29 77 48 47 59
REMARK Flexibility Score: inf
ROOT
ATOM      1  C   UNL A   1      42.153  20.443  27.600  1.00  0.00     0.118 C 
ENDROOT
BRANCH   1   2
ATOM      2  N   UNL A   1      41.919  19.228  26.837  1.00  0.00    -0.349 N 
ATOM      3  C   UNL A   1      42.757  18.582  25.956  1.00  0.00     0.286 C 
ATOM      4  O   UNL A   1      42.472  17.411  25.677  1.00  0.00    -0.266 OA
ATOM      5  H   UNL A   1      41.038  18.810  26.969  1.00  0.00     0.163 HD
BRANCH   3   6
ATOM      6  C   UNL A   1      43.907  19.267  25.408  1.00  0.00     0.191 A 
ATOM      7  C   UNL A   1      44.927  20.969  24.429  1.00  0.00     0.124 A 
ATOM      8  C   UNL A   1      45.908  20.050  24.737  1.00  0.00     0.048 A 
ATOM      9  O   UNL A   1      43.715  20.508  24.850  1.00  0.00    -0.454 OA
ATOM     10  C   UNL A   1      45.255  18.962  25.359  1.00  0.00     0.056 A 
BRANCH   7  11
ATOM     11  C   UNL A   1      44.935  22.299  23.760  1.00  0.00     0.191 C 
BRANCH  11  12
ATOM     12  N   UNL A   1      45.940  23.129  24.391  1.00  0.00    -0.348 N 
ATOM     13  C   UNL A   1      45.993  23.745  25.593  1.00  0.00     0.229 C 
ATOM     14  O   UNL A   1      46.936  24.529  25.762  1.00  0.00    -0.275 OA
ATOM     15  H   UNL A   1      46.740  23.275  23.836  1.00  0.00     0.163 HD
BRANCH  13  16
ATOM     16  C   UNL A   1      45.002  23.532  26.726  1.00  0.00     0.136 C 
ATOM     17  C   UNL A   1      45.510  23.544  28.174  1.00  0.00     0.193 C 
ATOM     18  C   UNL A   1      44.181  23.425  28.933  1.00  0.00     0.066 C 
ATOM     19  C   UNL A   1      43.201  24.310  28.159  1.00  0.00     0.007 C 
ATOM     20  C   UNL A   1      43.723  24.367  26.719  1.00  0.00     0.020 C 
BRANCH  17  21
ATOM     21  N   UNL A   1      46.186  24.762  28.614  1.00  0.00    -0.354 N 
ATOM     22  H   UNL A   1      46.858  24.532  29.345  1.00  0.00     0.344 HD
ATOM     23  H   UNL A   1      45.497  25.420  28.980  1.00  0.00     0.344 HD
ATOM     24  H   UNL A   1      46.673  25.185  27.824  1.00  0.00     0.344 HD
ENDBRANCH  17  21
ENDBRANCH  13  16
ENDBRANCH  11  12
ENDBRANCH   7  11
ENDBRANCH   3   6
ENDBRANCH   1   2
BRANCH   1  25
ATOM     25  C   UNL A   1      41.009  21.447  27.512  1.00  0.00     0.042 C 
BRANCH  25  26
ATOM     26  C   UNL A   1      40.979  22.279  26.234  1.00  0.00     0.118 C 
BRANCH  26  27
ATOM     27  N   UNL A   1      39.629  22.592  25.796  1.00  0.00    -0.352 N 
ATOM     28  C   UNL A   1      38.780  23.607  26.167  1.00  0.00     0.251 C 
ATOM     29  H   UNL A   1      39.261  21.974  25.122  1.00  0.00     0.163 HD
ATOM     30  O   UNL A   1      37.612  23.567  25.784  1.00  0.00    -0.269 OA
BRANCH  28  31
ATOM     31  C   UNL A   1      39.232  24.730  27.027  1.00  0.00     0.039 A 
ATOM     32  C   UNL A   1      40.047  25.716  26.459  1.00  0.00     0.014 A 
ATOM     33  C   UNL A   1      38.929  24.792  28.390  1.00  0.00     0.014 A 
ATOM     34  C   UNL A   1      40.511  26.783  27.237  1.00  0.00     0.010 A 
ATOM     35  C   UNL A   1      39.339  25.889  29.151  1.00  0.00     0.010 A 
ATOM     36  C   UNL A   1      40.142  26.891  28.586  1.00  0.00    -0.014 A 
BRANCH  36  37
ATOM     37  C   UNL A   1      40.604  28.027  29.426  1.00  0.00     0.031 A 
ATOM     38  C   UNL A   1      39.721  29.231  29.623  1.00  0.00     0.074 A 
ATOM     39  C   UNL A   1      41.839  28.008  29.966  1.00  0.00     0.049 A 
ATOM     40  N   UNL A   1      39.983  30.355  30.241  1.00  0.00    -0.248 NA
ATOM     41  C   UNL A   1      38.377  29.173  29.028  1.00  0.00     0.031 C 
ATOM     42  C   UNL A   1      42.808  26.919  29.830  1.00  0.00     0.029 A 
ATOM     43  N   UNL A   1      42.494  28.941  30.731  1.00  0.00    -0.354 N 
ATOM     44  C   UNL A   1      38.852  31.147  30.084  1.00  0.00     0.074 A 
ATOM     45  C   UNL A   1      37.910  30.386  29.292  1.00  0.00     0.031 C 
ATOM     46  C   UNL A   1      43.928  27.240  30.501  1.00  0.00     0.029 A 
ATOM     47  C   UNL A   1      43.768  28.567  31.087  1.00  0.00     0.049 A 
ATOM     48  H   UNL A   1      42.089  29.797  31.000  1.00  0.00     0.167 HD
ATOM     49  C   UNL A   1      38.612  32.392  30.563  1.00  0.00     0.031 A 
ATOM     50  C   UNL A   1      44.708  29.220  31.798  1.00  0.00     0.031 A 
ATOM     51  C   UNL A   1      39.530  33.141  31.378  1.00  0.00     0.049 A 
ATOM     52  C   UNL A   1      44.405  30.586  32.350  1.00  0.00     0.074 A 
ATOM     53  C   UNL A   1      39.354  34.391  31.948  1.00  0.00     0.029 A 
ATOM     54  N   UNL A   1      40.792  32.706  31.749  1.00  0.00    -0.354 N 
ATOM     55  N   UNL A   1      43.316  31.303  32.216  1.00  0.00    -0.248 NA
ATOM     56  C   UNL A   1      45.454  31.224  33.157  1.00  0.00     0.031 C 
ATOM     57  C   UNL A   1      40.521  34.722  32.646  1.00  0.00     0.029 A 
ATOM     58  C   UNL A   1      41.408  33.663  32.537  1.00  0.00     0.049 A 
ATOM     59  H   UNL A   1      41.192  31.844  31.491  1.00  0.00     0.167 HD
ATOM     60  C   UNL A   1      43.540  32.468  32.940  1.00  0.00     0.074 A 
ATOM     61  C   UNL A   1      44.864  32.356  33.517  1.00  0.00     0.031 C 
ATOM     62  C   UNL A   1      42.722  33.534  33.111  1.00  0.00     0.031 A 
BRANCH  49  63
ATOM     63  C   UNL A   1      37.294  33.025  30.210  1.00  0.00    -0.014 A 
ATOM     64  C   UNL A   1      37.110  33.668  28.973  1.00  0.00     0.010 A 
ATOM     65  C   UNL A   1      36.218  32.951  31.112  1.00  0.00     0.010 A 
ATOM     66  C   UNL A   1      35.883  34.261  28.661  1.00  0.00     0.020 A 
ATOM     67  C   UNL A   1      34.984  33.525  30.796  1.00  0.00     0.020 A 
ATOM     68  C   UNL A   1      34.831  34.194  29.580  1.00  0.00     0.054 A 
BRANCH  68  69
ATOM     69  S   UNL A   1      33.244  34.961  29.151  1.00  0.00     0.124 S 
ATOM     70  O   UNL A   1      32.723  34.029  28.153  1.00  0.00    -0.237 OA
ATOM     71  O   UNL A   1      32.532  34.975  30.427  1.00  0.00    -0.237 OA
ATOM     72  O   UNL A   1      33.623  36.275  28.639  1.00  0.00    -0.744 OA
ENDBRANCH  68  69
ENDBRANCH  49  63
BRANCH  50  73
ATOM     73  C   UNL A   1      46.025  28.580  32.047  1.00  0.00    -0.014 A 
ATOM     74  C   UNL A   1      47.087  28.770  31.146  1.00  0.00     0.010 A 
ATOM     75  C   UNL A   1      46.228  27.790  33.192  1.00  0.00     0.010 A 
ATOM     76  C   UNL A   1      48.327  28.170  31.379  1.00  0.00     0.020 A 
ATOM     77  C   UNL A   1      47.473  27.205  33.438  1.00  0.00     0.020 A 
ATOM     78  C   UNL A   1      48.512  27.390  32.525  1.00  0.00     0.054 A 
BRANCH  78  79
ATOM     79  S   UNL A   1      50.147  26.669  32.846  1.00  0.00     0.124 S 
ATOM     80  O   UNL A   1      49.870  25.785  33.973  1.00  0.00    -0.237 OA
ATOM     81  O   UNL A   1      50.460  26.006  31.582  1.00  0.00    -0.237 OA
ATOM     82  O   UNL A   1      50.974  27.834  33.149  1.00  0.00    -0.744 OA
ENDBRANCH  78  79
ENDBRANCH  50  73
BRANCH  62  83
ATOM     83  C   UNL A   1      43.219  34.651  33.986  1.00  0.00    -0.014 A 
ATOM     84  C   UNL A   1      43.926  35.736  33.442  1.00  0.00     0.010 A 
ATOM     85  C   UNL A   1      42.929  34.636  35.362  1.00  0.00     0.010 A 
ATOM     86  C   UNL A   1      44.359  36.779  34.266  1.00  0.00     0.020 A 
ATOM     87  C   UNL A   1      43.344  35.685  36.185  1.00  0.00     0.020 A 
ATOM     88  C   UNL A   1      44.069  36.743  35.634  1.00  0.00     0.054 A 
BRANCH  88  89
ATOM     89  S   UNL A   1      44.599  38.127  36.681  1.00  0.00     0.124 S 
ATOM     90  O   UNL A   1      43.734  37.972  37.848  1.00  0.00    -0.237 OA
ATOM     91  O   UNL A   1      46.014  37.843  36.907  1.00  0.00    -0.237 OA
ATOM     92  O   UNL A   1      44.331  39.304  35.858  1.00  0.00    -0.744 OA
ENDBRANCH  88  89
ENDBRANCH  62  83
ENDBRANCH  36  37
ENDBRANCH  28  31
ENDBRANCH  26  27
ENDBRANCH  25  26
ENDBRANCH   1  25
TORSDOF 17
ENDMDL
