MODEL 1
REMARK VINA RESULT:     -13.2      0.000      0.000
REMARK SMILES COc1ccc(-n2c(SCc3cn(-c4ccc(C(=O)NCCCNC(=O)c5ccc(-c6c7nc(c(-c8ccc(S(=O)(=O)[O-])cc8)c8ccc([nH]8)c(-c8ccc(S(=O)(=O)[O-])cc8)c8nc(c(-c9ccc(S(=O)(=O)[O-])cc9)c9ccc6[nH]9)C=C8)C=C7)cc5)cc4)nn3)nc3ccccc3c2=O)cc1
REMARK SMILES IDX 18 1 19 2 20 3 17 5 14 6 15 7 88 8 16 9 87 10 13 11 11 12
REMARK SMILES IDX 12 13 90 14 89 15 10 16 9 17 8 18 7 19 98 20 91 21 97 22
REMARK SMILES IDX 99 23 92 24 96 25 93 26 95 27 94 28 6 29 3 30 4 31 101 32
REMARK SMILES IDX 5 33 100 34 2 35 1 36 21 37 22 38 23 39 24 40 25 41 26 43
REMARK SMILES IDX 27 44 28 45 86 46 29 47 85 48 30 49 31 50 32 51 79 52 33 53
REMARK SMILES IDX 84 54 78 55 80 56 34 57 83 58 77 59 76 60 35 62 65 63 46 64
REMARK SMILES IDX 64 65 47 66 50 67 63 68 81 69 48 70 49 71 62 73 82 74 51 75
REMARK SMILES IDX 36 76 37 77 45 78 38 79 44 80 39 81 40 82 41 83 42 84 43 85
REMARK SMILES IDX 66 86 67 87 75 88 68 89 74 90 69 91 70 92 71 93 72 94 73 95
REMARK SMILES IDX 52 96 53 97 61 98 54 99 60 100 55 101 56 102 57 103 58 104
REMARK SMILES IDX 59 105
REMARK H PARENT 20 4 24 42 80 61 50 72
REMARK Flexibility Score: inf
ROOT
ATOM      1  C   UNL A   1      41.897  21.289  27.989  1.00  0.00     0.251 C 
ATOM      2  O   UNL A   1      42.333  22.184  28.711  1.00  0.00    -0.269 OA
ATOM      3  N   UNL A   1      42.564  20.089  27.972  1.00  0.00    -0.352 N 
ATOM      4  H   UNL A   1      43.434  20.107  28.434  1.00  0.00     0.163 HD
ENDROOT
BRANCH   1   5
ATOM      5  C   UNL A   1      40.668  21.548  27.196  1.00  0.00     0.039 A 
ATOM      6  C   UNL A   1      38.426  22.173  25.674  1.00  0.00     0.066 A 
ATOM      7  C   UNL A   1      38.980  23.156  26.491  1.00  0.00     0.029 A 
ATOM      8  C   UNL A   1      38.958  20.892  25.612  1.00  0.00     0.029 A 
ATOM      9  C   UNL A   1      40.120  22.843  27.233  1.00  0.00     0.016 A 
ATOM     10  C   UNL A   1      40.077  20.589  26.370  1.00  0.00     0.016 A 
BRANCH   6  11
ATOM     11  N   UNL A   1      37.262  22.437  24.955  1.00  0.00    -0.220 N 
ATOM     12  C   UNL A   1      35.472  23.486  24.322  1.00  0.00     0.093 A 
ATOM     13  C   UNL A   1      36.770  23.692  24.730  1.00  0.00     0.141 A 
ATOM     14  N   UNL A   1      35.223  22.139  24.313  1.00  0.00    -0.134 NA
ATOM     15  N   UNL A   1      36.297  21.515  24.769  1.00  0.00    -0.062 NA
BRANCH  12  16
ATOM     16  C   UNL A   1      34.375  24.418  24.020  1.00  0.00     0.138 C 
BRANCH  16  17
ATOM     17  S   UNL A   1      33.953  25.573  25.306  1.00  0.00    -0.081 SA
BRANCH  17  18
ATOM     18  C   UNL A   1      32.294  25.172  25.825  1.00  0.00     0.176 A 
ATOM     19  N   UNL A   1      31.457  24.743  24.808  1.00  0.00    -0.255 N 
ATOM     20  C   UNL A   1      30.523  25.655  24.333  1.00  0.00     0.266 A 
ATOM     21  N   UNL A   1      31.828  25.952  26.755  1.00  0.00    -0.223 NA
ATOM     22  C   UNL A   1      30.734  27.030  24.871  1.00  0.00     0.066 A 
ATOM     23  O   UNL A   1      29.630  25.438  23.524  1.00  0.00    -0.268 OA
ATOM     24  C   UNL A   1      31.295  27.114  26.158  1.00  0.00     0.079 A 
ATOM     25  C   UNL A   1      30.665  28.155  24.056  1.00  0.00     0.016 A 
ATOM     26  C   UNL A   1      31.668  28.351  26.679  1.00  0.00     0.029 A 
ATOM     27  C   UNL A   1      31.148  29.372  24.547  1.00  0.00     0.001 A 
ATOM     28  C   UNL A   1      31.617  29.477  25.862  1.00  0.00     0.002 A 
BRANCH  19  29
ATOM     29  C   UNL A   1      31.396  23.361  24.506  1.00  0.00     0.052 A 
ATOM     30  C   UNL A   1      32.269  20.779  23.917  1.00  0.00     0.119 A 
ATOM     31  C   UNL A   1      31.908  21.100  25.225  1.00  0.00     0.048 A 
ATOM     32  C   UNL A   1      32.015  21.684  22.886  1.00  0.00     0.048 A 
ATOM     33  C   UNL A   1      31.496  22.404  25.527  1.00  0.00     0.030 A 
ATOM     34  C   UNL A   1      31.554  22.969  23.178  1.00  0.00     0.030 A 
BRANCH  30  35
ATOM     35  O   UNL A   1      32.839  19.559  23.683  1.00  0.00    -0.497 OA
ATOM     36  C   UNL A   1      33.276  18.920  24.890  1.00  0.00     0.278 C 
ENDBRANCH  30  35
ENDBRANCH  19  29
ENDBRANCH  17  18
ENDBRANCH  16  17
ENDBRANCH  12  16
ENDBRANCH   6  11
ENDBRANCH   1   5
BRANCH   3  37
ATOM     37  C   UNL A   1      42.226  18.794  27.397  1.00  0.00     0.118 C 
BRANCH  37  38
ATOM     38  C   UNL A   1      42.995  18.493  26.100  1.00  0.00     0.042 C 
BRANCH  38  39
ATOM     39  C   UNL A   1      43.398  19.752  25.362  1.00  0.00     0.118 C 
BRANCH  39  40
ATOM     40  N   UNL A   1      44.850  19.885  25.186  1.00  0.00    -0.352 N 
ATOM     41  C   UNL A   1      45.629  21.038  25.082  1.00  0.00     0.251 C 
ATOM     42  H   UNL A   1      45.346  19.038  25.135  1.00  0.00     0.163 HD
ATOM     43  O   UNL A   1      46.743  20.986  24.600  1.00  0.00    -0.269 OA
BRANCH  41  44
ATOM     44  C   UNL A   1      45.079  22.318  25.578  1.00  0.00     0.039 A 
ATOM     45  C   UNL A   1      43.845  22.858  25.197  1.00  0.00     0.014 A 
ATOM     46  C   UNL A   1      45.840  22.988  26.504  1.00  0.00     0.014 A 
ATOM     47  C   UNL A   1      43.457  24.076  25.768  1.00  0.00     0.010 A 
ATOM     48  C   UNL A   1      45.168  23.752  27.391  1.00  0.00     0.010 A 
ATOM     49  C   UNL A   1      44.188  24.546  26.857  1.00  0.00    -0.014 A 
BRANCH  49  50
ATOM     50  C   UNL A   1      43.973  25.788  27.575  1.00  0.00     0.031 A 
ATOM     51  C   UNL A   1      44.952  26.837  27.237  1.00  0.00     0.074 A 
ATOM     52  C   UNL A   1      42.805  26.057  28.209  1.00  0.00     0.049 A 
ATOM     53  N   UNL A   1      45.970  27.196  27.939  1.00  0.00    -0.248 NA
ATOM     54  C   UNL A   1      44.934  27.397  25.875  1.00  0.00     0.031 C 
ATOM     55  C   UNL A   1      41.578  25.248  28.289  1.00  0.00     0.029 A 
ATOM     56  N   UNL A   1      42.429  27.204  28.832  1.00  0.00    -0.354 N 
ATOM     57  C   UNL A   1      46.582  28.208  27.213  1.00  0.00     0.074 A 
ATOM     58  C   UNL A   1      46.074  28.092  25.870  1.00  0.00     0.031 C 
ATOM     59  C   UNL A   1      40.548  26.020  28.717  1.00  0.00     0.029 A 
ATOM     60  C   UNL A   1      41.065  27.327  29.083  1.00  0.00     0.049 A 
ATOM     61  H   UNL A   1      43.076  27.899  29.087  1.00  0.00     0.167 HD
ATOM     62  C   UNL A   1      47.231  29.232  27.832  1.00  0.00     0.031 A 
ATOM     63  C   UNL A   1      40.422  28.446  29.514  1.00  0.00     0.031 A 
ATOM     64  C   UNL A   1      47.312  29.007  29.255  1.00  0.00     0.049 A 
ATOM     65  C   UNL A   1      41.466  29.330  30.107  1.00  0.00     0.074 A 
ATOM     66  C   UNL A   1      47.876  28.028  30.048  1.00  0.00     0.029 A 
ATOM     67  N   UNL A   1      46.351  29.625  30.030  1.00  0.00    -0.354 N 
ATOM     68  N   UNL A   1      42.141  29.011  31.178  1.00  0.00    -0.248 NA
ATOM     69  C   UNL A   1      42.117  30.299  29.235  1.00  0.00     0.031 C 
ATOM     70  C   UNL A   1      46.915  27.789  31.072  1.00  0.00     0.029 A 
ATOM     71  C   UNL A   1      45.862  28.696  30.915  1.00  0.00     0.049 A 
ATOM     72  H   UNL A   1      46.067  30.565  29.960  1.00  0.00     0.167 HD
ATOM     73  C   UNL A   1      43.453  29.374  30.899  1.00  0.00     0.074 A 
ATOM     74  C   UNL A   1      43.360  30.251  29.730  1.00  0.00     0.031 C 
ATOM     75  C   UNL A   1      44.510  28.694  31.440  1.00  0.00     0.031 A 
BRANCH  62  76
ATOM     76  C   UNL A   1      47.429  30.604  27.245  1.00  0.00    -0.014 A 
ATOM     77  C   UNL A   1      48.719  31.168  27.294  1.00  0.00     0.010 A 
ATOM     78  C   UNL A   1      46.371  31.457  26.869  1.00  0.00     0.010 A 
ATOM     79  C   UNL A   1      48.927  32.532  27.056  1.00  0.00     0.020 A 
ATOM     80  C   UNL A   1      46.573  32.808  26.587  1.00  0.00     0.020 A 
ATOM     81  C   UNL A   1      47.845  33.345  26.720  1.00  0.00     0.054 A 
BRANCH  81  82
ATOM     82  S   UNL A   1      48.107  35.123  26.526  1.00  0.00     0.124 S 
ATOM     83  O   UNL A   1      47.966  35.292  25.083  1.00  0.00    -0.237 OA
ATOM     84  O   UNL A   1      47.033  35.683  27.340  1.00  0.00    -0.237 OA
ATOM     85  O   UNL A   1      49.456  35.329  27.052  1.00  0.00    -0.744 OA
ENDBRANCH  81  82
ENDBRANCH  62  76
BRANCH  63  86
ATOM     86  C   UNL A   1      39.057  28.923  29.163  1.00  0.00    -0.014 A 
ATOM     87  C   UNL A   1      38.089  29.195  30.151  1.00  0.00     0.010 A 
ATOM     88  C   UNL A   1      38.788  29.381  27.854  1.00  0.00     0.010 A 
ATOM     89  C   UNL A   1      36.936  29.950  29.855  1.00  0.00     0.020 A 
ATOM     90  C   UNL A   1      37.641  30.129  27.553  1.00  0.00     0.020 A 
ATOM     91  C   UNL A   1      36.730  30.434  28.560  1.00  0.00     0.054 A 
BRANCH  91  92
ATOM     92  S   UNL A   1      35.349  31.571  28.229  1.00  0.00     0.124 S 
ATOM     93  O   UNL A   1      34.810  31.808  29.565  1.00  0.00    -0.237 OA
ATOM     94  O   UNL A   1      36.017  32.711  27.606  1.00  0.00    -0.237 OA
ATOM     95  O   UNL A   1      34.479  30.807  27.336  1.00  0.00    -0.744 OA
ENDBRANCH  91  92
ENDBRANCH  63  86
BRANCH  75  96
ATOM     96  C   UNL A   1      44.231  27.684  32.535  1.00  0.00    -0.014 A 
ATOM     97  C   UNL A   1      43.854  28.032  33.849  1.00  0.00     0.010 A 
ATOM     98  C   UNL A   1      44.167  26.331  32.162  1.00  0.00     0.010 A 
ATOM     99  C   UNL A   1      43.446  27.049  34.767  1.00  0.00     0.020 A 
ATOM    100  C   UNL A   1      43.743  25.351  33.063  1.00  0.00     0.020 A 
ATOM    101  C   UNL A   1      43.393  25.711  34.363  1.00  0.00     0.054 A 
BRANCH 101 102
ATOM    102  S   UNL A   1      42.821  24.444  35.532  1.00  0.00     0.124 S 
ATOM    103  O   UNL A   1      43.010  23.208  34.776  1.00  0.00    -0.237 OA
ATOM    104  O   UNL A   1      43.712  24.626  36.675  1.00  0.00    -0.237 OA
ATOM    105  O   UNL A   1      41.427  24.807  35.782  1.00  0.00    -0.744 OA
ENDBRANCH 101 102
ENDBRANCH  75  96
ENDBRANCH  49  50
ENDBRANCH  41  44
ENDBRANCH  39  40
ENDBRANCH  38  39
ENDBRANCH  37  38
ENDBRANCH   3  37
TORSDOF 19
ENDMDL
MODEL 2
REMARK VINA RESULT:     -13.0      1.325      3.320
REMARK SMILES COc1ccc(-n2c(SCc3cn(-c4ccc(C(=O)NCCCNC(=O)c5ccc(-c6c7nc(c(-c8ccc(S(=O)(=O)[O-])cc8)c8ccc([nH]8)c(-c8ccc(S(=O)(=O)[O-])cc8)c8nc(c(-c9ccc(S(=O)(=O)[O-])cc9)c9ccc6[nH]9)C=C8)C=C7)cc5)cc4)nn3)nc3ccccc3c2=O)cc1
REMARK SMILES IDX 18 1 19 2 20 3 17 5 14 6 15 7 88 8 16 9 87 10 13 11 11 12
REMARK SMILES IDX 12 13 90 14 89 15 10 16 9 17 8 18 7 19 98 20 91 21 97 22
REMARK SMILES IDX 99 23 92 24 96 25 93 26 95 27 94 28 6 29 3 30 4 31 101 32
REMARK SMILES IDX 5 33 100 34 2 35 1 36 21 37 22 38 23 39 24 40 25 41 26 43
REMARK SMILES IDX 27 44 28 45 86 46 29 47 85 48 30 49 31 50 32 51 79 52 33 53
REMARK SMILES IDX 84 54 78 55 80 56 34 57 83 58 77 59 76 60 35 62 65 63 46 64
REMARK SMILES IDX 64 65 47 66 50 67 63 68 81 69 48 70 49 71 62 73 82 74 51 75
REMARK SMILES IDX 36 76 37 77 45 78 38 79 44 80 39 81 40 82 41 83 42 84 43 85
REMARK SMILES IDX 66 86 67 87 75 88 68 89 74 90 69 91 70 92 71 93 72 94 73 95
REMARK SMILES IDX 52 96 53 97 61 98 54 99 60 100 55 101 56 102 57 103 58 104
REMARK SMILES IDX 59 105
REMARK H PARENT 20 4 24 42 80 61 50 72
REMARK Flexibility Score: inf
ROOT
ATOM      1  C   UNL A   1      42.213  21.288  27.312  1.00  0.00     0.251 C 
ATOM      2  O   UNL A   1      42.624  21.905  28.292  1.00  0.00    -0.269 OA
ATOM      3  N   UNL A   1      43.022  20.317  26.773  1.00  0.00    -0.352 N 
ATOM      4  H   UNL A   1      43.936  20.310  27.138  1.00  0.00     0.163 HD
ENDROOT
BRANCH   1   5
ATOM      5  C   UNL A   1      40.863  21.609  26.781  1.00  0.00     0.039 A 
ATOM      6  C   UNL A   1      38.288  22.067  25.837  1.00  0.00     0.066 A 
ATOM      7  C   UNL A   1      38.862  20.813  25.643  1.00  0.00     0.029 A 
ATOM      8  C   UNL A   1      38.974  23.092  26.476  1.00  0.00     0.029 A 
ATOM      9  C   UNL A   1      40.145  20.582  26.142  1.00  0.00     0.016 A 
ATOM     10  C   UNL A   1      40.255  22.854  26.947  1.00  0.00     0.016 A 
BRANCH   6  11
ATOM     11  N   UNL A   1      37.028  22.348  25.312  1.00  0.00    -0.220 N 
ATOM     12  C   UNL A   1      35.506  23.355  24.141  1.00  0.00     0.093 A 
ATOM     13  C   UNL A   1      36.820  22.950  24.103  1.00  0.00     0.141 A 
ATOM     14  N   UNL A   1      34.969  22.994  25.348  1.00  0.00    -0.134 NA
ATOM     15  N   UNL A   1      35.926  22.445  26.080  1.00  0.00    -0.062 NA
BRANCH  12  16
ATOM     16  C   UNL A   1      34.690  24.142  23.203  1.00  0.00     0.138 C 
BRANCH  16  17
ATOM     17  S   UNL A   1      33.814  25.526  23.898  1.00  0.00    -0.081 SA
BRANCH  17  18
ATOM     18  C   UNL A   1      32.172  25.490  23.201  1.00  0.00     0.176 A 
ATOM     19  N   UNL A   1      31.232  26.230  23.898  1.00  0.00    -0.255 N 
ATOM     20  C   UNL A   1      30.338  25.525  24.693  1.00  0.00     0.266 A 
ATOM     21  N   UNL A   1      31.839  24.341  22.693  1.00  0.00    -0.223 NA
ATOM     22  C   UNL A   1      30.694  24.082  24.821  1.00  0.00     0.066 A 
ATOM     23  O   UNL A   1      29.372  25.979  25.294  1.00  0.00    -0.268 OA
ATOM     24  C   UNL A   1      31.354  23.506  23.721  1.00  0.00     0.079 A 
ATOM     25  C   UNL A   1      30.651  23.421  26.044  1.00  0.00     0.016 A 
ATOM     26  C   UNL A   1      31.858  22.210  23.808  1.00  0.00     0.029 A 
ATOM     27  C   UNL A   1      31.261  22.168  26.154  1.00  0.00     0.001 A 
ATOM     28  C   UNL A   1      31.834  21.551  25.035  1.00  0.00     0.002 A 
BRANCH  19  29
ATOM     29  C   UNL A   1      31.042  27.592  23.560  1.00  0.00     0.052 A 
ATOM     30  C   UNL A   1      29.781  30.067  23.316  1.00  0.00     0.119 A 
ATOM     31  C   UNL A   1      30.677  29.852  24.363  1.00  0.00     0.048 A 
ATOM     32  C   UNL A   1      29.664  29.121  22.299  1.00  0.00     0.048 A 
ATOM     33  C   UNL A   1      31.289  28.601  24.502  1.00  0.00     0.030 A 
ATOM     34  C   UNL A   1      30.315  27.890  22.408  1.00  0.00     0.030 A 
BRANCH  30  35
ATOM     35  O   UNL A   1      29.061  31.230  23.308  1.00  0.00    -0.497 OA
ATOM     36  C   UNL A   1      27.656  31.003  23.487  1.00  0.00     0.278 C 
ENDBRANCH  30  35
ENDBRANCH  19  29
ENDBRANCH  17  18
ENDBRANCH  16  17
ENDBRANCH  12  16
ENDBRANCH   6  11
ENDBRANCH   1   5
BRANCH   3  37
ATOM     37  C   UNL A   1      42.778  19.296  25.763  1.00  0.00     0.118 C 
BRANCH  37  38
ATOM     38  C   UNL A   1      44.073  18.719  25.168  1.00  0.00     0.042 C 
BRANCH  38  39
ATOM     39  C   UNL A   1      45.133  19.779  24.956  1.00  0.00     0.118 C 
BRANCH  39  40
ATOM     40  N   UNL A   1      44.981  20.510  23.691  1.00  0.00    -0.352 N 
ATOM     41  C   UNL A   1      44.554  21.820  23.468  1.00  0.00     0.251 C 
ATOM     42  H   UNL A   1      45.215  20.002  22.882  1.00  0.00     0.163 HD
ATOM     43  O   UNL A   1      44.155  22.159  22.373  1.00  0.00    -0.269 OA
BRANCH  41  44
ATOM     44  C   UNL A   1      44.606  22.787  24.586  1.00  0.00     0.039 A 
ATOM     45  C   UNL A   1      45.619  22.840  25.550  1.00  0.00     0.014 A 
ATOM     46  C   UNL A   1      43.590  23.709  24.639  1.00  0.00     0.014 A 
ATOM     47  C   UNL A   1      45.533  23.826  26.541  1.00  0.00     0.010 A 
ATOM     48  C   UNL A   1      43.893  24.902  25.191  1.00  0.00     0.010 A 
ATOM     49  C   UNL A   1      44.598  24.844  26.365  1.00  0.00    -0.014 A 
BRANCH  49  50
ATOM     50  C   UNL A   1      44.328  25.941  27.275  1.00  0.00     0.031 A 
ATOM     51  C   UNL A   1      45.274  27.063  27.135  1.00  0.00     0.074 A 
ATOM     52  C   UNL A   1      43.142  26.062  27.920  1.00  0.00     0.049 A 
ATOM     53  N   UNL A   1      46.268  27.334  27.907  1.00  0.00    -0.248 NA
ATOM     54  C   UNL A   1      45.255  27.841  25.884  1.00  0.00     0.031 C 
ATOM     55  C   UNL A   1      41.943  25.211  27.841  1.00  0.00     0.029 A 
ATOM     56  N   UNL A   1      42.715  27.076  28.716  1.00  0.00    -0.354 N 
ATOM     57  C   UNL A   1      46.853  28.472  27.371  1.00  0.00     0.074 A 
ATOM     58  C   UNL A   1      46.369  28.564  26.017  1.00  0.00     0.031 C 
ATOM     59  C   UNL A   1      40.880  25.866  28.369  1.00  0.00     0.029 A 
ATOM     60  C   UNL A   1      41.345  27.111  28.957  1.00  0.00     0.049 A 
ATOM     61  H   UNL A   1      43.333  27.741  29.097  1.00  0.00     0.167 HD
ATOM     62  C   UNL A   1      47.455  29.401  28.164  1.00  0.00     0.031 A 
ATOM     63  C   UNL A   1      40.656  28.121  29.555  1.00  0.00     0.031 A 
ATOM     64  C   UNL A   1      47.524  28.945  29.531  1.00  0.00     0.049 A 
ATOM     65  C   UNL A   1      41.658  28.928  30.306  1.00  0.00     0.074 A 
ATOM     66  C   UNL A   1      48.112  27.867  30.162  1.00  0.00     0.029 A 
ATOM     67  N   UNL A   1      46.530  29.394  30.378  1.00  0.00    -0.354 N 
ATOM     68  N   UNL A   1      42.329  28.458  31.323  1.00  0.00    -0.248 NA
ATOM     69  C   UNL A   1      42.287  30.050  29.620  1.00  0.00     0.031 C 
ATOM     70  C   UNL A   1      47.144  27.430  31.113  1.00  0.00     0.029 A 
ATOM     71  C   UNL A   1      46.062  28.315  31.087  1.00  0.00     0.049 A 
ATOM     72  H   UNL A   1      46.214  30.322  30.459  1.00  0.00     0.167 HD
ATOM     73  C   UNL A   1      43.631  28.906  31.135  1.00  0.00     0.074 A 
ATOM     74  C   UNL A   1      43.523  29.961  30.125  1.00  0.00     0.031 C 
ATOM     75  C   UNL A   1      44.703  28.181  31.577  1.00  0.00     0.031 A 
BRANCH  62  76
ATOM     76  C   UNL A   1      47.613  30.857  27.816  1.00  0.00    -0.014 A 
ATOM     77  C   UNL A   1      46.450  31.647  27.718  1.00  0.00     0.010 A 
ATOM     78  C   UNL A   1      48.815  31.426  27.348  1.00  0.00     0.010 A 
ATOM     79  C   UNL A   1      46.476  32.908  27.111  1.00  0.00     0.020 A 
ATOM     80  C   UNL A   1      48.860  32.700  26.781  1.00  0.00     0.020 A 
ATOM     81  C   UNL A   1      47.683  33.417  26.633  1.00  0.00     0.054 A 
BRANCH  81  82
ATOM     82  S   UNL A   1      47.684  34.996  25.751  1.00  0.00     0.124 S 
ATOM     83  O   UNL A   1      48.937  34.921  25.006  1.00  0.00    -0.237 OA
ATOM     84  O   UNL A   1      46.464  34.906  24.956  1.00  0.00    -0.237 OA
ATOM     85  O   UNL A   1      47.653  35.987  26.826  1.00  0.00    -0.744 OA
ENDBRANCH  81  82
ENDBRANCH  62  76
BRANCH  63  86
ATOM     86  C   UNL A   1      39.279  28.605  29.259  1.00  0.00    -0.014 A 
ATOM     87  C   UNL A   1      38.329  28.803  30.280  1.00  0.00     0.010 A 
ATOM     88  C   UNL A   1      38.981  29.140  27.987  1.00  0.00     0.010 A 
ATOM     89  C   UNL A   1      37.163  29.563  30.054  1.00  0.00     0.020 A 
ATOM     90  C   UNL A   1      37.821  29.893  27.754  1.00  0.00     0.020 A 
ATOM     91  C   UNL A   1      36.928  30.125  28.796  1.00  0.00     0.054 A 
BRANCH  91  92
ATOM     92  S   UNL A   1      35.529  31.265  28.563  1.00  0.00     0.124 S 
ATOM     93  O   UNL A   1      34.550  30.426  27.879  1.00  0.00    -0.237 OA
ATOM     94  O   UNL A   1      35.191  31.640  29.934  1.00  0.00    -0.237 OA
ATOM     95  O   UNL A   1      36.094  32.344  27.754  1.00  0.00    -0.744 OA
ENDBRANCH  91  92
ENDBRANCH  63  86
BRANCH  75  96
ATOM     96  C   UNL A   1      44.445  26.994  32.484  1.00  0.00    -0.014 A 
ATOM     97  C   UNL A   1      44.214  25.684  32.018  1.00  0.00     0.010 A 
ATOM     98  C   UNL A   1      44.631  27.185  33.864  1.00  0.00     0.010 A 
ATOM     99  C   UNL A   1      44.151  24.600  32.911  1.00  0.00     0.020 A 
ATOM    100  C   UNL A   1      44.590  26.110  34.756  1.00  0.00     0.020 A 
ATOM    101  C   UNL A   1      44.340  24.825  34.278  1.00  0.00     0.054 A 
BRANCH 101 102
ATOM    102  S   UNL A   1      44.306  23.421  35.430  1.00  0.00     0.124 S 
ATOM    103  O   UNL A   1      43.147  23.725  36.265  1.00  0.00    -0.237 OA
ATOM    104  O   UNL A   1      44.158  22.272  34.541  1.00  0.00    -0.237 OA
ATOM    105  O   UNL A   1      45.596  23.502  36.114  1.00  0.00    -0.744 OA
ENDBRANCH 101 102
ENDBRANCH  75  96
ENDBRANCH  49  50
ENDBRANCH  41  44
ENDBRANCH  39  40
ENDBRANCH  38  39
ENDBRANCH  37  38
ENDBRANCH   3  37
TORSDOF 19
ENDMDL
MODEL 3
REMARK VINA RESULT:     -12.3      3.168      9.251
REMARK SMILES COc1ccc(-n2c(SCc3cn(-c4ccc(C(=O)NCCCNC(=O)c5ccc(-c6c7nc(c(-c8ccc(S(=O)(=O)[O-])cc8)c8ccc([nH]8)c(-c8ccc(S(=O)(=O)[O-])cc8)c8nc(c(-c9ccc(S(=O)(=O)[O-])cc9)c9ccc6[nH]9)C=C8)C=C7)cc5)cc4)nn3)nc3ccccc3c2=O)cc1
REMARK SMILES IDX 18 1 19 2 20 3 17 5 14 6 15 7 88 8 16 9 87 10 13 11 11 12
REMARK SMILES IDX 12 13 90 14 89 15 10 16 9 17 8 18 7 19 98 20 91 21 97 22
REMARK SMILES IDX 99 23 92 24 96 25 93 26 95 27 94 28 6 29 3 30 4 31 101 32
REMARK SMILES IDX 5 33 100 34 2 35 1 36 21 37 22 38 23 39 24 40 25 41 26 43
REMARK SMILES IDX 27 44 28 45 86 46 29 47 85 48 30 49 31 50 32 51 79 52 33 53
REMARK SMILES IDX 84 54 78 55 80 56 34 57 83 58 77 59 76 60 35 62 65 63 46 64
REMARK SMILES IDX 64 65 47 66 50 67 63 68 81 69 48 70 49 71 62 73 82 74 51 75
REMARK SMILES IDX 36 76 37 77 45 78 38 79 44 80 39 81 40 82 41 83 42 84 43 85
REMARK SMILES IDX 66 86 67 87 75 88 68 89 74 90 69 91 70 92 71 93 72 94 73 95
REMARK SMILES IDX 52 96 53 97 61 98 54 99 60 100 55 101 56 102 57 103 58 104
REMARK SMILES IDX 59 105
REMARK H PARENT 20 4 24 42 80 61 50 72
REMARK Flexibility Score: inf
ROOT
ATOM      1  C   UNL A   1      35.226  34.362  28.188  1.00  0.00     0.251 C 
ATOM      2  O   UNL A   1      34.675  35.356  27.717  1.00  0.00    -0.269 OA
ATOM      3  N   UNL A   1      36.354  34.547  28.947  1.00  0.00    -0.352 N 
ATOM      4  H   UNL A   1      36.711  35.464  28.919  1.00  0.00     0.163 HD
ENDROOT
BRANCH   1   5
ATOM      5  C   UNL A   1      34.629  33.026  27.928  1.00  0.00     0.039 A 
ATOM      6  C   UNL A   1      33.605  30.467  27.558  1.00  0.00     0.066 A 
ATOM      7  C   UNL A   1      34.974  30.620  27.768  1.00  0.00     0.029 A 
ATOM      8  C   UNL A   1      32.748  31.560  27.517  1.00  0.00     0.029 A 
ATOM      9  C   UNL A   1      35.477  31.905  27.979  1.00  0.00     0.016 A 
ATOM     10  C   UNL A   1      33.265  32.830  27.706  1.00  0.00     0.016 A 
BRANCH   6  11
ATOM     11  N   UNL A   1      33.075  29.205  27.299  1.00  0.00    -0.220 N 
ATOM     12  C   UNL A   1      32.868  27.249  26.385  1.00  0.00     0.093 A 
ATOM     13  C   UNL A   1      33.807  28.149  26.835  1.00  0.00     0.141 A 
ATOM     14  N   UNL A   1      31.621  27.778  26.585  1.00  0.00    -0.134 NA
ATOM     15  N   UNL A   1      31.762  29.000  27.076  1.00  0.00    -0.062 NA
BRANCH  12  16
ATOM     16  C   UNL A   1      32.994  25.961  25.686  1.00  0.00     0.138 C 
BRANCH  16  17
ATOM     17  S   UNL A   1      31.592  24.871  25.793  1.00  0.00    -0.081 SA
BRANCH  17  18
ATOM     18  C   UNL A   1      31.229  24.343  24.129  1.00  0.00     0.176 A 
ATOM     19  N   UNL A   1      32.343  24.088  23.347  1.00  0.00    -0.255 N 
ATOM     20  C   UNL A   1      32.686  25.048  22.404  1.00  0.00     0.266 A 
ATOM     21  N   UNL A   1      30.194  24.928  23.602  1.00  0.00    -0.223 NA
ATOM     22  C   UNL A   1      31.897  26.307  22.550  1.00  0.00     0.066 A 
ATOM     23  O   UNL A   1      33.560  24.962  21.551  1.00  0.00    -0.268 OA
ATOM     24  C   UNL A   1      30.593  26.166  23.057  1.00  0.00     0.079 A 
ATOM     25  C   UNL A   1      32.497  27.560  22.478  1.00  0.00     0.016 A 
ATOM     26  C   UNL A   1      29.839  27.295  23.369  1.00  0.00     0.029 A 
ATOM     27  C   UNL A   1      31.771  28.677  22.903  1.00  0.00     0.001 A 
ATOM     28  C   UNL A   1      30.439  28.551  23.316  1.00  0.00     0.002 A 
BRANCH  19  29
ATOM     29  C   UNL A   1      32.894  22.783  23.341  1.00  0.00     0.052 A 
ATOM     30  C   UNL A   1      33.564  20.232  24.244  1.00  0.00     0.119 A 
ATOM     31  C   UNL A   1      32.463  20.396  23.406  1.00  0.00     0.048 A 
ATOM     32  C   UNL A   1      34.428  21.303  24.472  1.00  0.00     0.048 A 
ATOM     33  C   UNL A   1      32.109  21.680  22.974  1.00  0.00     0.030 A 
ATOM     34  C   UNL A   1      34.106  22.576  23.999  1.00  0.00     0.030 A 
BRANCH  30  35
ATOM     35  O   UNL A   1      33.780  19.000  24.797  1.00  0.00    -0.497 OA
ATOM     36  C   UNL A   1      32.668  18.553  25.586  1.00  0.00     0.278 C 
ENDBRANCH  30  35
ENDBRANCH  19  29
ENDBRANCH  17  18
ENDBRANCH  16  17
ENDBRANCH  12  16
ENDBRANCH   6  11
ENDBRANCH   1   5
BRANCH   3  37
ATOM     37  C   UNL A   1      37.123  33.639  29.788  1.00  0.00     0.118 C 
BRANCH  37  38
ATOM     38  C   UNL A   1      36.997  33.957  31.287  1.00  0.00     0.042 C 
BRANCH  38  39
ATOM     39  C   UNL A   1      36.485  32.778  32.087  1.00  0.00     0.118 C 
BRANCH  39  40
ATOM     40  N   UNL A   1      36.808  32.859  33.517  1.00  0.00    -0.352 N 
ATOM     41  C   UNL A   1      37.518  31.966  34.320  1.00  0.00     0.251 C 
ATOM     42  H   UNL A   1      36.475  33.663  33.977  1.00  0.00     0.163 HD
ATOM     43  O   UNL A   1      37.403  31.999  35.529  1.00  0.00    -0.269 OA
BRANCH  41  44
ATOM     44  C   UNL A   1      38.418  30.987  33.674  1.00  0.00     0.039 A 
ATOM     45  C   UNL A   1      38.042  29.699  33.274  1.00  0.00     0.014 A 
ATOM     46  C   UNL A   1      39.701  31.410  33.429  1.00  0.00     0.014 A 
ATOM     47  C   UNL A   1      39.009  28.893  32.660  1.00  0.00     0.010 A 
ATOM     48  C   UNL A   1      40.321  30.857  32.365  1.00  0.00     0.010 A 
ATOM     49  C   UNL A   1      40.197  29.497  32.255  1.00  0.00    -0.014 A 
BRANCH  49  50
ATOM     50  C   UNL A   1      41.332  28.846  31.628  1.00  0.00     0.031 A 
ATOM     51  C   UNL A   1      42.410  28.509  32.576  1.00  0.00     0.074 A 
ATOM     52  C   UNL A   1      41.252  28.301  30.390  1.00  0.00     0.049 A 
ATOM     53  N   UNL A   1      43.515  29.149  32.745  1.00  0.00    -0.248 NA
ATOM     54  C   UNL A   1      42.145  27.487  33.602  1.00  0.00     0.031 C 
ATOM     55  C   UNL A   1      40.098  28.215  29.480  1.00  0.00     0.029 A 
ATOM     56  N   UNL A   1      42.191  27.582  29.723  1.00  0.00    -0.354 N 
ATOM     57  C   UNL A   1      44.195  28.455  33.735  1.00  0.00     0.074 A 
ATOM     58  C   UNL A   1      43.209  27.637  34.393  1.00  0.00     0.031 C 
ATOM     59  C   UNL A   1      40.348  27.303  28.508  1.00  0.00     0.029 A 
ATOM     60  C   UNL A   1      41.723  26.853  28.633  1.00  0.00     0.049 A 
ATOM     61  H   UNL A   1      43.138  27.577  29.992  1.00  0.00     0.167 HD
ATOM     62  C   UNL A   1      45.555  28.389  33.749  1.00  0.00     0.031 A 
ATOM     63  C   UNL A   1      42.418  25.918  27.930  1.00  0.00     0.031 A 
ATOM     64  C   UNL A   1      46.123  29.243  32.733  1.00  0.00     0.049 A 
ATOM     65  C   UNL A   1      43.860  26.157  28.220  1.00  0.00     0.074 A 
ATOM     66  C   UNL A   1      46.083  30.599  32.477  1.00  0.00     0.029 A 
ATOM     67  N   UNL A   1      46.465  28.635  31.542  1.00  0.00    -0.354 N 
ATOM     68  N   UNL A   1      44.486  27.245  27.858  1.00  0.00    -0.248 NA
ATOM     69  C   UNL A   1      44.459  25.448  29.344  1.00  0.00     0.031 C 
ATOM     70  C   UNL A   1      45.929  30.699  31.064  1.00  0.00     0.029 A 
ATOM     71  C   UNL A   1      45.982  29.413  30.518  1.00  0.00     0.049 A 
ATOM     72  H   UNL A   1      46.967  27.794  31.443  1.00  0.00     0.167 HD
ATOM     73  C   UNL A   1      45.264  27.595  28.955  1.00  0.00     0.074 A 
ATOM     74  C   UNL A   1      45.283  26.400  29.800  1.00  0.00     0.031 C 
ATOM     75  C   UNL A   1      45.563  28.902  29.227  1.00  0.00     0.031 A 
BRANCH  62  76
ATOM     76  C   UNL A   1      46.357  27.280  34.375  1.00  0.00    -0.014 A 
ATOM     77  C   UNL A   1      47.341  27.624  35.323  1.00  0.00     0.010 A 
ATOM     78  C   UNL A   1      46.356  25.950  33.906  1.00  0.00     0.010 A 
ATOM     79  C   UNL A   1      48.322  26.707  35.719  1.00  0.00     0.020 A 
ATOM     80  C   UNL A   1      47.303  25.016  34.326  1.00  0.00     0.020 A 
ATOM     81  C   UNL A   1      48.303  25.412  35.203  1.00  0.00     0.054 A 
BRANCH  81  82
ATOM     82  S   UNL A   1      49.638  24.272  35.634  1.00  0.00     0.124 S 
ATOM     83  O   UNL A   1      49.184  23.751  36.920  1.00  0.00    -0.237 OA
ATOM     84  O   UNL A   1      49.611  23.329  34.521  1.00  0.00    -0.237 OA
ATOM     85  O   UNL A   1      50.818  25.134  35.688  1.00  0.00    -0.744 OA
ENDBRANCH  81  82
ENDBRANCH  62  76
BRANCH  63  86
ATOM     86  C   UNL A   1      41.912  24.666  27.303  1.00  0.00    -0.014 A 
ATOM     87  C   UNL A   1      42.707  23.903  26.425  1.00  0.00     0.010 A 
ATOM     88  C   UNL A   1      40.729  24.065  27.788  1.00  0.00     0.010 A 
ATOM     89  C   UNL A   1      42.368  22.573  26.101  1.00  0.00     0.020 A 
ATOM     90  C   UNL A   1      40.384  22.745  27.467  1.00  0.00     0.020 A 
ATOM     91  C   UNL A   1      41.218  21.994  26.644  1.00  0.00     0.054 A 
BRANCH  91  92
ATOM     92  S   UNL A   1      40.890  20.223  26.384  1.00  0.00     0.124 S 
ATOM     93  O   UNL A   1      41.967  19.833  25.480  1.00  0.00    -0.237 OA
ATOM     94  O   UNL A   1      40.975  19.681  27.738  1.00  0.00    -0.237 OA
ATOM     95  O   UNL A   1      39.551  20.202  25.799  1.00  0.00    -0.744 OA
ENDBRANCH  91  92
ENDBRANCH  63  86
BRANCH  75  96
ATOM     96  C   UNL A   1      45.227  29.949  28.183  1.00  0.00    -0.014 A 
ATOM     97  C   UNL A   1      43.937  30.485  27.992  1.00  0.00     0.010 A 
ATOM     98  C   UNL A   1      46.301  30.545  27.500  1.00  0.00     0.010 A 
ATOM     99  C   UNL A   1      43.727  31.572  27.127  1.00  0.00     0.020 A 
ATOM    100  C   UNL A   1      46.103  31.638  26.653  1.00  0.00     0.020 A 
ATOM    101  C   UNL A   1      44.817  32.141  26.462  1.00  0.00     0.054 A 
BRANCH 101 102
ATOM    102  S   UNL A   1      44.557  33.576  25.379  1.00  0.00     0.124 S 
ATOM    103  O   UNL A   1      43.567  34.355  26.118  1.00  0.00    -0.237 OA
ATOM    104  O   UNL A   1      45.890  34.168  25.294  1.00  0.00    -0.237 OA
ATOM    105  O   UNL A   1      44.071  32.986  24.132  1.00  0.00    -0.744 OA
ENDBRANCH 101 102
ENDBRANCH  75  96
ENDBRANCH  49  50
ENDBRANCH  41  44
ENDBRANCH  39  40
ENDBRANCH  38  39
ENDBRANCH  37  38
ENDBRANCH   3  37
TORSDOF 19
ENDMDL
