MODEL 1
REMARK VINA RESULT:     -13.6      0.000      0.000
REMARK SMILES CC1=C(C)C[C@@H](C(=O)NCCCNC(=O)c2ccc(-c3c4nc(c(-c5ccc(S(=O)(=O)[O-])cc5)c5ccc([nH]5)c(-c5ccc(S(=O)(=O)[O-])cc5)c5nc(c(-c6ccc(S(=O)(=O)[O-])cc6)c6ccc3[nH]6)C=C5)C=C4)cc2)[C@@H](C(=O)N2CCN(c3cccc(C(F)(F)F)c3)CC2)C1
REMARK SMILES IDX 11 1 10 2 9 3 7 4 8 5 6 7 1 8 2 9 3 10 95 11 4 12 5 13 76 14
REMARK SMILES IDX 77 15 78 16 79 17 80 18 94 19 81 20 93 21 82 22 83 23 84 24
REMARK SMILES IDX 92 25 85 26 87 27 86 28 88 29 89 30 90 31 91 32 12 33 13 34
REMARK SMILES IDX 14 35 15 37 16 38 17 39 75 40 18 41 74 42 19 43 20 44 21 45
REMARK SMILES IDX 68 46 22 47 73 48 67 49 69 50 23 51 72 52 66 53 65 54 24 56
REMARK SMILES IDX 54 57 35 58 53 59 36 60 39 61 52 62 70 63 37 64 38 65 51 67
REMARK SMILES IDX 71 68 40 69 25 70 26 71 34 72 27 73 33 74 28 75 29 76 30 77
REMARK SMILES IDX 31 78 32 79 55 80 56 81 64 82 57 83 63 84 58 85 59 86 60 87
REMARK SMILES IDX 61 88 62 89 41 90 42 91 50 92 43 93 49 94 44 95 45 96 46 97
REMARK SMILES IDX 47 98 48 99
REMARK H PARENT 9 6 13 36 69 55 39 66
REMARK Flexibility Score: inf
ROOT
ATOM      1  C   UNL A   1      35.035  29.310  27.658  1.00  0.00     0.042 C 
ENDROOT
BRANCH   1   2
ATOM      2  C   UNL A   1      34.073  28.798  26.595  1.00  0.00     0.117 C 
BRANCH   2   3
ATOM      3  N   UNL A   1      32.751  28.480  27.096  1.00  0.00    -0.356 N 
ATOM      4  C   UNL A   1      31.689  27.824  26.563  1.00  0.00     0.224 C 
ATOM      5  O   UNL A   1      30.837  27.434  27.373  1.00  0.00    -0.275 OA
ATOM      6  H   UNL A   1      32.590  28.808  28.010  1.00  0.00     0.163 HD
BRANCH   4   7
ATOM      7  C   UNL A   1      31.507  27.487  25.072  1.00  0.00     0.095 C 
ATOM      8  C   UNL A   1      27.578  28.101  23.090  1.00  0.00     0.039 C 
ATOM      9  C   UNL A   1      28.987  27.963  23.618  1.00  0.00    -0.074 C 
ATOM     10  C   UNL A   1      29.865  28.976  23.730  1.00  0.00    -0.074 C 
ATOM     11  C   UNL A   1      29.321  26.558  24.032  1.00  0.00     0.045 C 
ATOM     12  C   UNL A   1      29.552  30.416  23.417  1.00  0.00     0.039 C 
ATOM     13  C   UNL A   1      31.264  28.753  24.245  1.00  0.00     0.045 C 
ATOM     14  C   UNL A   1      30.694  26.237  24.653  1.00  0.00     0.095 C 
BRANCH  14  15
ATOM     15  C   UNL A   1      30.587  25.195  25.784  1.00  0.00     0.226 C 
ATOM     16  O   UNL A   1      29.601  25.131  26.519  1.00  0.00    -0.275 OA
ATOM     17  N   UNL A   1      31.599  24.281  25.953  1.00  0.00    -0.339 N 
ATOM     18  C   UNL A   1      31.228  22.922  26.360  1.00  0.00     0.141 C 
ATOM     19  C   UNL A   1      33.045  24.496  25.781  1.00  0.00     0.141 C 
ATOM     20  C   UNL A   1      31.733  21.934  25.303  1.00  0.00     0.138 C 
ATOM     21  C   UNL A   1      33.692  23.461  24.830  1.00  0.00     0.138 C 
ATOM     22  N   UNL A   1      33.163  22.136  25.117  1.00  0.00    -0.368 N 
BRANCH  22  23
ATOM     23  C   UNL A   1      33.940  21.012  25.062  1.00  0.00     0.037 A 
ATOM     24  C   UNL A   1      35.321  21.073  25.217  1.00  0.00     0.026 A 
ATOM     25  C   UNL A   1      33.327  19.804  24.712  1.00  0.00     0.039 A 
ATOM     26  C   UNL A   1      36.087  19.943  24.975  1.00  0.00     0.003 A 
ATOM     27  C   UNL A   1      34.083  18.666  24.453  1.00  0.00     0.058 A 
ATOM     28  C   UNL A   1      35.470  18.766  24.554  1.00  0.00     0.013 A 
BRANCH  27  29
ATOM     29  C   UNL A   1      33.427  17.377  24.045  1.00  0.00     0.416 C 
ATOM     30  F   UNL A   1      34.274  16.317  24.094  1.00  0.00    -0.166 F 
ATOM     31  F   UNL A   1      32.363  17.055  24.831  1.00  0.00    -0.166 F 
ATOM     32  F   UNL A   1      32.944  17.406  22.767  1.00  0.00    -0.166 F 
ENDBRANCH  27  29
ENDBRANCH  22  23
ENDBRANCH  14  15
ENDBRANCH   4   7
ENDBRANCH   2   3
ENDBRANCH   1   2
BRANCH   1  33
ATOM     33  C   UNL A   1      35.073  30.828  27.838  1.00  0.00     0.118 C 
BRANCH  33  34
ATOM     34  N   UNL A   1      35.269  31.214  29.223  1.00  0.00    -0.352 N 
ATOM     35  C   UNL A   1      36.284  30.966  30.116  1.00  0.00     0.251 C 
ATOM     36  H   UNL A   1      34.537  31.757  29.594  1.00  0.00     0.163 HD
ATOM     37  O   UNL A   1      36.076  31.248  31.297  1.00  0.00    -0.269 OA
BRANCH  35  38
ATOM     38  C   UNL A   1      37.604  30.380  29.740  1.00  0.00     0.039 A 
ATOM     39  C   UNL A   1      38.475  30.018  30.780  1.00  0.00     0.014 A 
ATOM     40  C   UNL A   1      38.072  30.292  28.426  1.00  0.00     0.014 A 
ATOM     41  C   UNL A   1      39.779  29.571  30.514  1.00  0.00     0.010 A 
ATOM     42  C   UNL A   1      39.353  29.777  28.157  1.00  0.00     0.010 A 
ATOM     43  C   UNL A   1      40.236  29.429  29.197  1.00  0.00    -0.014 A 
BRANCH  43  44
ATOM     44  C   UNL A   1      41.633  28.983  28.891  1.00  0.00     0.031 A 
ATOM     45  C   UNL A   1      42.749  29.998  28.776  1.00  0.00     0.074 A 
ATOM     46  C   UNL A   1      41.928  27.678  28.701  1.00  0.00     0.049 A 
ATOM     47  N   UNL A   1      43.998  29.817  28.420  1.00  0.00    -0.248 NA
ATOM     48  C   UNL A   1      42.426  31.391  29.123  1.00  0.00     0.031 C 
ATOM     49  C   UNL A   1      40.993  26.561  28.847  1.00  0.00     0.029 A 
ATOM     50  N   UNL A   1      43.099  27.069  28.300  1.00  0.00    -0.354 N 
ATOM     51  C   UNL A   1      44.613  31.058  28.531  1.00  0.00     0.074 A 
ATOM     52  C   UNL A   1      43.584  32.003  28.910  1.00  0.00     0.031 C 
ATOM     53  C   UNL A   1      41.607  25.420  28.488  1.00  0.00     0.029 A 
ATOM     54  C   UNL A   1      42.956  25.725  28.030  1.00  0.00     0.049 A 
ATOM     55  H   UNL A   1      43.954  27.548  28.216  1.00  0.00     0.167 HD
ATOM     56  C   UNL A   1      45.923  31.380  28.383  1.00  0.00     0.031 A 
ATOM     57  C   UNL A   1      43.779  24.849  27.418  1.00  0.00     0.031 A 
ATOM     58  C   UNL A   1      46.953  30.446  28.009  1.00  0.00     0.049 A 
ATOM     59  C   UNL A   1      45.164  25.274  27.040  1.00  0.00     0.074 A 
ATOM     60  C   UNL A   1      48.320  30.655  27.933  1.00  0.00     0.029 A 
ATOM     61  N   UNL A   1      46.732  29.132  27.630  1.00  0.00    -0.354 N 
ATOM     62  N   UNL A   1      45.728  26.446  27.185  1.00  0.00    -0.248 NA
ATOM     63  C   UNL A   1      46.035  24.242  26.464  1.00  0.00     0.031 C 
ATOM     64  C   UNL A   1      48.919  29.484  27.455  1.00  0.00     0.029 A 
ATOM     65  C   UNL A   1      47.930  28.530  27.283  1.00  0.00     0.049 A 
ATOM     66  H   UNL A   1      45.851  28.692  27.609  1.00  0.00     0.167 HD
ATOM     67  C   UNL A   1      47.046  26.276  26.781  1.00  0.00     0.074 A 
ATOM     68  C   UNL A   1      47.179  24.901  26.344  1.00  0.00     0.031 C 
ATOM     69  C   UNL A   1      48.061  27.171  26.824  1.00  0.00     0.031 A 
BRANCH  56  70
ATOM     70  C   UNL A   1      46.329  32.806  28.657  1.00  0.00    -0.014 A 
ATOM     71  C   UNL A   1      46.320  33.765  27.626  1.00  0.00     0.010 A 
ATOM     72  C   UNL A   1      46.659  33.210  29.962  1.00  0.00     0.010 A 
ATOM     73  C   UNL A   1      46.673  35.092  27.888  1.00  0.00     0.020 A 
ATOM     74  C   UNL A   1      46.990  34.542  30.233  1.00  0.00     0.020 A 
ATOM     75  C   UNL A   1      47.011  35.471  29.190  1.00  0.00     0.054 A 
BRANCH  75  76
ATOM     76  S   UNL A   1      47.445  37.204  29.504  1.00  0.00     0.124 S 
ATOM     77  O   UNL A   1      46.155  37.773  29.883  1.00  0.00    -0.237 OA
ATOM     78  O   UNL A   1      48.427  37.102  30.579  1.00  0.00    -0.237 OA
ATOM     79  O   UNL A   1      47.976  37.665  28.222  1.00  0.00    -0.744 OA
ENDBRANCH  75  76
ENDBRANCH  56  70
BRANCH  57  80
ATOM     80  C   UNL A   1      43.301  23.483  27.062  1.00  0.00    -0.014 A 
ATOM     81  C   UNL A   1      43.039  23.124  25.732  1.00  0.00     0.010 A 
ATOM     82  C   UNL A   1      43.107  22.526  28.076  1.00  0.00     0.010 A 
ATOM     83  C   UNL A   1      42.638  21.819  25.421  1.00  0.00     0.020 A 
ATOM     84  C   UNL A   1      42.751  21.212  27.767  1.00  0.00     0.020 A 
ATOM     85  C   UNL A   1      42.515  20.866  26.438  1.00  0.00     0.054 A 
BRANCH  85  86
ATOM     86  S   UNL A   1      42.106  19.149  26.019  1.00  0.00     0.124 S 
ATOM     87  O   UNL A   1      42.895  18.934  24.811  1.00  0.00    -0.237 OA
ATOM     88  O   UNL A   1      42.544  18.414  27.204  1.00  0.00    -0.237 OA
ATOM     89  O   UNL A   1      40.657  19.189  25.827  1.00  0.00    -0.744 OA
ENDBRANCH  85  86
ENDBRANCH  57  80
BRANCH  69  90
ATOM     90  C   UNL A   1      49.429  26.669  26.455  1.00  0.00    -0.014 A 
ATOM     91  C   UNL A   1      50.244  26.004  27.387  1.00  0.00     0.010 A 
ATOM     92  C   UNL A   1      49.897  26.860  25.142  1.00  0.00     0.010 A 
ATOM     93  C   UNL A   1      51.520  25.566  27.017  1.00  0.00     0.020 A 
ATOM     94  C   UNL A   1      51.160  26.403  24.763  1.00  0.00     0.020 A 
ATOM     95  C   UNL A   1      51.971  25.771  25.708  1.00  0.00     0.054 A 
BRANCH  95  96
ATOM     96  S   UNL A   1      53.616  25.168  25.242  1.00  0.00     0.124 S 
ATOM     97  O   UNL A   1      54.465  25.787  26.256  1.00  0.00    -0.237 OA
ATOM     98  O   UNL A   1      53.468  23.718  25.344  1.00  0.00    -0.237 OA
ATOM     99  O   UNL A   1      53.797  25.674  23.883  1.00  0.00    -0.744 OA
ENDBRANCH  95  96
ENDBRANCH  69  90
ENDBRANCH  43  44
ENDBRANCH  35  38
ENDBRANCH  33  34
ENDBRANCH   1  33
TORSDOF 16
ENDMDL
MODEL 2
REMARK VINA RESULT:     -13.2      1.968      2.469
REMARK SMILES CC1=C(C)C[C@@H](C(=O)NCCCNC(=O)c2ccc(-c3c4nc(c(-c5ccc(S(=O)(=O)[O-])cc5)c5ccc([nH]5)c(-c5ccc(S(=O)(=O)[O-])cc5)c5nc(c(-c6ccc(S(=O)(=O)[O-])cc6)c6ccc3[nH]6)C=C5)C=C4)cc2)[C@@H](C(=O)N2CCN(c3cccc(C(F)(F)F)c3)CC2)C1
REMARK SMILES IDX 11 1 10 2 9 3 7 4 8 5 6 7 1 8 2 9 3 10 95 11 4 12 5 13 76 14
REMARK SMILES IDX 77 15 78 16 79 17 80 18 94 19 81 20 93 21 82 22 83 23 84 24
REMARK SMILES IDX 92 25 85 26 87 27 86 28 88 29 89 30 90 31 91 32 12 33 13 34
REMARK SMILES IDX 14 35 15 37 16 38 17 39 75 40 18 41 74 42 19 43 20 44 21 45
REMARK SMILES IDX 68 46 22 47 73 48 67 49 69 50 23 51 72 52 66 53 65 54 24 56
REMARK SMILES IDX 54 57 35 58 53 59 36 60 39 61 52 62 70 63 37 64 38 65 51 67
REMARK SMILES IDX 71 68 40 69 25 70 26 71 34 72 27 73 33 74 28 75 29 76 30 77
REMARK SMILES IDX 31 78 32 79 55 80 56 81 64 82 57 83 63 84 58 85 59 86 60 87
REMARK SMILES IDX 61 88 62 89 41 90 42 91 50 92 43 93 49 94 44 95 45 96 46 97
REMARK SMILES IDX 47 98 48 99
REMARK H PARENT 9 6 13 36 69 55 39 66
REMARK Flexibility Score: inf
ROOT
ATOM      1  C   UNL A   1      35.306  29.341  27.554  1.00  0.00     0.042 C 
ENDROOT
BRANCH   1   2
ATOM      2  C   UNL A   1      34.230  29.297  26.479  1.00  0.00     0.117 C 
BRANCH   2   3
ATOM      3  N   UNL A   1      32.909  28.971  26.976  1.00  0.00    -0.356 N 
ATOM      4  C   UNL A   1      31.834  28.354  26.421  1.00  0.00     0.224 C 
ATOM      5  O   UNL A   1      30.985  27.935  27.220  1.00  0.00    -0.275 OA
ATOM      6  H   UNL A   1      32.759  29.257  27.906  1.00  0.00     0.163 HD
BRANCH   4   7
ATOM      7  C   UNL A   1      31.635  28.090  24.918  1.00  0.00     0.095 C 
ATOM      8  C   UNL A   1      27.562  28.142  23.145  1.00  0.00     0.039 C 
ATOM      9  C   UNL A   1      28.999  28.216  23.605  1.00  0.00    -0.074 C 
ATOM     10  C   UNL A   1      29.695  29.356  23.758  1.00  0.00    -0.074 C 
ATOM     11  C   UNL A   1      29.589  26.866  23.899  1.00  0.00     0.045 C 
ATOM     12  C   UNL A   1      29.125  30.738  23.565  1.00  0.00     0.039 C 
ATOM     13  C   UNL A   1      31.137  29.347  24.199  1.00  0.00     0.045 C 
ATOM     14  C   UNL A   1      31.028  26.748  24.440  1.00  0.00     0.095 C 
BRANCH  14  15
ATOM     15  C   UNL A   1      31.159  25.630  25.492  1.00  0.00     0.226 C 
ATOM     16  O   UNL A   1      30.176  25.147  26.055  1.00  0.00    -0.275 OA
ATOM     17  N   UNL A   1      32.403  25.126  25.784  1.00  0.00    -0.339 N 
ATOM     18  C   UNL A   1      32.507  23.691  26.067  1.00  0.00     0.141 C 
ATOM     19  C   UNL A   1      33.679  25.857  25.858  1.00  0.00     0.141 C 
ATOM     20  C   UNL A   1      33.477  23.057  25.065  1.00  0.00     0.138 C 
ATOM     21  C   UNL A   1      34.782  25.221  24.981  1.00  0.00     0.138 C 
ATOM     22  N   UNL A   1      34.744  23.772  25.122  1.00  0.00    -0.368 N 
BRANCH  22  23
ATOM     23  C   UNL A   1      35.879  23.010  25.145  1.00  0.00     0.037 A 
ATOM     24  C   UNL A   1      35.881  21.693  24.697  1.00  0.00     0.026 A 
ATOM     25  C   UNL A   1      37.018  23.544  25.756  1.00  0.00     0.039 A 
ATOM     26  C   UNL A   1      37.000  20.901  24.905  1.00  0.00     0.003 A 
ATOM     27  C   UNL A   1      38.144  22.760  25.982  1.00  0.00     0.058 A 
ATOM     28  C   UNL A   1      38.100  21.424  25.582  1.00  0.00     0.013 A 
BRANCH  27  29
ATOM     29  C   UNL A   1      39.356  23.324  26.669  1.00  0.00     0.416 C 
ATOM     30  F   UNL A   1      39.171  24.598  27.100  1.00  0.00    -0.166 F 
ATOM     31  F   UNL A   1      39.728  22.599  27.760  1.00  0.00    -0.166 F 
ATOM     32  F   UNL A   1      40.456  23.363  25.861  1.00  0.00    -0.166 F 
ENDBRANCH  27  29
ENDBRANCH  22  23
ENDBRANCH  14  15
ENDBRANCH   4   7
ENDBRANCH   2   3
ENDBRANCH   1   2
BRANCH   1  33
ATOM     33  C   UNL A   1      35.556  30.712  28.184  1.00  0.00     0.118 C 
BRANCH  33  34
ATOM     34  N   UNL A   1      35.520  30.668  29.633  1.00  0.00    -0.352 N 
ATOM     35  C   UNL A   1      36.450  30.281  30.569  1.00  0.00     0.251 C 
ATOM     36  H   UNL A   1      34.668  30.973  30.022  1.00  0.00     0.163 HD
ATOM     37  O   UNL A   1      36.059  30.153  31.730  1.00  0.00    -0.269 OA
BRANCH  35  38
ATOM     38  C   UNL A   1      37.885  30.010  30.259  1.00  0.00     0.039 A 
ATOM     39  C   UNL A   1      38.272  30.023  28.909  1.00  0.00     0.014 A 
ATOM     40  C   UNL A   1      38.828  29.620  31.213  1.00  0.00     0.014 A 
ATOM     41  C   UNL A   1      39.573  29.663  28.523  1.00  0.00     0.010 A 
ATOM     42  C   UNL A   1      40.150  29.327  30.832  1.00  0.00     0.010 A 
ATOM     43  C   UNL A   1      40.539  29.322  29.479  1.00  0.00    -0.014 A 
BRANCH  43  44
ATOM     44  C   UNL A   1      41.923  28.906  29.086  1.00  0.00     0.031 A 
ATOM     45  C   UNL A   1      43.018  29.940  28.944  1.00  0.00     0.074 A 
ATOM     46  C   UNL A   1      42.224  27.612  28.839  1.00  0.00     0.049 A 
ATOM     47  N   UNL A   1      44.248  29.789  28.517  1.00  0.00    -0.248 NA
ATOM     48  C   UNL A   1      42.695  31.318  29.351  1.00  0.00     0.031 C 
ATOM     49  C   UNL A   1      41.314  26.478  29.000  1.00  0.00     0.029 A 
ATOM     50  N   UNL A   1      43.380  27.033  28.358  1.00  0.00    -0.354 N 
ATOM     51  C   UNL A   1      44.852  31.036  28.634  1.00  0.00     0.074 A 
ATOM     52  C   UNL A   1      43.832  31.953  29.097  1.00  0.00     0.031 C 
ATOM     53  C   UNL A   1      41.923  25.357  28.573  1.00  0.00     0.029 A 
ATOM     54  C   UNL A   1      43.241  25.697  28.054  1.00  0.00     0.049 A 
ATOM     55  H   UNL A   1      44.224  27.528  28.244  1.00  0.00     0.167 HD
ATOM     56  C   UNL A   1      46.148  31.381  28.427  1.00  0.00     0.031 A 
ATOM     57  C   UNL A   1      44.042  24.851  27.372  1.00  0.00     0.031 A 
ATOM     58  C   UNL A   1      47.168  30.474  27.970  1.00  0.00     0.049 A 
ATOM     59  C   UNL A   1      45.398  25.309  26.935  1.00  0.00     0.074 A 
ATOM     60  C   UNL A   1      48.527  30.706  27.829  1.00  0.00     0.029 A 
ATOM     61  N   UNL A   1      46.945  29.170  27.562  1.00  0.00    -0.354 N 
ATOM     62  N   UNL A   1      45.955  26.484  27.086  1.00  0.00    -0.248 NA
ATOM     63  C   UNL A   1      46.252  24.307  26.282  1.00  0.00     0.031 C 
ATOM     64  C   UNL A   1      49.115  29.559  27.283  1.00  0.00     0.029 A 
ATOM     65  C   UNL A   1      48.131  28.596  27.134  1.00  0.00     0.049 A 
ATOM     66  H   UNL A   1      46.070  28.717  27.574  1.00  0.00     0.167 HD
ATOM     67  C   UNL A   1      47.251  26.346  26.608  1.00  0.00     0.074 A 
ATOM     68  C   UNL A   1      47.379  24.986  26.122  1.00  0.00     0.031 C 
ATOM     69  C   UNL A   1      48.255  27.254  26.626  1.00  0.00     0.031 A 
BRANCH  56  70
ATOM     70  C   UNL A   1      46.549  32.804  28.723  1.00  0.00    -0.014 A 
ATOM     71  C   UNL A   1      47.013  33.166  30.002  1.00  0.00     0.010 A 
ATOM     72  C   UNL A   1      46.526  33.773  27.705  1.00  0.00     0.010 A 
ATOM     73  C   UNL A   1      47.408  34.481  30.267  1.00  0.00     0.020 A 
ATOM     74  C   UNL A   1      46.942  35.084  27.960  1.00  0.00     0.020 A 
ATOM     75  C   UNL A   1      47.365  35.433  29.245  1.00  0.00     0.054 A 
BRANCH  75  76
ATOM     76  S   UNL A   1      47.902  37.126  29.613  1.00  0.00     0.124 S 
ATOM     77  O   UNL A   1      47.913  37.734  28.285  1.00  0.00    -0.237 OA
ATOM     78  O   UNL A   1      46.860  37.607  30.515  1.00  0.00    -0.237 OA
ATOM     79  O   UNL A   1      49.217  36.947  30.225  1.00  0.00    -0.744 OA
ENDBRANCH  75  76
ENDBRANCH  56  70
BRANCH  57  80
ATOM     80  C   UNL A   1      43.563  23.490  26.999  1.00  0.00    -0.014 A 
ATOM     81  C   UNL A   1      43.573  23.051  25.668  1.00  0.00     0.010 A 
ATOM     82  C   UNL A   1      43.090  22.620  28.000  1.00  0.00     0.010 A 
ATOM     83  C   UNL A   1      43.165  21.749  25.353  1.00  0.00     0.020 A 
ATOM     84  C   UNL A   1      42.723  21.307  27.697  1.00  0.00     0.020 A 
ATOM     85  C   UNL A   1      42.760  20.880  26.371  1.00  0.00     0.054 A 
BRANCH  85  86
ATOM     86  S   UNL A   1      42.339  19.161  25.973  1.00  0.00     0.124 S 
ATOM     87  O   UNL A   1      42.749  18.458  27.185  1.00  0.00    -0.237 OA
ATOM     88  O   UNL A   1      40.900  19.227  25.733  1.00  0.00    -0.237 OA
ATOM     89  O   UNL A   1      43.144  18.887  24.784  1.00  0.00    -0.744 OA
ENDBRANCH  85  86
ENDBRANCH  57  80
BRANCH  69  90
ATOM     90  C   UNL A   1      49.608  26.783  26.170  1.00  0.00    -0.014 A 
ATOM     91  C   UNL A   1      50.456  26.050  27.017  1.00  0.00     0.010 A 
ATOM     92  C   UNL A   1      50.028  27.076  24.859  1.00  0.00     0.010 A 
ATOM     93  C   UNL A   1      51.716  25.644  26.569  1.00  0.00     0.020 A 
ATOM     94  C   UNL A   1      51.275  26.651  24.400  1.00  0.00     0.020 A 
ATOM     95  C   UNL A   1      52.119  25.950  25.264  1.00  0.00     0.054 A 
BRANCH  95  96
ATOM     96  S   UNL A   1      53.745  25.386  24.692  1.00  0.00     0.124 S 
ATOM     97  O   UNL A   1      54.638  25.980  25.684  1.00  0.00    -0.237 OA
ATOM     98  O   UNL A   1      53.621  23.932  24.749  1.00  0.00    -0.237 OA
ATOM     99  O   UNL A   1      53.850  25.943  23.345  1.00  0.00    -0.744 OA
ENDBRANCH  95  96
ENDBRANCH  69  90
ENDBRANCH  43  44
ENDBRANCH  35  38
ENDBRANCH  33  34
ENDBRANCH   1  33
TORSDOF 16
ENDMDL
MODEL 3
REMARK VINA RESULT:     -12.9      3.447      9.540
REMARK SMILES CC1=C(C)C[C@@H](C(=O)NCCCNC(=O)c2ccc(-c3c4nc(c(-c5ccc(S(=O)(=O)[O-])cc5)c5ccc([nH]5)c(-c5ccc(S(=O)(=O)[O-])cc5)c5nc(c(-c6ccc(S(=O)(=O)[O-])cc6)c6ccc3[nH]6)C=C5)C=C4)cc2)[C@@H](C(=O)N2CCN(c3cccc(C(F)(F)F)c3)CC2)C1
REMARK SMILES IDX 11 1 10 2 9 3 7 4 8 5 6 7 1 8 2 9 3 10 95 11 4 12 5 13 76 14
REMARK SMILES IDX 77 15 78 16 79 17 80 18 94 19 81 20 93 21 82 22 83 23 84 24
REMARK SMILES IDX 92 25 85 26 87 27 86 28 88 29 89 30 90 31 91 32 12 33 13 34
REMARK SMILES IDX 14 35 15 37 16 38 17 39 75 40 18 41 74 42 19 43 20 44 21 45
REMARK SMILES IDX 68 46 22 47 73 48 67 49 69 50 23 51 72 52 66 53 65 54 24 56
REMARK SMILES IDX 54 57 35 58 53 59 36 60 39 61 52 62 70 63 37 64 38 65 51 67
REMARK SMILES IDX 71 68 40 69 25 70 26 71 34 72 27 73 33 74 28 75 29 76 30 77
REMARK SMILES IDX 31 78 32 79 55 80 56 81 64 82 57 83 63 84 58 85 59 86 60 87
REMARK SMILES IDX 61 88 62 89 41 90 42 91 50 92 43 93 49 94 44 95 45 96 46 97
REMARK SMILES IDX 47 98 48 99
REMARK H PARENT 9 6 13 36 69 55 39 66
REMARK Flexibility Score: inf
ROOT
ATOM      1  C   UNL A   1      39.132  21.816  26.351  1.00  0.00     0.042 C 
ENDROOT
BRANCH   1   2
ATOM      2  C   UNL A   1      37.966  22.713  25.961  1.00  0.00     0.117 C 
BRANCH   2   3
ATOM      3  N   UNL A   1      37.542  22.568  24.583  1.00  0.00    -0.356 N 
ATOM      4  C   UNL A   1      36.325  22.436  23.994  1.00  0.00     0.224 C 
ATOM      5  O   UNL A   1      36.289  22.673  22.779  1.00  0.00    -0.275 OA
ATOM      6  H   UNL A   1      38.289  22.562  23.942  1.00  0.00     0.163 HD
BRANCH   4   7
ATOM      7  C   UNL A   1      35.016  22.087  24.724  1.00  0.00     0.095 C 
ATOM      8  C   UNL A   1      32.148  19.202  22.936  1.00  0.00     0.039 C 
ATOM      9  C   UNL A   1      33.093  20.100  23.699  1.00  0.00    -0.074 C 
ATOM     10  C   UNL A   1      34.131  19.669  24.437  1.00  0.00    -0.074 C 
ATOM     11  C   UNL A   1      32.771  21.559  23.539  1.00  0.00     0.045 C 
ATOM     12  C   UNL A   1      34.553  18.227  24.556  1.00  0.00     0.039 C 
ATOM     13  C   UNL A   1      35.017  20.628  25.190  1.00  0.00     0.045 C 
ATOM     14  C   UNL A   1      33.665  22.630  24.195  1.00  0.00     0.095 C 
BRANCH  14  15
ATOM     15  C   UNL A   1      33.836  23.869  23.295  1.00  0.00     0.226 C 
ATOM     16  O   UNL A   1      33.815  23.790  22.067  1.00  0.00    -0.275 OA
ATOM     17  N   UNL A   1      33.975  25.106  23.876  1.00  0.00    -0.339 N 
ATOM     18  C   UNL A   1      33.351  26.249  23.203  1.00  0.00     0.141 C 
ATOM     19  C   UNL A   1      34.694  25.444  25.116  1.00  0.00     0.141 C 
ATOM     20  C   UNL A   1      32.356  26.907  24.164  1.00  0.00     0.138 C 
ATOM     21  C   UNL A   1      33.817  26.237  26.115  1.00  0.00     0.138 C 
ATOM     22  N   UNL A   1      33.050  27.245  25.399  1.00  0.00    -0.368 N 
BRANCH  22  23
ATOM     23  C   UNL A   1      32.806  28.485  25.921  1.00  0.00     0.037 A 
ATOM     24  C   UNL A   1      31.680  29.218  25.561  1.00  0.00     0.026 A 
ATOM     25  C   UNL A   1      33.787  29.062  26.732  1.00  0.00     0.039 A 
ATOM     26  C   UNL A   1      31.563  30.537  25.970  1.00  0.00     0.003 A 
ATOM     27  C   UNL A   1      33.691  30.388  27.141  1.00  0.00     0.058 A 
ATOM     28  C   UNL A   1      32.584  31.123  26.716  1.00  0.00     0.013 A 
BRANCH  27  29
ATOM     29  C   UNL A   1      34.762  31.019  27.985  1.00  0.00     0.416 C 
ATOM     30  F   UNL A   1      34.301  31.442  29.191  1.00  0.00    -0.166 F 
ATOM     31  F   UNL A   1      35.795  30.171  28.245  1.00  0.00    -0.166 F 
ATOM     32  F   UNL A   1      35.326  32.116  27.399  1.00  0.00    -0.166 F 
ENDBRANCH  27  29
ENDBRANCH  22  23
ENDBRANCH  14  15
ENDBRANCH   4   7
ENDBRANCH   2   3
ENDBRANCH   1   2
BRANCH   1  33
ATOM     33  C   UNL A   1      39.303  20.551  25.509  1.00  0.00     0.118 C 
BRANCH  33  34
ATOM     34  N   UNL A   1      40.294  19.649  26.065  1.00  0.00    -0.352 N 
ATOM     35  C   UNL A   1      41.599  19.837  26.453  1.00  0.00     0.251 C 
ATOM     36  H   UNL A   1      39.971  18.727  26.187  1.00  0.00     0.163 HD
ATOM     37  O   UNL A   1      42.264  18.828  26.695  1.00  0.00    -0.269 OA
BRANCH  35  38
ATOM     38  C   UNL A   1      42.245  21.175  26.594  1.00  0.00     0.039 A 
ATOM     39  C   UNL A   1      42.495  21.643  27.894  1.00  0.00     0.014 A 
ATOM     40  C   UNL A   1      42.494  22.037  25.523  1.00  0.00     0.014 A 
ATOM     41  C   UNL A   1      42.990  22.937  28.119  1.00  0.00     0.010 A 
ATOM     42  C   UNL A   1      43.056  23.307  25.745  1.00  0.00     0.010 A 
ATOM     43  C   UNL A   1      43.292  23.787  27.047  1.00  0.00    -0.014 A 
BRANCH  43  44
ATOM     44  C   UNL A   1      43.792  25.182  27.265  1.00  0.00     0.031 A 
ATOM     45  C   UNL A   1      45.254  25.509  27.053  1.00  0.00     0.074 A 
ATOM     46  C   UNL A   1      42.963  26.172  27.663  1.00  0.00     0.049 A 
ATOM     47  N   UNL A   1      45.893  26.629  27.288  1.00  0.00    -0.248 NA
ATOM     48  C   UNL A   1      46.103  24.447  26.489  1.00  0.00     0.031 C 
ATOM     49  C   UNL A   1      41.515  26.053  27.842  1.00  0.00     0.029 A 
ATOM     50  N   UNL A   1      43.228  27.474  28.032  1.00  0.00    -0.354 N 
ATOM     51  C   UNL A   1      47.203  26.419  26.872  1.00  0.00     0.074 A 
ATOM     52  C   UNL A   1      47.290  25.038  26.445  1.00  0.00     0.031 C 
ATOM     53  C   UNL A   1      41.033  27.207  28.336  1.00  0.00     0.029 A 
ATOM     54  C   UNL A   1      42.139  28.127  28.566  1.00  0.00     0.049 A 
ATOM     55  H   UNL A   1      44.110  27.897  27.922  1.00  0.00     0.167 HD
ATOM     56  C   UNL A   1      48.230  27.303  26.802  1.00  0.00     0.031 A 
ATOM     57  C   UNL A   1      42.041  29.297  29.232  1.00  0.00     0.031 A 
ATOM     58  C   UNL A   1      48.151  28.677  27.222  1.00  0.00     0.049 A 
ATOM     59  C   UNL A   1      43.244  30.179  29.357  1.00  0.00     0.074 A 
ATOM     60  C   UNL A   1      49.105  29.674  27.095  1.00  0.00     0.029 A 
ATOM     61  N   UNL A   1      47.066  29.248  27.866  1.00  0.00    -0.354 N 
ATOM     62  N   UNL A   1      44.463  29.968  28.927  1.00  0.00    -0.248 NA
ATOM     63  C   UNL A   1      43.042  31.479  30.011  1.00  0.00     0.031 C 
ATOM     64  C   UNL A   1      48.617  30.831  27.713  1.00  0.00     0.029 A 
ATOM     65  C   UNL A   1      47.339  30.570  28.178  1.00  0.00     0.049 A 
ATOM     66  H   UNL A   1      46.224  28.781  28.073  1.00  0.00     0.167 HD
ATOM     67  C   UNL A   1      45.160  31.138  29.198  1.00  0.00     0.074 A 
ATOM     68  C   UNL A   1      44.238  32.033  29.869  1.00  0.00     0.031 C 
ATOM     69  C   UNL A   1      46.435  31.453  28.867  1.00  0.00     0.031 A 
BRANCH  56  70
ATOM     70  C   UNL A   1      49.533  26.817  26.217  1.00  0.00    -0.014 A 
ATOM     71  C   UNL A   1      49.812  26.988  24.848  1.00  0.00     0.010 A 
ATOM     72  C   UNL A   1      50.513  26.247  27.048  1.00  0.00     0.010 A 
ATOM     73  C   UNL A   1      51.030  26.559  24.313  1.00  0.00     0.020 A 
ATOM     74  C   UNL A   1      51.742  25.838  26.521  1.00  0.00     0.020 A 
ATOM     75  C   UNL A   1      51.986  25.981  25.154  1.00  0.00     0.054 A 
BRANCH  75  76
ATOM     76  S   UNL A   1      53.566  25.453  24.435  1.00  0.00     0.124 S 
ATOM     77  O   UNL A   1      53.579  24.027  24.754  1.00  0.00    -0.237 OA
ATOM     78  O   UNL A   1      53.403  25.778  23.021  1.00  0.00    -0.237 OA
ATOM     79  O   UNL A   1      54.557  26.258  25.146  1.00  0.00    -0.744 OA
ENDBRANCH  75  76
ENDBRANCH  56  70
BRANCH  57  80
ATOM     80  C   UNL A   1      40.765  29.688  29.894  1.00  0.00    -0.014 A 
ATOM     81  C   UNL A   1      40.512  29.373  31.236  1.00  0.00     0.010 A 
ATOM     82  C   UNL A   1      39.787  30.389  29.163  1.00  0.00     0.010 A 
ATOM     83  C   UNL A   1      39.324  29.796  31.847  1.00  0.00     0.020 A 
ATOM     84  C   UNL A   1      38.622  30.851  29.778  1.00  0.00     0.020 A 
ATOM     85  C   UNL A   1      38.396  30.548  31.120  1.00  0.00     0.054 A 
BRANCH  85  86
ATOM     86  S   UNL A   1      36.913  31.190  31.944  1.00  0.00     0.124 S 
ATOM     87  O   UNL A   1      36.605  32.369  31.143  1.00  0.00    -0.237 OA
ATOM     88  O   UNL A   1      35.972  30.079  31.827  1.00  0.00    -0.237 OA
ATOM     89  O   UNL A   1      37.378  31.456  33.305  1.00  0.00    -0.744 OA
ENDBRANCH  85  86
ENDBRANCH  57  80
BRANCH  69  90
ATOM     90  C   UNL A   1      46.888  32.856  29.161  1.00  0.00    -0.014 A 
ATOM     91  C   UNL A   1      46.687  33.901  28.244  1.00  0.00     0.010 A 
ATOM     92  C   UNL A   1      47.519  33.128  30.389  1.00  0.00     0.010 A 
ATOM     93  C   UNL A   1      47.138  35.191  28.539  1.00  0.00     0.020 A 
ATOM     94  C   UNL A   1      47.949  34.419  30.697  1.00  0.00     0.020 A 
ATOM     95  C   UNL A   1      47.769  35.441  29.763  1.00  0.00     0.054 A 
BRANCH  95  96
ATOM     96  S   UNL A   1      48.319  37.128  30.139  1.00  0.00     0.124 S 
ATOM     97  O   UNL A   1      47.413  37.508  31.220  1.00  0.00    -0.237 OA
ATOM     98  O   UNL A   1      49.714  36.934  30.526  1.00  0.00    -0.237 OA
ATOM     99  O   UNL A   1      48.123  37.844  28.880  1.00  0.00    -0.744 OA
ENDBRANCH  95  96
ENDBRANCH  69  90
ENDBRANCH  43  44
ENDBRANCH  35  38
ENDBRANCH  33  34
ENDBRANCH   1  33
TORSDOF 16
ENDMDL
