MODEL 1
REMARK VINA RESULT:     -12.8      0.000      0.000
REMARK SMILES C[C@]12CCC[C@](C)(C(=O)NCCCNC(=O)c3ccc(-c4c5nc(c(-c6ccc(S(=O)(=O)[O-])cc6)c6ccc([nH]6)c(-c6ccc(S(=O)(=O)[O-])cc6)c6nc(c(-c7ccc(S(=O)(=O)[O-])cc7)c7ccc4[nH]7)C=C6)C=C5)cc3)[C@@H]1CC[C@]13C=C(CO)[C@H](CC[C@H]12)C3
REMARK SMILES IDX 12 1 11 2 10 3 8 4 9 5 6 7 1 8 2 9 3 10 77 11 88 12 4 13
REMARK SMILES IDX 78 14 80 15 87 16 5 17 7 18 79 19 81 20 89 21 86 22 82 23
REMARK SMILES IDX 85 24 83 25 84 26 13 28 14 29 15 30 16 32 17 33 18 34 76 35
REMARK SMILES IDX 19 36 75 37 20 38 21 39 22 40 69 41 23 42 74 43 68 44 70 45
REMARK SMILES IDX 24 46 73 47 67 48 66 49 25 51 55 52 36 53 54 54 37 55 40 56
REMARK SMILES IDX 53 57 71 58 38 59 39 60 52 62 72 63 41 64 26 65 27 66 35 67
REMARK SMILES IDX 28 68 34 69 29 70 30 71 31 72 32 73 33 74 56 75 57 76 65 77
REMARK SMILES IDX 58 78 64 79 59 80 60 81 61 82 62 83 63 84 42 85 43 86 51 87
REMARK SMILES IDX 44 88 50 89 45 90 46 91 47 92 48 93 49 94
REMARK H PARENT 10 6 84 27 14 31 70 50 40 61
REMARK Flexibility Score: inf
ROOT
ATOM      1  C   UNL A   1      37.847  23.121  25.853  1.00  0.00     0.042 C 
ENDROOT
BRANCH   1   2
ATOM      2  C   UNL A   1      36.444  23.645  25.625  1.00  0.00     0.117 C 
BRANCH   2   3
ATOM      3  N   UNL A   1      35.524  22.873  26.433  1.00  0.00    -0.356 N 
ATOM      4  C   UNL A   1      34.178  22.779  26.446  1.00  0.00     0.226 C 
ATOM      5  O   UNL A   1      33.668  22.819  27.573  1.00  0.00    -0.274 OA
ATOM      6  H   UNL A   1      35.966  22.305  27.104  1.00  0.00     0.163 HD
BRANCH   4   7
ATOM      7  C   UNL A   1      33.335  22.390  25.208  1.00  0.00     0.050 C 
ATOM      8  C   UNL A   1      32.485  25.123  26.386  1.00  0.00     0.012 C 
ATOM      9  C   UNL A   1      32.001  24.634  24.968  1.00  0.00    -0.025 C 
ATOM     10  C   UNL A   1      30.677  23.860  25.137  1.00  0.00     0.007 C 
ATOM     11  C   UNL A   1      33.043  23.675  24.293  1.00  0.00     0.010 C 
ATOM     12  C   UNL A   1      31.764  25.950  24.186  1.00  0.00     0.005 C 
ATOM     13  C   UNL A   1      30.826  22.573  25.939  1.00  0.00     0.002 C 
ATOM     14  C   UNL A   1      34.282  24.426  23.736  1.00  0.00     0.006 C 
ATOM     15  C   UNL A   1      33.037  26.656  23.584  1.00  0.00    -0.008 C 
ATOM     16  C   UNL A   1      30.518  26.372  23.417  1.00  0.00     0.006 C 
ATOM     17  C   UNL A   1      31.973  21.688  25.450  1.00  0.00     0.017 C 
ATOM     18  C   UNL A   1      34.241  21.348  24.508  1.00  0.00     0.022 C 
ATOM     19  C   UNL A   1      33.938  25.658  22.873  1.00  0.00     0.012 C 
ATOM     20  C   UNL A   1      33.622  27.432  24.728  1.00  0.00    -0.018 C 
ATOM     21  C   UNL A   1      32.648  27.909  22.752  1.00  0.00     0.019 C 
ATOM     22  C   UNL A   1      30.394  27.915  23.747  1.00  0.00     0.008 C 
ATOM     23  C   UNL A   1      32.776  28.451  24.995  1.00  0.00    -0.045 C 
ATOM     24  C   UNL A   1      31.795  28.652  23.806  1.00  0.00     0.018 C 
BRANCH  23  25
ATOM     25  C   UNL A   1      32.830  29.190  26.289  1.00  0.00     0.187 C 
BRANCH  25  26
ATOM     26  O   UNL A   1      33.896  30.131  26.265  1.00  0.00    -0.392 OA
ATOM     27  H   UNL A   1      34.735  29.674  26.430  1.00  0.00     0.211 HD
ENDBRANCH  25  26
ENDBRANCH  23  25
ENDBRANCH   4   7
ENDBRANCH   2   3
ENDBRANCH   1   2
BRANCH   1  28
ATOM     28  C   UNL A   1      38.702  24.090  26.657  1.00  0.00     0.118 C 
BRANCH  28  29
ATOM     29  N   UNL A   1      40.068  24.171  26.148  1.00  0.00    -0.352 N 
ATOM     30  C   UNL A   1      40.981  25.173  26.355  1.00  0.00     0.251 C 
ATOM     31  H   UNL A   1      40.367  23.418  25.590  1.00  0.00     0.163 HD
ATOM     32  O   UNL A   1      41.987  25.267  25.651  1.00  0.00    -0.269 OA
BRANCH  30  33
ATOM     33  C   UNL A   1      40.717  26.144  27.432  1.00  0.00     0.039 A 
ATOM     34  C   UNL A   1      39.851  25.814  28.473  1.00  0.00     0.014 A 
ATOM     35  C   UNL A   1      41.403  27.361  27.431  1.00  0.00     0.014 A 
ATOM     36  C   UNL A   1      39.711  26.697  29.543  1.00  0.00     0.010 A 
ATOM     37  C   UNL A   1      41.370  28.165  28.558  1.00  0.00     0.010 A 
ATOM     38  C   UNL A   1      40.491  27.865  29.606  1.00  0.00    -0.014 A 
BRANCH  38  39
ATOM     39  C   UNL A   1      40.353  28.840  30.713  1.00  0.00     0.031 A 
ATOM     40  C   UNL A   1      41.235  28.697  31.928  1.00  0.00     0.074 A 
ATOM     41  C   UNL A   1      39.412  29.802  30.656  1.00  0.00     0.049 A 
ATOM     42  N   UNL A   1      41.235  29.392  33.034  1.00  0.00    -0.248 NA
ATOM     43  C   UNL A   1      42.225  27.603  31.912  1.00  0.00     0.031 C 
ATOM     44  C   UNL A   1      38.470  30.009  29.554  1.00  0.00     0.029 A 
ATOM     45  N   UNL A   1      39.094  30.791  31.553  1.00  0.00    -0.354 N 
ATOM     46  C   UNL A   1      42.200  28.806  33.846  1.00  0.00     0.074 A 
ATOM     47  C   UNL A   1      42.712  27.655  33.141  1.00  0.00     0.031 C 
ATOM     48  C   UNL A   1      37.709  31.084  29.821  1.00  0.00     0.029 A 
ATOM     49  C   UNL A   1      38.076  31.613  31.130  1.00  0.00     0.049 A 
ATOM     50  H   UNL A   1      39.552  30.901  32.417  1.00  0.00     0.167 HD
ATOM     51  C   UNL A   1      42.649  29.210  35.057  1.00  0.00     0.031 A 
ATOM     52  C   UNL A   1      37.505  32.673  31.734  1.00  0.00     0.031 A 
ATOM     53  C   UNL A   1      42.154  30.373  35.740  1.00  0.00     0.049 A 
ATOM     54  C   UNL A   1      38.016  33.100  33.085  1.00  0.00     0.074 A 
ATOM     55  C   UNL A   1      42.572  30.904  36.945  1.00  0.00     0.029 A 
ATOM     56  N   UNL A   1      41.132  31.185  35.271  1.00  0.00    -0.354 N 
ATOM     57  N   UNL A   1      38.973  32.570  33.809  1.00  0.00    -0.248 NA
ATOM     58  C   UNL A   1      37.383  34.278  33.690  1.00  0.00     0.031 C 
ATOM     59  C   UNL A   1      41.766  32.009  37.233  1.00  0.00     0.029 A 
ATOM     60  C   UNL A   1      40.893  32.206  36.172  1.00  0.00     0.049 A 
ATOM     61  H   UNL A   1      40.650  31.055  34.423  1.00  0.00     0.167 HD
ATOM     62  C   UNL A   1      39.081  33.374  34.939  1.00  0.00     0.074 A 
ATOM     63  C   UNL A   1      38.101  34.430  34.794  1.00  0.00     0.031 C 
ATOM     64  C   UNL A   1      39.918  33.253  36.000  1.00  0.00     0.031 A 
BRANCH  51  65
ATOM     65  C   UNL A   1      43.732  28.389  35.708  1.00  0.00    -0.014 A 
ATOM     66  C   UNL A   1      43.419  27.320  36.569  1.00  0.00     0.010 A 
ATOM     67  C   UNL A   1      45.083  28.672  35.435  1.00  0.00     0.010 A 
ATOM     68  C   UNL A   1      44.435  26.577  37.175  1.00  0.00     0.020 A 
ATOM     69  C   UNL A   1      46.102  27.909  36.012  1.00  0.00     0.020 A 
ATOM     70  C   UNL A   1      45.771  26.875  36.891  1.00  0.00     0.054 A 
BRANCH  70  71
ATOM     71  S   UNL A   1      47.066  25.869  37.664  1.00  0.00     0.124 S 
ATOM     72  O   UNL A   1      46.894  26.192  39.079  1.00  0.00    -0.237 OA
ATOM     73  O   UNL A   1      46.688  24.512  37.280  1.00  0.00    -0.237 OA
ATOM     74  O   UNL A   1      48.299  26.365  37.059  1.00  0.00    -0.744 OA
ENDBRANCH  70  71
ENDBRANCH  51  65
BRANCH  52  75
ATOM     75  C   UNL A   1      36.407  33.418  31.059  1.00  0.00    -0.014 A 
ATOM     76  C   UNL A   1      35.133  33.507  31.649  1.00  0.00     0.010 A 
ATOM     77  C   UNL A   1      36.627  34.047  29.819  1.00  0.00     0.010 A 
ATOM     78  C   UNL A   1      34.095  34.183  31.002  1.00  0.00     0.020 A 
ATOM     79  C   UNL A   1      35.600  34.751  29.183  1.00  0.00     0.020 A 
ATOM     80  C   UNL A   1      34.336  34.801  29.772  1.00  0.00     0.054 A 
BRANCH  80  81
ATOM     81  S   UNL A   1      32.981  35.703  28.967  1.00  0.00     0.124 S 
ATOM     82  O   UNL A   1      32.191  36.147  30.110  1.00  0.00    -0.237 OA
ATOM     83  O   UNL A   1      33.691  36.753  28.239  1.00  0.00    -0.237 OA
ATOM     84  O   UNL A   1      32.350  34.689  28.124  1.00  0.00    -0.744 OA
ENDBRANCH  80  81
ENDBRANCH  52  75
BRANCH  64  85
ATOM     85  C   UNL A   1      39.850  34.318  37.062  1.00  0.00    -0.014 A 
ATOM     86  C   UNL A   1      40.566  35.521  36.943  1.00  0.00     0.010 A 
ATOM     87  C   UNL A   1      39.003  34.130  38.170  1.00  0.00     0.010 A 
ATOM     88  C   UNL A   1      40.463  36.503  37.932  1.00  0.00     0.020 A 
ATOM     89  C   UNL A   1      38.871  35.122  39.142  1.00  0.00     0.020 A 
ATOM     90  C   UNL A   1      39.615  36.297  39.025  1.00  0.00     0.054 A 
BRANCH  90  91
ATOM     91  S   UNL A   1      39.467  37.604  40.272  1.00  0.00     0.124 S 
ATOM     92  O   UNL A   1      40.701  38.358  40.070  1.00  0.00    -0.237 OA
ATOM     93  O   UNL A   1      38.240  38.289  39.873  1.00  0.00    -0.237 OA
ATOM     94  O   UNL A   1      39.383  36.873  41.534  1.00  0.00    -0.744 OA
ENDBRANCH  90  91
ENDBRANCH  64  85
ENDBRANCH  38  39
ENDBRANCH  30  33
ENDBRANCH  28  29
ENDBRANCH   1  28
TORSDOF 15
ENDMDL
MODEL 2
REMARK VINA RESULT:     -12.8      4.380     10.128
REMARK SMILES C[C@]12CCC[C@](C)(C(=O)NCCCNC(=O)c3ccc(-c4c5nc(c(-c6ccc(S(=O)(=O)[O-])cc6)c6ccc([nH]6)c(-c6ccc(S(=O)(=O)[O-])cc6)c6nc(c(-c7ccc(S(=O)(=O)[O-])cc7)c7ccc4[nH]7)C=C6)C=C5)cc3)[C@@H]1CC[C@]13C=C(CO)[C@H](CC[C@H]12)C3
REMARK SMILES IDX 12 1 11 2 10 3 8 4 9 5 6 7 1 8 2 9 3 10 77 11 88 12 4 13
REMARK SMILES IDX 78 14 80 15 87 16 5 17 7 18 79 19 81 20 89 21 86 22 82 23
REMARK SMILES IDX 85 24 83 25 84 26 13 28 14 29 15 30 16 32 17 33 18 34 76 35
REMARK SMILES IDX 19 36 75 37 20 38 21 39 22 40 69 41 23 42 74 43 68 44 70 45
REMARK SMILES IDX 24 46 73 47 67 48 66 49 25 51 55 52 36 53 54 54 37 55 40 56
REMARK SMILES IDX 53 57 71 58 38 59 39 60 52 62 72 63 41 64 26 65 27 66 35 67
REMARK SMILES IDX 28 68 34 69 29 70 30 71 31 72 32 73 33 74 56 75 57 76 65 77
REMARK SMILES IDX 58 78 64 79 59 80 60 81 61 82 62 83 63 84 42 85 43 86 51 87
REMARK SMILES IDX 44 88 50 89 45 90 46 91 47 92 48 93 49 94
REMARK H PARENT 10 6 84 27 14 31 70 50 40 61
REMARK Flexibility Score: inf
ROOT
ATOM      1  C   UNL A   1      33.931  28.329  25.716  1.00  0.00     0.042 C 
ENDROOT
BRANCH   1   2
ATOM      2  C   UNL A   1      32.664  28.708  24.976  1.00  0.00     0.117 C 
BRANCH   2   3
ATOM      3  N   UNL A   1      32.917  28.631  23.553  1.00  0.00    -0.356 N 
ATOM      4  C   UNL A   1      32.998  27.594  22.695  1.00  0.00     0.226 C 
ATOM      5  O   UNL A   1      33.958  27.641  21.915  1.00  0.00    -0.274 OA
ATOM      6  H   UNL A   1      33.057  29.507  23.128  1.00  0.00     0.163 HD
BRANCH   4   7
ATOM      7  C   UNL A   1      31.867  26.556  22.496  1.00  0.00     0.050 C 
ATOM      8  C   UNL A   1      34.582  25.213  23.130  1.00  0.00     0.012 C 
ATOM      9  C   UNL A   1      33.221  24.418  23.178  1.00  0.00    -0.025 C 
ATOM     10  C   UNL A   1      32.955  23.811  21.786  1.00  0.00     0.007 C 
ATOM     11  C   UNL A   1      32.013  25.349  23.543  1.00  0.00     0.010 C 
ATOM     12  C   UNL A   1      33.485  23.300  24.217  1.00  0.00     0.005 C 
ATOM     13  C   UNL A   1      32.732  24.857  20.700  1.00  0.00     0.002 C 
ATOM     14  C   UNL A   1      31.975  25.727  25.048  1.00  0.00     0.006 C 
ATOM     15  C   UNL A   1      33.381  23.704  25.736  1.00  0.00    -0.008 C 
ATOM     16  C   UNL A   1      33.262  21.801  24.056  1.00  0.00     0.006 C 
ATOM     17  C   UNL A   1      31.705  25.921  21.091  1.00  0.00     0.017 C 
ATOM     18  C   UNL A   1      30.596  27.408  22.736  1.00  0.00     0.022 C 
ATOM     19  C   UNL A   1      32.130  24.527  26.004  1.00  0.00     0.012 C 
ATOM     20  C   UNL A   1      34.708  24.326  26.059  1.00  0.00    -0.018 C 
ATOM     21  C   UNL A   1      33.578  22.473  26.662  1.00  0.00     0.019 C 
ATOM     22  C   UNL A   1      34.513  21.168  24.793  1.00  0.00     0.008 C 
ATOM     23  C   UNL A   1      35.629  23.338  26.043  1.00  0.00    -0.045 C 
ATOM     24  C   UNL A   1      34.923  21.954  26.105  1.00  0.00     0.018 C 
BRANCH  23  25
ATOM     25  C   UNL A   1      37.087  23.633  25.941  1.00  0.00     0.187 C 
BRANCH  25  26
ATOM     26  O   UNL A   1      37.481  23.657  24.575  1.00  0.00    -0.392 OA
ATOM     27  H   UNL A   1      37.917  22.821  24.349  1.00  0.00     0.211 HD
ENDBRANCH  25  26
ENDBRANCH  23  25
ENDBRANCH   4   7
ENDBRANCH   2   3
ENDBRANCH   1   2
BRANCH   1  28
ATOM     28  C   UNL A   1      33.803  28.531  27.220  1.00  0.00     0.118 C 
BRANCH  28  29
ATOM     29  N   UNL A   1      33.672  29.940  27.576  1.00  0.00    -0.352 N 
ATOM     30  C   UNL A   1      34.556  30.710  28.287  1.00  0.00     0.251 C 
ATOM     31  H   UNL A   1      32.851  30.390  27.270  1.00  0.00     0.163 HD
ATOM     32  O   UNL A   1      34.211  31.791  28.764  1.00  0.00    -0.269 OA
BRANCH  30  33
ATOM     33  C   UNL A   1      35.925  30.200  28.479  1.00  0.00     0.039 A 
ATOM     34  C   UNL A   1      36.865  30.323  27.458  1.00  0.00     0.014 A 
ATOM     35  C   UNL A   1      36.283  29.664  29.718  1.00  0.00     0.014 A 
ATOM     36  C   UNL A   1      38.185  29.946  27.703  1.00  0.00     0.010 A 
ATOM     37  C   UNL A   1      37.617  29.426  30.001  1.00  0.00     0.010 A 
ATOM     38  C   UNL A   1      38.576  29.522  28.985  1.00  0.00    -0.014 A 
BRANCH  38  39
ATOM     39  C   UNL A   1      39.962  29.090  29.278  1.00  0.00     0.031 A 
ATOM     40  C   UNL A   1      40.904  30.059  29.948  1.00  0.00     0.074 A 
ATOM     41  C   UNL A   1      40.387  27.870  28.898  1.00  0.00     0.049 A 
ATOM     42  N   UNL A   1      42.171  29.914  30.233  1.00  0.00    -0.248 NA
ATOM     43  C   UNL A   1      40.359  31.380  30.313  1.00  0.00     0.031 C 
ATOM     44  C   UNL A   1      39.580  26.865  28.202  1.00  0.00     0.029 A 
ATOM     45  N   UNL A   1      41.610  27.266  29.046  1.00  0.00    -0.354 N 
ATOM     46  C   UNL A   1      42.573  31.126  30.784  1.00  0.00     0.074 A 
ATOM     47  C   UNL A   1      41.440  32.020  30.723  1.00  0.00     0.031 C 
ATOM     48  C   UNL A   1      40.317  25.756  28.021  1.00  0.00     0.029 A 
ATOM     49  C   UNL A   1      41.659  25.986  28.545  1.00  0.00     0.049 A 
ATOM     50  H   UNL A   1      42.380  27.708  29.471  1.00  0.00     0.167 HD
ATOM     51  C   UNL A   1      43.767  31.458  31.325  1.00  0.00     0.031 A 
ATOM     52  C   UNL A   1      42.674  25.102  28.513  1.00  0.00     0.031 A 
ATOM     53  C   UNL A   1      44.880  30.553  31.406  1.00  0.00     0.049 A 
ATOM     54  C   UNL A   1      43.997  25.495  29.117  1.00  0.00     0.074 A 
ATOM     55  C   UNL A   1      46.120  30.765  31.981  1.00  0.00     0.029 A 
ATOM     56  N   UNL A   1      44.884  29.262  30.899  1.00  0.00    -0.354 N 
ATOM     57  N   UNL A   1      44.339  26.625  29.690  1.00  0.00    -0.248 NA
ATOM     58  C   UNL A   1      45.064  24.487  29.085  1.00  0.00     0.031 C 
ATOM     59  C   UNL A   1      46.893  29.619  31.774  1.00  0.00     0.029 A 
ATOM     60  C   UNL A   1      46.111  28.670  31.132  1.00  0.00     0.049 A 
ATOM     61  H   UNL A   1      44.126  28.831  30.443  1.00  0.00     0.167 HD
ATOM     62  C   UNL A   1      45.650  26.449  30.120  1.00  0.00     0.074 A 
ATOM     63  C   UNL A   1      46.033  25.101  29.752  1.00  0.00     0.031 C 
ATOM     64  C   UNL A   1      46.464  27.322  30.765  1.00  0.00     0.031 A 
BRANCH  51  65
ATOM     65  C   UNL A   1      43.921  32.852  31.877  1.00  0.00    -0.014 A 
ATOM     66  C   UNL A   1      43.766  33.113  33.251  1.00  0.00     0.010 A 
ATOM     67  C   UNL A   1      44.252  33.912  31.014  1.00  0.00     0.010 A 
ATOM     68  C   UNL A   1      43.899  34.412  33.746  1.00  0.00     0.020 A 
ATOM     69  C   UNL A   1      44.421  35.208  31.510  1.00  0.00     0.020 A 
ATOM     70  C   UNL A   1      44.227  35.453  32.871  1.00  0.00     0.054 A 
BRANCH  70  71
ATOM     71  S   UNL A   1      44.429  37.122  33.548  1.00  0.00     0.124 S 
ATOM     72  O   UNL A   1      45.164  37.794  32.480  1.00  0.00    -0.237 OA
ATOM     73  O   UNL A   1      43.048  37.560  33.733  1.00  0.00    -0.237 OA
ATOM     74  O   UNL A   1      45.182  36.908  34.782  1.00  0.00    -0.744 OA
ENDBRANCH  70  71
ENDBRANCH  51  65
BRANCH  52  75
ATOM     75  C   UNL A   1      42.474  23.753  27.915  1.00  0.00    -0.014 A 
ATOM     76  C   UNL A   1      42.080  22.666  28.716  1.00  0.00     0.010 A 
ATOM     77  C   UNL A   1      42.675  23.545  26.538  1.00  0.00     0.010 A 
ATOM     78  C   UNL A   1      41.919  21.394  28.159  1.00  0.00     0.020 A 
ATOM     79  C   UNL A   1      42.485  22.282  25.970  1.00  0.00     0.020 A 
ATOM     80  C   UNL A   1      42.122  21.211  26.788  1.00  0.00     0.054 A 
BRANCH  80  81
ATOM     81  S   UNL A   1      41.874  19.557  26.082  1.00  0.00     0.124 S 
ATOM     82  O   UNL A   1      42.740  19.595  24.908  1.00  0.00    -0.237 OA
ATOM     83  O   UNL A   1      42.313  18.682  27.167  1.00  0.00    -0.237 OA
ATOM     84  O   UNL A   1      40.440  19.517  25.802  1.00  0.00    -0.744 OA
ENDBRANCH  80  81
ENDBRANCH  52  75
BRANCH  64  85
ATOM     85  C   UNL A   1      47.831  26.830  31.164  1.00  0.00    -0.014 A 
ATOM     86  C   UNL A   1      48.050  26.192  32.397  1.00  0.00     0.010 A 
ATOM     87  C   UNL A   1      48.899  26.958  30.256  1.00  0.00     0.010 A 
ATOM     88  C   UNL A   1      49.324  25.723  32.730  1.00  0.00     0.020 A 
ATOM     89  C   UNL A   1      50.163  26.459  30.571  1.00  0.00     0.020 A 
ATOM     90  C   UNL A   1      50.372  25.859  31.813  1.00  0.00     0.054 A 
BRANCH  90  91
ATOM     91  S   UNL A   1      52.004  25.203  32.251  1.00  0.00     0.124 S 
ATOM     92  O   UNL A   1      51.760  23.762  32.258  1.00  0.00    -0.237 OA
ATOM     93  O   UNL A   1      52.848  25.693  31.165  1.00  0.00    -0.237 OA
ATOM     94  O   UNL A   1      52.276  25.794  33.559  1.00  0.00    -0.744 OA
ENDBRANCH  90  91
ENDBRANCH  64  85
ENDBRANCH  38  39
ENDBRANCH  30  33
ENDBRANCH  28  29
ENDBRANCH   1  28
TORSDOF 15
ENDMDL
MODEL 3
REMARK VINA RESULT:     -12.7      3.211      3.839
REMARK SMILES C[C@]12CCC[C@](C)(C(=O)NCCCNC(=O)c3ccc(-c4c5nc(c(-c6ccc(S(=O)(=O)[O-])cc6)c6ccc([nH]6)c(-c6ccc(S(=O)(=O)[O-])cc6)c6nc(c(-c7ccc(S(=O)(=O)[O-])cc7)c7ccc4[nH]7)C=C6)C=C5)cc3)[C@@H]1CC[C@]13C=C(CO)[C@H](CC[C@H]12)C3
REMARK SMILES IDX 12 1 11 2 10 3 8 4 9 5 6 7 1 8 2 9 3 10 77 11 88 12 4 13
REMARK SMILES IDX 78 14 80 15 87 16 5 17 7 18 79 19 81 20 89 21 86 22 82 23
REMARK SMILES IDX 85 24 83 25 84 26 13 28 14 29 15 30 16 32 17 33 18 34 76 35
REMARK SMILES IDX 19 36 75 37 20 38 21 39 22 40 69 41 23 42 74 43 68 44 70 45
REMARK SMILES IDX 24 46 73 47 67 48 66 49 25 51 55 52 36 53 54 54 37 55 40 56
REMARK SMILES IDX 53 57 71 58 38 59 39 60 52 62 72 63 41 64 26 65 27 66 35 67
REMARK SMILES IDX 28 68 34 69 29 70 30 71 31 72 32 73 33 74 56 75 57 76 65 77
REMARK SMILES IDX 58 78 64 79 59 80 60 81 61 82 62 83 63 84 42 85 43 86 51 87
REMARK SMILES IDX 44 88 50 89 45 90 46 91 47 92 48 93 49 94
REMARK H PARENT 10 6 84 27 14 31 70 50 40 61
REMARK Flexibility Score: inf
ROOT
ATOM      1  C   UNL A   1      35.876  23.998  24.812  1.00  0.00     0.042 C 
ENDROOT
BRANCH   1   2
ATOM      2  C   UNL A   1      35.343  22.636  24.416  1.00  0.00     0.117 C 
BRANCH   2   3
ATOM      3  N   UNL A   1      34.527  22.125  25.496  1.00  0.00    -0.356 N 
ATOM      4  C   UNL A   1      33.319  22.484  25.978  1.00  0.00     0.226 C 
ATOM      5  O   UNL A   1      33.255  22.557  27.212  1.00  0.00    -0.274 OA
ATOM      6  H   UNL A   1      34.932  21.365  25.973  1.00  0.00     0.163 HD
BRANCH   4   7
ATOM      7  C   UNL A   1      32.038  22.552  25.112  1.00  0.00     0.050 C 
ATOM      8  C   UNL A   1      32.680  25.264  26.459  1.00  0.00     0.012 C 
ATOM      9  C   UNL A   1      31.617  25.133  25.302  1.00  0.00    -0.025 C 
ATOM     10  C   UNL A   1      30.236  24.857  25.930  1.00  0.00     0.007 C 
ATOM     11  C   UNL A   1      31.955  23.950  24.329  1.00  0.00     0.010 C 
ATOM     12  C   UNL A   1      31.637  26.526  24.624  1.00  0.00     0.005 C 
ATOM     13  C   UNL A   1      30.156  23.519  26.657  1.00  0.00     0.002 C 
ATOM     14  C   UNL A   1      33.128  24.277  23.366  1.00  0.00     0.006 C 
ATOM     15  C   UNL A   1      32.808  26.804  23.609  1.00  0.00    -0.008 C 
ATOM     16  C   UNL A   1      30.454  27.437  24.323  1.00  0.00     0.006 C 
ATOM     17  C   UNL A   1      30.674  22.348  25.821  1.00  0.00     0.017 C 
ATOM     18  C   UNL A   1      32.219  21.342  24.163  1.00  0.00     0.022 C 
ATOM     19  C   UNL A   1      32.997  25.637  22.650  1.00  0.00     0.012 C 
ATOM     20  C   UNL A   1      33.975  27.197  24.467  1.00  0.00    -0.018 C 
ATOM     21  C   UNL A   1      32.656  28.196  22.938  1.00  0.00     0.019 C 
ATOM     22  C   UNL A   1      31.017  28.881  24.646  1.00  0.00     0.008 C 
ATOM     23  C   UNL A   1      33.697  28.412  24.989  1.00  0.00    -0.045 C 
ATOM     24  C   UNL A   1      32.527  29.070  24.206  1.00  0.00     0.018 C 
BRANCH  23  25
ATOM     25  C   UNL A   1      34.436  28.939  26.172  1.00  0.00     0.187 C 
BRANCH  25  26
ATOM     26  O   UNL A   1      34.000  30.259  26.467  1.00  0.00    -0.392 OA
ATOM     27  H   UNL A   1      34.157  30.450  27.404  1.00  0.00     0.211 HD
ENDBRANCH  25  26
ENDBRANCH  23  25
ENDBRANCH   4   7
ENDBRANCH   2   3
ENDBRANCH   1   2
BRANCH   1  28
ATOM     28  C   UNL A   1      36.716  23.943  26.080  1.00  0.00     0.118 C 
BRANCH  28  29
ATOM     29  N   UNL A   1      37.700  22.866  26.041  1.00  0.00    -0.352 N 
ATOM     30  C   UNL A   1      39.047  22.954  26.278  1.00  0.00     0.251 C 
ATOM     31  H   UNL A   1      37.354  21.972  25.818  1.00  0.00     0.163 HD
ATOM     32  O   UNL A   1      39.809  22.047  25.941  1.00  0.00    -0.269 OA
BRANCH  30  33
ATOM     33  C   UNL A   1      39.562  24.170  26.932  1.00  0.00     0.039 A 
ATOM     34  C   UNL A   1      40.213  25.146  26.180  1.00  0.00     0.014 A 
ATOM     35  C   UNL A   1      39.322  24.360  28.296  1.00  0.00     0.014 A 
ATOM     36  C   UNL A   1      40.583  26.341  26.795  1.00  0.00     0.010 A 
ATOM     37  C   UNL A   1      39.562  25.599  28.865  1.00  0.00     0.010 A 
ATOM     38  C   UNL A   1      40.234  26.587  28.135  1.00  0.00    -0.014 A 
BRANCH  38  39
ATOM     39  C   UNL A   1      40.631  27.834  28.831  1.00  0.00     0.031 A 
ATOM     40  C   UNL A   1      42.005  27.923  29.445  1.00  0.00     0.074 A 
ATOM     41  C   UNL A   1      39.753  28.847  28.960  1.00  0.00     0.049 A 
ATOM     42  N   UNL A   1      42.530  28.887  30.155  1.00  0.00    -0.248 NA
ATOM     43  C   UNL A   1      42.895  26.759  29.270  1.00  0.00     0.031 C 
ATOM     44  C   UNL A   1      38.380  28.856  28.447  1.00  0.00     0.029 A 
ATOM     45  N   UNL A   1      39.888  30.070  29.565  1.00  0.00    -0.354 N 
ATOM     46  C   UNL A   1      43.792  28.434  30.526  1.00  0.00     0.074 A 
ATOM     47  C   UNL A   1      43.925  27.084  30.032  1.00  0.00     0.031 C 
ATOM     48  C   UNL A   1      37.815  30.043  28.724  1.00  0.00     0.029 A 
ATOM     49  C   UNL A   1      38.765  30.860  29.471  1.00  0.00     0.049 A 
ATOM     50  H   UNL A   1      40.711  30.356  30.024  1.00  0.00     0.167 HD
ATOM     51  C   UNL A   1      44.769  29.095  31.189  1.00  0.00     0.031 A 
ATOM     52  C   UNL A   1      38.533  32.102  29.938  1.00  0.00     0.031 A 
ATOM     53  C   UNL A   1      44.638  30.448  31.653  1.00  0.00     0.049 A 
ATOM     54  C   UNL A   1      39.633  32.815  30.678  1.00  0.00     0.074 A 
ATOM     55  C   UNL A   1      45.581  31.233  32.290  1.00  0.00     0.029 A 
ATOM     56  N   UNL A   1      43.490  31.216  31.526  1.00  0.00    -0.354 N 
ATOM     57  N   UNL A   1      40.842  32.394  30.965  1.00  0.00    -0.248 NA
ATOM     58  C   UNL A   1      39.342  34.178  31.142  1.00  0.00     0.031 C 
ATOM     59  C   UNL A   1      44.986  32.460  32.596  1.00  0.00     0.029 A 
ATOM     60  C   UNL A   1      43.695  32.462  32.088  1.00  0.00     0.049 A 
ATOM     61  H   UNL A   1      42.655  30.918  31.099  1.00  0.00     0.167 HD
ATOM     62  C   UNL A   1      41.469  33.455  31.611  1.00  0.00     0.074 A 
ATOM     63  C   UNL A   1      40.509  34.539  31.659  1.00  0.00     0.031 C 
ATOM     64  C   UNL A   1      42.726  33.529  32.115  1.00  0.00     0.031 A 
BRANCH  51  65
ATOM     65  C   UNL A   1      46.061  28.361  31.440  1.00  0.00    -0.014 A 
ATOM     66  C   UNL A   1      46.244  27.579  32.595  1.00  0.00     0.010 A 
ATOM     67  C   UNL A   1      47.099  28.431  30.493  1.00  0.00     0.010 A 
ATOM     68  C   UNL A   1      47.452  26.915  32.819  1.00  0.00     0.020 A 
ATOM     69  C   UNL A   1      48.297  27.740  30.696  1.00  0.00     0.020 A 
ATOM     70  C   UNL A   1      48.471  26.999  31.866  1.00  0.00     0.054 A 
BRANCH  70  71
ATOM     71  S   UNL A   1      50.014  26.097  32.168  1.00  0.00     0.124 S 
ATOM     72  O   UNL A   1      49.525  24.844  32.739  1.00  0.00    -0.237 OA
ATOM     73  O   UNL A   1      50.591  25.994  30.830  1.00  0.00    -0.237 OA
ATOM     74  O   UNL A   1      50.746  26.958  33.094  1.00  0.00    -0.744 OA
ENDBRANCH  70  71
ENDBRANCH  51  65
BRANCH  52  75
ATOM     75  C   UNL A   1      37.218  32.758  29.696  1.00  0.00    -0.014 A 
ATOM     76  C   UNL A   1      36.976  33.457  28.500  1.00  0.00     0.010 A 
ATOM     77  C   UNL A   1      36.196  32.688  30.661  1.00  0.00     0.010 A 
ATOM     78  C   UNL A   1      35.752  34.097  28.286  1.00  0.00     0.020 A 
ATOM     79  C   UNL A   1      34.959  33.300  30.438  1.00  0.00     0.020 A 
ATOM     80  C   UNL A   1      34.751  34.014  29.257  1.00  0.00     0.054 A 
BRANCH  80  81
ATOM     81  S   UNL A   1      33.157  34.824  28.941  1.00  0.00     0.124 S 
ATOM     82  O   UNL A   1      33.574  36.122  28.421  1.00  0.00    -0.237 OA
ATOM     83  O   UNL A   1      32.533  33.924  27.974  1.00  0.00    -0.237 OA
ATOM     84  O   UNL A   1      32.521  34.850  30.257  1.00  0.00    -0.744 OA
ENDBRANCH  80  81
ENDBRANCH  52  75
BRANCH  64  85
ATOM     85  C   UNL A   1      43.158  34.842  32.713  1.00  0.00    -0.014 A 
ATOM     86  C   UNL A   1      43.703  35.866  31.920  1.00  0.00     0.010 A 
ATOM     87  C   UNL A   1      42.953  35.071  34.086  1.00  0.00     0.010 A 
ATOM     88  C   UNL A   1      44.070  37.084  32.499  1.00  0.00     0.020 A 
ATOM     89  C   UNL A   1      43.286  36.298  34.661  1.00  0.00     0.020 A 
ATOM     90  C   UNL A   1      43.858  37.292  33.866  1.00  0.00     0.054 A 
BRANCH  90  91
ATOM     91  S   UNL A   1      44.303  38.896  34.583  1.00  0.00     0.124 S 
ATOM     92  O   UNL A   1      44.095  38.659  36.009  1.00  0.00    -0.237 OA
ATOM     93  O   UNL A   1      45.695  39.057  34.169  1.00  0.00    -0.237 OA
ATOM     94  O   UNL A   1      43.363  39.826  33.963  1.00  0.00    -0.744 OA
ENDBRANCH  90  91
ENDBRANCH  64  85
ENDBRANCH  38  39
ENDBRANCH  30  33
ENDBRANCH  28  29
ENDBRANCH   1  28
TORSDOF 15
ENDMDL
