MODEL 1
REMARK VINA RESULT:     -12.6      0.000      0.000
REMARK SMILES Cc1cc(C(=O)NCCCNC(=O)c2ccc(-c3c4nc(c(-c5ccc(S(=O)(=O)[O-])cc5)c5ccc([nH]5)c(-c5ccc(S(=O)(=O)[O-])cc5)c5nc(c(-c6ccc(S(=O)(=O)[O-])cc6)c6ccc3[nH]6)C=C5)C=C4)cc2)nc(N2CCN(c3ccccc3Cl)CC2)n1
REMARK SMILES IDX 9 1 8 2 7 3 5 4 6 5 4 7 1 8 2 9 3 10 89 11 75 12 74 13 76 14
REMARK SMILES IDX 77 15 88 16 78 17 87 18 79 19 80 20 81 21 85 22 82 23 84 24
REMARK SMILES IDX 86 25 83 26 10 27 11 28 12 29 13 31 14 32 15 33 73 34 16 35
REMARK SMILES IDX 72 36 17 37 18 38 19 39 66 40 20 41 71 42 65 43 67 44 21 45
REMARK SMILES IDX 70 46 64 47 63 48 22 50 52 51 33 52 51 53 34 54 37 55 50 56
REMARK SMILES IDX 68 57 35 58 36 59 49 61 69 62 38 63 23 64 24 65 32 66 25 67
REMARK SMILES IDX 31 68 26 69 27 70 28 71 29 72 30 73 53 74 54 75 62 76 55 77
REMARK SMILES IDX 61 78 56 79 57 80 58 81 59 82 60 83 39 84 40 85 48 86 41 87
REMARK SMILES IDX 47 88 42 89 43 90 44 91 45 92 46 93
REMARK H PARENT 7 6 11 30 67 49 37 60
REMARK Flexibility Score: inf
ROOT
ATOM      1  C   UNL A   1      38.972  22.175  26.225  1.00  0.00     0.042 C 
ENDROOT
BRANCH   1   2
ATOM      2  C   UNL A   1      37.552  22.556  25.816  1.00  0.00     0.118 C 
BRANCH   2   3
ATOM      3  N   UNL A   1      37.498  22.822  24.396  1.00  0.00    -0.351 N 
ATOM      4  C   UNL A   1      36.466  22.869  23.496  1.00  0.00     0.270 C 
ATOM      5  O   UNL A   1      36.785  23.068  22.321  1.00  0.00    -0.268 OA
ATOM      6  H   UNL A   1      38.379  23.006  23.996  1.00  0.00     0.163 HD
BRANCH   4   7
ATOM      7  C   UNL A   1      35.016  22.762  23.872  1.00  0.00     0.133 A 
ATOM      8  C   UNL A   1      32.309  20.657  25.337  1.00  0.00     0.067 C 
ATOM      9  C   UNL A   1      33.077  21.810  24.760  1.00  0.00     0.044 A 
ATOM     10  C   UNL A   1      34.370  21.632  24.309  1.00  0.00     0.058 A 
ATOM     11  N   UNL A   1      32.436  22.996  24.680  1.00  0.00    -0.218 NA
ATOM     12  C   UNL A   1      33.093  24.007  24.100  1.00  0.00     0.226 A 
ATOM     13  N   UNL A   1      34.370  23.931  23.736  1.00  0.00    -0.208 NA
BRANCH  12  14
ATOM     14  N   UNL A   1      32.464  25.182  23.797  1.00  0.00    -0.337 N 
ATOM     15  C   UNL A   1      31.911  26.035  24.841  1.00  0.00     0.141 C 
ATOM     16  C   UNL A   1      31.710  25.136  22.535  1.00  0.00     0.141 C 
ATOM     17  C   UNL A   1      31.749  27.475  24.283  1.00  0.00     0.138 C 
ATOM     18  C   UNL A   1      31.502  26.554  21.977  1.00  0.00     0.138 C 
ATOM     19  N   UNL A   1      30.988  27.444  23.027  1.00  0.00    -0.367 N 
BRANCH  19  20
ATOM     20  C   UNL A   1      29.960  28.325  22.772  1.00  0.00     0.056 A 
ATOM     21  C   UNL A   1      30.233  29.547  22.139  1.00  0.00     0.027 A 
ATOM     22  C   UNL A   1      28.620  28.066  23.133  1.00  0.00     0.064 A 
ATOM     23  C   UNL A   1      29.220  30.472  21.871  1.00  0.00     0.002 A 
ATOM     24  C   UNL A   1      27.607  28.993  22.872  1.00  0.00     0.023 A 
ATOM     25  Cl  UNL A   1      28.163  26.630  23.990  1.00  0.00    -0.082 Cl
ATOM     26  C   UNL A   1      27.907  30.197  22.240  1.00  0.00     0.002 A 
ENDBRANCH  19  20
ENDBRANCH  12  14
ENDBRANCH   4   7
ENDBRANCH   2   3
ENDBRANCH   1   2
BRANCH   1  27
ATOM     27  C   UNL A   1      39.717  23.338  26.874  1.00  0.00     0.118 C 
BRANCH  27  28
ATOM     28  N   UNL A   1      40.971  23.620  26.183  1.00  0.00    -0.352 N 
ATOM     29  C   UNL A   1      41.739  24.758  26.194  1.00  0.00     0.251 C 
ATOM     30  H   UNL A   1      41.317  22.886  25.626  1.00  0.00     0.163 HD
ATOM     31  O   UNL A   1      42.608  24.916  25.346  1.00  0.00    -0.269 OA
BRANCH  29  32
ATOM     32  C   UNL A   1      41.502  25.785  27.228  1.00  0.00     0.039 A 
ATOM     33  C   UNL A   1      40.510  25.571  28.188  1.00  0.00     0.014 A 
ATOM     34  C   UNL A   1      42.255  26.962  27.239  1.00  0.00     0.014 A 
ATOM     35  C   UNL A   1      40.322  26.510  29.204  1.00  0.00     0.010 A 
ATOM     36  C   UNL A   1      42.119  27.856  28.294  1.00  0.00     0.010 A 
ATOM     37  C   UNL A   1      41.151  27.640  29.286  1.00  0.00    -0.014 A 
BRANCH  37  38
ATOM     38  C   UNL A   1      41.040  28.614  30.401  1.00  0.00     0.031 A 
ATOM     39  C   UNL A   1      41.926  28.476  31.607  1.00  0.00     0.074 A 
ATOM     40  C   UNL A   1      40.077  29.556  30.367  1.00  0.00     0.049 A 
ATOM     41  N   UNL A   1      41.895  29.139  32.734  1.00  0.00    -0.248 NA
ATOM     42  C   UNL A   1      42.967  27.435  31.552  1.00  0.00     0.031 C 
ATOM     43  C   UNL A   1      39.135  29.769  29.264  1.00  0.00     0.029 A 
ATOM     44  N   UNL A   1      39.717  30.501  31.295  1.00  0.00    -0.354 N 
ATOM     45  C   UNL A   1      42.890  28.583  33.528  1.00  0.00     0.074 A 
ATOM     46  C   UNL A   1      43.477  27.498  32.773  1.00  0.00     0.031 C 
ATOM     47  C   UNL A   1      38.319  30.789  29.572  1.00  0.00     0.029 A 
ATOM     48  C   UNL A   1      38.641  31.268  30.912  1.00  0.00     0.049 A 
ATOM     49  H   UNL A   1      40.184  30.619  32.153  1.00  0.00     0.167 HD
ATOM     50  C   UNL A   1      43.290  28.952  34.768  1.00  0.00     0.031 A 
ATOM     51  C   UNL A   1      37.974  32.235  31.574  1.00  0.00     0.031 A 
ATOM     52  C   UNL A   1      42.703  30.039  35.508  1.00  0.00     0.049 A 
ATOM     53  C   UNL A   1      38.418  32.610  32.961  1.00  0.00     0.074 A 
ATOM     54  C   UNL A   1      43.071  30.530  36.748  1.00  0.00     0.029 A 
ATOM     55  N   UNL A   1      41.626  30.800  35.078  1.00  0.00    -0.354 N 
ATOM     56  N   UNL A   1      39.402  32.114  33.672  1.00  0.00    -0.248 NA
ATOM     57  C   UNL A   1      37.669  33.681  33.633  1.00  0.00     0.031 C 
ATOM     58  C   UNL A   1      42.178  31.546  37.096  1.00  0.00     0.029 A 
ATOM     59  C   UNL A   1      41.298  31.737  36.042  1.00  0.00     0.049 A 
ATOM     60  H   UNL A   1      41.164  30.689  34.216  1.00  0.00     0.167 HD
ATOM     61  C   UNL A   1      39.411  32.834  34.861  1.00  0.00     0.074 A 
ATOM     62  C   UNL A   1      38.340  33.805  34.770  1.00  0.00     0.031 C 
ATOM     63  C   UNL A   1      40.234  32.705  35.931  1.00  0.00     0.031 A 
BRANCH  50  64
ATOM     64  C   UNL A   1      44.405  28.167  35.408  1.00  0.00    -0.014 A 
ATOM     65  C   UNL A   1      44.138  27.041  36.208  1.00  0.00     0.010 A 
ATOM     66  C   UNL A   1      45.742  28.533  35.168  1.00  0.00     0.010 A 
ATOM     67  C   UNL A   1      45.184  26.324  36.793  1.00  0.00     0.020 A 
ATOM     68  C   UNL A   1      46.794  27.798  35.725  1.00  0.00     0.020 A 
ATOM     69  C   UNL A   1      46.507  26.707  36.548  1.00  0.00     0.054 A 
BRANCH  69  70
ATOM     70  S   UNL A   1      47.844  25.740  37.300  1.00  0.00     0.124 S 
ATOM     71  O   UNL A   1      47.655  26.020  38.721  1.00  0.00    -0.237 OA
ATOM     72  O   UNL A   1      47.526  24.377  36.881  1.00  0.00    -0.237 OA
ATOM     73  O   UNL A   1      49.055  26.305  36.710  1.00  0.00    -0.744 OA
ENDBRANCH  69  70
ENDBRANCH  50  64
BRANCH  51  74
ATOM     74  C   UNL A   1      36.817  32.915  30.928  1.00  0.00    -0.014 A 
ATOM     75  C   UNL A   1      37.022  33.843  29.891  1.00  0.00     0.010 A 
ATOM     76  C   UNL A   1      35.501  32.626  31.335  1.00  0.00     0.010 A 
ATOM     77  C   UNL A   1      35.935  34.482  29.287  1.00  0.00     0.020 A 
ATOM     78  C   UNL A   1      34.410  33.240  30.712  1.00  0.00     0.020 A 
ATOM     79  C   UNL A   1      34.636  34.173  29.699  1.00  0.00     0.054 A 
BRANCH  79  80
ATOM     80  S   UNL A   1      33.240  34.977  28.863  1.00  0.00     0.124 S 
ATOM     81  O   UNL A   1      32.377  35.331  29.986  1.00  0.00    -0.237 OA
ATOM     82  O   UNL A   1      33.885  36.097  28.182  1.00  0.00    -0.237 OA
ATOM     83  O   UNL A   1      32.724  33.934  27.980  1.00  0.00    -0.744 OA
ENDBRANCH  79  80
ENDBRANCH  51  74
BRANCH  63  84
ATOM     84  C   UNL A   1      40.050  33.664  37.077  1.00  0.00    -0.014 A 
ATOM     85  C   UNL A   1      40.663  34.929  37.081  1.00  0.00     0.010 A 
ATOM     86  C   UNL A   1      39.176  33.320  38.126  1.00  0.00     0.010 A 
ATOM     87  C   UNL A   1      40.416  35.828  38.121  1.00  0.00     0.020 A 
ATOM     88  C   UNL A   1      38.903  34.228  39.151  1.00  0.00     0.020 A 
ATOM     89  C   UNL A   1      39.531  35.475  39.146  1.00  0.00     0.054 A 
BRANCH  89  90
ATOM     90  S   UNL A   1      39.170  36.690  40.443  1.00  0.00     0.124 S 
ATOM     91  O   UNL A   1      40.497  36.948  40.996  1.00  0.00    -0.237 OA
ATOM     92  O   UNL A   1      38.578  37.793  39.691  1.00  0.00    -0.237 OA
ATOM     93  O   UNL A   1      38.251  35.985  41.334  1.00  0.00    -0.744 OA
ENDBRANCH  89  90
ENDBRANCH  63  84
ENDBRANCH  37  38
ENDBRANCH  29  32
ENDBRANCH  27  28
ENDBRANCH   1  27
TORSDOF 15
ENDMDL
MODEL 2
REMARK VINA RESULT:     -12.5      1.144      8.148
REMARK SMILES Cc1cc(C(=O)NCCCNC(=O)c2ccc(-c3c4nc(c(-c5ccc(S(=O)(=O)[O-])cc5)c5ccc([nH]5)c(-c5ccc(S(=O)(=O)[O-])cc5)c5nc(c(-c6ccc(S(=O)(=O)[O-])cc6)c6ccc3[nH]6)C=C5)C=C4)cc2)nc(N2CCN(c3ccccc3Cl)CC2)n1
REMARK SMILES IDX 9 1 8 2 7 3 5 4 6 5 4 7 1 8 2 9 3 10 89 11 75 12 74 13 76 14
REMARK SMILES IDX 77 15 88 16 78 17 87 18 79 19 80 20 81 21 85 22 82 23 84 24
REMARK SMILES IDX 86 25 83 26 10 27 11 28 12 29 13 31 14 32 15 33 73 34 16 35
REMARK SMILES IDX 72 36 17 37 18 38 19 39 66 40 20 41 71 42 65 43 67 44 21 45
REMARK SMILES IDX 70 46 64 47 63 48 22 50 52 51 33 52 51 53 34 54 37 55 50 56
REMARK SMILES IDX 68 57 35 58 36 59 49 61 69 62 38 63 23 64 24 65 32 66 25 67
REMARK SMILES IDX 31 68 26 69 27 70 28 71 29 72 30 73 53 74 54 75 62 76 55 77
REMARK SMILES IDX 61 78 56 79 57 80 58 81 59 82 60 83 39 84 40 85 48 86 41 87
REMARK SMILES IDX 47 88 42 89 43 90 44 91 45 92 46 93
REMARK H PARENT 7 6 11 30 67 49 37 60
REMARK Flexibility Score: inf
ROOT
ATOM      1  C   UNL A   1      38.020  23.204  25.959  1.00  0.00     0.042 C 
ENDROOT
BRANCH   1   2
ATOM      2  C   UNL A   1      36.532  23.518  25.833  1.00  0.00     0.118 C 
BRANCH   2   3
ATOM      3  N   UNL A   1      35.772  22.706  26.756  1.00  0.00    -0.351 N 
ATOM      4  C   UNL A   1      34.531  22.129  26.685  1.00  0.00     0.270 C 
ATOM      5  O   UNL A   1      34.153  21.539  27.700  1.00  0.00    -0.268 OA
ATOM      6  H   UNL A   1      36.240  22.533  27.605  1.00  0.00     0.163 HD
BRANCH   4   7
ATOM      7  C   UNL A   1      33.674  22.126  25.452  1.00  0.00     0.133 A 
ATOM      8  C   UNL A   1      32.208  20.130  22.664  1.00  0.00     0.067 C 
ATOM      9  C   UNL A   1      32.535  21.246  23.613  1.00  0.00     0.044 A 
ATOM     10  C   UNL A   1      33.502  21.076  24.584  1.00  0.00     0.058 A 
ATOM     11  N   UNL A   1      31.867  22.407  23.448  1.00  0.00    -0.218 NA
ATOM     12  C   UNL A   1      32.208  23.426  24.245  1.00  0.00     0.226 A 
ATOM     13  N   UNL A   1      33.057  23.302  25.261  1.00  0.00    -0.208 NA
BRANCH  12  14
ATOM     14  N   UNL A   1      31.732  24.689  24.027  1.00  0.00    -0.337 N 
ATOM     15  C   UNL A   1      30.889  25.360  25.008  1.00  0.00     0.141 C 
ATOM     16  C   UNL A   1      31.422  24.963  22.615  1.00  0.00     0.141 C 
ATOM     17  C   UNL A   1      30.942  26.891  24.757  1.00  0.00     0.138 C 
ATOM     18  C   UNL A   1      31.430  26.477  22.345  1.00  0.00     0.138 C 
ATOM     19  N   UNL A   1      30.623  27.180  23.352  1.00  0.00    -0.367 N 
BRANCH  19  20
ATOM     20  C   UNL A   1      29.749  28.181  22.990  1.00  0.00     0.056 A 
ATOM     21  C   UNL A   1      30.238  29.346  22.383  1.00  0.00     0.027 A 
ATOM     22  C   UNL A   1      28.357  28.101  23.215  1.00  0.00     0.064 A 
ATOM     23  C   UNL A   1      29.385  30.388  22.009  1.00  0.00     0.002 A 
ATOM     24  C   UNL A   1      27.503  29.146  22.849  1.00  0.00     0.023 A 
ATOM     25  Cl  UNL A   1      27.635  26.751  24.028  1.00  0.00    -0.082 Cl
ATOM     26  C   UNL A   1      28.017  30.290  22.245  1.00  0.00     0.002 A 
ENDBRANCH  19  20
ENDBRANCH  12  14
ENDBRANCH   4   7
ENDBRANCH   2   3
ENDBRANCH   1   2
BRANCH   1  27
ATOM     27  C   UNL A   1      38.791  24.331  26.640  1.00  0.00     0.118 C 
BRANCH  27  28
ATOM     28  N   UNL A   1      39.979  24.700  25.877  1.00  0.00    -0.352 N 
ATOM     29  C   UNL A   1      40.843  25.752  26.059  1.00  0.00     0.251 C 
ATOM     30  H   UNL A   1      40.193  24.108  25.120  1.00  0.00     0.163 HD
ATOM     31  O   UNL A   1      41.622  26.063  25.167  1.00  0.00    -0.269 OA
BRANCH  29  32
ATOM     32  C   UNL A   1      40.819  26.502  27.331  1.00  0.00     0.039 A 
ATOM     33  C   UNL A   1      41.638  27.624  27.477  1.00  0.00     0.014 A 
ATOM     34  C   UNL A   1      39.993  26.087  28.379  1.00  0.00     0.014 A 
ATOM     35  C   UNL A   1      41.575  28.372  28.654  1.00  0.00     0.010 A 
ATOM     36  C   UNL A   1      39.875  26.877  29.516  1.00  0.00     0.010 A 
ATOM     37  C   UNL A   1      40.665  28.026  29.666  1.00  0.00    -0.014 A 
BRANCH  37  38
ATOM     38  C   UNL A   1      40.508  28.848  30.892  1.00  0.00     0.031 A 
ATOM     39  C   UNL A   1      39.483  29.948  30.929  1.00  0.00     0.074 A 
ATOM     40  C   UNL A   1      41.351  28.666  31.927  1.00  0.00     0.049 A 
ATOM     41  N   UNL A   1      39.281  30.855  31.849  1.00  0.00    -0.248 NA
ATOM     42  C   UNL A   1      38.587  30.062  29.766  1.00  0.00     0.031 C 
ATOM     43  C   UNL A   1      42.406  27.652  31.995  1.00  0.00     0.029 A 
ATOM     44  N   UNL A   1      41.467  29.343  33.116  1.00  0.00    -0.354 N 
ATOM     45  C   UNL A   1      38.255  31.659  31.367  1.00  0.00     0.074 A 
ATOM     46  C   UNL A   1      37.908  31.162  30.054  1.00  0.00     0.031 C 
ATOM     47  C   UNL A   1      43.048  27.762  33.169  1.00  0.00     0.029 A 
ATOM     48  C   UNL A   1      42.490  28.885  33.913  1.00  0.00     0.049 A 
ATOM     49  H   UNL A   1      40.874  30.085  33.373  1.00  0.00     0.167 HD
ATOM     50  C   UNL A   1      37.647  32.708  31.971  1.00  0.00     0.031 A 
ATOM     51  C   UNL A   1      42.942  29.333  35.102  1.00  0.00     0.031 A 
ATOM     52  C   UNL A   1      37.995  33.190  33.282  1.00  0.00     0.049 A 
ATOM     53  C   UNL A   1      42.269  30.516  35.741  1.00  0.00     0.074 A 
ATOM     54  C   UNL A   1      37.404  34.210  34.006  1.00  0.00     0.029 A 
ATOM     55  N   UNL A   1      39.027  32.690  34.062  1.00  0.00    -0.354 N 
ATOM     56  N   UNL A   1      41.259  31.226  35.298  1.00  0.00    -0.248 NA
ATOM     57  C   UNL A   1      42.789  30.955  37.043  1.00  0.00     0.031 C 
ATOM     58  C   UNL A   1      38.117  34.368  35.197  1.00  0.00     0.029 A 
ATOM     59  C   UNL A   1      39.107  33.399  35.247  1.00  0.00     0.049 A 
ATOM     60  H   UNL A   1      39.614  31.941  33.809  1.00  0.00     0.167 HD
ATOM     61  C   UNL A   1      41.001  32.174  36.282  1.00  0.00     0.074 A 
ATOM     62  C   UNL A   1      41.956  31.942  37.346  1.00  0.00     0.031 C 
ATOM     63  C   UNL A   1      40.058  33.147  36.303  1.00  0.00     0.031 A 
BRANCH  50  64
ATOM     64  C   UNL A   1      36.551  33.413  31.214  1.00  0.00    -0.014 A 
ATOM     65  C   UNL A   1      36.798  34.016  29.967  1.00  0.00     0.010 A 
ATOM     66  C   UNL A   1      35.244  33.432  31.735  1.00  0.00     0.010 A 
ATOM     67  C   UNL A   1      35.770  34.665  29.279  1.00  0.00     0.020 A 
ATOM     68  C   UNL A   1      34.205  34.051  31.034  1.00  0.00     0.020 A 
ATOM     69  C   UNL A   1      34.479  34.679  29.817  1.00  0.00     0.054 A 
BRANCH  69  70
ATOM     70  S   UNL A   1      33.161  35.505  28.886  1.00  0.00     0.124 S 
ATOM     71  O   UNL A   1      33.918  36.437  28.054  1.00  0.00    -0.237 OA
ATOM     72  O   UNL A   1      32.530  34.397  28.174  1.00  0.00    -0.237 OA
ATOM     73  O   UNL A   1      32.339  36.124  29.924  1.00  0.00    -0.744 OA
ENDBRANCH  69  70
ENDBRANCH  50  64
BRANCH  51  74
ATOM     74  C   UNL A   1      44.092  28.655  35.763  1.00  0.00    -0.014 A 
ATOM     75  C   UNL A   1      45.410  29.077  35.513  1.00  0.00     0.010 A 
ATOM     76  C   UNL A   1      43.874  27.593  36.661  1.00  0.00     0.010 A 
ATOM     77  C   UNL A   1      46.488  28.439  36.133  1.00  0.00     0.020 A 
ATOM     78  C   UNL A   1      44.948  26.972  37.306  1.00  0.00     0.020 A 
ATOM     79  C   UNL A   1      46.250  27.393  37.029  1.00  0.00     0.054 A 
BRANCH  79  80
ATOM     80  S   UNL A   1      47.663  26.616  37.861  1.00  0.00     0.124 S 
ATOM     81  O   UNL A   1      48.794  27.230  37.173  1.00  0.00    -0.237 OA
ATOM     82  O   UNL A   1      47.471  27.022  39.251  1.00  0.00    -0.237 OA
ATOM     83  O   UNL A   1      47.470  25.191  37.603  1.00  0.00    -0.744 OA
ENDBRANCH  79  80
ENDBRANCH  51  74
BRANCH  63  84
ATOM     84  C   UNL A   1      39.969  34.011  37.533  1.00  0.00    -0.014 A 
ATOM     85  C   UNL A   1      40.628  35.250  37.607  1.00  0.00     0.010 A 
ATOM     86  C   UNL A   1      39.137  33.610  38.596  1.00  0.00     0.010 A 
ATOM     87  C   UNL A   1      40.469  36.067  38.730  1.00  0.00     0.020 A 
ATOM     88  C   UNL A   1      38.952  34.437  39.706  1.00  0.00     0.020 A 
ATOM     89  C   UNL A   1      39.625  35.658  39.769  1.00  0.00     0.054 A 
BRANCH  89  90
ATOM     90  S   UNL A   1      39.378  36.771  41.180  1.00  0.00     0.124 S 
ATOM     91  O   UNL A   1      40.745  36.980  41.646  1.00  0.00    -0.237 OA
ATOM     92  O   UNL A   1      38.740  37.931  40.562  1.00  0.00    -0.237 OA
ATOM     93  O   UNL A   1      38.522  36.002  42.082  1.00  0.00    -0.744 OA
ENDBRANCH  89  90
ENDBRANCH  63  84
ENDBRANCH  37  38
ENDBRANCH  29  32
ENDBRANCH  27  28
ENDBRANCH   1  27
TORSDOF 15
ENDMDL
MODEL 3
REMARK VINA RESULT:     -12.5      6.143     11.912
REMARK SMILES Cc1cc(C(=O)NCCCNC(=O)c2ccc(-c3c4nc(c(-c5ccc(S(=O)(=O)[O-])cc5)c5ccc([nH]5)c(-c5ccc(S(=O)(=O)[O-])cc5)c5nc(c(-c6ccc(S(=O)(=O)[O-])cc6)c6ccc3[nH]6)C=C5)C=C4)cc2)nc(N2CCN(c3ccccc3Cl)CC2)n1
REMARK SMILES IDX 9 1 8 2 7 3 5 4 6 5 4 7 1 8 2 9 3 10 89 11 75 12 74 13 76 14
REMARK SMILES IDX 77 15 88 16 78 17 87 18 79 19 80 20 81 21 85 22 82 23 84 24
REMARK SMILES IDX 86 25 83 26 10 27 11 28 12 29 13 31 14 32 15 33 73 34 16 35
REMARK SMILES IDX 72 36 17 37 18 38 19 39 66 40 20 41 71 42 65 43 67 44 21 45
REMARK SMILES IDX 70 46 64 47 63 48 22 50 52 51 33 52 51 53 34 54 37 55 50 56
REMARK SMILES IDX 68 57 35 58 36 59 49 61 69 62 38 63 23 64 24 65 32 66 25 67
REMARK SMILES IDX 31 68 26 69 27 70 28 71 29 72 30 73 53 74 54 75 62 76 55 77
REMARK SMILES IDX 61 78 56 79 57 80 58 81 59 82 60 83 39 84 40 85 48 86 41 87
REMARK SMILES IDX 47 88 42 89 43 90 44 91 45 92 46 93
REMARK H PARENT 7 6 11 30 67 49 37 60
REMARK Flexibility Score: inf
ROOT
ATOM      1  C   UNL A   1      35.121  29.744  27.335  1.00  0.00     0.042 C 
ENDROOT
BRANCH   1   2
ATOM      2  C   UNL A   1      33.711  30.018  26.821  1.00  0.00     0.118 C 
BRANCH   2   3
ATOM      3  N   UNL A   1      32.741  29.313  27.629  1.00  0.00    -0.351 N 
ATOM      4  C   UNL A   1      31.785  28.376  27.331  1.00  0.00     0.270 C 
ATOM      5  O   UNL A   1      31.070  28.020  28.271  1.00  0.00    -0.268 OA
ATOM      6  H   UNL A   1      32.773  29.554  28.583  1.00  0.00     0.163 HD
BRANCH   4   7
ATOM      7  C   UNL A   1      31.623  27.740  25.980  1.00  0.00     0.133 A 
ATOM      8  C   UNL A   1      30.872  28.227  22.361  1.00  0.00     0.067 C 
ATOM      9  C   UNL A   1      31.264  27.620  23.676  1.00  0.00     0.044 A 
ATOM     10  C   UNL A   1      31.168  28.356  24.841  1.00  0.00     0.058 A 
ATOM     11  N   UNL A   1      31.676  26.335  23.660  1.00  0.00    -0.218 NA
ATOM     12  C   UNL A   1      31.955  25.769  24.840  1.00  0.00     0.226 A 
ATOM     13  N   UNL A   1      31.980  26.446  25.984  1.00  0.00    -0.208 NA
BRANCH  12  14
ATOM     14  N   UNL A   1      32.190  24.426  24.947  1.00  0.00    -0.337 N 
ATOM     15  C   UNL A   1      33.445  23.839  24.498  1.00  0.00     0.141 C 
ATOM     16  C   UNL A   1      30.986  23.603  24.749  1.00  0.00     0.141 C 
ATOM     17  C   UNL A   1      33.639  22.466  25.197  1.00  0.00     0.138 C 
ATOM     18  C   UNL A   1      31.163  22.221  25.400  1.00  0.00     0.138 C 
ATOM     19  N   UNL A   1      32.447  21.629  24.998  1.00  0.00    -0.367 N 
BRANCH  19  20
ATOM     20  C   UNL A   1      32.535  20.306  24.629  1.00  0.00     0.056 A 
ATOM     21  C   UNL A   1      32.889  19.340  25.583  1.00  0.00     0.027 A 
ATOM     22  C   UNL A   1      32.297  19.859  23.311  1.00  0.00     0.064 A 
ATOM     23  C   UNL A   1      32.997  17.987  25.247  1.00  0.00     0.002 A 
ATOM     24  C   UNL A   1      32.413  18.508  22.971  1.00  0.00     0.023 A 
ATOM     25  Cl  UNL A   1      31.931  20.959  22.022  1.00  0.00    -0.082 Cl
ATOM     26  C   UNL A   1      32.763  17.571  23.940  1.00  0.00     0.002 A 
ENDBRANCH  19  20
ENDBRANCH  12  14
ENDBRANCH   4   7
ENDBRANCH   2   3
ENDBRANCH   1   2
BRANCH   1  27
ATOM     27  C   UNL A   1      35.730  30.963  28.022  1.00  0.00     0.118 C 
BRANCH  27  28
ATOM     28  N   UNL A   1      35.571  30.893  29.471  1.00  0.00    -0.352 N 
ATOM     29  C   UNL A   1      36.423  30.386  30.421  1.00  0.00     0.251 C 
ATOM     30  H   UNL A   1      34.727  31.262  29.819  1.00  0.00     0.163 HD
ATOM     31  O   UNL A   1      36.012  30.161  31.552  1.00  0.00    -0.269 OA
BRANCH  29  32
ATOM     32  C   UNL A   1      37.830  30.110  30.063  1.00  0.00     0.039 A 
ATOM     33  C   UNL A   1      38.742  29.801  31.074  1.00  0.00     0.014 A 
ATOM     34  C   UNL A   1      38.243  30.169  28.730  1.00  0.00     0.014 A 
ATOM     35  C   UNL A   1      40.059  29.481  30.738  1.00  0.00     0.010 A 
ATOM     36  C   UNL A   1      39.531  29.774  28.392  1.00  0.00     0.010 A 
ATOM     37  C   UNL A   1      40.452  29.427  29.391  1.00  0.00    -0.014 A 
BRANCH  37  38
ATOM     38  C   UNL A   1      41.818  29.005  28.990  1.00  0.00     0.031 A 
ATOM     39  C   UNL A   1      42.923  30.022  28.912  1.00  0.00     0.074 A 
ATOM     40  C   UNL A   1      42.034  27.733  28.605  1.00  0.00     0.049 A 
ATOM     41  N   UNL A   1      44.142  29.881  28.462  1.00  0.00    -0.248 NA
ATOM     42  C   UNL A   1      42.608  31.384  29.375  1.00  0.00     0.031 C 
ATOM     43  C   UNL A   1      41.033  26.662  28.607  1.00  0.00     0.029 A 
ATOM     44  N   UNL A   1      43.165  27.125  28.117  1.00  0.00    -0.354 N 
ATOM     45  C   UNL A   1      44.730  31.136  28.563  1.00  0.00     0.074 A 
ATOM     46  C   UNL A   1      43.720  32.036  29.074  1.00  0.00     0.031 C 
ATOM     47  C   UNL A   1      41.597  25.530  28.160  1.00  0.00     0.029 A 
ATOM     48  C   UNL A   1      42.982  25.802  27.789  1.00  0.00     0.049 A 
ATOM     49  H   UNL A   1      44.024  27.592  28.011  1.00  0.00     0.167 HD
ATOM     50  C   UNL A   1      46.001  31.502  28.271  1.00  0.00     0.031 A 
ATOM     51  C   UNL A   1      43.827  24.912  27.233  1.00  0.00     0.031 A 
ATOM     52  C   UNL A   1      47.001  30.595  27.770  1.00  0.00     0.049 A 
ATOM     53  C   UNL A   1      45.226  25.347  26.891  1.00  0.00     0.074 A 
ATOM     54  C   UNL A   1      48.332  30.853  27.495  1.00  0.00     0.029 A 
ATOM     55  N   UNL A   1      46.779  29.261  27.466  1.00  0.00    -0.354 N 
ATOM     56  N   UNL A   1      45.783  26.524  27.052  1.00  0.00    -0.248 NA
ATOM     57  C   UNL A   1      46.113  24.336  26.302  1.00  0.00     0.031 C 
ATOM     58  C   UNL A   1      48.900  29.691  26.966  1.00  0.00     0.029 A 
ATOM     59  C   UNL A   1      47.941  28.689  26.979  1.00  0.00     0.049 A 
ATOM     60  H   UNL A   1      45.922  28.790  27.580  1.00  0.00     0.167 HD
ATOM     61  C   UNL A   1      47.095  26.385  26.615  1.00  0.00     0.074 A 
ATOM     62  C   UNL A   1      47.251  25.009  26.190  1.00  0.00     0.031 C 
ATOM     63  C   UNL A   1      48.083  27.313  26.571  1.00  0.00     0.031 A 
BRANCH  50  64
ATOM     64  C   UNL A   1      46.379  32.946  28.474  1.00  0.00    -0.014 A 
ATOM     65  C   UNL A   1      46.864  33.406  29.712  1.00  0.00     0.010 A 
ATOM     66  C   UNL A   1      46.291  33.848  27.398  1.00  0.00     0.010 A 
ATOM     67  C   UNL A   1      47.210  34.748  29.883  1.00  0.00     0.020 A 
ATOM     68  C   UNL A   1      46.668  35.186  27.556  1.00  0.00     0.020 A 
ATOM     69  C   UNL A   1      47.110  35.630  28.803  1.00  0.00     0.054 A 
BRANCH  69  70
ATOM     70  S   UNL A   1      47.592  37.361  29.049  1.00  0.00     0.124 S 
ATOM     71  O   UNL A   1      48.404  37.278  30.261  1.00  0.00    -0.237 OA
ATOM     72  O   UNL A   1      48.325  37.665  27.822  1.00  0.00    -0.237 OA
ATOM     73  O   UNL A   1      46.318  38.059  29.200  1.00  0.00    -0.744 OA
ENDBRANCH  69  70
ENDBRANCH  50  64
BRANCH  51  74
ATOM     74  C   UNL A   1      43.371  23.519  26.967  1.00  0.00    -0.014 A 
ATOM     75  C   UNL A   1      43.093  23.097  25.655  1.00  0.00     0.010 A 
ATOM     76  C   UNL A   1      43.230  22.599  28.023  1.00  0.00     0.010 A 
ATOM     77  C   UNL A   1      42.663  21.790  25.406  1.00  0.00     0.020 A 
ATOM     78  C   UNL A   1      42.831  21.283  27.776  1.00  0.00     0.020 A 
ATOM     79  C   UNL A   1      42.539  20.890  26.468  1.00  0.00     0.054 A 
BRANCH  79  80
ATOM     80  S   UNL A   1      42.031  19.185  26.114  1.00  0.00     0.124 S 
ATOM     81  O   UNL A   1      40.604  19.342  25.854  1.00  0.00    -0.237 OA
ATOM     82  O   UNL A   1      42.853  18.848  24.954  1.00  0.00    -0.237 OA
ATOM     83  O   UNL A   1      42.370  18.465  27.339  1.00  0.00    -0.744 OA
ENDBRANCH  79  80
ENDBRANCH  51  74
BRANCH  63  84
ATOM     84  C   UNL A   1      49.440  26.870  26.093  1.00  0.00    -0.014 A 
ATOM     85  C   UNL A   1      49.902  27.187  24.804  1.00  0.00     0.010 A 
ATOM     86  C   UNL A   1      50.299  26.201  26.986  1.00  0.00     0.010 A 
ATOM     87  C   UNL A   1      51.195  26.829  24.411  1.00  0.00     0.020 A 
ATOM     88  C   UNL A   1      51.601  25.868  26.608  1.00  0.00     0.020 A 
ATOM     89  C   UNL A   1      52.038  26.178  25.319  1.00  0.00     0.054 A 
BRANCH  89  90
ATOM     90  S   UNL A   1      53.736  25.793  24.808  1.00  0.00     0.124 S 
ATOM     91  O   UNL A   1      54.495  26.868  25.440  1.00  0.00    -0.237 OA
ATOM     92  O   UNL A   1      53.944  24.462  25.372  1.00  0.00    -0.237 OA
ATOM     93  O   UNL A   1      53.679  25.845  23.349  1.00  0.00    -0.744 OA
ENDBRANCH  89  90
ENDBRANCH  63  84
ENDBRANCH  37  38
ENDBRANCH  29  32
ENDBRANCH  27  28
ENDBRANCH   1  27
TORSDOF 15
ENDMDL
