MODEL 1
REMARK VINA RESULT:     -11.0      0.000      0.000
REMARK SMILES C[C@H](Nc1ncccc1C(=O)NCCCNC(=O)c1ccc(-c2c3nc(c(-c4ccc(S(=O)(=O)[O-])cc4)c4ccc([nH]4)c(-c4ccc(S(=O)(=O)[O-])cc4)c4nc(c(-c5ccc(S(=O)(=O)[O-])cc5)c5ccc2[nH]5)C=C4)C=C3)cc1)c1ccc(Cl)cc1
REMARK SMILES IDX 14 1 13 2 12 3 10 4 11 5 9 7 4 8 5 9 6 10 8 11 7 12 3 13
REMARK SMILES IDX 2 15 1 16 79 17 80 18 85 19 81 20 84 21 82 22 83 23 15 24
REMARK SMILES IDX 16 25 17 26 18 28 19 29 20 30 78 31 21 32 77 33 22 34 23 35
REMARK SMILES IDX 24 36 71 37 25 38 76 39 70 40 72 41 26 42 75 43 69 44 68 45
REMARK SMILES IDX 27 47 57 48 38 49 56 50 39 51 42 52 55 53 73 54 40 55 41 56
REMARK SMILES IDX 54 58 74 59 43 60 28 61 29 62 37 63 30 64 36 65 31 66 32 67
REMARK SMILES IDX 33 68 34 69 35 70 58 71 59 72 67 73 60 74 66 75 61 76 62 77
REMARK SMILES IDX 63 78 64 79 65 80 44 81 45 82 53 83 46 84 52 85 47 86 48 87
REMARK SMILES IDX 49 88 50 89 51 90
REMARK H PARENT 12 6 3 14 16 27 72 46 42 57
REMARK Flexibility Score: inf
ROOT
ATOM      1  C   UNL A   1      33.443  27.705  26.829  1.00  0.00     0.042 C 
ENDROOT
BRANCH   1   2
ATOM      2  C   UNL A   1      32.027  28.012  27.304  1.00  0.00     0.118 C 
BRANCH   2   3
ATOM      3  N   UNL A   1      31.112  26.899  27.115  1.00  0.00    -0.352 N 
ATOM      4  C   UNL A   1      30.584  26.191  26.062  1.00  0.00     0.255 C 
ATOM      5  O   UNL A   1      29.940  25.201  26.419  1.00  0.00    -0.269 OA
ATOM      6  H   UNL A   1      30.778  26.560  27.977  1.00  0.00     0.163 HD
BRANCH   4   7
ATOM      7  C   UNL A   1      30.750  26.492  24.600  1.00  0.00     0.082 A 
ATOM      8  C   UNL A   1      31.901  26.093  23.893  1.00  0.00     0.139 A 
ATOM      9  N   UNL A   1      32.202  26.603  22.666  1.00  0.00    -0.239 NA
ATOM     10  C   UNL A   1      31.313  27.390  22.042  1.00  0.00     0.113 A 
ATOM     11  C   UNL A   1      29.818  27.244  23.872  1.00  0.00     0.019 A 
ATOM     12  C   UNL A   1      30.090  27.694  22.581  1.00  0.00     0.021 A 
BRANCH   8  13
ATOM     13  N   UNL A   1      32.827  25.140  24.185  1.00  0.00    -0.363 N 
ATOM     14  H   UNL A   1      33.750  25.480  24.224  1.00  0.00     0.162 HD
BRANCH  13  15
ATOM     15  C   UNL A   1      32.712  23.708  24.454  1.00  0.00     0.108 C 
ATOM     16  C   UNL A   1      32.035  22.928  23.313  1.00  0.00     0.036 C 
BRANCH  15  17
ATOM     17  C   UNL A   1      34.126  23.202  24.826  1.00  0.00    -0.026 A 
ATOM     18  C   UNL A   1      34.731  22.064  24.263  1.00  0.00     0.007 A 
ATOM     19  C   UNL A   1      34.892  23.952  25.746  1.00  0.00     0.007 A 
ATOM     20  C   UNL A   1      36.050  21.712  24.570  1.00  0.00     0.021 A 
ATOM     21  C   UNL A   1      36.213  23.605  26.051  1.00  0.00     0.021 A 
ATOM     22  C   UNL A   1      36.789  22.488  25.456  1.00  0.00     0.041 A 
ATOM     23  Cl  UNL A   1      38.419  22.067  25.808  1.00  0.00    -0.084 Cl
ENDBRANCH  15  17
ENDBRANCH  13  15
ENDBRANCH   8  13
ENDBRANCH   4   7
ENDBRANCH   2   3
ENDBRANCH   1   2
BRANCH   1  24
ATOM     24  C   UNL A   1      34.045  28.816  25.964  1.00  0.00     0.118 C 
BRANCH  24  25
ATOM     25  N   UNL A   1      33.873  30.136  26.564  1.00  0.00    -0.352 N 
ATOM     26  C   UNL A   1      34.545  30.755  27.589  1.00  0.00     0.251 C 
ATOM     27  H   UNL A   1      33.150  30.674  26.167  1.00  0.00     0.163 HD
ATOM     28  O   UNL A   1      34.051  31.746  28.116  1.00  0.00    -0.269 OA
BRANCH  26  29
ATOM     29  C   UNL A   1      35.855  30.248  28.049  1.00  0.00     0.039 A 
ATOM     30  C   UNL A   1      36.936  30.249  27.160  1.00  0.00     0.014 A 
ATOM     31  C   UNL A   1      36.002  29.702  29.325  1.00  0.00     0.014 A 
ATOM     32  C   UNL A   1      38.175  29.753  27.572  1.00  0.00     0.010 A 
ATOM     33  C   UNL A   1      37.254  29.276  29.759  1.00  0.00     0.010 A 
ATOM     34  C   UNL A   1      38.350  29.287  28.885  1.00  0.00    -0.014 A 
BRANCH  34  35
ATOM     35  C   UNL A   1      39.665  28.798  29.368  1.00  0.00     0.031 A 
ATOM     36  C   UNL A   1      40.541  29.691  30.206  1.00  0.00     0.074 A 
ATOM     37  C   UNL A   1      40.107  27.584  28.983  1.00  0.00     0.049 A 
ATOM     38  N   UNL A   1      41.756  29.480  30.643  1.00  0.00    -0.248 NA
ATOM     39  C   UNL A   1      39.989  31.004  30.574  1.00  0.00     0.031 C 
ATOM     40  C   UNL A   1      39.362  26.637  28.149  1.00  0.00     0.029 A 
ATOM     41  N   UNL A   1      41.293  26.942  29.236  1.00  0.00    -0.354 N 
ATOM     42  C   UNL A   1      42.126  30.644  31.308  1.00  0.00     0.074 A 
ATOM     43  C   UNL A   1      41.022  31.571  31.181  1.00  0.00     0.031 C 
ATOM     44  C   UNL A   1      40.096  25.525  27.986  1.00  0.00     0.029 A 
ATOM     45  C   UNL A   1      41.378  25.696  28.663  1.00  0.00     0.049 A 
ATOM     46  H   UNL A   1      42.014  27.337  29.776  1.00  0.00     0.167 HD
ATOM     47  C   UNL A   1      43.275  30.914  31.972  1.00  0.00     0.031 A 
ATOM     48  C   UNL A   1      42.377  24.793  28.676  1.00  0.00     0.031 A 
ATOM     49  C   UNL A   1      44.361  29.980  32.110  1.00  0.00     0.049 A 
ATOM     50  C   UNL A   1      43.645  25.115  29.415  1.00  0.00     0.074 A 
ATOM     51  C   UNL A   1      45.538  30.128  32.823  1.00  0.00     0.029 A 
ATOM     52  N   UNL A   1      44.406  28.727  31.517  1.00  0.00    -0.354 N 
ATOM     53  N   UNL A   1      43.953  26.197  30.089  1.00  0.00    -0.248 NA
ATOM     54  C   UNL A   1      44.699  24.091  29.400  1.00  0.00     0.031 C 
ATOM     55  C   UNL A   1      46.317  28.983  32.619  1.00  0.00     0.029 A 
ATOM     56  C   UNL A   1      45.601  28.100  31.826  1.00  0.00     0.049 A 
ATOM     57  H   UNL A   1      43.693  28.340  30.960  1.00  0.00     0.167 HD
ATOM     58  C   UNL A   1      45.223  25.971  30.608  1.00  0.00     0.074 A 
ATOM     59  C   UNL A   1      45.623  24.648  30.172  1.00  0.00     0.031 C 
ATOM     60  C   UNL A   1      45.985  26.783  31.383  1.00  0.00     0.031 A 
BRANCH  47  61
ATOM     61  C   UNL A   1      43.420  32.286  32.578  1.00  0.00    -0.014 A 
ATOM     62  C   UNL A   1      43.005  32.554  33.896  1.00  0.00     0.010 A 
ATOM     63  C   UNL A   1      43.990  33.325  31.819  1.00  0.00     0.010 A 
ATOM     64  C   UNL A   1      43.097  33.847  34.418  1.00  0.00     0.020 A 
ATOM     65  C   UNL A   1      44.114  34.613  32.350  1.00  0.00     0.020 A 
ATOM     66  C   UNL A   1      43.643  34.870  33.638  1.00  0.00     0.054 A 
BRANCH  66  67
ATOM     67  S   UNL A   1      43.740  36.542  34.335  1.00  0.00     0.124 S 
ATOM     68  O   UNL A   1      42.330  36.858  34.554  1.00  0.00    -0.237 OA
ATOM     69  O   UNL A   1      44.533  36.340  35.546  1.00  0.00    -0.237 OA
ATOM     70  O   UNL A   1      44.398  37.318  33.287  1.00  0.00    -0.744 OA
ENDBRANCH  66  67
ENDBRANCH  47  61
BRANCH  48  71
ATOM     71  C   UNL A   1      42.194  23.481  27.997  1.00  0.00    -0.014 A 
ATOM     72  C   UNL A   1      42.820  23.234  26.764  1.00  0.00     0.010 A 
ATOM     73  C   UNL A   1      41.431  22.462  28.595  1.00  0.00     0.010 A 
ATOM     74  C   UNL A   1      42.686  21.992  26.137  1.00  0.00     0.020 A 
ATOM     75  C   UNL A   1      41.314  21.210  27.983  1.00  0.00     0.020 A 
ATOM     76  C   UNL A   1      41.938  20.986  26.753  1.00  0.00     0.054 A 
BRANCH  76  77
ATOM     77  S   UNL A   1      41.840  19.358  25.956  1.00  0.00     0.124 S 
ATOM     78  O   UNL A   1      42.314  18.473  27.014  1.00  0.00    -0.237 OA
ATOM     79  O   UNL A   1      40.420  19.253  25.630  1.00  0.00    -0.237 OA
ATOM     80  O   UNL A   1      42.727  19.491  24.803  1.00  0.00    -0.744 OA
ENDBRANCH  76  77
ENDBRANCH  48  71
BRANCH  60  81
ATOM     81  C   UNL A   1      47.315  26.252  31.844  1.00  0.00    -0.014 A 
ATOM     82  C   UNL A   1      47.449  25.584  33.075  1.00  0.00     0.010 A 
ATOM     83  C   UNL A   1      48.435  26.369  31.001  1.00  0.00     0.010 A 
ATOM     84  C   UNL A   1      48.687  25.066  33.463  1.00  0.00     0.020 A 
ATOM     85  C   UNL A   1      49.667  25.828  31.374  1.00  0.00     0.020 A 
ATOM     86  C   UNL A   1      49.788  25.190  32.609  1.00  0.00     0.054 A 
BRANCH  86  87
ATOM     87  S   UNL A   1      51.371  24.459  33.112  1.00  0.00     0.124 S 
ATOM     88  O   UNL A   1      51.543  23.399  32.122  1.00  0.00    -0.237 OA
ATOM     89  O   UNL A   1      52.295  25.585  32.994  1.00  0.00    -0.237 OA
ATOM     90  O   UNL A   1      51.124  24.003  34.477  1.00  0.00    -0.744 OA
ENDBRANCH  86  87
ENDBRANCH  60  81
ENDBRANCH  34  35
ENDBRANCH  26  29
ENDBRANCH  24  25
ENDBRANCH   1  24
TORSDOF 16
ENDMDL
MODEL 2
REMARK VINA RESULT:     -10.9      1.224      1.833
REMARK SMILES C[C@H](Nc1ncccc1C(=O)NCCCNC(=O)c1ccc(-c2c3nc(c(-c4ccc(S(=O)(=O)[O-])cc4)c4ccc([nH]4)c(-c4ccc(S(=O)(=O)[O-])cc4)c4nc(c(-c5ccc(S(=O)(=O)[O-])cc5)c5ccc2[nH]5)C=C4)C=C3)cc1)c1ccc(Cl)cc1
REMARK SMILES IDX 14 1 13 2 12 3 10 4 11 5 9 7 4 8 5 9 6 10 8 11 7 12 3 13
REMARK SMILES IDX 2 15 1 16 79 17 80 18 85 19 81 20 84 21 82 22 83 23 15 24
REMARK SMILES IDX 16 25 17 26 18 28 19 29 20 30 78 31 21 32 77 33 22 34 23 35
REMARK SMILES IDX 24 36 71 37 25 38 76 39 70 40 72 41 26 42 75 43 69 44 68 45
REMARK SMILES IDX 27 47 57 48 38 49 56 50 39 51 42 52 55 53 73 54 40 55 41 56
REMARK SMILES IDX 54 58 74 59 43 60 28 61 29 62 37 63 30 64 36 65 31 66 32 67
REMARK SMILES IDX 33 68 34 69 35 70 58 71 59 72 67 73 60 74 66 75 61 76 62 77
REMARK SMILES IDX 63 78 64 79 65 80 44 81 45 82 53 83 46 84 52 85 47 86 48 87
REMARK SMILES IDX 49 88 50 89 51 90
REMARK H PARENT 12 6 3 14 16 27 72 46 42 57
REMARK Flexibility Score: inf
ROOT
ATOM      1  C   UNL A   1      33.142  28.130  24.997  1.00  0.00     0.042 C 
ENDROOT
BRANCH   1   2
ATOM      2  C   UNL A   1      33.767  28.244  23.611  1.00  0.00     0.118 C 
BRANCH   2   3
ATOM      3  N   UNL A   1      33.269  27.245  22.681  1.00  0.00    -0.352 N 
ATOM      4  C   UNL A   1      32.049  26.765  22.270  1.00  0.00     0.255 C 
ATOM      5  O   UNL A   1      32.132  25.987  21.315  1.00  0.00    -0.269 OA
ATOM      6  H   UNL A   1      34.008  26.786  22.219  1.00  0.00     0.163 HD
BRANCH   4   7
ATOM      7  C   UNL A   1      30.703  27.119  22.835  1.00  0.00     0.082 A 
ATOM      8  C   UNL A   1      29.939  26.181  23.557  1.00  0.00     0.139 A 
ATOM      9  N   UNL A   1      28.617  26.381  23.818  1.00  0.00    -0.239 NA
ATOM     10  C   UNL A   1      28.056  27.561  23.514  1.00  0.00     0.113 A 
ATOM     11  C   UNL A   1      30.095  28.363  22.619  1.00  0.00     0.019 A 
ATOM     12  C   UNL A   1      28.766  28.597  22.964  1.00  0.00     0.021 A 
BRANCH   8  13
ATOM     13  N   UNL A   1      30.317  25.034  24.184  1.00  0.00    -0.363 N 
ATOM     14  H   UNL A   1      29.923  24.220  23.794  1.00  0.00     0.162 HD
BRANCH  13  15
ATOM     15  C   UNL A   1      31.196  24.779  25.323  1.00  0.00     0.108 C 
ATOM     16  C   UNL A   1      30.549  23.894  26.404  1.00  0.00     0.036 C 
BRANCH  15  17
ATOM     17  C   UNL A   1      32.525  24.229  24.755  1.00  0.00    -0.026 A 
ATOM     18  C   UNL A   1      32.615  23.373  23.643  1.00  0.00     0.007 A 
ATOM     19  C   UNL A   1      33.738  24.649  25.345  1.00  0.00     0.007 A 
ATOM     20  C   UNL A   1      33.853  22.985  23.119  1.00  0.00     0.021 A 
ATOM     21  C   UNL A   1      34.977  24.268  24.819  1.00  0.00     0.021 A 
ATOM     22  C   UNL A   1      35.029  23.441  23.702  1.00  0.00     0.041 A 
ATOM     23  Cl  UNL A   1      36.549  22.985  23.036  1.00  0.00    -0.084 Cl
ENDBRANCH  15  17
ENDBRANCH  13  15
ENDBRANCH   8  13
ENDBRANCH   4   7
ENDBRANCH   2   3
ENDBRANCH   1   2
BRANCH   1  24
ATOM     24  C   UNL A   1      34.118  28.461  26.130  1.00  0.00     0.118 C 
BRANCH  24  25
ATOM     25  N   UNL A   1      33.890  29.793  26.683  1.00  0.00    -0.352 N 
ATOM     26  C   UNL A   1      34.566  30.494  27.650  1.00  0.00     0.251 C 
ATOM     27  H   UNL A   1      33.120  30.269  26.297  1.00  0.00     0.163 HD
ATOM     28  O   UNL A   1      34.035  31.476  28.159  1.00  0.00    -0.269 OA
BRANCH  26  29
ATOM     29  C   UNL A   1      35.923  30.086  28.072  1.00  0.00     0.039 A 
ATOM     30  C   UNL A   1      36.113  29.593  29.367  1.00  0.00     0.014 A 
ATOM     31  C   UNL A   1      37.017  30.258  27.223  1.00  0.00     0.014 A 
ATOM     32  C   UNL A   1      37.393  29.223  29.790  1.00  0.00     0.010 A 
ATOM     33  C   UNL A   1      38.279  29.822  27.618  1.00  0.00     0.010 A 
ATOM     34  C   UNL A   1      38.482  29.310  28.907  1.00  0.00    -0.014 A 
BRANCH  34  35
ATOM     35  C   UNL A   1      39.845  28.882  29.308  1.00  0.00     0.031 A 
ATOM     36  C   UNL A   1      40.746  29.830  30.053  1.00  0.00     0.074 A 
ATOM     37  C   UNL A   1      40.301  27.671  28.928  1.00  0.00     0.049 A 
ATOM     38  N   UNL A   1      41.996  29.674  30.406  1.00  0.00    -0.248 NA
ATOM     39  C   UNL A   1      40.175  31.135  30.421  1.00  0.00     0.031 C 
ATOM     40  C   UNL A   1      39.532  26.674  28.179  1.00  0.00     0.029 A 
ATOM     41  N   UNL A   1      41.524  27.078  29.112  1.00  0.00    -0.354 N 
ATOM     42  C   UNL A   1      42.371  30.871  31.007  1.00  0.00     0.074 A 
ATOM     43  C   UNL A   1      41.228  31.756  30.934  1.00  0.00     0.031 C 
ATOM     44  C   UNL A   1      40.292  25.582  27.995  1.00  0.00     0.029 A 
ATOM     45  C   UNL A   1      41.612  25.818  28.572  1.00  0.00     0.049 A 
ATOM     46  H   UNL A   1      42.268  27.515  29.587  1.00  0.00     0.167 HD
ATOM     47  C   UNL A   1      43.555  31.200  31.578  1.00  0.00     0.031 A 
ATOM     48  C   UNL A   1      42.641  24.950  28.538  1.00  0.00     0.031 A 
ATOM     49  C   UNL A   1      44.681  30.308  31.663  1.00  0.00     0.049 A 
ATOM     50  C   UNL A   1      43.947  25.338  29.173  1.00  0.00     0.074 A 
ATOM     51  C   UNL A   1      45.899  30.518  32.285  1.00  0.00     0.029 A 
ATOM     52  N   UNL A   1      44.727  29.039  31.106  1.00  0.00    -0.354 N 
ATOM     53  N   UNL A   1      44.263  26.451  29.791  1.00  0.00    -0.248 NA
ATOM     54  C   UNL A   1      45.033  24.350  29.111  1.00  0.00     0.031 C 
ATOM     55  C   UNL A   1      46.702  29.395  32.058  1.00  0.00     0.029 A 
ATOM     56  C   UNL A   1      45.964  28.463  31.346  1.00  0.00     0.049 A 
ATOM     57  H   UNL A   1      43.990  28.611  30.614  1.00  0.00     0.167 HD
ATOM     58  C   UNL A   1      45.575  26.284  30.222  1.00  0.00     0.074 A 
ATOM     59  C   UNL A   1      45.990  24.962  29.797  1.00  0.00     0.031 C 
ATOM     60  C   UNL A   1      46.361  27.145  30.915  1.00  0.00     0.031 A 
BRANCH  47  61
ATOM     61  C   UNL A   1      43.694  32.595  32.131  1.00  0.00    -0.014 A 
ATOM     62  C   UNL A   1      43.340  32.897  33.459  1.00  0.00     0.010 A 
ATOM     63  C   UNL A   1      44.195  33.622  31.309  1.00  0.00     0.010 A 
ATOM     64  C   UNL A   1      43.425  34.208  33.934  1.00  0.00     0.020 A 
ATOM     65  C   UNL A   1      44.311  34.930  31.791  1.00  0.00     0.020 A 
ATOM     66  C   UNL A   1      43.901  35.219  33.093  1.00  0.00     0.054 A 
BRANCH  66  67
ATOM     67  S   UNL A   1      43.989  36.915  33.730  1.00  0.00     0.124 S 
ATOM     68  O   UNL A   1      44.242  37.680  32.512  1.00  0.00    -0.237 OA
ATOM     69  O   UNL A   1      42.667  37.103  34.326  1.00  0.00    -0.237 OA
ATOM     70  O   UNL A   1      45.097  36.872  34.682  1.00  0.00    -0.744 OA
ENDBRANCH  66  67
ENDBRANCH  47  61
BRANCH  48  71
ATOM     71  C   UNL A   1      42.457  23.611  27.914  1.00  0.00    -0.014 A 
ATOM     72  C   UNL A   1      42.788  23.414  26.563  1.00  0.00     0.010 A 
ATOM     73  C   UNL A   1      41.992  22.522  28.672  1.00  0.00     0.010 A 
ATOM     74  C   UNL A   1      42.655  22.152  25.978  1.00  0.00     0.020 A 
ATOM     75  C   UNL A   1      41.880  21.252  28.096  1.00  0.00     0.020 A 
ATOM     76  C   UNL A   1      42.206  21.077  26.750  1.00  0.00     0.054 A 
BRANCH  76  77
ATOM     77  S   UNL A   1      42.113  19.433  25.987  1.00  0.00     0.124 S 
ATOM     78  O   UNL A   1      42.677  18.582  27.029  1.00  0.00    -0.237 OA
ATOM     79  O   UNL A   1      40.680  19.279  25.748  1.00  0.00    -0.237 OA
ATOM     80  O   UNL A   1      42.925  19.571  24.780  1.00  0.00    -0.744 OA
ENDBRANCH  76  77
ENDBRANCH  48  71
BRANCH  60  81
ATOM     81  C   UNL A   1      47.739  26.675  31.294  1.00  0.00    -0.014 A 
ATOM     82  C   UNL A   1      47.962  25.938  32.470  1.00  0.00     0.010 A 
ATOM     83  C   UNL A   1      48.816  26.921  30.422  1.00  0.00     0.010 A 
ATOM     84  C   UNL A   1      49.245  25.478  32.780  1.00  0.00     0.020 A 
ATOM     85  C   UNL A   1      50.094  26.440  30.716  1.00  0.00     0.020 A 
ATOM     86  C   UNL A   1      50.302  25.731  31.900  1.00  0.00     0.054 A 
BRANCH  86  87
ATOM     87  S   UNL A   1      51.947  25.075  32.297  1.00  0.00     0.124 S 
ATOM     88  O   UNL A   1      52.199  25.663  33.610  1.00  0.00    -0.237 OA
ATOM     89  O   UNL A   1      51.727  23.630  32.287  1.00  0.00    -0.237 OA
ATOM     90  O   UNL A   1      52.790  25.578  31.216  1.00  0.00    -0.744 OA
ENDBRANCH  86  87
ENDBRANCH  60  81
ENDBRANCH  34  35
ENDBRANCH  26  29
ENDBRANCH  24  25
ENDBRANCH   1  24
TORSDOF 16
ENDMDL
MODEL 3
REMARK VINA RESULT:     -10.9      1.263      2.127
REMARK SMILES C[C@H](Nc1ncccc1C(=O)NCCCNC(=O)c1ccc(-c2c3nc(c(-c4ccc(S(=O)(=O)[O-])cc4)c4ccc([nH]4)c(-c4ccc(S(=O)(=O)[O-])cc4)c4nc(c(-c5ccc(S(=O)(=O)[O-])cc5)c5ccc2[nH]5)C=C4)C=C3)cc1)c1ccc(Cl)cc1
REMARK SMILES IDX 14 1 13 2 12 3 10 4 11 5 9 7 4 8 5 9 6 10 8 11 7 12 3 13
REMARK SMILES IDX 2 15 1 16 79 17 80 18 85 19 81 20 84 21 82 22 83 23 15 24
REMARK SMILES IDX 16 25 17 26 18 28 19 29 20 30 78 31 21 32 77 33 22 34 23 35
REMARK SMILES IDX 24 36 71 37 25 38 76 39 70 40 72 41 26 42 75 43 69 44 68 45
REMARK SMILES IDX 27 47 57 48 38 49 56 50 39 51 42 52 55 53 73 54 40 55 41 56
REMARK SMILES IDX 54 58 74 59 43 60 28 61 29 62 37 63 30 64 36 65 31 66 32 67
REMARK SMILES IDX 33 68 34 69 35 70 58 71 59 72 67 73 60 74 66 75 61 76 62 77
REMARK SMILES IDX 63 78 64 79 65 80 44 81 45 82 53 83 46 84 52 85 47 86 48 87
REMARK SMILES IDX 49 88 50 89 51 90
REMARK H PARENT 12 6 3 14 16 27 72 46 42 57
REMARK Flexibility Score: inf
ROOT
ATOM      1  C   UNL A   1      32.388  27.627  26.275  1.00  0.00     0.042 C 
ENDROOT
BRANCH   1   2
ATOM      2  C   UNL A   1      32.064  27.898  24.810  1.00  0.00     0.118 C 
BRANCH   2   3
ATOM      3  N   UNL A   1      30.772  27.368  24.407  1.00  0.00    -0.352 N 
ATOM      4  C   UNL A   1      30.110  26.166  24.464  1.00  0.00     0.255 C 
ATOM      5  O   UNL A   1      28.930  26.247  24.112  1.00  0.00    -0.269 OA
ATOM      6  H   UNL A   1      30.221  28.060  23.976  1.00  0.00     0.163 HD
BRANCH   4   7
ATOM      7  C   UNL A   1      30.667  24.850  24.927  1.00  0.00     0.082 A 
ATOM      8  C   UNL A   1      31.141  23.890  24.012  1.00  0.00     0.139 A 
ATOM      9  N   UNL A   1      31.370  22.598  24.382  1.00  0.00    -0.239 NA
ATOM     10  C   UNL A   1      31.287  22.258  25.677  1.00  0.00     0.113 A 
ATOM     11  C   UNL A   1      30.680  24.466  26.275  1.00  0.00     0.019 A 
ATOM     12  C   UNL A   1      30.997  23.166  26.662  1.00  0.00     0.021 A 
BRANCH   8  13
ATOM     13  N   UNL A   1      31.537  24.028  22.718  1.00  0.00    -0.363 N 
ATOM     14  H   UNL A   1      30.879  23.701  22.063  1.00  0.00     0.162 HD
BRANCH  13  15
ATOM     15  C   UNL A   1      32.753  24.570  22.114  1.00  0.00     0.108 C 
ATOM     16  C   UNL A   1      32.598  26.026  21.639  1.00  0.00     0.036 C 
BRANCH  15  17
ATOM     17  C   UNL A   1      33.901  24.343  23.125  1.00  0.00    -0.026 A 
ATOM     18  C   UNL A   1      34.157  25.176  24.228  1.00  0.00     0.007 A 
ATOM     19  C   UNL A   1      34.718  23.200  22.975  1.00  0.00     0.007 A 
ATOM     20  C   UNL A   1      35.153  24.864  25.162  1.00  0.00     0.021 A 
ATOM     21  C   UNL A   1      35.710  22.884  23.910  1.00  0.00     0.021 A 
ATOM     22  C   UNL A   1      35.919  23.715  25.004  1.00  0.00     0.041 A 
ATOM     23  Cl  UNL A   1      37.122  23.321  26.169  1.00  0.00    -0.084 Cl
ENDBRANCH  15  17
ENDBRANCH  13  15
ENDBRANCH   8  13
ENDBRANCH   4   7
ENDBRANCH   2   3
ENDBRANCH   1   2
BRANCH   1  24
ATOM     24  C   UNL A   1      33.711  28.251  26.728  1.00  0.00     0.118 C 
BRANCH  24  25
ATOM     25  N   UNL A   1      33.563  29.660  27.083  1.00  0.00    -0.352 N 
ATOM     26  C   UNL A   1      34.348  30.482  27.851  1.00  0.00     0.251 C 
ATOM     27  H   UNL A   1      32.763  30.094  26.707  1.00  0.00     0.163 HD
ATOM     28  O   UNL A   1      33.889  31.549  28.249  1.00  0.00    -0.269 OA
BRANCH  26  29
ATOM     29  C   UNL A   1      35.736  30.103  28.189  1.00  0.00     0.039 A 
ATOM     30  C   UNL A   1      36.028  29.678  29.490  1.00  0.00     0.014 A 
ATOM     31  C   UNL A   1      36.762  30.238  27.252  1.00  0.00     0.014 A 
ATOM     32  C   UNL A   1      37.338  29.337  29.833  1.00  0.00     0.010 A 
ATOM     33  C   UNL A   1      38.054  29.829  27.573  1.00  0.00     0.010 A 
ATOM     34  C   UNL A   1      38.357  29.385  28.868  1.00  0.00    -0.014 A 
BRANCH  34  35
ATOM     35  C   UNL A   1      39.750  28.984  29.186  1.00  0.00     0.031 A 
ATOM     36  C   UNL A   1      40.690  29.967  29.831  1.00  0.00     0.074 A 
ATOM     37  C   UNL A   1      40.193  27.765  28.817  1.00  0.00     0.049 A 
ATOM     38  N   UNL A   1      41.964  29.836  30.101  1.00  0.00    -0.248 NA
ATOM     39  C   UNL A   1      40.130  31.279  30.194  1.00  0.00     0.031 C 
ATOM     40  C   UNL A   1      39.386  26.734  28.159  1.00  0.00     0.029 A 
ATOM     41  N   UNL A   1      41.434  27.191  28.935  1.00  0.00    -0.354 N 
ATOM     42  C   UNL A   1      42.365  31.057  30.632  1.00  0.00     0.074 A 
ATOM     43  C   UNL A   1      41.209  31.927  30.609  1.00  0.00     0.031 C 
ATOM     44  C   UNL A   1      40.145  25.644  27.961  1.00  0.00     0.029 A 
ATOM     45  C   UNL A   1      41.499  25.913  28.434  1.00  0.00     0.049 A 
ATOM     46  H   UNL A   1      42.204  27.651  29.340  1.00  0.00     0.167 HD
ATOM     47  C   UNL A   1      43.582  31.418  31.105  1.00  0.00     0.031 A 
ATOM     48  C   UNL A   1      42.534  25.055  28.358  1.00  0.00     0.031 A 
ATOM     49  C   UNL A   1      44.722  30.541  31.142  1.00  0.00     0.049 A 
ATOM     50  C   UNL A   1      43.876  25.478  28.885  1.00  0.00     0.074 A 
ATOM     51  C   UNL A   1      45.978  30.785  31.668  1.00  0.00     0.029 A 
ATOM     52  N   UNL A   1      44.745  29.252  30.628  1.00  0.00    -0.354 N 
ATOM     53  N   UNL A   1      44.221  26.615  29.440  1.00  0.00    -0.248 NA
ATOM     54  C   UNL A   1      44.967  24.498  28.781  1.00  0.00     0.031 C 
ATOM     55  C   UNL A   1      46.777  29.661  31.425  1.00  0.00     0.029 A 
ATOM     56  C   UNL A   1      46.002  28.698  30.800  1.00  0.00     0.049 A 
ATOM     57  H   UNL A   1      43.981  28.800  30.204  1.00  0.00     0.167 HD
ATOM     58  C   UNL A   1      45.562  26.476  29.783  1.00  0.00     0.074 A 
ATOM     59  C   UNL A   1      45.962  25.144  29.376  1.00  0.00     0.031 C 
ATOM     60  C   UNL A   1      46.384  27.369  30.388  1.00  0.00     0.031 A 
BRANCH  47  61
ATOM     61  C   UNL A   1      43.742  32.833  31.598  1.00  0.00    -0.014 A 
ATOM     62  C   UNL A   1      44.155  33.868  30.737  1.00  0.00     0.010 A 
ATOM     63  C   UNL A   1      43.468  33.136  32.944  1.00  0.00     0.010 A 
ATOM     64  C   UNL A   1      44.351  35.161  31.228  1.00  0.00     0.020 A 
ATOM     65  C   UNL A   1      43.633  34.436  33.432  1.00  0.00     0.020 A 
ATOM     66  C   UNL A   1      44.097  35.435  32.575  1.00  0.00     0.054 A 
BRANCH  66  67
ATOM     67  S   UNL A   1      44.372  37.119  33.190  1.00  0.00     0.124 S 
ATOM     68  O   UNL A   1      45.826  37.153  33.333  1.00  0.00    -0.237 OA
ATOM     69  O   UNL A   1      43.828  37.946  32.115  1.00  0.00    -0.237 OA
ATOM     70  O   UNL A   1      43.621  37.159  34.442  1.00  0.00    -0.744 OA
ENDBRANCH  66  67
ENDBRANCH  47  61
BRANCH  48  71
ATOM     71  C   UNL A   1      42.323  23.693  27.796  1.00  0.00    -0.014 A 
ATOM     72  C   UNL A   1      42.459  23.474  26.415  1.00  0.00     0.010 A 
ATOM     73  C   UNL A   1      42.026  22.605  28.636  1.00  0.00     0.010 A 
ATOM     74  C   UNL A   1      42.300  22.192  25.881  1.00  0.00     0.020 A 
ATOM     75  C   UNL A   1      41.891  21.317  28.110  1.00  0.00     0.020 A 
ATOM     76  C   UNL A   1      42.022  21.120  26.734  1.00  0.00     0.054 A 
BRANCH  76  77
ATOM     77  S   UNL A   1      41.895  19.453  26.026  1.00  0.00     0.124 S 
ATOM     78  O   UNL A   1      42.334  18.617  27.138  1.00  0.00    -0.237 OA
ATOM     79  O   UNL A   1      40.476  19.363  25.687  1.00  0.00    -0.237 OA
ATOM     80  O   UNL A   1      42.798  19.500  24.879  1.00  0.00    -0.744 OA
ENDBRANCH  76  77
ENDBRANCH  48  71
BRANCH  60  81
ATOM     81  C   UNL A   1      47.791  26.926  30.685  1.00  0.00    -0.014 A 
ATOM     82  C   UNL A   1      48.846  27.202  29.797  1.00  0.00     0.010 A 
ATOM     83  C   UNL A   1      48.069  26.279  31.902  1.00  0.00     0.010 A 
ATOM     84  C   UNL A   1      50.151  26.814  30.114  1.00  0.00     0.020 A 
ATOM     85  C   UNL A   1      49.375  25.914  32.234  1.00  0.00     0.020 A 
ATOM     86  C   UNL A   1      50.407  26.174  31.331  1.00  0.00     0.054 A 
BRANCH  86  87
ATOM     87  S   UNL A   1      52.118  25.731  31.743  1.00  0.00     0.124 S 
ATOM     88  O   UNL A   1      52.806  25.967  30.476  1.00  0.00    -0.237 OA
ATOM     89  O   UNL A   1      52.441  26.666  32.818  1.00  0.00    -0.237 OA
ATOM     90  O   UNL A   1      52.024  24.331  32.150  1.00  0.00    -0.744 OA
ENDBRANCH  86  87
ENDBRANCH  60  81
ENDBRANCH  34  35
ENDBRANCH  26  29
ENDBRANCH  24  25
ENDBRANCH   1  24
TORSDOF 16
ENDMDL
