MODEL 1
REMARK VINA RESULT:     -10.2      0.000      0.000
REMARK SMILES CC(C)(C)[NH2+]CC(=O)N[C@](C)(C(=O)NCCCNC(=O)c1ccc(-c2c3nc(c(-c4ccc(S(=O)(=O)[O-])cc4)c4ccc([nH]4)c(-c4ccc(S(=O)(=O)[O-])cc4)c4nc(c(-c5ccc(S(=O)(=O)[O-])cc5)c5ccc2[nH]5)C=C4)C=C3)cc1)C1CC1
REMARK SMILES IDX 15 1 14 2 12 3 13 4 10 6 11 7 9 8 7 9 8 10 6 12 5 13 2 16
REMARK SMILES IDX 1 17 3 18 4 19 81 20 82 21 83 22 16 23 17 24 18 25 19 26
REMARK SMILES IDX 20 28 21 29 22 30 80 31 23 32 79 33 24 34 25 35 26 36 73 37
REMARK SMILES IDX 27 38 78 39 72 40 74 41 28 42 77 43 71 44 70 45 29 47 59 48
REMARK SMILES IDX 40 49 58 50 41 51 44 52 57 53 75 54 42 55 43 56 56 58 76 59
REMARK SMILES IDX 45 60 30 61 31 62 39 63 32 64 38 65 33 66 34 67 35 68 36 69
REMARK SMILES IDX 37 70 60 71 61 72 69 73 62 74 68 75 63 76 64 77 65 78 66 79
REMARK SMILES IDX 67 80 46 81 47 82 55 83 48 84 54 85 49 86 50 87 51 88 52 89
REMARK SMILES IDX 53 90
REMARK H PARENT 14 5 9 11 5 14 5 15 18 27 74 46 44 57
REMARK Flexibility Score: inf
ROOT
ATOM      1  C   UNL A   1      31.382  27.979  27.017  1.00  0.00     0.117 C 
ENDROOT
BRANCH   1   2
ATOM      2  N   UNL A   1      30.809  26.650  26.938  1.00  0.00    -0.354 N 
ATOM      3  C   UNL A   1      30.761  25.684  25.987  1.00  0.00     0.245 C 
ATOM      4  O   UNL A   1      30.206  24.641  26.380  1.00  0.00    -0.272 OA
ATOM      5  H   UNL A   1      30.347  26.387  27.767  1.00  0.00     0.163 HD
BRANCH   3   6
ATOM      6  C   UNL A   1      31.225  25.773  24.463  1.00  0.00     0.119 C 
ATOM      7  C   UNL A   1      30.212  24.970  23.640  1.00  0.00     0.046 C 
BRANCH   6   8
ATOM      8  N   UNL A   1      31.614  27.060  23.816  1.00  0.00    -0.337 N 
ATOM      9  C   UNL A   1      31.194  28.206  23.259  1.00  0.00     0.275 C 
ATOM     10  O   UNL A   1      32.128  28.779  22.658  1.00  0.00    -0.268 OA
ATOM     11  H   UNL A   1      32.598  27.077  23.786  1.00  0.00     0.164 HD
BRANCH   9  12
ATOM     12  C   UNL A   1      29.874  28.984  23.294  1.00  0.00     0.362 C 
BRANCH  12  13
ATOM     13  N   UNL A   1      29.839  30.426  23.088  1.00  0.00    -0.334 N 
ATOM     14  H   UNL A   1      30.085  30.858  23.978  1.00  0.00     0.347 HD
ATOM     15  H   UNL A   1      30.480  30.568  22.306  1.00  0.00     0.347 HD
BRANCH  13  16
ATOM     16  C   UNL A   1      28.597  31.071  22.630  1.00  0.00     0.088 C 
ATOM     17  C   UNL A   1      28.996  32.555  22.421  1.00  0.00     0.078 C 
ATOM     18  C   UNL A   1      27.396  30.860  23.570  1.00  0.00     0.078 C 
ATOM     19  C   UNL A   1      28.166  30.569  21.235  1.00  0.00     0.078 C 
ENDBRANCH  13  16
ENDBRANCH  12  13
ENDBRANCH   9  12
ENDBRANCH   6   8
BRANCH   6  20
ATOM     20  C   UNL A   1      32.588  24.961  24.401  1.00  0.00     0.024 C 
ATOM     21  C   UNL A   1      33.978  25.574  24.518  1.00  0.00     0.007 C 
ATOM     22  C   UNL A   1      33.433  24.757  25.651  1.00  0.00     0.007 C 
ENDBRANCH   6  20
ENDBRANCH   3   6
ENDBRANCH   1   2
BRANCH   1  23
ATOM     23  C   UNL A   1      32.914  27.954  27.068  1.00  0.00     0.042 C 
BRANCH  23  24
ATOM     24  C   UNL A   1      33.636  28.880  26.093  1.00  0.00     0.118 C 
BRANCH  24  25
ATOM     25  N   UNL A   1      33.698  30.247  26.600  1.00  0.00    -0.352 N 
ATOM     26  C   UNL A   1      34.551  30.860  27.490  1.00  0.00     0.251 C 
ATOM     27  H   UNL A   1      33.000  30.840  26.238  1.00  0.00     0.163 HD
ATOM     28  O   UNL A   1      34.202  31.945  27.958  1.00  0.00    -0.269 OA
BRANCH  26  29
ATOM     29  C   UNL A   1      35.860  30.281  27.906  1.00  0.00     0.039 A 
ATOM     30  C   UNL A   1      35.948  29.658  29.161  1.00  0.00     0.014 A 
ATOM     31  C   UNL A   1      37.026  30.432  27.156  1.00  0.00     0.014 A 
ATOM     32  C   UNL A   1      37.176  29.175  29.641  1.00  0.00     0.010 A 
ATOM     33  C   UNL A   1      38.233  29.871  27.592  1.00  0.00     0.010 A 
ATOM     34  C   UNL A   1      38.333  29.262  28.853  1.00  0.00    -0.014 A 
BRANCH  34  35
ATOM     35  C   UNL A   1      39.660  28.784  29.341  1.00  0.00     0.031 A 
ATOM     36  C   UNL A   1      40.520  29.681  30.202  1.00  0.00     0.074 A 
ATOM     37  C   UNL A   1      40.132  27.576  28.972  1.00  0.00     0.049 A 
ATOM     38  N   UNL A   1      41.741  29.493  30.639  1.00  0.00    -0.248 NA
ATOM     39  C   UNL A   1      39.938  30.973  30.600  1.00  0.00     0.031 C 
ATOM     40  C   UNL A   1      39.427  26.611  28.128  1.00  0.00     0.029 A 
ATOM     41  N   UNL A   1      41.326  26.956  29.257  1.00  0.00    -0.354 N 
ATOM     42  C   UNL A   1      42.084  30.654  31.325  1.00  0.00     0.074 A 
ATOM     43  C   UNL A   1      40.959  31.556  31.208  1.00  0.00     0.031 C 
ATOM     44  C   UNL A   1      40.188  25.512  27.986  1.00  0.00     0.029 A 
ATOM     45  C   UNL A   1      41.452  25.709  28.688  1.00  0.00     0.049 A 
ATOM     46  H   UNL A   1      42.026  27.367  29.814  1.00  0.00     0.167 HD
ATOM     47  C   UNL A   1      43.220  30.943  32.007  1.00  0.00     0.031 A 
ATOM     48  C   UNL A   1      42.468  24.823  28.721  1.00  0.00     0.031 A 
ATOM     49  C   UNL A   1      44.329  30.037  32.153  1.00  0.00     0.049 A 
ATOM     50  C   UNL A   1      43.719  25.158  29.487  1.00  0.00     0.074 A 
ATOM     51  C   UNL A   1      45.499  30.214  32.873  1.00  0.00     0.029 A 
ATOM     52  N   UNL A   1      44.405  28.780  31.572  1.00  0.00    -0.354 N 
ATOM     53  N   UNL A   1      44.006  26.246  30.162  1.00  0.00    -0.248 NA
ATOM     54  C   UNL A   1      44.780  24.141  29.503  1.00  0.00     0.031 C 
ATOM     55  C   UNL A   1      46.300  29.082  32.691  1.00  0.00     0.029 A 
ATOM     56  C   UNL A   1      45.607  28.178  31.901  1.00  0.00     0.049 A 
ATOM     57  H   UNL A   1      43.706  28.376  31.006  1.00  0.00     0.167 HD
ATOM     58  C   UNL A   1      45.269  26.034  30.704  1.00  0.00     0.074 A 
ATOM     59  C   UNL A   1      45.686  24.710  30.288  1.00  0.00     0.031 C 
ATOM     60  C   UNL A   1      46.013  26.861  31.478  1.00  0.00     0.031 A 
BRANCH  47  61
ATOM     61  C   UNL A   1      43.319  32.309  32.640  1.00  0.00    -0.014 A 
ATOM     62  C   UNL A   1      42.874  32.538  33.955  1.00  0.00     0.010 A 
ATOM     63  C   UNL A   1      43.868  33.380  31.911  1.00  0.00     0.010 A 
ATOM     64  C   UNL A   1      42.912  33.824  34.503  1.00  0.00     0.020 A 
ATOM     65  C   UNL A   1      43.938  34.661  32.467  1.00  0.00     0.020 A 
ATOM     66  C   UNL A   1      43.434  34.880  33.750  1.00  0.00     0.054 A 
BRANCH  66  67
ATOM     67  S   UNL A   1      43.453  36.541  34.478  1.00  0.00     0.124 S 
ATOM     68  O   UNL A   1      43.688  37.379  33.305  1.00  0.00    -0.237 OA
ATOM     69  O   UNL A   1      42.124  36.650  35.071  1.00  0.00    -0.237 OA
ATOM     70  O   UNL A   1      44.556  36.486  35.436  1.00  0.00    -0.744 OA
ENDBRANCH  66  67
ENDBRANCH  47  61
BRANCH  48  71
ATOM     71  C   UNL A   1      42.328  23.515  28.025  1.00  0.00    -0.014 A 
ATOM     72  C   UNL A   1      43.016  23.275  26.824  1.00  0.00     0.010 A 
ATOM     73  C   UNL A   1      41.538  22.490  28.577  1.00  0.00     0.010 A 
ATOM     74  C   UNL A   1      42.919  22.036  26.185  1.00  0.00     0.020 A 
ATOM     75  C   UNL A   1      41.457  21.240  27.955  1.00  0.00     0.020 A 
ATOM     76  C   UNL A   1      42.145  21.023  26.759  1.00  0.00     0.054 A 
BRANCH  76  77
ATOM     77  S   UNL A   1      42.102  19.394  25.958  1.00  0.00     0.124 S 
ATOM     78  O   UNL A   1      42.648  18.529  26.999  1.00  0.00    -0.237 OA
ATOM     79  O   UNL A   1      40.680  19.221  25.674  1.00  0.00    -0.237 OA
ATOM     80  O   UNL A   1      42.948  19.571  24.781  1.00  0.00    -0.744 OA
ENDBRANCH  76  77
ENDBRANCH  48  71
BRANCH  60  81
ATOM     81  C   UNL A   1      47.347  26.351  31.957  1.00  0.00    -0.014 A 
ATOM     82  C   UNL A   1      47.462  25.618  33.151  1.00  0.00     0.010 A 
ATOM     83  C   UNL A   1      48.494  26.563  31.170  1.00  0.00     0.010 A 
ATOM     84  C   UNL A   1      48.705  25.129  33.562  1.00  0.00     0.020 A 
ATOM     85  C   UNL A   1      49.734  26.055  31.566  1.00  0.00     0.020 A 
ATOM     86  C   UNL A   1      49.834  25.351  32.767  1.00  0.00     0.054 A 
BRANCH  86  87
ATOM     87  S   UNL A   1      51.428  24.666  33.299  1.00  0.00     0.124 S 
ATOM     88  O   UNL A   1      52.101  25.846  33.834  1.00  0.00    -0.237 OA
ATOM     89  O   UNL A   1      51.034  23.665  34.286  1.00  0.00    -0.237 OA
ATOM     90  O   UNL A   1      52.001  24.127  32.068  1.00  0.00    -0.744 OA
ENDBRANCH  86  87
ENDBRANCH  60  81
ENDBRANCH  34  35
ENDBRANCH  26  29
ENDBRANCH  24  25
ENDBRANCH  23  24
ENDBRANCH   1  23
TORSDOF 18
ENDMDL
MODEL 2
REMARK VINA RESULT:     -10.1      2.054      2.706
REMARK SMILES CC(C)(C)[NH2+]CC(=O)N[C@](C)(C(=O)NCCCNC(=O)c1ccc(-c2c3nc(c(-c4ccc(S(=O)(=O)[O-])cc4)c4ccc([nH]4)c(-c4ccc(S(=O)(=O)[O-])cc4)c4nc(c(-c5ccc(S(=O)(=O)[O-])cc5)c5ccc2[nH]5)C=C4)C=C3)cc1)C1CC1
REMARK SMILES IDX 15 1 14 2 12 3 13 4 10 6 11 7 9 8 7 9 8 10 6 12 5 13 2 16
REMARK SMILES IDX 1 17 3 18 4 19 81 20 82 21 83 22 16 23 17 24 18 25 19 26
REMARK SMILES IDX 20 28 21 29 22 30 80 31 23 32 79 33 24 34 25 35 26 36 73 37
REMARK SMILES IDX 27 38 78 39 72 40 74 41 28 42 77 43 71 44 70 45 29 47 59 48
REMARK SMILES IDX 40 49 58 50 41 51 44 52 57 53 75 54 42 55 43 56 56 58 76 59
REMARK SMILES IDX 45 60 30 61 31 62 39 63 32 64 38 65 33 66 34 67 35 68 36 69
REMARK SMILES IDX 37 70 60 71 61 72 69 73 62 74 68 75 63 76 64 77 65 78 66 79
REMARK SMILES IDX 67 80 46 81 47 82 55 83 48 84 54 85 49 86 50 87 51 88 52 89
REMARK SMILES IDX 53 90
REMARK H PARENT 14 5 9 11 5 14 5 15 18 27 74 46 44 57
REMARK Flexibility Score: inf
ROOT
ATOM      1  C   UNL A   1      32.606  26.788  26.427  1.00  0.00     0.117 C 
ENDROOT
BRANCH   1   2
ATOM      2  N   UNL A   1      31.314  26.159  26.614  1.00  0.00    -0.354 N 
ATOM      3  C   UNL A   1      30.265  25.871  25.804  1.00  0.00     0.245 C 
ATOM      4  O   UNL A   1      29.358  25.246  26.386  1.00  0.00    -0.272 OA
ATOM      5  H   UNL A   1      31.162  25.875  27.545  1.00  0.00     0.163 HD
BRANCH   3   6
ATOM      6  C   UNL A   1      30.033  26.313  24.289  1.00  0.00     0.119 C 
ATOM      7  C   UNL A   1      28.518  26.401  24.075  1.00  0.00     0.046 C 
BRANCH   6   8
ATOM      8  N   UNL A   1      30.779  27.443  23.660  1.00  0.00    -0.337 N 
ATOM      9  C   UNL A   1      30.729  28.706  23.211  1.00  0.00     0.275 C 
ATOM     10  O   UNL A   1      31.740  28.978  22.530  1.00  0.00    -0.268 OA
ATOM     11  H   UNL A   1      31.699  27.127  23.513  1.00  0.00     0.164 HD
BRANCH   9  12
ATOM     12  C   UNL A   1      29.769  29.879  23.442  1.00  0.00     0.362 C 
BRANCH  12  13
ATOM     13  N   UNL A   1      29.772  31.043  22.566  1.00  0.00    -0.334 N 
ATOM     14  H   UNL A   1      30.594  31.595  22.811  1.00  0.00     0.347 HD
ATOM     15  H   UNL A   1      29.745  30.636  21.631  1.00  0.00     0.347 HD
BRANCH  13  16
ATOM     16  C   UNL A   1      28.624  31.965  22.568  1.00  0.00     0.088 C 
ATOM     17  C   UNL A   1      28.052  31.860  21.131  1.00  0.00     0.078 C 
ATOM     18  C   UNL A   1      28.970  33.398  23.013  1.00  0.00     0.078 C 
ATOM     19  C   UNL A   1      27.489  31.472  23.490  1.00  0.00     0.078 C 
ENDBRANCH  13  16
ENDBRANCH  12  13
ENDBRANCH   9  12
ENDBRANCH   6   8
BRANCH   6  20
ATOM     20  C   UNL A   1      30.532  25.081  23.421  1.00  0.00     0.024 C 
ATOM     21  C   UNL A   1      31.967  24.571  23.367  1.00  0.00     0.007 C 
ATOM     22  C   UNL A   1      30.924  23.767  24.084  1.00  0.00     0.007 C 
ENDBRANCH   6  20
ENDBRANCH   3   6
ENDBRANCH   1   2
BRANCH   1  23
ATOM     23  C   UNL A   1      32.589  28.279  26.784  1.00  0.00     0.042 C 
BRANCH  23  24
ATOM     24  C   UNL A   1      33.674  29.139  26.141  1.00  0.00     0.118 C 
BRANCH  24  25
ATOM     25  N   UNL A   1      33.590  30.526  26.587  1.00  0.00    -0.352 N 
ATOM     26  C   UNL A   1      34.283  31.227  27.547  1.00  0.00     0.251 C 
ATOM     27  H   UNL A   1      32.910  31.058  26.112  1.00  0.00     0.163 HD
ATOM     28  O   UNL A   1      33.814  32.306  27.916  1.00  0.00    -0.269 OA
BRANCH  26  29
ATOM     29  C   UNL A   1      35.559  30.750  28.153  1.00  0.00     0.039 A 
ATOM     30  C   UNL A   1      35.513  29.667  29.045  1.00  0.00     0.014 A 
ATOM     31  C   UNL A   1      36.777  31.403  27.962  1.00  0.00     0.014 A 
ATOM     32  C   UNL A   1      36.671  29.235  29.712  1.00  0.00     0.010 A 
ATOM     33  C   UNL A   1      37.948  30.917  28.557  1.00  0.00     0.010 A 
ATOM     34  C   UNL A   1      37.908  29.846  29.462  1.00  0.00    -0.014 A 
BRANCH  34  35
ATOM     35  C   UNL A   1      39.153  29.430  30.174  1.00  0.00     0.031 A 
ATOM     36  C   UNL A   1      39.574  30.135  31.442  1.00  0.00     0.074 A 
ATOM     37  C   UNL A   1      39.945  28.465  29.662  1.00  0.00     0.049 A 
ATOM     38  N   UNL A   1      40.669  29.993  32.148  1.00  0.00    -0.248 NA
ATOM     39  C   UNL A   1      38.653  31.155  31.970  1.00  0.00     0.031 C 
ATOM     40  C   UNL A   1      39.680  27.711  28.436  1.00  0.00     0.029 A 
ATOM     41  N   UNL A   1      41.142  27.958  30.111  1.00  0.00    -0.354 N 
ATOM     42  C   UNL A   1      40.586  30.930  33.174  1.00  0.00     0.074 A 
ATOM     43  C   UNL A   1      39.355  31.663  32.972  1.00  0.00     0.031 C 
ATOM     44  C   UNL A   1      40.669  26.821  28.245  1.00  0.00     0.029 A 
ATOM     45  C   UNL A   1      41.660  26.970  29.306  1.00  0.00     0.049 A 
ATOM     46  H   UNL A   1      41.587  28.274  30.930  1.00  0.00     0.167 HD
ATOM     47  C   UNL A   1      41.441  31.153  34.203  1.00  0.00     0.031 A 
ATOM     48  C   UNL A   1      42.805  26.263  29.404  1.00  0.00     0.031 A 
ATOM     49  C   UNL A   1      42.651  30.407  34.426  1.00  0.00     0.049 A 
ATOM     50  C   UNL A   1      43.739  26.520  30.555  1.00  0.00     0.074 A 
ATOM     51  C   UNL A   1      43.552  30.518  35.471  1.00  0.00     0.029 A 
ATOM     52  N   UNL A   1      43.127  29.405  33.593  1.00  0.00    -0.354 N 
ATOM     53  N   UNL A   1      43.620  27.383  31.536  1.00  0.00    -0.248 NA
ATOM     54  C   UNL A   1      44.958  25.701  30.616  1.00  0.00     0.031 C 
ATOM     55  C   UNL A   1      44.595  29.613  35.246  1.00  0.00     0.029 A 
ATOM     56  C   UNL A   1      44.317  28.903  34.090  1.00  0.00     0.049 A 
ATOM     57  H   UNL A   1      42.684  29.099  32.769  1.00  0.00     0.167 HD
ATOM     58  C   UNL A   1      44.735  27.193  32.344  1.00  0.00     0.074 A 
ATOM     59  C   UNL A   1      45.510  26.126  31.745  1.00  0.00     0.031 C 
ATOM     60  C   UNL A   1      45.083  27.842  33.483  1.00  0.00     0.031 A 
BRANCH  47  61
ATOM     61  C   UNL A   1      41.094  32.266  35.161  1.00  0.00    -0.014 A 
ATOM     62  C   UNL A   1      41.507  33.590  34.923  1.00  0.00     0.010 A 
ATOM     63  C   UNL A   1      40.341  31.985  36.316  1.00  0.00     0.010 A 
ATOM     64  C   UNL A   1      41.234  34.597  35.854  1.00  0.00     0.020 A 
ATOM     65  C   UNL A   1      40.037  32.996  37.234  1.00  0.00     0.020 A 
ATOM     66  C   UNL A   1      40.510  34.291  37.010  1.00  0.00     0.054 A 
BRANCH  66  67
ATOM     67  S   UNL A   1      40.187  35.611  38.210  1.00  0.00     0.124 S 
ATOM     68  O   UNL A   1      39.943  36.756  37.337  1.00  0.00    -0.237 OA
ATOM     69  O   UNL A   1      39.020  35.113  38.932  1.00  0.00    -0.237 OA
ATOM     70  O   UNL A   1      41.419  35.677  38.993  1.00  0.00    -0.744 OA
ENDBRANCH  66  67
ENDBRANCH  47  61
BRANCH  48  71
ATOM     71  C   UNL A   1      43.114  25.218  28.390  1.00  0.00    -0.014 A 
ATOM     72  C   UNL A   1      42.593  23.920  28.529  1.00  0.00     0.010 A 
ATOM     73  C   UNL A   1      43.895  25.523  27.260  1.00  0.00     0.010 A 
ATOM     74  C   UNL A   1      42.848  22.945  27.561  1.00  0.00     0.020 A 
ATOM     75  C   UNL A   1      44.132  24.558  26.277  1.00  0.00     0.020 A 
ATOM     76  C   UNL A   1      43.610  23.272  26.436  1.00  0.00     0.054 A 
BRANCH  76  77
ATOM     77  S   UNL A   1      43.856  22.015  25.150  1.00  0.00     0.124 S 
ATOM     78  O   UNL A   1      42.866  21.008  25.515  1.00  0.00    -0.237 OA
ATOM     79  O   UNL A   1      43.578  22.760  23.924  1.00  0.00    -0.237 OA
ATOM     80  O   UNL A   1      45.251  21.617  25.325  1.00  0.00    -0.744 OA
ENDBRANCH  76  77
ENDBRANCH  48  71
BRANCH  60  81
ATOM     81  C   UNL A   1      46.343  27.400  34.179  1.00  0.00    -0.014 A 
ATOM     82  C   UNL A   1      46.324  26.373  35.138  1.00  0.00     0.010 A 
ATOM     83  C   UNL A   1      47.572  27.986  33.824  1.00  0.00     0.010 A 
ATOM     84  C   UNL A   1      47.510  25.958  35.751  1.00  0.00     0.020 A 
ATOM     85  C   UNL A   1      48.763  27.556  34.417  1.00  0.00     0.020 A 
ATOM     86  C   UNL A   1      48.722  26.552  35.386  1.00  0.00     0.054 A 
BRANCH  86  87
ATOM     87  S   UNL A   1      50.254  25.965  36.162  1.00  0.00     0.124 S 
ATOM     88  O   UNL A   1      49.790  25.576  37.491  1.00  0.00    -0.237 OA
ATOM     89  O   UNL A   1      50.654  24.865  35.289  1.00  0.00    -0.237 OA
ATOM     90  O   UNL A   1      51.131  27.133  36.124  1.00  0.00    -0.744 OA
ENDBRANCH  86  87
ENDBRANCH  60  81
ENDBRANCH  34  35
ENDBRANCH  26  29
ENDBRANCH  24  25
ENDBRANCH  23  24
ENDBRANCH   1  23
TORSDOF 18
ENDMDL
MODEL 3
REMARK VINA RESULT:     -10.0      4.823     11.756
REMARK SMILES CC(C)(C)[NH2+]CC(=O)N[C@](C)(C(=O)NCCCNC(=O)c1ccc(-c2c3nc(c(-c4ccc(S(=O)(=O)[O-])cc4)c4ccc([nH]4)c(-c4ccc(S(=O)(=O)[O-])cc4)c4nc(c(-c5ccc(S(=O)(=O)[O-])cc5)c5ccc2[nH]5)C=C4)C=C3)cc1)C1CC1
REMARK SMILES IDX 15 1 14 2 12 3 13 4 10 6 11 7 9 8 7 9 8 10 6 12 5 13 2 16
REMARK SMILES IDX 1 17 3 18 4 19 81 20 82 21 83 22 16 23 17 24 18 25 19 26
REMARK SMILES IDX 20 28 21 29 22 30 80 31 23 32 79 33 24 34 25 35 26 36 73 37
REMARK SMILES IDX 27 38 78 39 72 40 74 41 28 42 77 43 71 44 70 45 29 47 59 48
REMARK SMILES IDX 40 49 58 50 41 51 44 52 57 53 75 54 42 55 43 56 56 58 76 59
REMARK SMILES IDX 45 60 30 61 31 62 39 63 32 64 38 65 33 66 34 67 35 68 36 69
REMARK SMILES IDX 37 70 60 71 61 72 69 73 62 74 68 75 63 76 64 77 65 78 66 79
REMARK SMILES IDX 67 80 46 81 47 82 55 83 48 84 54 85 49 86 50 87 51 88 52 89
REMARK SMILES IDX 53 90
REMARK H PARENT 14 5 9 11 5 14 5 15 18 27 74 46 44 57
REMARK Flexibility Score: inf
ROOT
ATOM      1  C   UNL A   1      42.387  22.806  26.155  1.00  0.00     0.117 C 
ENDROOT
BRANCH   1   2
ATOM      2  N   UNL A   1      43.093  22.946  27.414  1.00  0.00    -0.354 N 
ATOM      3  C   UNL A   1      44.210  23.602  27.815  1.00  0.00     0.245 C 
ATOM      4  O   UNL A   1      44.421  23.499  29.038  1.00  0.00    -0.272 OA
ATOM      5  H   UNL A   1      42.661  22.450  28.147  1.00  0.00     0.163 HD
BRANCH   3   6
ATOM      6  C   UNL A   1      45.286  24.366  26.918  1.00  0.00     0.119 C 
ATOM      7  C   UNL A   1      46.500  24.641  27.812  1.00  0.00     0.046 C 
BRANCH   6   8
ATOM      8  N   UNL A   1      45.662  23.905  25.549  1.00  0.00    -0.337 N 
ATOM      9  C   UNL A   1      46.123  22.897  24.794  1.00  0.00     0.275 C 
ATOM     10  O   UNL A   1      46.451  23.303  23.658  1.00  0.00    -0.268 OA
ATOM     11  H   UNL A   1      45.503  24.663  24.941  1.00  0.00     0.164 HD
BRANCH   9  12
ATOM     12  C   UNL A   1      46.228  21.381  24.993  1.00  0.00     0.362 C 
BRANCH  12  13
ATOM     13  N   UNL A   1      45.139  20.618  25.591  1.00  0.00    -0.334 N 
ATOM     14  H   UNL A   1      45.299  20.615  26.597  1.00  0.00     0.347 HD
ATOM     15  H   UNL A   1      44.303  21.094  25.251  1.00  0.00     0.347 HD
BRANCH  13  16
ATOM     16  C   UNL A   1      44.919  19.218  25.190  1.00  0.00     0.088 C 
ATOM     17  C   UNL A   1      44.860  19.273  23.641  1.00  0.00     0.078 C 
ATOM     18  C   UNL A   1      43.693  18.561  25.850  1.00  0.00     0.078 C 
ATOM     19  C   UNL A   1      46.135  18.325  25.516  1.00  0.00     0.078 C 
ENDBRANCH  13  16
ENDBRANCH  12  13
ENDBRANCH   9  12
ENDBRANCH   6   8
BRANCH   6  20
ATOM     20  C   UNL A   1      44.633  25.779  26.609  1.00  0.00     0.024 C 
ATOM     21  C   UNL A   1      45.156  26.781  25.588  1.00  0.00     0.007 C 
ATOM     22  C   UNL A   1      43.891  26.028  25.303  1.00  0.00     0.007 C 
ENDBRANCH   6  20
ENDBRANCH   3   6
ENDBRANCH   1   2
BRANCH   1  23
ATOM     23  C   UNL A   1      41.618  21.483  26.060  1.00  0.00     0.042 C 
BRANCH  23  24
ATOM     24  C   UNL A   1      40.285  21.423  26.800  1.00  0.00     0.118 C 
BRANCH  24  25
ATOM     25  N   UNL A   1      39.210  22.021  26.015  1.00  0.00    -0.352 N 
ATOM     26  C   UNL A   1      38.614  23.262  26.065  1.00  0.00     0.251 C 
ATOM     27  H   UNL A   1      38.843  21.427  25.321  1.00  0.00     0.163 HD
ATOM     28  O   UNL A   1      37.539  23.402  25.479  1.00  0.00    -0.269 OA
BRANCH  26  29
ATOM     29  C   UNL A   1      39.202  24.428  26.783  1.00  0.00     0.039 A 
ATOM     30  C   UNL A   1      38.876  24.615  28.136  1.00  0.00     0.014 A 
ATOM     31  C   UNL A   1      39.967  25.402  26.143  1.00  0.00     0.014 A 
ATOM     32  C   UNL A   1      39.330  25.744  28.836  1.00  0.00     0.010 A 
ATOM     33  C   UNL A   1      40.495  26.482  26.863  1.00  0.00     0.010 A 
ATOM     34  C   UNL A   1      40.160  26.685  28.210  1.00  0.00    -0.014 A 
BRANCH  34  35
ATOM     35  C   UNL A   1      40.638  27.911  28.916  1.00  0.00     0.031 A 
ATOM     36  C   UNL A   1      42.028  27.952  29.508  1.00  0.00     0.074 A 
ATOM     37  C   UNL A   1      39.819  28.968  29.084  1.00  0.00     0.049 A 
ATOM     38  N   UNL A   1      42.590  28.879  30.244  1.00  0.00    -0.248 NA
ATOM     39  C   UNL A   1      42.888  26.783  29.263  1.00  0.00     0.031 C 
ATOM     40  C   UNL A   1      38.446  29.066  28.588  1.00  0.00     0.029 A 
ATOM     41  N   UNL A   1      40.022  30.166  29.729  1.00  0.00    -0.354 N 
ATOM     42  C   UNL A   1      43.849  28.387  30.581  1.00  0.00     0.074 A 
ATOM     43  C   UNL A   1      43.947  27.063  30.006  1.00  0.00     0.031 C 
ATOM     44  C   UNL A   1      37.940  30.265  28.923  1.00  0.00     0.029 A 
ATOM     45  C   UNL A   1      38.933  31.006  29.694  1.00  0.00     0.049 A 
ATOM     46  H   UNL A   1      40.868  30.399  30.176  1.00  0.00     0.167 HD
ATOM     47  C   UNL A   1      44.841  28.983  31.288  1.00  0.00     0.031 A 
ATOM     48  C   UNL A   1      38.748  32.231  30.226  1.00  0.00     0.031 A 
ATOM     49  C   UNL A   1      44.760  30.312  31.835  1.00  0.00     0.049 A 
ATOM     50  C   UNL A   1      39.862  32.880  31.002  1.00  0.00     0.074 A 
ATOM     51  C   UNL A   1      45.732  31.025  32.515  1.00  0.00     0.029 A 
ATOM     52  N   UNL A   1      43.642  31.130  31.762  1.00  0.00    -0.354 N 
ATOM     53  N   UNL A   1      41.057  32.413  31.273  1.00  0.00    -0.248 NA
ATOM     54  C   UNL A   1      39.604  34.225  31.535  1.00  0.00     0.031 C 
ATOM     55  C   UNL A   1      45.187  32.258  32.890  1.00  0.00     0.029 A 
ATOM     56  C   UNL A   1      43.894  32.333  32.399  1.00  0.00     0.049 A 
ATOM     57  H   UNL A   1      42.794  30.889  31.323  1.00  0.00     0.167 HD
ATOM     58  C   UNL A   1      41.703  33.416  31.987  1.00  0.00     0.074 A 
ATOM     59  C   UNL A   1      40.770  34.520  32.095  1.00  0.00     0.031 C 
ATOM     60  C   UNL A   1      42.957  33.424  32.503  1.00  0.00     0.031 A 
BRANCH  47  61
ATOM     61  C   UNL A   1      46.103  28.187  31.515  1.00  0.00    -0.014 A 
ATOM     62  C   UNL A   1      47.168  28.230  30.597  1.00  0.00     0.010 A 
ATOM     63  C   UNL A   1      46.227  27.387  32.666  1.00  0.00     0.010 A 
ATOM     64  C   UNL A   1      48.303  27.435  30.790  1.00  0.00     0.020 A 
ATOM     65  C   UNL A   1      47.374  26.615  32.879  1.00  0.00     0.020 A 
ATOM     66  C   UNL A   1      48.393  26.624  31.924  1.00  0.00     0.054 A 
BRANCH  66  67
ATOM     67  S   UNL A   1      49.867  25.589  32.139  1.00  0.00     0.124 S 
ATOM     68  O   UNL A   1      49.433  24.665  33.184  1.00  0.00    -0.237 OA
ATOM     69  O   UNL A   1      50.046  25.001  30.815  1.00  0.00    -0.237 OA
ATOM     70  O   UNL A   1      50.902  26.540  32.540  1.00  0.00    -0.744 OA
ENDBRANCH  66  67
ENDBRANCH  47  61
BRANCH  48  71
ATOM     71  C   UNL A   1      37.456  32.938  30.012  1.00  0.00    -0.014 A 
ATOM     72  C   UNL A   1      37.202  33.598  28.797  1.00  0.00     0.010 A 
ATOM     73  C   UNL A   1      36.457  32.924  31.003  1.00  0.00     0.010 A 
ATOM     74  C   UNL A   1      35.976  34.231  28.576  1.00  0.00     0.020 A 
ATOM     75  C   UNL A   1      35.220  33.535  30.776  1.00  0.00     0.020 A 
ATOM     76  C   UNL A   1      34.989  34.189  29.564  1.00  0.00     0.054 A 
BRANCH  76  77
ATOM     77  S   UNL A   1      33.374  34.944  29.221  1.00  0.00     0.124 S 
ATOM     78  O   UNL A   1      32.806  34.017  28.248  1.00  0.00    -0.237 OA
ATOM     79  O   UNL A   1      32.741  34.945  30.538  1.00  0.00    -0.237 OA
ATOM     80  O   UNL A   1      33.718  36.265  28.703  1.00  0.00    -0.744 OA
ENDBRANCH  76  77
ENDBRANCH  48  71
BRANCH  60  81
ATOM     81  C   UNL A   1      43.412  34.675  33.207  1.00  0.00    -0.014 A 
ATOM     82  C   UNL A   1      44.243  35.610  32.568  1.00  0.00     0.010 A 
ATOM     83  C   UNL A   1      42.954  34.942  34.511  1.00  0.00     0.010 A 
ATOM     84  C   UNL A   1      44.630  36.779  33.229  1.00  0.00     0.020 A 
ATOM     85  C   UNL A   1      43.319  36.120  35.166  1.00  0.00     0.020 A 
ATOM     86  C   UNL A   1      44.165  37.027  34.525  1.00  0.00     0.054 A 
BRANCH  86  87
ATOM     87  S   UNL A   1      44.644  38.573  35.346  1.00  0.00     0.124 S 
ATOM     88  O   UNL A   1      44.447  38.242  36.754  1.00  0.00    -0.237 OA
ATOM     89  O   UNL A   1      46.034  38.741  34.928  1.00  0.00    -0.237 OA
ATOM     90  O   UNL A   1      43.713  39.557  34.800  1.00  0.00    -0.744 OA
ENDBRANCH  86  87
ENDBRANCH  60  81
ENDBRANCH  34  35
ENDBRANCH  26  29
ENDBRANCH  24  25
ENDBRANCH  23  24
ENDBRANCH   1  23
TORSDOF 18
ENDMDL
