MODEL 1
REMARK VINA RESULT:     -11.6      0.000      0.000
REMARK SMILES Cc1ccc(Br)cc1S(=O)(=O)N[C@H]1C=C[C@H](C(=O)NCCCNC(=O)c2ccc(-c3c4nc(c(-c5ccc(S(=O)(=O)[O-])cc5)c5ccc([nH]5)c(-c5ccc(S(=O)(=O)[O-])cc5)c5nc(c(-c6ccc(S(=O)(=O)[O-])cc6)c6ccc3[nH]6)C=C5)C=C4)cc2)C1
REMARK SMILES IDX 21 1 20 2 19 3 17 4 18 5 16 7 13 8 14 9 86 10 15 11 12 12
REMARK SMILES IDX 9 14 10 15 11 16 8 17 1 18 2 19 3 20 4 21 7 22 5 23 6 24
REMARK SMILES IDX 22 25 23 26 24 27 25 29 26 30 27 31 85 32 28 33 84 34 29 35
REMARK SMILES IDX 30 36 31 37 78 38 32 39 83 40 77 41 79 42 33 43 82 44 76 45
REMARK SMILES IDX 75 46 34 48 64 49 45 50 63 51 46 52 49 53 62 54 80 55 47 56
REMARK SMILES IDX 48 57 61 59 81 60 50 61 35 62 36 63 44 64 37 65 43 66 38 67
REMARK SMILES IDX 39 68 40 69 41 70 42 71 65 72 66 73 74 74 67 75 73 76 68 77
REMARK SMILES IDX 69 78 70 79 71 80 72 81 51 82 52 83 60 84 53 85 59 86 54 87
REMARK SMILES IDX 55 88 56 89 57 90 58 91
REMARK H PARENT 19 6 12 13 23 28 79 47 49 58
REMARK Flexibility Score: inf
ROOT
ATOM      1  C   UNL A   1      33.238  28.813  24.856  1.00  0.00     0.042 C 
ENDROOT
BRANCH   1   2
ATOM      2  C   UNL A   1      31.764  29.162  25.017  1.00  0.00     0.117 C 
BRANCH   2   3
ATOM      3  N   UNL A   1      31.171  29.601  23.765  1.00  0.00    -0.356 N 
ATOM      4  C   UNL A   1      30.572  28.988  22.717  1.00  0.00     0.226 C 
ATOM      5  O   UNL A   1      30.326  29.716  21.745  1.00  0.00    -0.274 OA
ATOM      6  H   UNL A   1      31.215  30.578  23.651  1.00  0.00     0.163 HD
BRANCH   4   7
ATOM      7  C   UNL A   1      30.204  27.503  22.632  1.00  0.00     0.103 C 
ATOM      8  C   UNL A   1      30.650  26.031  24.520  1.00  0.00     0.093 C 
ATOM      9  C   UNL A   1      31.597  25.768  23.396  1.00  0.00    -0.011 C 
ATOM     10  C   UNL A   1      29.535  26.801  23.800  1.00  0.00     0.042 C 
ATOM     11  C   UNL A   1      31.384  26.612  22.377  1.00  0.00    -0.016 C 
BRANCH   8  12
ATOM     12  N   UNL A   1      30.124  24.797  25.070  1.00  0.00    -0.204 NA
ATOM     13  H   UNL A   1      29.151  24.973  25.323  1.00  0.00     0.142 HD
BRANCH  12  14
ATOM     14  S   UNL A   1      30.870  24.123  26.418  1.00  0.00     0.241 S 
ATOM     15  O   UNL A   1      29.812  23.564  27.237  1.00  0.00    -0.207 OA
ATOM     16  O   UNL A   1      31.788  25.108  26.932  1.00  0.00    -0.207 OA
BRANCH  14  17
ATOM     17  C   UNL A   1      31.843  22.768  25.782  1.00  0.00     0.086 A 
ATOM     18  C   UNL A   1      33.101  22.330  27.997  1.00  0.00     0.046 C 
ATOM     19  C   UNL A   1      32.832  22.106  26.535  1.00  0.00    -0.031 A 
ATOM     20  C   UNL A   1      33.617  21.131  25.889  1.00  0.00     0.006 A 
ATOM     21  C   UNL A   1      33.392  20.782  24.556  1.00  0.00     0.016 A 
ATOM     22  C   UNL A   1      31.602  22.398  24.446  1.00  0.00     0.037 A 
ATOM     23  C   UNL A   1      32.369  21.401  23.849  1.00  0.00     0.019 A 
ATOM     24  Br  UNL A   1      32.015  20.879  22.068  1.00  0.00    -0.051 Br
ENDBRANCH  14  17
ENDBRANCH  12  14
ENDBRANCH   8  12
ENDBRANCH   4   7
ENDBRANCH   2   3
ENDBRANCH   1   2
BRANCH   1  25
ATOM     25  C   UNL A   1      34.005  28.857  26.172  1.00  0.00     0.118 C 
BRANCH  25  26
ATOM     26  N   UNL A   1      33.757  30.088  26.914  1.00  0.00    -0.352 N 
ATOM     27  C   UNL A   1      34.490  30.674  27.916  1.00  0.00     0.251 C 
ATOM     28  H   UNL A   1      32.940  30.572  26.656  1.00  0.00     0.163 HD
ATOM     29  O   UNL A   1      33.999  31.594  28.565  1.00  0.00    -0.269 OA
BRANCH  27  30
ATOM     30  C   UNL A   1      35.857  30.197  28.216  1.00  0.00     0.039 A 
ATOM     31  C   UNL A   1      36.847  30.305  27.237  1.00  0.00     0.014 A 
ATOM     32  C   UNL A   1      36.155  29.621  29.454  1.00  0.00     0.014 A 
ATOM     33  C   UNL A   1      38.150  29.888  27.521  1.00  0.00     0.010 A 
ATOM     34  C   UNL A   1      37.468  29.292  29.766  1.00  0.00     0.010 A 
ATOM     35  C   UNL A   1      38.478  29.408  28.800  1.00  0.00    -0.014 A 
BRANCH  35  36
ATOM     36  C   UNL A   1      39.858  28.988  29.146  1.00  0.00     0.031 A 
ATOM     37  C   UNL A   1      40.794  29.966  29.809  1.00  0.00     0.074 A 
ATOM     38  C   UNL A   1      40.297  27.763  28.793  1.00  0.00     0.049 A 
ATOM     39  N   UNL A   1      42.066  29.835  30.086  1.00  0.00    -0.248 NA
ATOM     40  C   UNL A   1      40.234  31.280  30.170  1.00  0.00     0.031 C 
ATOM     41  C   UNL A   1      39.503  26.742  28.103  1.00  0.00     0.029 A 
ATOM     42  N   UNL A   1      41.524  27.173  28.957  1.00  0.00    -0.354 N 
ATOM     43  C   UNL A   1      42.465  31.058  30.614  1.00  0.00     0.074 A 
ATOM     44  C   UNL A   1      41.312  31.930  30.579  1.00  0.00     0.031 C 
ATOM     45  C   UNL A   1      40.255  25.643  27.932  1.00  0.00     0.029 A 
ATOM     46  C   UNL A   1      41.591  25.893  28.461  1.00  0.00     0.049 A 
ATOM     47  H   UNL A   1      42.285  27.624  29.389  1.00  0.00     0.167 HD
ATOM     48  C   UNL A   1      43.676  31.417  31.101  1.00  0.00     0.031 A 
ATOM     49  C   UNL A   1      42.616  25.019  28.433  1.00  0.00     0.031 A 
ATOM     50  C   UNL A   1      44.805  30.531  31.176  1.00  0.00     0.049 A 
ATOM     51  C   UNL A   1      43.939  25.424  29.022  1.00  0.00     0.074 A 
ATOM     52  C   UNL A   1      46.054  30.771  31.721  1.00  0.00     0.029 A 
ATOM     53  N   UNL A   1      44.818  29.228  30.703  1.00  0.00    -0.354 N 
ATOM     54  N   UNL A   1      44.282  26.567  29.565  1.00  0.00    -0.248 NA
ATOM     55  C   UNL A   1      45.008  24.416  29.004  1.00  0.00     0.031 C 
ATOM     56  C   UNL A   1      46.833  29.621  31.550  1.00  0.00     0.029 A 
ATOM     57  C   UNL A   1      46.056  28.653  30.934  1.00  0.00     0.049 A 
ATOM     58  H   UNL A   1      44.058  28.777  30.267  1.00  0.00     0.167 HD
ATOM     59  C   UNL A   1      45.600  26.410  29.975  1.00  0.00     0.074 A 
ATOM     60  C   UNL A   1      45.987  25.056  29.629  1.00  0.00     0.031 C 
ATOM     61  C   UNL A   1      46.418  27.304  30.584  1.00  0.00     0.031 A 
BRANCH  48  62
ATOM     62  C   UNL A   1      43.836  32.832  31.590  1.00  0.00    -0.014 A 
ATOM     63  C   UNL A   1      43.605  33.166  32.936  1.00  0.00     0.010 A 
ATOM     64  C   UNL A   1      44.237  33.840  30.694  1.00  0.00     0.010 A 
ATOM     65  C   UNL A   1      43.724  34.490  33.368  1.00  0.00     0.020 A 
ATOM     66  C   UNL A   1      44.383  35.160  31.128  1.00  0.00     0.020 A 
ATOM     67  C   UNL A   1      44.106  35.480  32.459  1.00  0.00     0.054 A 
BRANCH  67  68
ATOM     68  S   UNL A   1      44.261  37.190  33.045  1.00  0.00     0.124 S 
ATOM     69  O   UNL A   1      44.469  37.917  31.795  1.00  0.00    -0.237 OA
ATOM     70  O   UNL A   1      42.977  37.424  33.701  1.00  0.00    -0.237 OA
ATOM     71  O   UNL A   1      45.416  37.145  33.940  1.00  0.00    -0.744 OA
ENDBRANCH  67  68
ENDBRANCH  48  62
BRANCH  49  72
ATOM     72  C   UNL A   1      42.419  23.662  27.855  1.00  0.00    -0.014 A 
ATOM     73  C   UNL A   1      42.618  23.445  26.480  1.00  0.00     0.010 A 
ATOM     74  C   UNL A   1      42.054  22.580  28.674  1.00  0.00     0.010 A 
ATOM     75  C   UNL A   1      42.440  22.172  25.931  1.00  0.00     0.020 A 
ATOM     76  C   UNL A   1      41.897  21.300  28.133  1.00  0.00     0.020 A 
ATOM     77  C   UNL A   1      42.080  21.108  26.761  1.00  0.00     0.054 A 
BRANCH  77  78
ATOM     78  S   UNL A   1      41.907  19.452  26.038  1.00  0.00     0.124 S 
ATOM     79  O   UNL A   1      42.764  19.544  24.860  1.00  0.00    -0.237 OA
ATOM     80  O   UNL A   1      42.392  18.584  27.108  1.00  0.00    -0.237 OA
ATOM     81  O   UNL A   1      40.475  19.349  25.764  1.00  0.00    -0.744 OA
ENDBRANCH  77  78
ENDBRANCH  49  72
BRANCH  61  82
ATOM     82  C   UNL A   1      47.800  26.837  30.944  1.00  0.00    -0.014 A 
ATOM     83  C   UNL A   1      48.863  26.947  30.032  1.00  0.00     0.010 A 
ATOM     84  C   UNL A   1      48.047  26.333  32.234  1.00  0.00     0.010 A 
ATOM     85  C   UNL A   1      50.147  26.534  30.395  1.00  0.00     0.020 A 
ATOM     86  C   UNL A   1      49.334  25.940  32.607  1.00  0.00     0.020 A 
ATOM     87  C   UNL A   1      50.374  26.031  31.680  1.00  0.00     0.054 A 
BRANCH  87  88
ATOM     88  S   UNL A   1      52.058  25.543  32.145  1.00  0.00     0.124 S 
ATOM     89  O   UNL A   1      52.221  26.209  33.434  1.00  0.00    -0.237 OA
ATOM     90  O   UNL A   1      51.969  24.085  32.198  1.00  0.00    -0.237 OA
ATOM     91  O   UNL A   1      52.882  26.070  31.060  1.00  0.00    -0.744 OA
ENDBRANCH  87  88
ENDBRANCH  61  82
ENDBRANCH  35  36
ENDBRANCH  27  30
ENDBRANCH  25  26
ENDBRANCH   1  25
TORSDOF 16
ENDMDL
MODEL 2
REMARK VINA RESULT:     -11.4      4.278      7.265
REMARK SMILES Cc1ccc(Br)cc1S(=O)(=O)N[C@H]1C=C[C@H](C(=O)NCCCNC(=O)c2ccc(-c3c4nc(c(-c5ccc(S(=O)(=O)[O-])cc5)c5ccc([nH]5)c(-c5ccc(S(=O)(=O)[O-])cc5)c5nc(c(-c6ccc(S(=O)(=O)[O-])cc6)c6ccc3[nH]6)C=C5)C=C4)cc2)C1
REMARK SMILES IDX 21 1 20 2 19 3 17 4 18 5 16 7 13 8 14 9 86 10 15 11 12 12
REMARK SMILES IDX 9 14 10 15 11 16 8 17 1 18 2 19 3 20 4 21 7 22 5 23 6 24
REMARK SMILES IDX 22 25 23 26 24 27 25 29 26 30 27 31 85 32 28 33 84 34 29 35
REMARK SMILES IDX 30 36 31 37 78 38 32 39 83 40 77 41 79 42 33 43 82 44 76 45
REMARK SMILES IDX 75 46 34 48 64 49 45 50 63 51 46 52 49 53 62 54 80 55 47 56
REMARK SMILES IDX 48 57 61 59 81 60 50 61 35 62 36 63 44 64 37 65 43 66 38 67
REMARK SMILES IDX 39 68 40 69 41 70 42 71 65 72 66 73 74 74 67 75 73 76 68 77
REMARK SMILES IDX 69 78 70 79 71 80 72 81 51 82 52 83 60 84 53 85 59 86 54 87
REMARK SMILES IDX 55 88 56 89 57 90 58 91
REMARK H PARENT 19 6 12 13 23 28 79 47 49 58
REMARK Flexibility Score: inf
ROOT
ATOM      1  C   UNL A   1      34.877  32.369  30.720  1.00  0.00     0.042 C 
ENDROOT
BRANCH   1   2
ATOM      2  C   UNL A   1      35.152  33.624  31.535  1.00  0.00     0.117 C 
BRANCH   2   3
ATOM      3  N   UNL A   1      35.542  33.312  32.900  1.00  0.00    -0.356 N 
ATOM      4  C   UNL A   1      36.635  32.772  33.488  1.00  0.00     0.226 C 
ATOM      5  O   UNL A   1      36.521  32.526  34.697  1.00  0.00    -0.274 OA
ATOM      6  H   UNL A   1      34.843  33.547  33.553  1.00  0.00     0.163 HD
BRANCH   4   7
ATOM      7  C   UNL A   1      37.957  32.432  32.794  1.00  0.00     0.103 C 
ATOM      8  C   UNL A   1      39.757  31.381  34.056  1.00  0.00     0.093 C 
ATOM      9  C   UNL A   1      40.071  32.811  33.757  1.00  0.00    -0.011 C 
ATOM     10  C   UNL A   1      38.643  31.100  33.038  1.00  0.00     0.042 C 
ATOM     11  C   UNL A   1      39.059  33.402  33.106  1.00  0.00    -0.016 C 
BRANCH   8  12
ATOM     12  N   UNL A   1      40.895  30.523  33.795  1.00  0.00    -0.204 NA
ATOM     13  H   UNL A   1      40.931  30.372  32.787  1.00  0.00     0.142 HD
BRANCH  12  14
ATOM     14  S   UNL A   1      40.958  29.009  34.523  1.00  0.00     0.241 S 
ATOM     15  O   UNL A   1      40.169  28.120  33.693  1.00  0.00    -0.207 OA
ATOM     16  O   UNL A   1      40.669  29.198  35.922  1.00  0.00    -0.207 OA
BRANCH  14  17
ATOM     17  C   UNL A   1      42.666  28.503  34.397  1.00  0.00     0.086 A 
ATOM     18  C   UNL A   1      43.624  30.670  35.428  1.00  0.00     0.046 C 
ATOM     19  C   UNL A   1      43.746  29.332  34.756  1.00  0.00    -0.031 A 
ATOM     20  C   UNL A   1      45.052  28.869  34.501  1.00  0.00     0.006 A 
ATOM     21  C   UNL A   1      45.282  27.602  33.961  1.00  0.00     0.016 A 
ATOM     22  C   UNL A   1      42.901  27.218  33.875  1.00  0.00     0.037 A 
ATOM     23  C   UNL A   1      44.205  26.773  33.673  1.00  0.00     0.019 A 
ATOM     24  Br  UNL A   1      44.516  25.032  33.011  1.00  0.00    -0.051 Br
ENDBRANCH  14  17
ENDBRANCH  12  14
ENDBRANCH   8  12
ENDBRANCH   4   7
ENDBRANCH   2   3
ENDBRANCH   1   2
BRANCH   1  25
ATOM     25  C   UNL A   1      34.768  32.643  29.226  1.00  0.00     0.118 C 
BRANCH  25  26
ATOM     26  N   UNL A   1      34.060  31.581  28.520  1.00  0.00    -0.352 N 
ATOM     27  C   UNL A   1      34.543  30.426  27.954  1.00  0.00     0.251 C 
ATOM     28  H   UNL A   1      33.088  31.711  28.437  1.00  0.00     0.163 HD
ATOM     29  O   UNL A   1      33.818  29.768  27.213  1.00  0.00    -0.269 OA
BRANCH  27  30
ATOM     30  C   UNL A   1      35.927  29.984  28.229  1.00  0.00     0.039 A 
ATOM     31  C   UNL A   1      36.904  30.151  27.245  1.00  0.00     0.014 A 
ATOM     32  C   UNL A   1      36.253  29.381  29.447  1.00  0.00     0.014 A 
ATOM     33  C   UNL A   1      38.222  29.767  27.507  1.00  0.00     0.010 A 
ATOM     34  C   UNL A   1      37.579  29.084  29.738  1.00  0.00     0.010 A 
ATOM     35  C   UNL A   1      38.576  29.260  28.768  1.00  0.00    -0.014 A 
BRANCH  35  36
ATOM     36  C   UNL A   1      39.972  28.873  29.091  1.00  0.00     0.031 A 
ATOM     37  C   UNL A   1      40.897  29.876  29.731  1.00  0.00     0.074 A 
ATOM     38  C   UNL A   1      40.432  27.657  28.735  1.00  0.00     0.049 A 
ATOM     39  N   UNL A   1      42.176  29.775  29.985  1.00  0.00    -0.248 NA
ATOM     40  C   UNL A   1      40.314  31.178  30.096  1.00  0.00     0.031 C 
ATOM     41  C   UNL A   1      39.649  26.614  28.066  1.00  0.00     0.029 A 
ATOM     42  N   UNL A   1      41.675  27.095  28.879  1.00  0.00    -0.354 N 
ATOM     43  C   UNL A   1      42.558  31.009  30.499  1.00  0.00     0.074 A 
ATOM     44  C   UNL A   1      41.385  31.855  30.482  1.00  0.00     0.031 C 
ATOM     45  C   UNL A   1      40.422  25.532  27.885  1.00  0.00     0.029 A 
ATOM     46  C   UNL A   1      41.762  25.815  28.388  1.00  0.00     0.049 A 
ATOM     47  H   UNL A   1      42.433  27.566  29.295  1.00  0.00     0.167 HD
ATOM     48  C   UNL A   1      43.769  31.399  30.962  1.00  0.00     0.031 A 
ATOM     49  C   UNL A   1      42.806  24.965  28.345  1.00  0.00     0.031 A 
ATOM     50  C   UNL A   1      44.919  30.539  31.021  1.00  0.00     0.049 A 
ATOM     51  C   UNL A   1      44.130  25.402  28.907  1.00  0.00     0.074 A 
ATOM     52  C   UNL A   1      46.172  30.810  31.541  1.00  0.00     0.029 A 
ATOM     53  N   UNL A   1      44.953  29.234  30.553  1.00  0.00    -0.354 N 
ATOM     54  N   UNL A   1      44.457  26.556  29.438  1.00  0.00    -0.248 NA
ATOM     55  C   UNL A   1      45.221  24.419  28.874  1.00  0.00     0.031 C 
ATOM     56  C   UNL A   1      46.974  29.677  31.361  1.00  0.00     0.029 A 
ATOM     57  C   UNL A   1      46.208  28.688  30.765  1.00  0.00     0.049 A 
ATOM     58  H   UNL A   1      44.196  28.764  30.134  1.00  0.00     0.167 HD
ATOM     59  C   UNL A   1      45.785  26.430  29.825  1.00  0.00     0.074 A 
ATOM     60  C   UNL A   1      46.197  25.085  29.478  1.00  0.00     0.031 C 
ATOM     61  C   UNL A   1      46.593  27.346  30.415  1.00  0.00     0.031 A 
BRANCH  48  62
ATOM     62  C   UNL A   1      43.905  32.819  31.441  1.00  0.00    -0.014 A 
ATOM     63  C   UNL A   1      43.666  33.159  32.785  1.00  0.00     0.010 A 
ATOM     64  C   UNL A   1      44.293  33.827  30.539  1.00  0.00     0.010 A 
ATOM     65  C   UNL A   1      43.763  34.488  33.208  1.00  0.00     0.020 A 
ATOM     66  C   UNL A   1      44.417  35.153  30.964  1.00  0.00     0.020 A 
ATOM     67  C   UNL A   1      44.131  35.478  32.292  1.00  0.00     0.054 A 
BRANCH  67  68
ATOM     68  S   UNL A   1      44.259  37.194  32.866  1.00  0.00     0.124 S 
ATOM     69  O   UNL A   1      43.073  37.316  33.710  1.00  0.00    -0.237 OA
ATOM     70  O   UNL A   1      45.537  37.203  33.574  1.00  0.00    -0.237 OA
ATOM     71  O   UNL A   1      44.228  37.975  31.631  1.00  0.00    -0.744 OA
ENDBRANCH  67  68
ENDBRANCH  48  62
BRANCH  49  72
ATOM     72  C   UNL A   1      42.629  23.601  27.777  1.00  0.00    -0.014 A 
ATOM     73  C   UNL A   1      43.070  23.317  26.473  1.00  0.00     0.010 A 
ATOM     74  C   UNL A   1      42.041  22.577  28.541  1.00  0.00     0.010 A 
ATOM     75  C   UNL A   1      42.912  22.036  25.935  1.00  0.00     0.020 A 
ATOM     76  C   UNL A   1      41.902  21.289  28.014  1.00  0.00     0.020 A 
ATOM     77  C   UNL A   1      42.329  21.030  26.710  1.00  0.00     0.054 A 
BRANCH  77  78
ATOM     78  S   UNL A   1      42.182  19.361  26.012  1.00  0.00     0.124 S 
ATOM     79  O   UNL A   1      42.717  18.534  27.088  1.00  0.00    -0.237 OA
ATOM     80  O   UNL A   1      40.746  19.241  25.775  1.00  0.00    -0.237 OA
ATOM     81  O   UNL A   1      43.002  19.425  24.804  1.00  0.00    -0.744 OA
ENDBRANCH  77  78
ENDBRANCH  49  72
BRANCH  61  82
ATOM     82  C   UNL A   1      47.993  26.913  30.751  1.00  0.00    -0.014 A 
ATOM     83  C   UNL A   1      49.055  27.138  29.860  1.00  0.00     0.010 A 
ATOM     84  C   UNL A   1      48.253  26.322  32.001  1.00  0.00     0.010 A 
ATOM     85  C   UNL A   1      50.354  26.753  30.202  1.00  0.00     0.020 A 
ATOM     86  C   UNL A   1      49.554  25.958  32.356  1.00  0.00     0.020 A 
ATOM     87  C   UNL A   1      50.594  26.164  31.447  1.00  0.00     0.054 A 
BRANCH  87  88
ATOM     88  S   UNL A   1      52.295  25.714  31.890  1.00  0.00     0.124 S 
ATOM     89  O   UNL A   1      52.153  24.307  32.249  1.00  0.00    -0.237 OA
ATOM     90  O   UNL A   1      53.031  25.976  30.655  1.00  0.00    -0.237 OA
ATOM     91  O   UNL A   1      52.612  26.613  32.997  1.00  0.00    -0.744 OA
ENDBRANCH  87  88
ENDBRANCH  61  82
ENDBRANCH  35  36
ENDBRANCH  27  30
ENDBRANCH  25  26
ENDBRANCH   1  25
TORSDOF 16
ENDMDL
MODEL 3
REMARK VINA RESULT:     -11.3      1.592      2.054
REMARK SMILES Cc1ccc(Br)cc1S(=O)(=O)N[C@H]1C=C[C@H](C(=O)NCCCNC(=O)c2ccc(-c3c4nc(c(-c5ccc(S(=O)(=O)[O-])cc5)c5ccc([nH]5)c(-c5ccc(S(=O)(=O)[O-])cc5)c5nc(c(-c6ccc(S(=O)(=O)[O-])cc6)c6ccc3[nH]6)C=C5)C=C4)cc2)C1
REMARK SMILES IDX 21 1 20 2 19 3 17 4 18 5 16 7 13 8 14 9 86 10 15 11 12 12
REMARK SMILES IDX 9 14 10 15 11 16 8 17 1 18 2 19 3 20 4 21 7 22 5 23 6 24
REMARK SMILES IDX 22 25 23 26 24 27 25 29 26 30 27 31 85 32 28 33 84 34 29 35
REMARK SMILES IDX 30 36 31 37 78 38 32 39 83 40 77 41 79 42 33 43 82 44 76 45
REMARK SMILES IDX 75 46 34 48 64 49 45 50 63 51 46 52 49 53 62 54 80 55 47 56
REMARK SMILES IDX 48 57 61 59 81 60 50 61 35 62 36 63 44 64 37 65 43 66 38 67
REMARK SMILES IDX 39 68 40 69 41 70 42 71 65 72 66 73 74 74 67 75 73 76 68 77
REMARK SMILES IDX 69 78 70 79 71 80 72 81 51 82 52 83 60 84 53 85 59 86 54 87
REMARK SMILES IDX 55 88 56 89 57 90 58 91
REMARK H PARENT 19 6 12 13 23 28 79 47 49 58
REMARK Flexibility Score: inf
ROOT
ATOM      1  C   UNL A   1      33.490  28.715  24.947  1.00  0.00     0.042 C 
ENDROOT
BRANCH   1   2
ATOM      2  C   UNL A   1      32.076  29.261  24.806  1.00  0.00     0.117 C 
BRANCH   2   3
ATOM      3  N   UNL A   1      31.179  28.296  24.194  1.00  0.00    -0.356 N 
ATOM      4  C   UNL A   1      30.705  27.074  24.533  1.00  0.00     0.226 C 
ATOM      5  O   UNL A   1      30.059  26.491  23.651  1.00  0.00    -0.274 OA
ATOM      6  H   UNL A   1      30.835  28.603  23.324  1.00  0.00     0.163 HD
BRANCH   4   7
ATOM      7  C   UNL A   1      30.914  26.366  25.875  1.00  0.00     0.103 C 
ATOM      8  C   UNL A   1      31.780  24.090  25.925  1.00  0.00     0.093 C 
ATOM      9  C   UNL A   1      30.327  24.122  26.270  1.00  0.00    -0.011 C 
ATOM     10  C   UNL A   1      32.172  25.558  26.139  1.00  0.00     0.042 C 
ATOM     11  C   UNL A   1      29.840  25.368  26.193  1.00  0.00    -0.016 C 
BRANCH   8  12
ATOM     12  N   UNL A   1      32.523  23.241  26.835  1.00  0.00    -0.204 NA
ATOM     13  H   UNL A   1      33.295  23.799  27.201  1.00  0.00     0.142 HD
BRANCH  12  14
ATOM     14  S   UNL A   1      33.182  21.806  26.258  1.00  0.00     0.241 S 
ATOM     15  O   UNL A   1      32.200  21.234  25.358  1.00  0.00    -0.207 OA
ATOM     16  O   UNL A   1      33.682  21.080  27.398  1.00  0.00    -0.207 OA
BRANCH  14  17
ATOM     17  C   UNL A   1      34.593  22.302  25.283  1.00  0.00     0.086 A 
ATOM     18  C   UNL A   1      33.232  22.800  23.144  1.00  0.00     0.046 C 
ATOM     19  C   UNL A   1      34.509  22.649  23.921  1.00  0.00    -0.031 A 
ATOM     20  C   UNL A   1      35.707  22.908  23.226  1.00  0.00     0.006 A 
ATOM     21  C   UNL A   1      36.943  22.882  23.873  1.00  0.00     0.016 A 
ATOM     22  C   UNL A   1      35.838  22.300  25.939  1.00  0.00     0.037 A 
ATOM     23  C   UNL A   1      37.000  22.602  25.233  1.00  0.00     0.019 A 
ATOM     24  Br  UNL A   1      38.664  22.638  26.127  1.00  0.00    -0.051 Br
ENDBRANCH  14  17
ENDBRANCH  12  14
ENDBRANCH   8  12
ENDBRANCH   4   7
ENDBRANCH   2   3
ENDBRANCH   1   2
BRANCH   1  25
ATOM     25  C   UNL A   1      33.978  28.695  26.390  1.00  0.00     0.118 C 
BRANCH  25  26
ATOM     26  N   UNL A   1      33.761  29.970  27.063  1.00  0.00    -0.352 N 
ATOM     27  C   UNL A   1      34.532  30.614  28.000  1.00  0.00     0.251 C 
ATOM     28  H   UNL A   1      32.935  30.441  26.808  1.00  0.00     0.163 HD
ATOM     29  O   UNL A   1      34.067  31.575  28.608  1.00  0.00    -0.269 OA
BRANCH  27  30
ATOM     30  C   UNL A   1      35.908  30.151  28.277  1.00  0.00     0.039 A 
ATOM     31  C   UNL A   1      36.873  30.240  27.271  1.00  0.00     0.014 A 
ATOM     32  C   UNL A   1      36.239  29.606  29.521  1.00  0.00     0.014 A 
ATOM     33  C   UNL A   1      38.185  29.836  27.534  1.00  0.00     0.010 A 
ATOM     34  C   UNL A   1      37.561  29.291  29.808  1.00  0.00     0.010 A 
ATOM     35  C   UNL A   1      38.547  29.388  28.815  1.00  0.00    -0.014 A 
BRANCH  35  36
ATOM     36  C   UNL A   1      39.937  28.983  29.137  1.00  0.00     0.031 A 
ATOM     37  C   UNL A   1      40.875  29.973  29.778  1.00  0.00     0.074 A 
ATOM     38  C   UNL A   1      40.382  27.761  28.780  1.00  0.00     0.049 A 
ATOM     39  N   UNL A   1      42.153  29.855  30.033  1.00  0.00    -0.248 NA
ATOM     40  C   UNL A   1      40.310  31.282  30.145  1.00  0.00     0.031 C 
ATOM     41  C   UNL A   1      39.585  26.730  28.109  1.00  0.00     0.029 A 
ATOM     42  N   UNL A   1      41.617  27.183  28.923  1.00  0.00    -0.354 N 
ATOM     43  C   UNL A   1      42.550  31.084  30.548  1.00  0.00     0.074 A 
ATOM     44  C   UNL A   1      41.388  31.945  30.533  1.00  0.00     0.031 C 
ATOM     45  C   UNL A   1      40.344  25.637  27.927  1.00  0.00     0.029 A 
ATOM     46  C   UNL A   1      41.688  25.902  28.430  1.00  0.00     0.049 A 
ATOM     47  H   UNL A   1      42.382  27.644  29.339  1.00  0.00     0.167 HD
ATOM     48  C   UNL A   1      43.767  31.457  31.012  1.00  0.00     0.031 A 
ATOM     49  C   UNL A   1      42.721  25.039  28.386  1.00  0.00     0.031 A 
ATOM     50  C   UNL A   1      44.906  30.582  31.069  1.00  0.00     0.049 A 
ATOM     51  C   UNL A   1      44.050  25.459  28.949  1.00  0.00     0.074 A 
ATOM     52  C   UNL A   1      46.162  30.836  31.590  1.00  0.00     0.029 A 
ATOM     53  N   UNL A   1      44.923  29.277  30.600  1.00  0.00    -0.354 N 
ATOM     54  N   UNL A   1      44.392  26.607  29.482  1.00  0.00    -0.248 NA
ATOM     55  C   UNL A   1      45.129  24.461  28.915  1.00  0.00     0.031 C 
ATOM     56  C   UNL A   1      46.949  29.693  31.408  1.00  0.00     0.029 A 
ATOM     57  C   UNL A   1      46.170  28.715  30.811  1.00  0.00     0.049 A 
ATOM     58  H   UNL A   1      44.159  28.818  30.180  1.00  0.00     0.167 HD
ATOM     59  C   UNL A   1      45.719  26.464  29.867  1.00  0.00     0.074 A 
ATOM     60  C   UNL A   1      46.113  25.114  29.519  1.00  0.00     0.031 C 
ATOM     61  C   UNL A   1      46.538  27.369  30.459  1.00  0.00     0.031 A 
BRANCH  48  62
ATOM     62  C   UNL A   1      43.921  32.874  31.493  1.00  0.00    -0.014 A 
ATOM     63  C   UNL A   1      43.679  33.217  32.835  1.00  0.00     0.010 A 
ATOM     64  C   UNL A   1      44.330  33.877  30.594  1.00  0.00     0.010 A 
ATOM     65  C   UNL A   1      43.793  34.544  33.259  1.00  0.00     0.020 A 
ATOM     66  C   UNL A   1      44.471  35.200  31.020  1.00  0.00     0.020 A 
ATOM     67  C   UNL A   1      44.182  35.529  32.347  1.00  0.00     0.054 A 
BRANCH  67  68
ATOM     68  S   UNL A   1      44.332  37.242  32.923  1.00  0.00     0.124 S 
ATOM     69  O   UNL A   1      45.658  37.237  33.536  1.00  0.00    -0.237 OA
ATOM     70  O   UNL A   1      44.216  38.010  31.685  1.00  0.00    -0.237 OA
ATOM     71  O   UNL A   1      43.215  37.393  33.853  1.00  0.00    -0.744 OA
ENDBRANCH  67  68
ENDBRANCH  48  62
BRANCH  49  72
ATOM     72  C   UNL A   1      42.526  23.678  27.817  1.00  0.00    -0.014 A 
ATOM     73  C   UNL A   1      42.867  23.418  26.477  1.00  0.00     0.010 A 
ATOM     74  C   UNL A   1      42.022  22.633  28.611  1.00  0.00     0.010 A 
ATOM     75  C   UNL A   1      42.693  22.141  25.938  1.00  0.00     0.020 A 
ATOM     76  C   UNL A   1      41.866  21.349  28.081  1.00  0.00     0.020 A 
ATOM     77  C   UNL A   1      42.193  21.114  26.743  1.00  0.00     0.054 A 
BRANCH  77  78
ATOM     78  S   UNL A   1      42.024  19.450  26.037  1.00  0.00     0.124 S 
ATOM     79  O   UNL A   1      42.550  18.611  27.109  1.00  0.00    -0.237 OA
ATOM     80  O   UNL A   1      40.586  19.350  25.801  1.00  0.00    -0.237 OA
ATOM     81  O   UNL A   1      42.843  19.510  24.828  1.00  0.00    -0.744 OA
ENDBRANCH  77  78
ENDBRANCH  49  72
BRANCH  61  82
ATOM     82  C   UNL A   1      47.932  26.917  30.795  1.00  0.00    -0.014 A 
ATOM     83  C   UNL A   1      49.004  27.163  29.921  1.00  0.00     0.010 A 
ATOM     84  C   UNL A   1      48.177  26.286  32.028  1.00  0.00     0.010 A 
ATOM     85  C   UNL A   1      50.298  26.761  30.263  1.00  0.00     0.020 A 
ATOM     86  C   UNL A   1      49.472  25.903  32.383  1.00  0.00     0.020 A 
ATOM     87  C   UNL A   1      50.523  26.131  31.491  1.00  0.00     0.054 A 
BRANCH  87  88
ATOM     88  S   UNL A   1      52.217  25.658  31.936  1.00  0.00     0.124 S 
ATOM     89  O   UNL A   1      52.505  26.567  33.041  1.00  0.00    -0.237 OA
ATOM     90  O   UNL A   1      52.074  24.250  32.301  1.00  0.00    -0.237 OA
ATOM     91  O   UNL A   1      52.975  25.902  30.712  1.00  0.00    -0.744 OA
ENDBRANCH  87  88
ENDBRANCH  61  82
ENDBRANCH  35  36
ENDBRANCH  27  30
ENDBRANCH  25  26
ENDBRANCH   1  25
TORSDOF 16
ENDMDL
