MODEL 1
REMARK VINA RESULT:      -9.1      0.000      0.000
REMARK SMILES C[C@H](C[N@@H+](C)[C@@H](C)[C@@H](C)O)C(=O)NCCCNC(=O)c1ccc(-c2c3nc(c(-c4ccc(S(=O)(=O)[O-])cc4)c4ccc([nH]4)c(-c4ccc(S(=O)(=O)[O-])cc4)c4nc(c(-c5ccc(S(=O)(=O)[O-])cc5)c5ccc2[nH]5)C=C4)C=C3)cc1
REMARK SMILES IDX 14 1 13 2 11 3 12 4 2 6 1 7 3 8 4 9 5 10 6 12 7 13 8 14 9 15
REMARK SMILES IDX 10 16 15 18 16 19 17 20 18 21 19 23 20 24 21 25 79 26 22 27
REMARK SMILES IDX 78 28 23 29 24 30 25 31 72 32 26 33 77 34 71 35 73 36 27 37
REMARK SMILES IDX 76 38 70 39 69 40 28 42 58 43 39 44 57 45 40 46 43 47 56 48
REMARK SMILES IDX 74 49 41 50 42 51 55 53 75 54 44 55 29 56 30 57 38 58 31 59
REMARK SMILES IDX 37 60 32 61 33 62 34 63 35 64 36 65 59 66 60 67 68 68 61 69
REMARK SMILES IDX 67 70 62 71 63 72 64 73 65 74 66 75 45 76 46 77 54 78 47 79
REMARK SMILES IDX 53 80 48 81 49 82 50 83 51 84 52 85
REMARK H PARENT 13 5 4 11 10 17 17 22 73 41 43 52
REMARK Flexibility Score: inf
ROOT
ATOM      1  C   UNL A   1      36.595  33.826  29.254  1.00  0.00     0.117 C 
ENDROOT
BRANCH   1   2
ATOM      2  N   UNL A   1      36.865  32.824  30.259  1.00  0.00    -0.356 N 
ATOM      3  C   UNL A   1      37.135  32.933  31.584  1.00  0.00     0.228 C 
ATOM      4  O   UNL A   1      37.165  31.868  32.214  1.00  0.00    -0.275 OA
ATOM      5  H   UNL A   1      36.853  31.898  29.923  1.00  0.00     0.163 HD
BRANCH   3   6
ATOM      6  C   UNL A   1      37.328  34.255  32.346  1.00  0.00     0.130 C 
ATOM      7  C   UNL A   1      38.584  34.202  33.218  1.00  0.00     0.024 C 
BRANCH   6   8
ATOM      8  C   UNL A   1      36.076  34.987  32.904  1.00  0.00     0.275 C 
BRANCH   8   9
ATOM      9  N   UNL A   1      34.704  34.668  32.400  1.00  0.00    -0.332 N 
ATOM     10  C   UNL A   1      34.159  33.565  33.225  1.00  0.00     0.333 C 
ATOM     11  H   UNL A   1      34.834  34.425  31.418  1.00  0.00     0.348 HD
BRANCH   9  12
ATOM     12  C   UNL A   1      33.704  35.789  32.367  1.00  0.00     0.209 C 
ATOM     13  C   UNL A   1      33.748  36.704  33.612  1.00  0.00     0.078 C 
BRANCH  12  14
ATOM     14  C   UNL A   1      33.589  36.531  30.987  1.00  0.00     0.169 C 
ATOM     15  C   UNL A   1      32.753  35.764  29.969  1.00  0.00     0.045 C 
BRANCH  14  16
ATOM     16  O   UNL A   1      33.066  37.856  31.090  1.00  0.00    -0.387 OA
ATOM     17  H   UNL A   1      32.986  38.243  30.204  1.00  0.00     0.211 HD
ENDBRANCH  14  16
ENDBRANCH  12  14
ENDBRANCH   9  12
ENDBRANCH   8   9
ENDBRANCH   6   8
ENDBRANCH   3   6
ENDBRANCH   1   2
BRANCH   1  18
ATOM     18  C   UNL A   1      35.402  33.492  28.376  1.00  0.00     0.042 C 
BRANCH  18  19
ATOM     19  C   UNL A   1      34.359  32.656  29.094  1.00  0.00     0.118 C 
BRANCH  19  20
ATOM     20  N   UNL A   1      33.883  31.526  28.300  1.00  0.00    -0.352 N 
ATOM     21  C   UNL A   1      34.450  30.351  27.862  1.00  0.00     0.251 C 
ATOM     22  H   UNL A   1      32.946  31.626  28.017  1.00  0.00     0.163 HD
ATOM     23  O   UNL A   1      33.790  29.643  27.109  1.00  0.00    -0.269 OA
BRANCH  21  24
ATOM     24  C   UNL A   1      35.828  29.930  28.227  1.00  0.00     0.039 A 
ATOM     25  C   UNL A   1      36.849  30.079  27.278  1.00  0.00     0.014 A 
ATOM     26  C   UNL A   1      36.143  29.351  29.451  1.00  0.00     0.014 A 
ATOM     27  C   UNL A   1      38.162  29.700  27.582  1.00  0.00     0.010 A 
ATOM     28  C   UNL A   1      37.467  29.137  29.815  1.00  0.00     0.010 A 
ATOM     29  C   UNL A   1      38.492  29.258  28.873  1.00  0.00    -0.014 A 
BRANCH  29  30
ATOM     30  C   UNL A   1      39.872  28.847  29.247  1.00  0.00     0.031 A 
ATOM     31  C   UNL A   1      40.768  29.807  30.001  1.00  0.00     0.074 A 
ATOM     32  C   UNL A   1      40.351  27.649  28.856  1.00  0.00     0.049 A 
ATOM     33  N   UNL A   1      42.029  29.682  30.325  1.00  0.00    -0.248 NA
ATOM     34  C   UNL A   1      40.182  31.102  30.396  1.00  0.00     0.031 C 
ATOM     35  C   UNL A   1      39.619  26.654  28.069  1.00  0.00     0.029 A 
ATOM     36  N   UNL A   1      41.574  27.064  29.066  1.00  0.00    -0.354 N 
ATOM     37  C   UNL A   1      42.392  30.891  30.912  1.00  0.00     0.074 A 
ATOM     38  C   UNL A   1      41.244  31.762  30.833  1.00  0.00     0.031 C 
ATOM     39  C   UNL A   1      40.387  25.564  27.909  1.00  0.00     0.029 A 
ATOM     40  C   UNL A   1      41.680  25.798  28.539  1.00  0.00     0.049 A 
ATOM     41  H   UNL A   1      42.308  27.509  29.549  1.00  0.00     0.167 HD
ATOM     42  C   UNL A   1      43.562  31.240  31.501  1.00  0.00     0.031 A 
ATOM     43  C   UNL A   1      42.702  24.922  28.566  1.00  0.00     0.031 A 
ATOM     44  C   UNL A   1      44.682  30.349  31.635  1.00  0.00     0.049 A 
ATOM     45  C   UNL A   1      43.969  25.303  29.281  1.00  0.00     0.074 A 
ATOM     46  C   UNL A   1      45.887  30.570  32.279  1.00  0.00     0.029 A 
ATOM     47  N   UNL A   1      44.725  29.058  31.134  1.00  0.00    -0.354 N 
ATOM     48  N   UNL A   1      44.273  26.433  29.874  1.00  0.00    -0.248 NA
ATOM     49  C   UNL A   1      45.021  24.281  29.351  1.00  0.00     0.031 C 
ATOM     50  C   UNL A   1      46.674  29.421  32.134  1.00  0.00     0.029 A 
ATOM     51  C   UNL A   1      45.937  28.468  31.450  1.00  0.00     0.049 A 
ATOM     52  H   UNL A   1      44.000  28.623  30.629  1.00  0.00     0.167 HD
ATOM     53  C   UNL A   1      45.540  26.247  30.417  1.00  0.00     0.074 A 
ATOM     54  C   UNL A   1      45.934  24.890  30.096  1.00  0.00     0.031 C 
ATOM     55  C   UNL A   1      46.307  27.116  31.122  1.00  0.00     0.031 A 
BRANCH  42  56
ATOM     56  C   UNL A   1      43.675  32.638  32.057  1.00  0.00    -0.014 A 
ATOM     57  C   UNL A   1      44.165  33.698  31.271  1.00  0.00     0.010 A 
ATOM     58  C   UNL A   1      43.267  32.901  33.377  1.00  0.00     0.010 A 
ATOM     59  C   UNL A   1      44.298  34.980  31.810  1.00  0.00     0.020 A 
ATOM     60  C   UNL A   1      43.365  34.192  33.910  1.00  0.00     0.020 A 
ATOM     61  C   UNL A   1      43.900  35.218  33.128  1.00  0.00     0.054 A 
BRANCH  61  62
ATOM     62  S   UNL A   1      44.067  36.896  33.797  1.00  0.00     0.124 S 
ATOM     63  O   UNL A   1      45.515  37.013  33.957  1.00  0.00    -0.237 OA
ATOM     64  O   UNL A   1      43.484  37.720  32.742  1.00  0.00    -0.237 OA
ATOM     65  O   UNL A   1      43.304  36.851  35.042  1.00  0.00    -0.744 OA
ENDBRANCH  61  62
ENDBRANCH  42  56
BRANCH  43  66
ATOM     66  C   UNL A   1      42.549  23.579  27.940  1.00  0.00    -0.014 A 
ATOM     67  C   UNL A   1      43.072  23.327  26.660  1.00  0.00     0.010 A 
ATOM     68  C   UNL A   1      41.897  22.539  28.628  1.00  0.00     0.010 A 
ATOM     69  C   UNL A   1      42.924  22.069  26.067  1.00  0.00     0.020 A 
ATOM     70  C   UNL A   1      41.774  21.272  28.051  1.00  0.00     0.020 A 
ATOM     71  C   UNL A   1      42.277  21.048  26.768  1.00  0.00     0.054 A 
BRANCH  71  72
ATOM     72  S   UNL A   1      42.141  19.409  26.001  1.00  0.00     0.124 S 
ATOM     73  O   UNL A   1      40.709  19.317  25.732  1.00  0.00    -0.237 OA
ATOM     74  O   UNL A   1      42.999  19.539  24.825  1.00  0.00    -0.237 OA
ATOM     75  O   UNL A   1      42.645  18.507  27.033  1.00  0.00    -0.744 OA
ENDBRANCH  71  72
ENDBRANCH  43  66
BRANCH  55  76
ATOM     76  C   UNL A   1      47.627  26.605  31.634  1.00  0.00    -0.014 A 
ATOM     77  C   UNL A   1      48.819  26.805  30.918  1.00  0.00     0.010 A 
ATOM     78  C   UNL A   1      47.669  25.929  32.868  1.00  0.00     0.010 A 
ATOM     79  C   UNL A   1      50.024  26.288  31.401  1.00  0.00     0.020 A 
ATOM     80  C   UNL A   1      48.877  25.439  33.368  1.00  0.00     0.020 A 
ATOM     81  C   UNL A   1      50.044  25.600  32.618  1.00  0.00     0.054 A 
BRANCH  81  82
ATOM     82  S   UNL A   1      51.618  24.940  33.226  1.00  0.00     0.124 S 
ATOM     83  O   UNL A   1      52.255  24.491  31.990  1.00  0.00    -0.237 OA
ATOM     84  O   UNL A   1      52.233  26.104  33.861  1.00  0.00    -0.237 OA
ATOM     85  O   UNL A   1      51.218  23.876  34.143  1.00  0.00    -0.744 OA
ENDBRANCH  81  82
ENDBRANCH  55  76
ENDBRANCH  29  30
ENDBRANCH  21  24
ENDBRANCH  19  20
ENDBRANCH  18  19
ENDBRANCH   1  18
TORSDOF 18
ENDMDL
MODEL 2
REMARK VINA RESULT:      -9.1      2.927      6.110
REMARK SMILES C[C@H](C[N@@H+](C)[C@@H](C)[C@@H](C)O)C(=O)NCCCNC(=O)c1ccc(-c2c3nc(c(-c4ccc(S(=O)(=O)[O-])cc4)c4ccc([nH]4)c(-c4ccc(S(=O)(=O)[O-])cc4)c4nc(c(-c5ccc(S(=O)(=O)[O-])cc5)c5ccc2[nH]5)C=C4)C=C3)cc1
REMARK SMILES IDX 14 1 13 2 11 3 12 4 2 6 1 7 3 8 4 9 5 10 6 12 7 13 8 14 9 15
REMARK SMILES IDX 10 16 15 18 16 19 17 20 18 21 19 23 20 24 21 25 79 26 22 27
REMARK SMILES IDX 78 28 23 29 24 30 25 31 72 32 26 33 77 34 71 35 73 36 27 37
REMARK SMILES IDX 76 38 70 39 69 40 28 42 58 43 39 44 57 45 40 46 43 47 56 48
REMARK SMILES IDX 74 49 41 50 42 51 55 53 75 54 44 55 29 56 30 57 38 58 31 59
REMARK SMILES IDX 37 60 32 61 33 62 34 63 35 64 36 65 59 66 60 67 68 68 61 69
REMARK SMILES IDX 67 70 62 71 63 72 64 73 65 74 66 75 45 76 46 77 54 78 47 79
REMARK SMILES IDX 53 80 48 81 49 82 50 83 51 84 52 85
REMARK H PARENT 13 5 4 11 10 17 17 22 73 41 43 52
REMARK Flexibility Score: inf
ROOT
ATOM      1  C   UNL A   1      33.628  26.230  25.541  1.00  0.00     0.117 C 
ENDROOT
BRANCH   1   2
ATOM      2  N   UNL A   1      34.077  25.864  24.218  1.00  0.00    -0.356 N 
ATOM      3  C   UNL A   1      33.829  24.768  23.457  1.00  0.00     0.228 C 
ATOM      4  O   UNL A   1      34.237  24.823  22.290  1.00  0.00    -0.275 OA
ATOM      5  H   UNL A   1      34.670  26.526  23.793  1.00  0.00     0.163 HD
BRANCH   3   6
ATOM      6  C   UNL A   1      33.035  23.532  23.913  1.00  0.00     0.130 C 
ATOM      7  C   UNL A   1      31.562  23.880  24.129  1.00  0.00     0.024 C 
BRANCH   6   8
ATOM      8  C   UNL A   1      33.706  22.531  24.894  1.00  0.00     0.275 C 
BRANCH   8   9
ATOM      9  N   UNL A   1      34.796  22.969  25.821  1.00  0.00    -0.332 N 
ATOM     10  C   UNL A   1      34.249  22.976  27.197  1.00  0.00     0.333 C 
ATOM     11  H   UNL A   1      35.076  23.889  25.482  1.00  0.00     0.348 HD
BRANCH   9  12
ATOM     12  C   UNL A   1      36.071  22.175  25.810  1.00  0.00     0.209 C 
ATOM     13  C   UNL A   1      35.979  20.855  25.010  1.00  0.00     0.078 C 
BRANCH  12  14
ATOM     14  C   UNL A   1      37.374  23.020  25.570  1.00  0.00     0.169 C 
ATOM     15  C   UNL A   1      38.642  22.287  25.994  1.00  0.00     0.045 C 
BRANCH  14  16
ATOM     16  O   UNL A   1      37.536  23.454  24.219  1.00  0.00    -0.387 OA
ATOM     17  H   UNL A   1      36.775  23.999  23.961  1.00  0.00     0.211 HD
ENDBRANCH  14  16
ENDBRANCH  12  14
ENDBRANCH   9  12
ENDBRANCH   8   9
ENDBRANCH   6   8
ENDBRANCH   3   6
ENDBRANCH   1   2
BRANCH   1  18
ATOM     18  C   UNL A   1      33.720  27.720  25.818  1.00  0.00     0.042 C 
BRANCH  18  19
ATOM     19  C   UNL A   1      33.414  28.069  27.263  1.00  0.00     0.118 C 
BRANCH  19  20
ATOM     20  N   UNL A   1      33.393  29.509  27.513  1.00  0.00    -0.352 N 
ATOM     21  C   UNL A   1      34.324  30.424  27.948  1.00  0.00     0.251 C 
ATOM     22  H   UNL A   1      32.516  29.916  27.327  1.00  0.00     0.163 HD
ATOM     23  O   UNL A   1      33.946  31.572  28.151  1.00  0.00    -0.269 OA
BRANCH  21  24
ATOM     24  C   UNL A   1      35.743  30.072  28.216  1.00  0.00     0.039 A 
ATOM     25  C   UNL A   1      36.082  29.568  29.480  1.00  0.00     0.014 A 
ATOM     26  C   UNL A   1      36.759  30.263  27.287  1.00  0.00     0.014 A 
ATOM     27  C   UNL A   1      37.406  29.219  29.773  1.00  0.00     0.010 A 
ATOM     28  C   UNL A   1      38.033  29.758  27.515  1.00  0.00     0.010 A 
ATOM     29  C   UNL A   1      38.392  29.275  28.776  1.00  0.00    -0.014 A 
BRANCH  29  30
ATOM     30  C   UNL A   1      39.812  28.912  29.036  1.00  0.00     0.031 A 
ATOM     31  C   UNL A   1      40.748  29.926  29.657  1.00  0.00     0.074 A 
ATOM     32  C   UNL A   1      40.284  27.708  28.655  1.00  0.00     0.049 A 
ATOM     33  N   UNL A   1      42.038  29.845  29.865  1.00  0.00    -0.248 NA
ATOM     34  C   UNL A   1      40.169  31.226  30.047  1.00  0.00     0.031 C 
ATOM     35  C   UNL A   1      39.507  26.661  27.987  1.00  0.00     0.029 A 
ATOM     36  N   UNL A   1      41.536  27.161  28.775  1.00  0.00    -0.354 N 
ATOM     37  C   UNL A   1      42.422  31.089  30.359  1.00  0.00     0.074 A 
ATOM     38  C   UNL A   1      41.248  31.929  30.351  1.00  0.00     0.031 C 
ATOM     39  C   UNL A   1      40.285  25.582  27.805  1.00  0.00     0.029 A 
ATOM     40  C   UNL A   1      41.626  25.874  28.298  1.00  0.00     0.049 A 
ATOM     41  H   UNL A   1      42.300  27.645  29.166  1.00  0.00     0.167 HD
ATOM     42  C   UNL A   1      43.632  31.491  30.819  1.00  0.00     0.031 A 
ATOM     43  C   UNL A   1      42.668  25.023  28.267  1.00  0.00     0.031 A 
ATOM     44  C   UNL A   1      44.783  30.632  30.886  1.00  0.00     0.049 A 
ATOM     45  C   UNL A   1      43.986  25.466  28.841  1.00  0.00     0.074 A 
ATOM     46  C   UNL A   1      46.037  30.910  31.402  1.00  0.00     0.029 A 
ATOM     47  N   UNL A   1      44.813  29.320  30.442  1.00  0.00    -0.354 N 
ATOM     48  N   UNL A   1      44.314  26.629  29.351  1.00  0.00    -0.248 NA
ATOM     49  C   UNL A   1      45.067  24.472  28.856  1.00  0.00     0.031 C 
ATOM     50  C   UNL A   1      46.837  29.773  31.235  1.00  0.00     0.029 A 
ATOM     51  C   UNL A   1      46.064  28.772  30.668  1.00  0.00     0.049 A 
ATOM     52  H   UNL A   1      44.056  28.846  30.028  1.00  0.00     0.167 HD
ATOM     53  C   UNL A   1      45.631  26.497  29.779  1.00  0.00     0.074 A 
ATOM     54  C   UNL A   1      46.029  25.135  29.483  1.00  0.00     0.031 C 
ATOM     55  C   UNL A   1      46.438  27.415  30.367  1.00  0.00     0.031 A 
BRANCH  42  56
ATOM     56  C   UNL A   1      43.760  32.916  31.298  1.00  0.00    -0.014 A 
ATOM     57  C   UNL A   1      44.187  33.940  30.432  1.00  0.00     0.010 A 
ATOM     58  C   UNL A   1      43.429  33.240  32.626  1.00  0.00     0.010 A 
ATOM     59  C   UNL A   1      44.335  35.249  30.899  1.00  0.00     0.020 A 
ATOM     60  C   UNL A   1      43.542  34.556  33.087  1.00  0.00     0.020 A 
ATOM     61  C   UNL A   1      44.015  35.548  32.225  1.00  0.00     0.054 A 
BRANCH  61  62
ATOM     62  S   UNL A   1      44.199  37.259  32.800  1.00  0.00     0.124 S 
ATOM     63  O   UNL A   1      43.170  37.341  33.834  1.00  0.00    -0.237 OA
ATOM     64  O   UNL A   1      45.577  37.286  33.284  1.00  0.00    -0.237 OA
ATOM     65  O   UNL A   1      43.946  38.057  31.604  1.00  0.00    -0.744 OA
ENDBRANCH  61  62
ENDBRANCH  42  56
BRANCH  43  66
ATOM     66  C   UNL A   1      42.493  23.649  27.720  1.00  0.00    -0.014 A 
ATOM     67  C   UNL A   1      42.954  23.332  26.430  1.00  0.00     0.010 A 
ATOM     68  C   UNL A   1      41.881  22.644  28.492  1.00  0.00     0.010 A 
ATOM     69  C   UNL A   1      42.784  22.045  25.911  1.00  0.00     0.020 A 
ATOM     70  C   UNL A   1      41.737  21.348  27.988  1.00  0.00     0.020 A 
ATOM     71  C   UNL A   1      42.178  21.059  26.695  1.00  0.00     0.054 A 
BRANCH  71  72
ATOM     72  S   UNL A   1      42.015  19.382  26.022  1.00  0.00     0.124 S 
ATOM     73  O   UNL A   1      40.571  19.267  25.842  1.00  0.00    -0.237 OA
ATOM     74  O   UNL A   1      42.803  19.457  24.793  1.00  0.00    -0.237 OA
ATOM     75  O   UNL A   1      42.586  18.538  27.068  1.00  0.00    -0.744 OA
ENDBRANCH  71  72
ENDBRANCH  43  66
BRANCH  55  76
ATOM     76  C   UNL A   1      47.813  26.958  30.774  1.00  0.00    -0.014 A 
ATOM     77  C   UNL A   1      48.039  26.316  32.003  1.00  0.00     0.010 A 
ATOM     78  C   UNL A   1      48.893  27.164  29.896  1.00  0.00     0.010 A 
ATOM     79  C   UNL A   1      49.332  25.936  32.371  1.00  0.00     0.020 A 
ATOM     80  C   UNL A   1      50.181  26.756  30.247  1.00  0.00     0.020 A 
ATOM     81  C   UNL A   1      50.397  26.166  31.494  1.00  0.00     0.054 A 
BRANCH  81  82
ATOM     82  S   UNL A   1      52.065  25.663  31.991  1.00  0.00     0.124 S 
ATOM     83  O   UNL A   1      52.844  25.977  30.796  1.00  0.00    -0.237 OA
ATOM     84  O   UNL A   1      52.325  26.511  33.152  1.00  0.00    -0.237 OA
ATOM     85  O   UNL A   1      51.924  24.239  32.287  1.00  0.00    -0.744 OA
ENDBRANCH  81  82
ENDBRANCH  55  76
ENDBRANCH  29  30
ENDBRANCH  21  24
ENDBRANCH  19  20
ENDBRANCH  18  19
ENDBRANCH   1  18
TORSDOF 18
ENDMDL
MODEL 3
REMARK VINA RESULT:      -9.0      3.021      5.351
REMARK SMILES C[C@H](C[N@@H+](C)[C@@H](C)[C@@H](C)O)C(=O)NCCCNC(=O)c1ccc(-c2c3nc(c(-c4ccc(S(=O)(=O)[O-])cc4)c4ccc([nH]4)c(-c4ccc(S(=O)(=O)[O-])cc4)c4nc(c(-c5ccc(S(=O)(=O)[O-])cc5)c5ccc2[nH]5)C=C4)C=C3)cc1
REMARK SMILES IDX 14 1 13 2 11 3 12 4 2 6 1 7 3 8 4 9 5 10 6 12 7 13 8 14 9 15
REMARK SMILES IDX 10 16 15 18 16 19 17 20 18 21 19 23 20 24 21 25 79 26 22 27
REMARK SMILES IDX 78 28 23 29 24 30 25 31 72 32 26 33 77 34 71 35 73 36 27 37
REMARK SMILES IDX 76 38 70 39 69 40 28 42 58 43 39 44 57 45 40 46 43 47 56 48
REMARK SMILES IDX 74 49 41 50 42 51 55 53 75 54 44 55 29 56 30 57 38 58 31 59
REMARK SMILES IDX 37 60 32 61 33 62 34 63 35 64 36 65 59 66 60 67 68 68 61 69
REMARK SMILES IDX 67 70 62 71 63 72 64 73 65 74 66 75 45 76 46 77 54 78 47 79
REMARK SMILES IDX 53 80 48 81 49 82 50 83 51 84 52 85
REMARK H PARENT 13 5 4 11 10 17 17 22 73 41 43 52
REMARK Flexibility Score: inf
ROOT
ATOM      1  C   UNL A   1      33.922  26.284  25.664  1.00  0.00     0.117 C 
ENDROOT
BRANCH   1   2
ATOM      2  N   UNL A   1      33.793  25.866  24.287  1.00  0.00    -0.356 N 
ATOM      3  C   UNL A   1      32.708  25.506  23.557  1.00  0.00     0.228 C 
ATOM      4  O   UNL A   1      32.906  25.351  22.345  1.00  0.00    -0.275 OA
ATOM      5  H   UNL A   1      34.643  25.836  23.791  1.00  0.00     0.163 HD
BRANCH   3   6
ATOM      6  C   UNL A   1      31.279  25.353  24.105  1.00  0.00     0.130 C 
ATOM      7  C   UNL A   1      30.572  24.161  23.456  1.00  0.00     0.024 C 
BRANCH   6   8
ATOM      8  C   UNL A   1      30.447  26.633  24.393  1.00  0.00     0.275 C 
BRANCH   8   9
ATOM      9  N   UNL A   1      29.872  27.450  23.279  1.00  0.00    -0.332 N 
ATOM     10  C   UNL A   1      28.402  27.483  23.450  1.00  0.00     0.333 C 
ATOM     11  H   UNL A   1      30.179  26.985  22.425  1.00  0.00     0.348 HD
BRANCH   9  12
ATOM     12  C   UNL A   1      30.375  28.858  23.126  1.00  0.00     0.209 C 
ATOM     13  C   UNL A   1      31.887  28.952  22.818  1.00  0.00     0.078 C 
BRANCH  12  14
ATOM     14  C   UNL A   1      29.452  29.800  22.272  1.00  0.00     0.169 C 
ATOM     15  C   UNL A   1      28.990  31.032  23.042  1.00  0.00     0.045 C 
BRANCH  14  16
ATOM     16  O   UNL A   1      30.048  30.232  21.048  1.00  0.00    -0.387 OA
ATOM     17  H   UNL A   1      29.359  30.569  20.454  1.00  0.00     0.211 HD
ENDBRANCH  14  16
ENDBRANCH  12  14
ENDBRANCH   9  12
ENDBRANCH   8   9
ENDBRANCH   6   8
ENDBRANCH   3   6
ENDBRANCH   1   2
BRANCH   1  18
ATOM     18  C   UNL A   1      33.828  27.788  25.849  1.00  0.00     0.042 C 
BRANCH  18  19
ATOM     19  C   UNL A   1      33.483  28.186  27.272  1.00  0.00     0.118 C 
BRANCH  19  20
ATOM     20  N   UNL A   1      33.494  29.631  27.483  1.00  0.00    -0.352 N 
ATOM     21  C   UNL A   1      34.438  30.534  27.914  1.00  0.00     0.251 C 
ATOM     22  H   UNL A   1      32.632  30.055  27.266  1.00  0.00     0.163 HD
ATOM     23  O   UNL A   1      34.086  31.697  28.078  1.00  0.00    -0.269 OA
BRANCH  21  24
ATOM     24  C   UNL A   1      35.842  30.154  28.224  1.00  0.00     0.039 A 
ATOM     25  C   UNL A   1      36.132  29.639  29.495  1.00  0.00     0.014 A 
ATOM     26  C   UNL A   1      36.889  30.331  27.327  1.00  0.00     0.014 A 
ATOM     27  C   UNL A   1      37.440  29.263  29.827  1.00  0.00     0.010 A 
ATOM     28  C   UNL A   1      38.146  29.801  27.592  1.00  0.00     0.010 A 
ATOM     29  C   UNL A   1      38.457  29.306  28.861  1.00  0.00    -0.014 A 
BRANCH  29  30
ATOM     30  C   UNL A   1      39.861  28.915  29.162  1.00  0.00     0.031 A 
ATOM     31  C   UNL A   1      40.791  29.902  29.834  1.00  0.00     0.074 A 
ATOM     32  C   UNL A   1      40.327  27.711  28.775  1.00  0.00     0.049 A 
ATOM     33  N   UNL A   1      42.071  29.796  30.085  1.00  0.00    -0.248 NA
ATOM     34  C   UNL A   1      40.218  31.203  30.229  1.00  0.00     0.031 C 
ATOM     35  C   UNL A   1      39.557  26.689  28.060  1.00  0.00     0.029 A 
ATOM     36  N   UNL A   1      41.566  27.141  28.927  1.00  0.00    -0.354 N 
ATOM     37  C   UNL A   1      42.457  31.024  30.616  1.00  0.00     0.074 A 
ATOM     38  C   UNL A   1      41.298  31.883  30.583  1.00  0.00     0.031 C 
ATOM     39  C   UNL A   1      40.325  25.601  27.884  1.00  0.00     0.029 A 
ATOM     40  C   UNL A   1      41.652  25.862  28.428  1.00  0.00     0.049 A 
ATOM     41  H   UNL A   1      42.323  27.605  29.353  1.00  0.00     0.167 HD
ATOM     42  C   UNL A   1      43.657  31.397  31.124  1.00  0.00     0.031 A 
ATOM     43  C   UNL A   1      42.681  24.995  28.417  1.00  0.00     0.031 A 
ATOM     44  C   UNL A   1      44.792  30.519  31.214  1.00  0.00     0.049 A 
ATOM     45  C   UNL A   1      43.985  25.405  29.044  1.00  0.00     0.074 A 
ATOM     46  C   UNL A   1      46.031  30.766  31.778  1.00  0.00     0.029 A 
ATOM     47  N   UNL A   1      44.816  29.215  30.747  1.00  0.00    -0.354 N 
ATOM     48  N   UNL A   1      44.314  26.553  29.587  1.00  0.00    -0.248 NA
ATOM     49  C   UNL A   1      45.049  24.394  29.078  1.00  0.00     0.031 C 
ATOM     50  C   UNL A   1      46.818  29.621  31.617  1.00  0.00     0.029 A 
ATOM     51  C   UNL A   1      46.050  28.643  31.005  1.00  0.00     0.049 A 
ATOM     52  H   UNL A   1      44.066  28.761  30.298  1.00  0.00     0.167 HD
ATOM     53  C   UNL A   1      45.613  26.392  30.058  1.00  0.00     0.074 A 
ATOM     54  C   UNL A   1      45.999  25.029  29.750  1.00  0.00     0.031 C 
ATOM     55  C   UNL A   1      46.413  27.285  30.691  1.00  0.00     0.031 A 
BRANCH  42  56
ATOM     56  C   UNL A   1      43.790  32.811  31.635  1.00  0.00    -0.014 A 
ATOM     57  C   UNL A   1      44.076  33.877  30.762  1.00  0.00     0.010 A 
ATOM     58  C   UNL A   1      43.607  33.081  33.003  1.00  0.00     0.010 A 
ATOM     59  C   UNL A   1      44.232  35.176  31.253  1.00  0.00     0.020 A 
ATOM     60  C   UNL A   1      43.728  34.386  33.494  1.00  0.00     0.020 A 
ATOM     61  C   UNL A   1      44.060  35.422  32.618  1.00  0.00     0.054 A 
BRANCH  61  62
ATOM     62  S   UNL A   1      44.251  37.120  33.227  1.00  0.00     0.124 S 
ATOM     63  O   UNL A   1      45.495  37.028  33.988  1.00  0.00    -0.237 OA
ATOM     64  O   UNL A   1      44.329  37.895  31.991  1.00  0.00    -0.237 OA
ATOM     65  O   UNL A   1      43.048  37.341  34.023  1.00  0.00    -0.744 OA
ENDBRANCH  61  62
ENDBRANCH  42  56
BRANCH  43  66
ATOM     66  C   UNL A   1      42.503  23.634  27.838  1.00  0.00    -0.014 A 
ATOM     67  C   UNL A   1      42.760  23.401  26.476  1.00  0.00     0.010 A 
ATOM     68  C   UNL A   1      42.095  22.560  28.649  1.00  0.00     0.010 A 
ATOM     69  C   UNL A   1      42.588  22.126  25.928  1.00  0.00     0.020 A 
ATOM     70  C   UNL A   1      41.950  21.277  28.111  1.00  0.00     0.020 A 
ATOM     71  C   UNL A   1      42.185  21.071  26.750  1.00  0.00     0.054 A 
BRANCH  71  72
ATOM     72  S   UNL A   1      42.017  19.414  26.029  1.00  0.00     0.124 S 
ATOM     73  O   UNL A   1      42.811  19.533  24.809  1.00  0.00    -0.237 OA
ATOM     74  O   UNL A   1      42.581  18.558  27.070  1.00  0.00    -0.237 OA
ATOM     75  O   UNL A   1      40.577  19.274  25.829  1.00  0.00    -0.744 OA
ENDBRANCH  71  72
ENDBRANCH  43  66
BRANCH  55  76
ATOM     76  C   UNL A   1      47.765  26.799  31.137  1.00  0.00    -0.014 A 
ATOM     77  C   UNL A   1      48.875  26.825  30.276  1.00  0.00     0.010 A 
ATOM     78  C   UNL A   1      47.926  26.324  32.452  1.00  0.00     0.010 A 
ATOM     79  C   UNL A   1      50.111  26.333  30.705  1.00  0.00     0.020 A 
ATOM     80  C   UNL A   1      49.166  25.862  32.894  1.00  0.00     0.020 A 
ATOM     81  C   UNL A   1      50.246  25.847  32.009  1.00  0.00     0.054 A 
BRANCH  81  82
ATOM     82  S   UNL A   1      51.858  25.216  32.544  1.00  0.00     0.124 S 
ATOM     83  O   UNL A   1      51.759  23.800  32.198  1.00  0.00    -0.237 OA
ATOM     84  O   UNL A   1      52.794  25.995  31.737  1.00  0.00    -0.237 OA
ATOM     85  O   UNL A   1      51.887  25.507  33.976  1.00  0.00    -0.744 OA
ENDBRANCH  81  82
ENDBRANCH  55  76
ENDBRANCH  29  30
ENDBRANCH  21  24
ENDBRANCH  19  20
ENDBRANCH  18  19
ENDBRANCH   1  18
TORSDOF 18
ENDMDL
