MODEL 1
REMARK VINA RESULT:     -10.9      0.000      0.000
REMARK SMILES COc1cc(/C=C2\SC(=S)N([C@H](C)C(=O)NCCCNC(=O)c3ccc(-c4c5nc(c(-c6ccc(S(=O)(=O)[O-])cc6)c6ccc([nH]6)c(-c6ccc(S(=O)(=O)[O-])cc6)c6nc(c(-c7ccc(S(=O)(=O)[O-])cc7)c7ccc4[nH]7)C=C6)C=C5)cc3)C2=O)ccc1OCc1ccc(Cl)cc1Cl
REMARK SMILES IDX 17 1 16 2 14 3 15 4 12 6 13 7 11 8 6 9 7 10 8 11 83 12 9 13
REMARK SMILES IDX 84 14 10 15 5 16 3 17 4 18 87 19 86 20 85 21 2 22 1 23 88 24
REMARK SMILES IDX 89 25 90 26 91 27 96 28 92 29 95 30 97 31 93 32 94 33 18 34
REMARK SMILES IDX 19 35 20 36 21 37 22 39 23 40 24 41 82 42 25 43 81 44 26 45
REMARK SMILES IDX 27 46 28 47 75 48 29 49 80 50 74 51 76 52 30 53 79 54 73 55
REMARK SMILES IDX 72 56 31 58 61 59 42 60 60 61 43 62 46 63 59 64 77 65 44 66
REMARK SMILES IDX 45 67 58 69 78 70 47 71 32 72 33 73 41 74 34 75 40 76 35 77
REMARK SMILES IDX 36 78 37 79 38 80 39 81 62 82 63 83 71 84 64 85 70 86 65 87
REMARK SMILES IDX 66 88 67 89 68 90 69 91 48 92 49 93 57 94 50 95 56 96 51 97
REMARK SMILES IDX 52 98 53 99 54 100 55 101
REMARK H PARENT 16 5 20 38 76 57 46 68
REMARK Flexibility Score: inf
ROOT
ATOM      1  C   UNL A   1      34.995  24.056  24.554  1.00  0.00     0.117 C 
ENDROOT
BRANCH   1   2
ATOM      2  N   UNL A   1      33.899  23.385  25.228  1.00  0.00    -0.354 N 
ATOM      3  C   UNL A   1      32.573  23.356  24.925  1.00  0.00     0.242 C 
ATOM      4  O   UNL A   1      31.909  22.467  25.473  1.00  0.00    -0.273 OA
ATOM      5  H   UNL A   1      34.156  22.872  26.028  1.00  0.00     0.163 HD
BRANCH   3   6
ATOM      6  C   UNL A   1      31.916  24.265  23.862  1.00  0.00     0.178 C 
ATOM      7  C   UNL A   1      30.495  23.897  23.444  1.00  0.00     0.042 C 
BRANCH   6   8
ATOM      8  N   UNL A   1      32.193  25.675  24.201  1.00  0.00    -0.281 N 
ATOM      9  C   UNL A   1      32.914  27.859  26.951  1.00  0.00     0.029 C 
ATOM     10  C   UNL A   1      32.715  27.401  25.709  1.00  0.00     0.081 C 
ATOM     11  S   UNL A   1      33.240  28.045  24.216  1.00  0.00    -0.054 SA
ATOM     12  C   UNL A   1      31.964  26.150  25.476  1.00  0.00     0.266 C 
ATOM     13  C   UNL A   1      32.786  26.581  23.339  1.00  0.00     0.149 C 
ATOM     14  O   UNL A   1      31.220  25.686  26.324  1.00  0.00    -0.268 OA
ATOM     15  S   UNL A   1      33.061  26.442  21.699  1.00  0.00    -0.052 S 
BRANCH   9  16
ATOM     16  C   UNL A   1      33.531  29.144  27.258  1.00  0.00    -0.020 A 
ATOM     17  C   UNL A   1      35.450  30.540  27.793  1.00  0.00     0.161 A 
ATOM     18  C   UNL A   1      34.898  29.274  27.532  1.00  0.00     0.058 A 
ATOM     19  C   UNL A   1      34.629  31.679  27.740  1.00  0.00     0.161 A 
ATOM     20  C   UNL A   1      33.264  31.527  27.464  1.00  0.00     0.051 A 
ATOM     21  C   UNL A   1      32.714  30.272  27.239  1.00  0.00     0.012 A 
BRANCH  17  22
ATOM     22  O   UNL A   1      36.794  30.679  28.022  1.00  0.00    -0.493 OA
ATOM     23  C   UNL A   1      37.193  30.468  29.376  1.00  0.00     0.278 C 
ENDBRANCH  17  22
BRANCH  19  24
ATOM     24  O   UNL A   1      34.947  32.990  27.971  1.00  0.00    -0.485 OA
BRANCH  24  25
ATOM     25  C   UNL A   1      34.041  33.852  28.658  1.00  0.00     0.267 C 
BRANCH  25  26
ATOM     26  C   UNL A   1      34.261  33.958  30.156  1.00  0.00     0.008 A 
ATOM     27  C   UNL A   1      34.855  32.910  30.884  1.00  0.00     0.010 A 
ATOM     28  C   UNL A   1      33.876  35.114  30.859  1.00  0.00     0.049 A 
ATOM     29  C   UNL A   1      35.130  33.043  32.246  1.00  0.00     0.021 A 
ATOM     30  C   UNL A   1      34.140  35.245  32.224  1.00  0.00     0.041 A 
ATOM     31  Cl  UNL A   1      33.068  36.427  30.074  1.00  0.00    -0.084 Cl
ATOM     32  C   UNL A   1      34.781  34.216  32.906  1.00  0.00     0.042 A 
ATOM     33  Cl  UNL A   1      35.139  34.393  34.579  1.00  0.00    -0.084 Cl
ENDBRANCH  25  26
ENDBRANCH  24  25
ENDBRANCH  19  24
ENDBRANCH   9  16
ENDBRANCH   6   8
ENDBRANCH   3   6
ENDBRANCH   1   2
BRANCH   1  34
ATOM     34  C   UNL A   1      36.285  23.263  24.502  1.00  0.00     0.042 C 
BRANCH  34  35
ATOM     35  C   UNL A   1      37.049  23.217  25.814  1.00  0.00     0.118 C 
BRANCH  35  36
ATOM     36  N   UNL A   1      37.883  22.030  25.968  1.00  0.00    -0.352 N 
ATOM     37  C   UNL A   1      39.187  21.879  26.386  1.00  0.00     0.251 C 
ATOM     38  H   UNL A   1      37.433  21.187  25.732  1.00  0.00     0.163 HD
ATOM     39  O   UNL A   1      39.710  20.769  26.311  1.00  0.00    -0.269 OA
BRANCH  37  40
ATOM     40  C   UNL A   1      39.973  23.034  26.878  1.00  0.00     0.039 A 
ATOM     41  C   UNL A   1      41.037  22.811  27.758  1.00  0.00     0.014 A 
ATOM     42  C   UNL A   1      39.678  24.336  26.480  1.00  0.00     0.014 A 
ATOM     43  C   UNL A   1      41.859  23.875  28.144  1.00  0.00     0.010 A 
ATOM     44  C   UNL A   1      40.569  25.367  26.755  1.00  0.00     0.010 A 
ATOM     45  C   UNL A   1      41.671  25.154  27.595  1.00  0.00    -0.014 A 
BRANCH  45  46
ATOM     46  C   UNL A   1      42.595  26.286  27.879  1.00  0.00     0.031 A 
ATOM     47  C   UNL A   1      42.300  27.235  29.014  1.00  0.00     0.074 A 
ATOM     48  C   UNL A   1      43.640  26.525  27.060  1.00  0.00     0.049 A 
ATOM     49  N   UNL A   1      42.899  28.355  29.331  1.00  0.00    -0.248 NA
ATOM     50  C   UNL A   1      41.155  26.906  29.880  1.00  0.00     0.031 C 
ATOM     51  C   UNL A   1      44.005  25.724  25.888  1.00  0.00     0.029 A 
ATOM     52  N   UNL A   1      44.584  27.523  27.081  1.00  0.00    -0.354 N 
ATOM     53  C   UNL A   1      42.179  28.881  30.398  1.00  0.00     0.074 A 
ATOM     54  C   UNL A   1      41.070  27.986  30.642  1.00  0.00     0.031 C 
ATOM     55  C   UNL A   1      45.107  26.243  25.324  1.00  0.00     0.029 A 
ATOM     56  C   UNL A   1      45.503  27.437  26.062  1.00  0.00     0.049 A 
ATOM     57  H   UNL A   1      44.600  28.234  27.762  1.00  0.00     0.167 HD
ATOM     58  C   UNL A   1      42.429  29.993  31.129  1.00  0.00     0.031 A 
ATOM     59  C   UNL A   1      46.545  28.232  25.748  1.00  0.00     0.031 A 
ATOM     60  C   UNL A   1      43.562  30.855  30.920  1.00  0.00     0.049 A 
ATOM     61  C   UNL A   1      46.833  29.434  26.603  1.00  0.00     0.074 A 
ATOM     62  C   UNL A   1      43.946  31.962  31.656  1.00  0.00     0.029 A 
ATOM     63  N   UNL A   1      44.499  30.698  29.911  1.00  0.00    -0.354 N 
ATOM     64  N   UNL A   1      46.171  29.882  27.643  1.00  0.00    -0.248 NA
ATOM     65  C   UNL A   1      48.017  30.232  26.251  1.00  0.00     0.031 C 
ATOM     66  C   UNL A   1      45.098  32.497  31.069  1.00  0.00     0.029 A 
ATOM     67  C   UNL A   1      45.456  31.693  29.997  1.00  0.00     0.049 A 
ATOM     68  H   UNL A   1      44.485  29.984  29.233  1.00  0.00     0.167 HD
ATOM     69  C   UNL A   1      46.871  31.000  28.083  1.00  0.00     0.074 A 
ATOM     70  C   UNL A   1      48.014  31.152  27.206  1.00  0.00     0.031 C 
ATOM     71  C   UNL A   1      46.590  31.827  29.119  1.00  0.00     0.031 A 
BRANCH  58  72
ATOM     72  C   UNL A   1      41.462  30.334  32.233  1.00  0.00    -0.014 A 
ATOM     73  C   UNL A   1      41.740  29.998  33.570  1.00  0.00     0.010 A 
ATOM     74  C   UNL A   1      40.276  31.029  31.935  1.00  0.00     0.010 A 
ATOM     75  C   UNL A   1      40.829  30.307  34.583  1.00  0.00     0.020 A 
ATOM     76  C   UNL A   1      39.375  31.368  32.949  1.00  0.00     0.020 A 
ATOM     77  C   UNL A   1      39.649  30.987  34.265  1.00  0.00     0.054 A 
BRANCH  77  78
ATOM     78  S   UNL A   1      38.494  31.396  35.602  1.00  0.00     0.124 S 
ATOM     79  O   UNL A   1      37.291  31.760  34.856  1.00  0.00    -0.237 OA
ATOM     80  O   UNL A   1      38.413  30.145  36.351  1.00  0.00    -0.237 OA
ATOM     81  O   UNL A   1      39.151  32.497  36.302  1.00  0.00    -0.744 OA
ENDBRANCH  77  78
ENDBRANCH  58  72
BRANCH  59  82
ATOM     82  C   UNL A   1      47.406  27.900  24.581  1.00  0.00    -0.014 A 
ATOM     83  C   UNL A   1      47.048  28.326  23.289  1.00  0.00     0.010 A 
ATOM     84  C   UNL A   1      48.602  27.180  24.757  1.00  0.00     0.010 A 
ATOM     85  C   UNL A   1      47.863  28.026  22.193  1.00  0.00     0.020 A 
ATOM     86  C   UNL A   1      49.431  26.900  23.666  1.00  0.00     0.020 A 
ATOM     87  C   UNL A   1      49.051  27.317  22.389  1.00  0.00     0.054 A 
BRANCH  87  88
ATOM     88  S   UNL A   1      50.124  26.995  20.961  1.00  0.00     0.124 S 
ATOM     89  O   UNL A   1      51.366  26.576  21.603  1.00  0.00    -0.237 OA
ATOM     90  O   UNL A   1      49.396  25.948  20.247  1.00  0.00    -0.237 OA
ATOM     91  O   UNL A   1      50.176  28.284  20.276  1.00  0.00    -0.744 OA
ENDBRANCH  87  88
ENDBRANCH  59  82
BRANCH  71  92
ATOM     92  C   UNL A   1      47.550  32.953  29.388  1.00  0.00    -0.014 A 
ATOM     93  C   UNL A   1      48.685  32.764  30.195  1.00  0.00     0.010 A 
ATOM     94  C   UNL A   1      47.345  34.201  28.771  1.00  0.00     0.010 A 
ATOM     95  C   UNL A   1      49.584  33.812  30.403  1.00  0.00     0.020 A 
ATOM     96  C   UNL A   1      48.254  35.243  28.958  1.00  0.00     0.020 A 
ATOM     97  C   UNL A   1      49.362  35.047  29.783  1.00  0.00     0.054 A 
BRANCH  97  98
ATOM     98  S   UNL A   1      50.568  36.378  30.030  1.00  0.00     0.124 S 
ATOM     99  O   UNL A   1      51.036  36.620  28.669  1.00  0.00    -0.237 OA
ATOM    100  O   UNL A   1      49.758  37.443  30.616  1.00  0.00    -0.237 OA
ATOM    101  O   UNL A   1      51.555  35.787  30.933  1.00  0.00    -0.744 OA
ENDBRANCH  97  98
ENDBRANCH  71  92
ENDBRANCH  45  46
ENDBRANCH  37  40
ENDBRANCH  35  36
ENDBRANCH  34  35
ENDBRANCH   1  34
TORSDOF 19
ENDMDL
MODEL 2
REMARK VINA RESULT:     -10.8      0.997      7.819
REMARK SMILES COc1cc(/C=C2\SC(=S)N([C@H](C)C(=O)NCCCNC(=O)c3ccc(-c4c5nc(c(-c6ccc(S(=O)(=O)[O-])cc6)c6ccc([nH]6)c(-c6ccc(S(=O)(=O)[O-])cc6)c6nc(c(-c7ccc(S(=O)(=O)[O-])cc7)c7ccc4[nH]7)C=C6)C=C5)cc3)C2=O)ccc1OCc1ccc(Cl)cc1Cl
REMARK SMILES IDX 17 1 16 2 14 3 15 4 12 6 13 7 11 8 6 9 7 10 8 11 83 12 9 13
REMARK SMILES IDX 84 14 10 15 5 16 3 17 4 18 87 19 86 20 85 21 2 22 1 23 88 24
REMARK SMILES IDX 89 25 90 26 91 27 96 28 92 29 95 30 97 31 93 32 94 33 18 34
REMARK SMILES IDX 19 35 20 36 21 37 22 39 23 40 24 41 82 42 25 43 81 44 26 45
REMARK SMILES IDX 27 46 28 47 75 48 29 49 80 50 74 51 76 52 30 53 79 54 73 55
REMARK SMILES IDX 72 56 31 58 61 59 42 60 60 61 43 62 46 63 59 64 77 65 44 66
REMARK SMILES IDX 45 67 58 69 78 70 47 71 32 72 33 73 41 74 34 75 40 76 35 77
REMARK SMILES IDX 36 78 37 79 38 80 39 81 62 82 63 83 71 84 64 85 70 86 65 87
REMARK SMILES IDX 66 88 67 89 68 90 69 91 48 92 49 93 57 94 50 95 56 96 51 97
REMARK SMILES IDX 52 98 53 99 54 100 55 101
REMARK H PARENT 16 5 20 38 76 57 46 68
REMARK Flexibility Score: inf
ROOT
ATOM      1  C   UNL A   1      34.763  23.833  24.528  1.00  0.00     0.117 C 
ENDROOT
BRANCH   1   2
ATOM      2  N   UNL A   1      33.601  23.388  25.276  1.00  0.00    -0.354 N 
ATOM      3  C   UNL A   1      32.277  23.580  25.030  1.00  0.00     0.242 C 
ATOM      4  O   UNL A   1      31.497  22.841  25.642  1.00  0.00    -0.273 OA
ATOM      5  H   UNL A   1      33.803  22.867  26.086  1.00  0.00     0.163 HD
BRANCH   3   6
ATOM      6  C   UNL A   1      31.736  24.551  23.956  1.00  0.00     0.178 C 
ATOM      7  C   UNL A   1      30.282  24.353  23.535  1.00  0.00     0.042 C 
BRANCH   6   8
ATOM      8  N   UNL A   1      32.180  25.921  24.284  1.00  0.00    -0.281 N 
ATOM      9  C   UNL A   1      33.059  28.056  27.026  1.00  0.00     0.029 C 
ATOM     10  C   UNL A   1      32.856  27.599  25.784  1.00  0.00     0.081 C 
ATOM     11  S   UNL A   1      33.525  28.135  24.306  1.00  0.00    -0.054 SA
ATOM     12  C   UNL A   1      31.960  26.451  25.538  1.00  0.00     0.266 C 
ATOM     13  C   UNL A   1      32.922  26.723  23.434  1.00  0.00     0.149 C 
ATOM     14  O   UNL A   1      31.125  26.106  26.359  1.00  0.00    -0.268 OA
ATOM     15  S   UNL A   1      33.247  26.512  21.811  1.00  0.00    -0.052 S 
BRANCH   9  16
ATOM     16  C   UNL A   1      33.824  29.256  27.340  1.00  0.00    -0.020 A 
ATOM     17  C   UNL A   1      35.908  30.429  27.784  1.00  0.00     0.161 A 
ATOM     18  C   UNL A   1      35.213  29.238  27.512  1.00  0.00     0.058 A 
ATOM     19  C   UNL A   1      35.206  31.644  27.843  1.00  0.00     0.161 A 
ATOM     20  C   UNL A   1      33.816  31.641  27.668  1.00  0.00     0.051 A 
ATOM     21  C   UNL A   1      33.127  30.459  27.432  1.00  0.00     0.012 A 
BRANCH  17  22
ATOM     22  O   UNL A   1      37.272  30.424  27.913  1.00  0.00    -0.493 OA
ATOM     23  C   UNL A   1      37.781  29.457  28.833  1.00  0.00     0.278 C 
ENDBRANCH  17  22
BRANCH  19  24
ATOM     24  O   UNL A   1      35.671  32.904  28.105  1.00  0.00    -0.485 OA
BRANCH  24  25
ATOM     25  C   UNL A   1      34.851  34.049  27.876  1.00  0.00     0.267 C 
BRANCH  25  26
ATOM     26  C   UNL A   1      34.287  34.700  29.126  1.00  0.00     0.008 A 
ATOM     27  C   UNL A   1      33.196  35.588  29.059  1.00  0.00     0.010 A 
ATOM     28  C   UNL A   1      34.841  34.429  30.389  1.00  0.00     0.049 A 
ATOM     29  C   UNL A   1      32.628  36.120  30.217  1.00  0.00     0.021 A 
ATOM     30  C   UNL A   1      34.281  34.969  31.549  1.00  0.00     0.041 A 
ATOM     31  Cl  UNL A   1      36.230  33.415  30.573  1.00  0.00    -0.084 Cl
ATOM     32  C   UNL A   1      33.168  35.798  31.457  1.00  0.00     0.042 A 
ATOM     33  Cl  UNL A   1      32.455  36.434  32.889  1.00  0.00    -0.084 Cl
ENDBRANCH  25  26
ENDBRANCH  24  25
ENDBRANCH  19  24
ENDBRANCH   9  16
ENDBRANCH   6   8
ENDBRANCH   3   6
ENDBRANCH   1   2
BRANCH   1  34
ATOM     34  C   UNL A   1      35.932  22.870  24.547  1.00  0.00     0.042 C 
BRANCH  34  35
ATOM     35  C   UNL A   1      36.818  22.980  25.777  1.00  0.00     0.118 C 
BRANCH  35  36
ATOM     36  N   UNL A   1      37.802  21.909  25.891  1.00  0.00    -0.352 N 
ATOM     37  C   UNL A   1      39.117  21.917  26.302  1.00  0.00     0.251 C 
ATOM     38  H   UNL A   1      37.466  21.022  25.628  1.00  0.00     0.163 HD
ATOM     39  O   UNL A   1      39.781  20.889  26.190  1.00  0.00    -0.269 OA
BRANCH  37  40
ATOM     40  C   UNL A   1      39.747  23.149  26.830  1.00  0.00     0.039 A 
ATOM     41  C   UNL A   1      40.842  23.040  27.693  1.00  0.00     0.014 A 
ATOM     42  C   UNL A   1      39.276  24.413  26.481  1.00  0.00     0.014 A 
ATOM     43  C   UNL A   1      41.519  24.191  28.112  1.00  0.00     0.010 A 
ATOM     44  C   UNL A   1      40.024  25.544  26.787  1.00  0.00     0.010 A 
ATOM     45  C   UNL A   1      41.155  25.451  27.610  1.00  0.00    -0.014 A 
BRANCH  45  46
ATOM     46  C   UNL A   1      41.922  26.686  27.929  1.00  0.00     0.031 A 
ATOM     47  C   UNL A   1      43.138  27.052  27.115  1.00  0.00     0.074 A 
ATOM     48  C   UNL A   1      41.593  27.424  29.010  1.00  0.00     0.049 A 
ATOM     49  N   UNL A   1      44.016  28.001  27.320  1.00  0.00    -0.248 NA
ATOM     50  C   UNL A   1      43.431  26.215  25.938  1.00  0.00     0.031 C 
ATOM     51  C   UNL A   1      40.480  27.149  29.923  1.00  0.00     0.029 A 
ATOM     52  N   UNL A   1      42.175  28.553  29.534  1.00  0.00    -0.354 N 
ATOM     53  C   UNL A   1      44.981  27.845  26.332  1.00  0.00     0.074 A 
ATOM     54  C   UNL A   1      44.610  26.683  25.557  1.00  0.00     0.031 C 
ATOM     55  C   UNL A   1      40.441  28.098  30.871  1.00  0.00     0.029 A 
ATOM     56  C   UNL A   1      41.551  29.023  30.665  1.00  0.00     0.049 A 
ATOM     57  H   UNL A   1      42.965  28.985  29.136  1.00  0.00     0.167 HD
ATOM     58  C   UNL A   1      46.066  28.614  26.071  1.00  0.00     0.031 A 
ATOM     59  C   UNL A   1      41.839  30.075  31.457  1.00  0.00     0.031 A 
ATOM     60  C   UNL A   1      46.406  29.801  26.809  1.00  0.00     0.049 A 
ATOM     61  C   UNL A   1      43.019  30.943  31.120  1.00  0.00     0.074 A 
ATOM     62  C   UNL A   1      47.440  30.690  26.575  1.00  0.00     0.029 A 
ATOM     63  N   UNL A   1      45.713  30.270  27.914  1.00  0.00    -0.354 N 
ATOM     64  N   UNL A   1      43.887  30.810  30.145  1.00  0.00    -0.248 NA
ATOM     65  C   UNL A   1      43.252  32.111  31.981  1.00  0.00     0.031 C 
ATOM     66  C   UNL A   1      47.393  31.681  27.562  1.00  0.00     0.029 A 
ATOM     67  C   UNL A   1      46.302  31.433  28.380  1.00  0.00     0.049 A 
ATOM     68  H   UNL A   1      44.920  29.840  28.308  1.00  0.00     0.167 HD
ATOM     69  C   UNL A   1      44.755  31.890  30.262  1.00  0.00     0.074 A 
ATOM     70  C   UNL A   1      44.299  32.674  31.393  1.00  0.00     0.031 C 
ATOM     71  C   UNL A   1      45.833  32.203  29.503  1.00  0.00     0.031 A 
BRANCH  58  72
ATOM     72  C   UNL A   1      46.957  28.197  24.930  1.00  0.00    -0.014 A 
ATOM     73  C   UNL A   1      48.101  27.411  25.153  1.00  0.00     0.010 A 
ATOM     74  C   UNL A   1      46.627  28.567  23.614  1.00  0.00     0.010 A 
ATOM     75  C   UNL A   1      48.927  27.043  24.088  1.00  0.00     0.020 A 
ATOM     76  C   UNL A   1      47.434  28.176  22.541  1.00  0.00     0.020 A 
ATOM     77  C   UNL A   1      48.590  27.432  22.788  1.00  0.00     0.054 A 
BRANCH  77  78
ATOM     78  S   UNL A   1      49.667  26.921  21.421  1.00  0.00     0.124 S 
ATOM     79  O   UNL A   1      49.636  28.102  20.560  1.00  0.00    -0.237 OA
ATOM     80  O   UNL A   1      50.939  26.667  22.091  1.00  0.00    -0.237 OA
ATOM     81  O   UNL A   1      49.003  25.738  20.880  1.00  0.00    -0.744 OA
ENDBRANCH  77  78
ENDBRANCH  58  72
BRANCH  59  82
ATOM     82  C   UNL A   1      40.979  30.377  32.633  1.00  0.00    -0.014 A 
ATOM     83  C   UNL A   1      41.272  29.818  33.890  1.00  0.00     0.010 A 
ATOM     84  C   UNL A   1      39.880  31.246  32.510  1.00  0.00     0.010 A 
ATOM     85  C   UNL A   1      40.473  30.111  34.999  1.00  0.00     0.020 A 
ATOM     86  C   UNL A   1      39.093  31.560  33.622  1.00  0.00     0.020 A 
ATOM     87  C   UNL A   1      39.389  30.983  34.858  1.00  0.00     0.054 A 
BRANCH  87  88
ATOM     88  S   UNL A   1      38.404  31.398  36.325  1.00  0.00     0.124 S 
ATOM     89  O   UNL A   1      37.314  32.178  35.748  1.00  0.00    -0.237 OA
ATOM     90  O   UNL A   1      38.037  30.082  36.844  1.00  0.00    -0.237 OA
ATOM     91  O   UNL A   1      39.338  32.149  37.161  1.00  0.00    -0.744 OA
ENDBRANCH  87  88
ENDBRANCH  59  82
BRANCH  71  92
ATOM     92  C   UNL A   1      46.579  33.464  29.844  1.00  0.00    -0.014 A 
ATOM     93  C   UNL A   1      46.295  34.676  29.191  1.00  0.00     0.010 A 
ATOM     94  C   UNL A   1      47.534  33.446  30.876  1.00  0.00     0.010 A 
ATOM     95  C   UNL A   1      46.973  35.843  29.547  1.00  0.00     0.020 A 
ATOM     96  C   UNL A   1      48.197  34.616  31.251  1.00  0.00     0.020 A 
ATOM     97  C   UNL A   1      47.922  35.806  30.575  1.00  0.00     0.054 A 
BRANCH  97  98
ATOM     98  S   UNL A   1      48.755  37.344  31.051  1.00  0.00     0.124 S 
ATOM     99  O   UNL A   1      48.093  37.671  32.310  1.00  0.00    -0.237 OA
ATOM    100  O   UNL A   1      50.152  36.932  31.164  1.00  0.00    -0.237 OA
ATOM    101  O   UNL A   1      48.468  38.251  29.942  1.00  0.00    -0.744 OA
ENDBRANCH  97  98
ENDBRANCH  71  92
ENDBRANCH  45  46
ENDBRANCH  37  40
ENDBRANCH  35  36
ENDBRANCH  34  35
ENDBRANCH   1  34
TORSDOF 19
ENDMDL
MODEL 3
REMARK VINA RESULT:     -10.7      4.743      9.395
REMARK SMILES COc1cc(/C=C2\SC(=S)N([C@H](C)C(=O)NCCCNC(=O)c3ccc(-c4c5nc(c(-c6ccc(S(=O)(=O)[O-])cc6)c6ccc([nH]6)c(-c6ccc(S(=O)(=O)[O-])cc6)c6nc(c(-c7ccc(S(=O)(=O)[O-])cc7)c7ccc4[nH]7)C=C6)C=C5)cc3)C2=O)ccc1OCc1ccc(Cl)cc1Cl
REMARK SMILES IDX 17 1 16 2 14 3 15 4 12 6 13 7 11 8 6 9 7 10 8 11 83 12 9 13
REMARK SMILES IDX 84 14 10 15 5 16 3 17 4 18 87 19 86 20 85 21 2 22 1 23 88 24
REMARK SMILES IDX 89 25 90 26 91 27 96 28 92 29 95 30 97 31 93 32 94 33 18 34
REMARK SMILES IDX 19 35 20 36 21 37 22 39 23 40 24 41 82 42 25 43 81 44 26 45
REMARK SMILES IDX 27 46 28 47 75 48 29 49 80 50 74 51 76 52 30 53 79 54 73 55
REMARK SMILES IDX 72 56 31 58 61 59 42 60 60 61 43 62 46 63 59 64 77 65 44 66
REMARK SMILES IDX 45 67 58 69 78 70 47 71 32 72 33 73 41 74 34 75 40 76 35 77
REMARK SMILES IDX 36 78 37 79 38 80 39 81 62 82 63 83 71 84 64 85 70 86 65 87
REMARK SMILES IDX 66 88 67 89 68 90 69 91 48 92 49 93 57 94 50 95 56 96 51 97
REMARK SMILES IDX 52 98 53 99 54 100 55 101
REMARK H PARENT 16 5 20 38 76 57 46 68
REMARK Flexibility Score: inf
ROOT
ATOM      1  C   UNL A   1      44.991  24.444  25.498  1.00  0.00     0.117 C 
ENDROOT
BRANCH   1   2
ATOM      2  N   UNL A   1      44.029  25.370  24.930  1.00  0.00    -0.354 N 
ATOM      3  C   UNL A   1      42.699  25.511  25.178  1.00  0.00     0.242 C 
ATOM      4  O   UNL A   1      42.183  26.568  24.796  1.00  0.00    -0.273 OA
ATOM      5  H   UNL A   1      44.397  25.993  24.262  1.00  0.00     0.163 HD
BRANCH   3   6
ATOM      6  C   UNL A   1      41.869  24.504  26.006  1.00  0.00     0.178 C 
ATOM      7  C   UNL A   1      42.485  23.121  26.203  1.00  0.00     0.042 C 
BRANCH   6   8
ATOM      8  N   UNL A   1      41.326  25.194  27.193  1.00  0.00    -0.281 N 
ATOM      9  C   UNL A   1      41.981  27.872  29.484  1.00  0.00     0.029 C 
ATOM     10  C   UNL A   1      41.377  26.858  28.852  1.00  0.00     0.081 C 
ATOM     11  S   UNL A   1      39.720  26.446  28.795  1.00  0.00    -0.054 SA
ATOM     12  C   UNL A   1      42.156  25.907  28.034  1.00  0.00     0.266 C 
ATOM     13  C   UNL A   1      39.978  25.276  27.498  1.00  0.00     0.149 C 
ATOM     14  O   UNL A   1      43.362  25.784  28.173  1.00  0.00    -0.268 OA
ATOM     15  S   UNL A   1      38.700  24.434  26.833  1.00  0.00    -0.052 S 
BRANCH   9  16
ATOM     16  C   UNL A   1      41.307  28.776  30.408  1.00  0.00    -0.020 A 
ATOM     17  C   UNL A   1      40.218  30.881  30.955  1.00  0.00     0.161 A 
ATOM     18  C   UNL A   1      40.891  30.059  30.035  1.00  0.00     0.058 A 
ATOM     19  C   UNL A   1      39.930  30.392  32.240  1.00  0.00     0.161 A 
ATOM     20  C   UNL A   1      40.354  29.105  32.594  1.00  0.00     0.051 A 
ATOM     21  C   UNL A   1      41.048  28.307  31.695  1.00  0.00     0.012 A 
BRANCH  17  22
ATOM     22  O   UNL A   1      39.773  32.122  30.583  1.00  0.00    -0.493 OA
ATOM     23  C   UNL A   1      38.836  32.123  29.506  1.00  0.00     0.278 C 
ENDBRANCH  17  22
BRANCH  19  24
ATOM     24  O   UNL A   1      39.306  31.016  33.287  1.00  0.00    -0.485 OA
BRANCH  24  25
ATOM     25  C   UNL A   1      37.913  30.822  33.528  1.00  0.00     0.267 C 
BRANCH  25  26
ATOM     26  C   UNL A   1      36.987  31.703  32.709  1.00  0.00     0.008 A 
ATOM     27  C   UNL A   1      36.193  31.169  31.677  1.00  0.00     0.010 A 
ATOM     28  C   UNL A   1      36.896  33.083  32.965  1.00  0.00     0.049 A 
ATOM     29  C   UNL A   1      35.283  31.967  30.981  1.00  0.00     0.021 A 
ATOM     30  C   UNL A   1      35.994  33.886  32.263  1.00  0.00     0.041 A 
ATOM     31  Cl  UNL A   1      37.884  33.852  34.159  1.00  0.00    -0.084 Cl
ATOM     32  C   UNL A   1      35.181  33.319  31.286  1.00  0.00     0.042 A 
ATOM     33  Cl  UNL A   1      34.044  34.300  30.447  1.00  0.00    -0.084 Cl
ENDBRANCH  25  26
ENDBRANCH  24  25
ENDBRANCH  19  24
ENDBRANCH   9  16
ENDBRANCH   6   8
ENDBRANCH   3   6
ENDBRANCH   1   2
BRANCH   1  34
ATOM     34  C   UNL A   1      46.241  24.242  24.667  1.00  0.00     0.042 C 
BRANCH  34  35
ATOM     35  C   UNL A   1      47.479  24.933  25.213  1.00  0.00     0.118 C 
BRANCH  35  36
ATOM     36  N   UNL A   1      48.008  25.973  24.338  1.00  0.00    -0.352 N 
ATOM     37  C   UNL A   1      47.890  27.345  24.374  1.00  0.00     0.251 C 
ATOM     38  H   UNL A   1      48.547  25.632  23.587  1.00  0.00     0.163 HD
ATOM     39  O   UNL A   1      48.334  28.005  23.437  1.00  0.00    -0.269 OA
BRANCH  37  40
ATOM     40  C   UNL A   1      47.202  28.025  25.495  1.00  0.00     0.039 A 
ATOM     41  C   UNL A   1      45.804  28.056  25.519  1.00  0.00     0.014 A 
ATOM     42  C   UNL A   1      47.916  28.631  26.527  1.00  0.00     0.014 A 
ATOM     43  C   UNL A   1      45.137  28.596  26.625  1.00  0.00     0.010 A 
ATOM     44  C   UNL A   1      47.260  29.044  27.680  1.00  0.00     0.010 A 
ATOM     45  C   UNL A   1      45.859  29.037  27.745  1.00  0.00    -0.014 A 
BRANCH  45  46
ATOM     46  C   UNL A   1      45.190  29.502  28.991  1.00  0.00     0.031 A 
ATOM     47  C   UNL A   1      44.616  30.895  29.066  1.00  0.00     0.074 A 
ATOM     48  C   UNL A   1      45.186  28.716  30.087  1.00  0.00     0.049 A 
ATOM     49  N   UNL A   1      44.126  31.532  30.098  1.00  0.00    -0.248 NA
ATOM     50  C   UNL A   1      44.637  31.694  27.828  1.00  0.00     0.031 C 
ATOM     51  C   UNL A   1      45.761  27.371  30.174  1.00  0.00     0.029 A 
ATOM     52  N   UNL A   1      44.691  28.942  31.349  1.00  0.00    -0.354 N 
ATOM     53  C   UNL A   1      43.823  32.812  29.646  1.00  0.00     0.074 A 
ATOM     54  C   UNL A   1      44.232  32.879  28.262  1.00  0.00     0.031 C 
ATOM     55  C   UNL A   1      45.558  26.882  31.407  1.00  0.00     0.029 A 
ATOM     56  C   UNL A   1      44.882  27.891  32.215  1.00  0.00     0.049 A 
ATOM     57  H   UNL A   1      44.241  29.779  31.609  1.00  0.00     0.167 HD
ATOM     58  C   UNL A   1      43.235  33.834  30.312  1.00  0.00     0.031 A 
ATOM     59  C   UNL A   1      44.558  27.753  33.516  1.00  0.00     0.031 A 
ATOM     60  C   UNL A   1      42.781  33.751  31.674  1.00  0.00     0.049 A 
ATOM     61  C   UNL A   1      43.860  28.882  34.221  1.00  0.00     0.074 A 
ATOM     62  C   UNL A   1      42.103  34.705  32.413  1.00  0.00     0.029 A 
ATOM     63  N   UNL A   1      42.945  32.647  32.496  1.00  0.00    -0.354 N 
ATOM     64  N   UNL A   1      43.533  30.065  33.757  1.00  0.00    -0.248 NA
ATOM     65  C   UNL A   1      43.476  28.655  35.622  1.00  0.00     0.031 C 
ATOM     66  C   UNL A   1      41.889  34.190  33.697  1.00  0.00     0.029 A 
ATOM     67  C   UNL A   1      42.390  32.899  33.739  1.00  0.00     0.049 A 
ATOM     68  H   UNL A   1      43.390  31.809  32.234  1.00  0.00     0.167 HD
ATOM     69  C   UNL A   1      42.885  30.714  34.802  1.00  0.00     0.074 A 
ATOM     70  C   UNL A   1      42.853  29.788  35.916  1.00  0.00     0.031 C 
ATOM     71  C   UNL A   1      42.364  31.965  34.835  1.00  0.00     0.031 A 
BRANCH  58  72
ATOM     72  C   UNL A   1      43.039  35.129  29.568  1.00  0.00    -0.014 A 
ATOM     73  C   UNL A   1      41.943  35.311  28.704  1.00  0.00     0.010 A 
ATOM     74  C   UNL A   1      43.941  36.191  29.759  1.00  0.00     0.010 A 
ATOM     75  C   UNL A   1      41.780  36.512  28.009  1.00  0.00     0.020 A 
ATOM     76  C   UNL A   1      43.765  37.405  29.089  1.00  0.00     0.020 A 
ATOM     77  C   UNL A   1      42.696  37.551  28.203  1.00  0.00     0.054 A 
BRANCH  77  78
ATOM     78  S   UNL A   1      42.447  39.107  27.306  1.00  0.00     0.124 S 
ATOM     79  O   UNL A   1      41.289  38.790  26.473  1.00  0.00    -0.237 OA
ATOM     80  O   UNL A   1      42.204  40.064  28.382  1.00  0.00    -0.237 OA
ATOM     81  O   UNL A   1      43.702  39.294  26.582  1.00  0.00    -0.744 OA
ENDBRANCH  77  78
ENDBRANCH  58  72
BRANCH  59  82
ATOM     82  C   UNL A   1      44.870  26.484  34.227  1.00  0.00    -0.014 A 
ATOM     83  C   UNL A   1      43.957  25.415  34.208  1.00  0.00     0.010 A 
ATOM     84  C   UNL A   1      46.093  26.326  34.904  1.00  0.00     0.010 A 
ATOM     85  C   UNL A   1      44.254  24.216  34.865  1.00  0.00     0.020 A 
ATOM     86  C   UNL A   1      46.404  25.121  35.542  1.00  0.00     0.020 A 
ATOM     87  C   UNL A   1      45.477  24.077  35.526  1.00  0.00     0.054 A 
BRANCH  87  88
ATOM     88  S   UNL A   1      45.868  22.491  36.318  1.00  0.00     0.124 S 
ATOM     89  O   UNL A   1      44.966  21.576  35.626  1.00  0.00    -0.237 OA
ATOM     90  O   UNL A   1      47.289  22.328  36.017  1.00  0.00    -0.237 OA
ATOM     91  O   UNL A   1      45.562  22.729  37.726  1.00  0.00    -0.744 OA
ENDBRANCH  87  88
ENDBRANCH  59  82
BRANCH  71  92
ATOM     92  C   UNL A   1      41.683  32.399  36.104  1.00  0.00    -0.014 A 
ATOM     93  C   UNL A   1      40.295  32.250  36.273  1.00  0.00     0.010 A 
ATOM     94  C   UNL A   1      42.455  32.905  37.166  1.00  0.00     0.010 A 
ATOM     95  C   UNL A   1      39.687  32.626  37.472  1.00  0.00     0.020 A 
ATOM     96  C   UNL A   1      41.853  33.259  38.375  1.00  0.00     0.020 A 
ATOM     97  C   UNL A   1      40.471  33.130  38.517  1.00  0.00     0.054 A 
BRANCH  97  98
ATOM     98  S   UNL A   1      39.665  33.566  40.081  1.00  0.00     0.124 S 
ATOM     99  O   UNL A   1      40.807  33.735  40.974  1.00  0.00    -0.237 OA
ATOM    100  O   UNL A   1      38.946  34.792  39.742  1.00  0.00    -0.237 OA
ATOM    101  O   UNL A   1      38.815  32.412  40.366  1.00  0.00    -0.744 OA
ENDBRANCH  97  98
ENDBRANCH  71  92
ENDBRANCH  45  46
ENDBRANCH  37  40
ENDBRANCH  35  36
ENDBRANCH  34  35
ENDBRANCH   1  34
TORSDOF 19
ENDMDL
