MODEL 1
REMARK VINA RESULT:     -11.2      0.000      0.000
REMARK SMILES CCc1ccc(-c2cc(Cl)cc3c2O[C@H](C(F)(F)F)C(C(=O)NCCCNC(=O)c2ccc(-c4c5nc(c(-c6ccc(S(=O)(=O)[O-])cc6)c6ccc([nH]6)c(-c6ccc(S(=O)(=O)[O-])cc6)c6nc(c(-c7ccc(S(=O)(=O)[O-])cc7)c7ccc4[nH]7)C=C6)C=C5)cc2)=C3)cc1
REMARK SMILES IDX 25 1 24 2 23 3 21 4 22 5 20 7 7 8 8 9 13 10 9 11 12 12 14 13
REMARK SMILES IDX 10 14 11 15 90 16 15 17 6 18 3 19 4 20 92 21 5 22 91 23 2 24
REMARK SMILES IDX 1 25 16 26 17 27 18 28 19 29 26 30 27 31 28 32 29 34 30 35
REMARK SMILES IDX 31 36 89 37 32 38 88 39 33 40 34 41 35 42 82 43 36 44 87 45
REMARK SMILES IDX 81 46 83 47 37 48 86 49 80 50 79 51 38 53 68 54 49 55 67 56
REMARK SMILES IDX 50 57 53 58 66 59 84 60 51 61 52 62 65 64 85 65 54 66 39 67
REMARK SMILES IDX 40 68 48 69 41 70 47 71 42 72 43 73 44 74 45 75 46 76 69 77
REMARK SMILES IDX 70 78 78 79 71 80 77 81 72 82 73 83 74 84 75 85 76 86 55 87
REMARK SMILES IDX 56 88 64 89 57 90 63 91 58 92 59 93 60 94 61 95 62 96
REMARK H PARENT 23 6 27 33 83 52 53 63
REMARK Flexibility Score: inf
ROOT
ATOM      1  C   UNL A   1      41.717  22.868  28.622  1.00  0.00     0.042 C 
ENDROOT
BRANCH   1   2
ATOM      2  C   UNL A   1      43.081  22.560  28.004  1.00  0.00     0.118 C 
BRANCH   2   3
ATOM      3  N   UNL A   1      43.961  23.705  28.137  1.00  0.00    -0.352 N 
ATOM      4  C   UNL A   1      45.092  23.936  27.427  1.00  0.00     0.251 C 
ATOM      5  O   UNL A   1      46.090  24.368  27.991  1.00  0.00    -0.270 OA
ATOM      6  H   UNL A   1      43.712  24.379  28.810  1.00  0.00     0.163 HD
BRANCH   4   7
ATOM      7  C   UNL A   1      44.996  23.794  25.944  1.00  0.00     0.067 C 
ATOM      8  C   UNL A   1      47.833  26.487  24.860  1.00  0.00     0.026 A 
ATOM      9  C   UNL A   1      47.639  27.619  25.696  1.00  0.00     0.033 A 
ATOM     10  C   UNL A   1      46.793  25.541  24.848  1.00  0.00     0.135 A 
ATOM     11  C   UNL A   1      46.420  27.899  26.309  1.00  0.00     0.042 A 
ATOM     12  C   UNL A   1      45.529  25.902  25.378  1.00  0.00     0.019 A 
ATOM     13  O   UNL A   1      46.947  24.234  24.401  1.00  0.00    -0.475 OA
ATOM     14  Cl  UNL A   1      46.267  29.290  27.306  1.00  0.00    -0.084 Cl
ATOM     15  C   UNL A   1      45.331  27.083  26.085  1.00  0.00     0.032 A 
ATOM     16  C   UNL A   1      44.458  24.881  25.357  1.00  0.00     0.025 C 
ATOM     17  C   UNL A   1      46.236  23.233  25.262  1.00  0.00     0.314 C 
BRANCH   8  18
ATOM     18  C   UNL A   1      48.973  26.620  23.909  1.00  0.00    -0.015 A 
ATOM     19  C   UNL A   1      50.787  28.181  22.360  1.00  0.00    -0.048 A 
ATOM     20  C   UNL A   1      51.151  27.717  23.628  1.00  0.00     0.004 A 
ATOM     21  C   UNL A   1      49.580  27.730  21.813  1.00  0.00     0.004 A 
ATOM     22  C   UNL A   1      50.267  26.925  24.381  1.00  0.00     0.009 A 
ATOM     23  C   UNL A   1      48.691  26.949  22.571  1.00  0.00     0.009 A 
BRANCH  19  24
ATOM     24  C   UNL A   1      51.607  29.238  21.654  1.00  0.00     0.032 C 
ATOM     25  C   UNL A   1      51.440  29.251  20.143  1.00  0.00     0.009 C 
ENDBRANCH  19  24
ENDBRANCH   8  18
BRANCH  17  26
ATOM     26  C   UNL A   1      45.808  21.976  24.468  1.00  0.00     0.429 C 
ATOM     27  F   UNL A   1      45.088  21.106  25.210  1.00  0.00    -0.167 F 
ATOM     28  F   UNL A   1      45.063  22.309  23.387  1.00  0.00    -0.167 F 
ATOM     29  F   UNL A   1      46.872  21.277  23.989  1.00  0.00    -0.167 F 
ENDBRANCH  17  26
ENDBRANCH   4   7
ENDBRANCH   2   3
ENDBRANCH   1   2
BRANCH   1  30
ATOM     30  C   UNL A   1      40.580  23.034  27.615  1.00  0.00     0.118 C 
BRANCH  30  31
ATOM     31  N   UNL A   1      40.955  23.830  26.458  1.00  0.00    -0.352 N 
ATOM     32  C   UNL A   1      41.031  25.193  26.328  1.00  0.00     0.251 C 
ATOM     33  H   UNL A   1      41.189  23.316  25.652  1.00  0.00     0.163 HD
ATOM     34  O   UNL A   1      41.211  25.686  25.213  1.00  0.00    -0.269 OA
BRANCH  32  35
ATOM     35  C   UNL A   1      40.873  26.067  27.509  1.00  0.00     0.039 A 
ATOM     36  C   UNL A   1      41.937  26.890  27.886  1.00  0.00     0.014 A 
ATOM     37  C   UNL A   1      39.690  26.073  28.253  1.00  0.00     0.014 A 
ATOM     38  C   UNL A   1      41.794  27.753  28.975  1.00  0.00     0.010 A 
ATOM     39  C   UNL A   1      39.517  26.998  29.278  1.00  0.00     0.010 A 
ATOM     40  C   UNL A   1      40.572  27.835  29.665  1.00  0.00    -0.014 A 
BRANCH  40  41
ATOM     41  C   UNL A   1      40.402  28.773  30.806  1.00  0.00     0.031 A 
ATOM     42  C   UNL A   1      41.267  28.638  32.034  1.00  0.00     0.074 A 
ATOM     43  C   UNL A   1      39.450  29.727  30.753  1.00  0.00     0.049 A 
ATOM     44  N   UNL A   1      41.269  29.362  33.124  1.00  0.00    -0.248 NA
ATOM     45  C   UNL A   1      42.238  27.531  32.051  1.00  0.00     0.031 C 
ATOM     46  C   UNL A   1      38.514  29.931  29.645  1.00  0.00     0.029 A 
ATOM     47  N   UNL A   1      39.115  30.710  31.652  1.00  0.00    -0.354 N 
ATOM     48  C   UNL A   1      42.226  28.791  33.957  1.00  0.00     0.074 A 
ATOM     49  C   UNL A   1      42.737  27.625  33.274  1.00  0.00     0.031 C 
ATOM     50  C   UNL A   1      37.744  30.998  29.909  1.00  0.00     0.029 A 
ATOM     51  C   UNL A   1      38.099  31.530  31.220  1.00  0.00     0.049 A 
ATOM     52  H   UNL A   1      39.561  30.817  32.523  1.00  0.00     0.167 HD
ATOM     53  C   UNL A   1      42.661  29.214  35.168  1.00  0.00     0.031 A 
ATOM     54  C   UNL A   1      37.520  32.593  31.811  1.00  0.00     0.031 A 
ATOM     55  C   UNL A   1      42.159  30.383  35.840  1.00  0.00     0.049 A 
ATOM     56  C   UNL A   1      38.019  33.042  33.158  1.00  0.00     0.074 A 
ATOM     57  C   UNL A   1      42.572  30.929  37.042  1.00  0.00     0.029 A 
ATOM     58  N   UNL A   1      41.131  31.186  35.369  1.00  0.00    -0.354 N 
ATOM     59  N   UNL A   1      38.978  32.533  33.894  1.00  0.00    -0.248 NA
ATOM     60  C   UNL A   1      37.369  34.222  33.744  1.00  0.00     0.031 C 
ATOM     61  C   UNL A   1      41.755  32.027  37.328  1.00  0.00     0.029 A 
ATOM     62  C   UNL A   1      40.878  32.207  36.269  1.00  0.00     0.049 A 
ATOM     63  H   UNL A   1      40.652  31.051  34.520  1.00  0.00     0.167 HD
ATOM     64  C   UNL A   1      39.063  33.347  35.019  1.00  0.00     0.074 A 
ATOM     65  C   UNL A   1      38.076  34.393  34.853  1.00  0.00     0.031 C 
ATOM     66  C   UNL A   1      39.885  33.237  36.094  1.00  0.00     0.031 A 
BRANCH  53  67
ATOM     67  C   UNL A   1      43.736  28.401  35.844  1.00  0.00    -0.014 A 
ATOM     68  C   UNL A   1      45.101  28.663  35.617  1.00  0.00     0.010 A 
ATOM     69  C   UNL A   1      43.380  27.383  36.748  1.00  0.00     0.010 A 
ATOM     70  C   UNL A   1      46.085  27.893  36.243  1.00  0.00     0.020 A 
ATOM     71  C   UNL A   1      44.363  26.633  37.403  1.00  0.00     0.020 A 
ATOM     72  C   UNL A   1      45.710  26.883  37.131  1.00  0.00     0.054 A 
BRANCH  72  73
ATOM     73  S   UNL A   1      47.010  25.919  37.949  1.00  0.00     0.124 S 
ATOM     74  O   UNL A   1      47.298  24.894  36.949  1.00  0.00    -0.237 OA
ATOM     75  O   UNL A   1      48.063  26.910  38.152  1.00  0.00    -0.237 OA
ATOM     76  O   UNL A   1      46.370  25.434  39.169  1.00  0.00    -0.744 OA
ENDBRANCH  72  73
ENDBRANCH  53  67
BRANCH  54  77
ATOM     77  C   UNL A   1      36.417  33.321  31.122  1.00  0.00    -0.014 A 
ATOM     78  C   UNL A   1      35.132  33.382  31.691  1.00  0.00     0.010 A 
ATOM     79  C   UNL A   1      36.648  33.964  29.891  1.00  0.00     0.010 A 
ATOM     80  C   UNL A   1      34.095  34.051  31.033  1.00  0.00     0.020 A 
ATOM     81  C   UNL A   1      35.622  34.661  29.246  1.00  0.00     0.020 A 
ATOM     82  C   UNL A   1      34.348  34.688  29.816  1.00  0.00     0.054 A 
BRANCH  82  83
ATOM     83  S   UNL A   1      33.000  35.590  29.002  1.00  0.00     0.124 S 
ATOM     84  O   UNL A   1      33.724  36.626  28.272  1.00  0.00    -0.237 OA
ATOM     85  O   UNL A   1      32.379  34.553  28.182  1.00  0.00    -0.237 OA
ATOM     86  O   UNL A   1      32.184  36.064  30.117  1.00  0.00    -0.744 OA
ENDBRANCH  82  83
ENDBRANCH  54  77
BRANCH  66  87
ATOM     87  C   UNL A   1      39.773  34.298  37.158  1.00  0.00    -0.014 A 
ATOM     88  C   UNL A   1      38.973  34.109  38.299  1.00  0.00     0.010 A 
ATOM     89  C   UNL A   1      40.508  35.491  37.028  1.00  0.00     0.010 A 
ATOM     90  C   UNL A   1      38.870  35.114  39.265  1.00  0.00     0.020 A 
ATOM     91  C   UNL A   1      40.435  36.483  38.008  1.00  0.00     0.020 A 
ATOM     92  C   UNL A   1      39.600  36.297  39.110  1.00  0.00     0.054 A 
BRANCH  92  93
ATOM     93  S   UNL A   1      39.463  37.578  40.387  1.00  0.00     0.124 S 
ATOM     94  O   UNL A   1      40.733  38.283  40.245  1.00  0.00    -0.237 OA
ATOM     95  O   UNL A   1      38.279  38.324  39.966  1.00  0.00    -0.237 OA
ATOM     96  O   UNL A   1      39.306  36.819  41.625  1.00  0.00    -0.744 OA
ENDBRANCH  92  93
ENDBRANCH  66  87
ENDBRANCH  40  41
ENDBRANCH  32  35
ENDBRANCH  30  31
ENDBRANCH   1  30
TORSDOF 16
ENDMDL
MODEL 2
REMARK VINA RESULT:     -10.9      5.671     12.121
REMARK SMILES CCc1ccc(-c2cc(Cl)cc3c2O[C@H](C(F)(F)F)C(C(=O)NCCCNC(=O)c2ccc(-c4c5nc(c(-c6ccc(S(=O)(=O)[O-])cc6)c6ccc([nH]6)c(-c6ccc(S(=O)(=O)[O-])cc6)c6nc(c(-c7ccc(S(=O)(=O)[O-])cc7)c7ccc4[nH]7)C=C6)C=C5)cc2)=C3)cc1
REMARK SMILES IDX 25 1 24 2 23 3 21 4 22 5 20 7 7 8 8 9 13 10 9 11 12 12 14 13
REMARK SMILES IDX 10 14 11 15 90 16 15 17 6 18 3 19 4 20 92 21 5 22 91 23 2 24
REMARK SMILES IDX 1 25 16 26 17 27 18 28 19 29 26 30 27 31 28 32 29 34 30 35
REMARK SMILES IDX 31 36 89 37 32 38 88 39 33 40 34 41 35 42 82 43 36 44 87 45
REMARK SMILES IDX 81 46 83 47 37 48 86 49 80 50 79 51 38 53 68 54 49 55 67 56
REMARK SMILES IDX 50 57 53 58 66 59 84 60 51 61 52 62 65 64 85 65 54 66 39 67
REMARK SMILES IDX 40 68 48 69 41 70 47 71 42 72 43 73 44 74 45 75 46 76 69 77
REMARK SMILES IDX 70 78 78 79 71 80 77 81 72 82 73 83 74 84 75 85 76 86 55 87
REMARK SMILES IDX 56 88 64 89 57 90 63 91 58 92 59 93 60 94 61 95 62 96
REMARK H PARENT 23 6 27 33 83 52 53 63
REMARK Flexibility Score: inf
ROOT
ATOM      1  C   UNL A   1      47.947  24.209  35.869  1.00  0.00     0.042 C 
ENDROOT
BRANCH   1   2
ATOM      2  C   UNL A   1      48.831  23.092  36.426  1.00  0.00     0.118 C 
BRANCH   2   3
ATOM      3  N   UNL A   1      48.308  22.625  37.694  1.00  0.00    -0.352 N 
ATOM      4  C   UNL A   1      47.283  21.756  37.870  1.00  0.00     0.251 C 
ATOM      5  O   UNL A   1      46.450  21.964  38.744  1.00  0.00    -0.270 OA
ATOM      6  H   UNL A   1      48.741  22.974  38.507  1.00  0.00     0.163 HD
BRANCH   4   7
ATOM      7  C   UNL A   1      47.327  20.495  37.074  1.00  0.00     0.067 C 
ATOM      8  C   UNL A   1      46.403  17.852  40.013  1.00  0.00     0.026 A 
ATOM      9  C   UNL A   1      47.151  18.254  41.151  1.00  0.00     0.033 A 
ATOM     10  C   UNL A   1      46.774  18.437  38.789  1.00  0.00     0.135 A 
ATOM     11  C   UNL A   1      48.315  19.014  41.054  1.00  0.00     0.042 A 
ATOM     12  C   UNL A   1      48.021  19.106  38.697  1.00  0.00     0.019 A 
ATOM     13  O   UNL A   1      45.956  18.458  37.666  1.00  0.00    -0.475 OA
ATOM     14  Cl  UNL A   1      49.163  19.460  42.481  1.00  0.00    -0.084 Cl
ATOM     15  C   UNL A   1      48.802  19.375  39.816  1.00  0.00     0.032 A 
ATOM     16  C   UNL A   1      48.378  19.717  37.398  1.00  0.00     0.025 C 
ATOM     17  C   UNL A   1      45.997  19.766  36.935  1.00  0.00     0.314 C 
BRANCH   8  18
ATOM     18  C   UNL A   1      45.537  16.661  40.243  1.00  0.00    -0.015 A 
ATOM     19  C   UNL A   1      43.013  15.454  40.790  1.00  0.00    -0.048 A 
ATOM     20  C   UNL A   1      43.469  15.585  39.474  1.00  0.00     0.004 A 
ATOM     21  C   UNL A   1      43.891  15.785  41.829  1.00  0.00     0.004 A 
ATOM     22  C   UNL A   1      44.724  16.156  39.205  1.00  0.00     0.009 A 
ATOM     23  C   UNL A   1      45.141  16.367  41.559  1.00  0.00     0.009 A 
BRANCH  19  24
ATOM     24  C   UNL A   1      41.574  15.089  41.082  1.00  0.00     0.032 C 
ATOM     25  C   UNL A   1      41.285  13.598  41.031  1.00  0.00     0.009 C 
ENDBRANCH  19  24
ENDBRANCH   8  18
BRANCH  17  26
ATOM     26  C   UNL A   1      45.706  19.602  35.425  1.00  0.00     0.429 C 
ATOM     27  F   UNL A   1      45.662  18.309  35.036  1.00  0.00    -0.167 F 
ATOM     28  F   UNL A   1      44.523  20.172  35.088  1.00  0.00    -0.167 F 
ATOM     29  F   UNL A   1      46.646  20.202  34.645  1.00  0.00    -0.167 F 
ENDBRANCH  17  26
ENDBRANCH   4   7
ENDBRANCH   2   3
ENDBRANCH   1   2
BRANCH   1  30
ATOM     30  C   UNL A   1      48.404  25.624  36.220  1.00  0.00     0.118 C 
BRANCH  30  31
ATOM     31  N   UNL A   1      48.318  25.914  37.642  1.00  0.00    -0.352 N 
ATOM     32  C   UNL A   1      47.503  26.797  38.302  1.00  0.00     0.251 C 
ATOM     33  H   UNL A   1      48.935  25.402  38.214  1.00  0.00     0.163 HD
ATOM     34  O   UNL A   1      47.694  27.020  39.499  1.00  0.00    -0.269 OA
BRANCH  32  35
ATOM     35  C   UNL A   1      46.419  27.496  37.580  1.00  0.00     0.039 A 
ATOM     36  C   UNL A   1      46.725  28.653  36.861  1.00  0.00     0.014 A 
ATOM     37  C   UNL A   1      45.104  27.024  37.616  1.00  0.00     0.014 A 
ATOM     38  C   UNL A   1      45.723  29.306  36.139  1.00  0.00     0.010 A 
ATOM     39  C   UNL A   1      44.129  27.621  36.822  1.00  0.00     0.010 A 
ATOM     40  C   UNL A   1      44.421  28.780  36.090  1.00  0.00    -0.014 A 
BRANCH  40  41
ATOM     41  C   UNL A   1      43.356  29.452  35.299  1.00  0.00     0.031 A 
ATOM     42  C   UNL A   1      43.063  29.008  33.889  1.00  0.00     0.074 A 
ATOM     43  C   UNL A   1      42.671  30.481  35.838  1.00  0.00     0.049 A 
ATOM     44  N   UNL A   1      42.173  29.468  33.047  1.00  0.00    -0.248 NA
ATOM     45  C   UNL A   1      43.897  27.924  33.341  1.00  0.00     0.031 C 
ATOM     46  C   UNL A   1      42.891  31.040  37.174  1.00  0.00     0.029 A 
ATOM     47  N   UNL A   1      41.644  31.238  35.329  1.00  0.00    -0.354 N 
ATOM     48  C   UNL A   1      42.348  28.742  31.874  1.00  0.00     0.074 A 
ATOM     49  C   UNL A   1      43.471  27.858  32.089  1.00  0.00     0.031 C 
ATOM     50  C   UNL A   1      41.999  32.019  37.395  1.00  0.00     0.029 A 
ATOM     51  C   UNL A   1      41.170  32.187  36.206  1.00  0.00     0.049 A 
ATOM     52  H   UNL A   1      41.281  31.114  34.423  1.00  0.00     0.167 HD
ATOM     53  C   UNL A   1      41.625  28.786  30.730  1.00  0.00     0.031 A 
ATOM     54  C   UNL A   1      40.179  33.089  36.070  1.00  0.00     0.031 A 
ATOM     55  C   UNL A   1      40.499  29.659  30.522  1.00  0.00     0.049 A 
ATOM     56  C   UNL A   1      39.390  33.120  34.788  1.00  0.00     0.074 A 
ATOM     57  C   UNL A   1      39.664  29.740  29.422  1.00  0.00     0.029 A 
ATOM     58  N   UNL A   1      40.051  30.603  31.435  1.00  0.00    -0.354 N 
ATOM     59  N   UNL A   1      39.525  32.372  33.719  1.00  0.00    -0.248 NA
ATOM     60  C   UNL A   1      38.304  34.106  34.704  1.00  0.00     0.031 C 
ATOM     61  C   UNL A   1      38.749  30.774  29.644  1.00  0.00     0.029 A 
ATOM     62  C   UNL A   1      38.970  31.290  30.912  1.00  0.00     0.049 A 
ATOM     63  H   UNL A   1      40.445  30.761  32.323  1.00  0.00     0.167 HD
ATOM     64  C   UNL A   1      38.522  32.780  32.844  1.00  0.00     0.074 A 
ATOM     65  C   UNL A   1      37.778  33.822  33.521  1.00  0.00     0.031 C 
ATOM     66  C   UNL A   1      38.244  32.332  31.594  1.00  0.00     0.031 A 
BRANCH  53  67
ATOM     67  C   UNL A   1      42.033  27.861  29.611  1.00  0.00    -0.014 A 
ATOM     68  C   UNL A   1      43.203  28.092  28.862  1.00  0.00     0.010 A 
ATOM     69  C   UNL A   1      41.255  26.723  29.324  1.00  0.00     0.010 A 
ATOM     70  C   UNL A   1      43.561  27.231  27.821  1.00  0.00     0.020 A 
ATOM     71  C   UNL A   1      41.629  25.841  28.305  1.00  0.00     0.020 A 
ATOM     72  C   UNL A   1      42.771  26.112  27.549  1.00  0.00     0.054 A 
BRANCH  72  73
ATOM     73  S   UNL A   1      43.276  24.999  26.209  1.00  0.00     0.124 S 
ATOM     74  O   UNL A   1      42.365  23.872  26.395  1.00  0.00    -0.237 OA
ATOM     75  O   UNL A   1      43.040  25.807  25.017  1.00  0.00    -0.237 OA
ATOM     76  O   UNL A   1      44.680  24.717  26.501  1.00  0.00    -0.744 OA
ENDBRANCH  72  73
ENDBRANCH  53  67
BRANCH  54  77
ATOM     77  C   UNL A   1      39.861  34.022  37.187  1.00  0.00    -0.014 A 
ATOM     78  C   UNL A   1      39.071  33.601  38.272  1.00  0.00     0.010 A 
ATOM     79  C   UNL A   1      40.351  35.342  37.173  1.00  0.00     0.010 A 
ATOM     80  C   UNL A   1      38.758  34.486  39.308  1.00  0.00     0.020 A 
ATOM     81  C   UNL A   1      40.068  36.220  38.224  1.00  0.00     0.020 A 
ATOM     82  C   UNL A   1      39.262  35.789  39.279  1.00  0.00     0.054 A 
BRANCH  82  83
ATOM     83  S   UNL A   1      38.884  36.906  40.658  1.00  0.00     0.124 S 
ATOM     84  O   UNL A   1      37.962  36.104  41.455  1.00  0.00    -0.237 OA
ATOM     85  O   UNL A   1      40.201  37.132  41.249  1.00  0.00    -0.237 OA
ATOM     86  O   UNL A   1      38.295  38.071  40.003  1.00  0.00    -0.744 OA
ENDBRANCH  82  83
ENDBRANCH  54  77
BRANCH  66  87
ATOM     87  C   UNL A   1      37.061  32.946  30.890  1.00  0.00    -0.014 A 
ATOM     88  C   UNL A   1      37.231  33.844  29.821  1.00  0.00     0.010 A 
ATOM     89  C   UNL A   1      35.758  32.592  31.285  1.00  0.00     0.010 A 
ATOM     90  C   UNL A   1      36.120  34.415  29.194  1.00  0.00     0.020 A 
ATOM     91  C   UNL A   1      34.645  33.133  30.638  1.00  0.00     0.020 A 
ATOM     92  C   UNL A   1      34.834  34.057  29.610  1.00  0.00     0.054 A 
BRANCH  92  93
ATOM     93  S   UNL A   1      33.408  34.799  28.768  1.00  0.00     0.124 S 
ATOM     94  O   UNL A   1      33.080  33.781  27.775  1.00  0.00    -0.237 OA
ATOM     95  O   UNL A   1      32.442  34.955  29.852  1.00  0.00    -0.237 OA
ATOM     96  O   UNL A   1      33.937  36.049  28.228  1.00  0.00    -0.744 OA
ENDBRANCH  92  93
ENDBRANCH  66  87
ENDBRANCH  40  41
ENDBRANCH  32  35
ENDBRANCH  30  31
ENDBRANCH   1  30
TORSDOF 16
ENDMDL
MODEL 3
REMARK VINA RESULT:     -10.8      5.556     12.180
REMARK SMILES CCc1ccc(-c2cc(Cl)cc3c2O[C@H](C(F)(F)F)C(C(=O)NCCCNC(=O)c2ccc(-c4c5nc(c(-c6ccc(S(=O)(=O)[O-])cc6)c6ccc([nH]6)c(-c6ccc(S(=O)(=O)[O-])cc6)c6nc(c(-c7ccc(S(=O)(=O)[O-])cc7)c7ccc4[nH]7)C=C6)C=C5)cc2)=C3)cc1
REMARK SMILES IDX 25 1 24 2 23 3 21 4 22 5 20 7 7 8 8 9 13 10 9 11 12 12 14 13
REMARK SMILES IDX 10 14 11 15 90 16 15 17 6 18 3 19 4 20 92 21 5 22 91 23 2 24
REMARK SMILES IDX 1 25 16 26 17 27 18 28 19 29 26 30 27 31 28 32 29 34 30 35
REMARK SMILES IDX 31 36 89 37 32 38 88 39 33 40 34 41 35 42 82 43 36 44 87 45
REMARK SMILES IDX 81 46 83 47 37 48 86 49 80 50 79 51 38 53 68 54 49 55 67 56
REMARK SMILES IDX 50 57 53 58 66 59 84 60 51 61 52 62 65 64 85 65 54 66 39 67
REMARK SMILES IDX 40 68 48 69 41 70 47 71 42 72 43 73 44 74 45 75 46 76 69 77
REMARK SMILES IDX 70 78 78 79 71 80 77 81 72 82 73 83 74 84 75 85 76 86 55 87
REMARK SMILES IDX 56 88 64 89 57 90 63 91 58 92 59 93 60 94 61 95 62 96
REMARK H PARENT 23 6 27 33 83 52 53 63
REMARK Flexibility Score: inf
ROOT
ATOM      1  C   UNL A   1      48.204  24.855  35.887  1.00  0.00     0.042 C 
ENDROOT
BRANCH   1   2
ATOM      2  C   UNL A   1      48.872  23.511  36.182  1.00  0.00     0.118 C 
BRANCH   2   3
ATOM      3  N   UNL A   1      48.443  23.010  37.472  1.00  0.00    -0.352 N 
ATOM      4  C   UNL A   1      47.421  22.149  37.701  1.00  0.00     0.251 C 
ATOM      5  O   UNL A   1      46.662  22.339  38.644  1.00  0.00    -0.270 OA
ATOM      6  H   UNL A   1      48.942  23.328  38.260  1.00  0.00     0.163 HD
BRANCH   4   7
ATOM      7  C   UNL A   1      47.384  20.913  36.866  1.00  0.00     0.067 C 
ATOM      8  C   UNL A   1      46.719  18.182  39.794  1.00  0.00     0.026 A 
ATOM      9  C   UNL A   1      47.572  18.546  40.870  1.00  0.00     0.033 A 
ATOM     10  C   UNL A   1      46.980  18.804  38.561  1.00  0.00     0.135 A 
ATOM     11  C   UNL A   1      48.726  19.305  40.690  1.00  0.00     0.042 A 
ATOM     12  C   UNL A   1      48.217  19.471  38.375  1.00  0.00     0.019 A 
ATOM     13  O   UNL A   1      46.061  18.863  37.519  1.00  0.00    -0.475 OA
ATOM     14  Cl  UNL A   1      49.705  19.703  42.045  1.00  0.00    -0.084 Cl
ATOM     15  C   UNL A   1      49.099  19.703  39.424  1.00  0.00     0.032 A 
ATOM     16  C   UNL A   1      48.456  20.122  37.067  1.00  0.00     0.025 C 
ATOM     17  C   UNL A   1      46.043  20.193  36.828  1.00  0.00     0.314 C 
BRANCH   8  18
ATOM     18  C   UNL A   1      45.871  16.987  40.066  1.00  0.00    -0.015 A 
ATOM     19  C   UNL A   1      43.357  15.757  40.609  1.00  0.00    -0.048 A 
ATOM     20  C   UNL A   1      43.849  15.825  39.301  1.00  0.00     0.004 A 
ATOM     21  C   UNL A   1      44.197  16.164  41.652  1.00  0.00     0.004 A 
ATOM     22  C   UNL A   1      45.100  16.407  39.036  1.00  0.00     0.009 A 
ATOM     23  C   UNL A   1      45.442  16.758  41.385  1.00  0.00     0.009 A 
BRANCH  19  24
ATOM     24  C   UNL A   1      41.918  15.378  40.880  1.00  0.00     0.032 C 
ATOM     25  C   UNL A   1      41.542  13.982  40.411  1.00  0.00     0.009 C 
ENDBRANCH  19  24
ENDBRANCH   8  18
BRANCH  17  26
ATOM     26  C   UNL A   1      45.612  20.078  35.347  1.00  0.00     0.429 C 
ATOM     27  F   UNL A   1      45.235  18.825  35.006  1.00  0.00    -0.167 F 
ATOM     28  F   UNL A   1      44.578  20.908  35.070  1.00  0.00    -0.167 F 
ATOM     29  F   UNL A   1      46.609  20.421  34.487  1.00  0.00    -0.167 F 
ENDBRANCH  17  26
ENDBRANCH   4   7
ENDBRANCH   2   3
ENDBRANCH   1   2
BRANCH   1  30
ATOM     30  C   UNL A   1      49.102  26.074  36.085  1.00  0.00     0.118 C 
BRANCH  30  31
ATOM     31  N   UNL A   1      49.064  26.596  37.441  1.00  0.00    -0.352 N 
ATOM     32  C   UNL A   1      48.221  27.528  37.991  1.00  0.00     0.251 C 
ATOM     33  H   UNL A   1      49.741  26.228  38.053  1.00  0.00     0.163 HD
ATOM     34  O   UNL A   1      48.451  27.963  39.120  1.00  0.00    -0.269 OA
BRANCH  32  35
ATOM     35  C   UNL A   1      47.057  28.025  37.227  1.00  0.00     0.039 A 
ATOM     36  C   UNL A   1      45.836  27.359  37.349  1.00  0.00     0.014 A 
ATOM     37  C   UNL A   1      47.165  29.136  36.385  1.00  0.00     0.014 A 
ATOM     38  C   UNL A   1      44.714  27.837  36.667  1.00  0.00     0.010 A 
ATOM     39  C   UNL A   1      46.027  29.665  35.782  1.00  0.00     0.010 A 
ATOM     40  C   UNL A   1      44.793  29.012  35.899  1.00  0.00    -0.014 A 
BRANCH  40  41
ATOM     41  C   UNL A   1      43.597  29.544  35.194  1.00  0.00     0.031 A 
ATOM     42  C   UNL A   1      42.686  30.528  35.883  1.00  0.00     0.074 A 
ATOM     43  C   UNL A   1      43.312  29.121  33.945  1.00  0.00     0.049 A 
ATOM     44  N   UNL A   1      41.601  31.104  35.430  1.00  0.00    -0.248 NA
ATOM     45  C   UNL A   1      43.019  30.892  37.270  1.00  0.00     0.031 C 
ATOM     46  C   UNL A   1      44.084  28.134  33.187  1.00  0.00     0.029 A 
ATOM     47  N   UNL A   1      42.297  29.473  33.090  1.00  0.00    -0.354 N 
ATOM     48  C   UNL A   1      41.121  31.884  36.476  1.00  0.00     0.074 A 
ATOM     49  C   UNL A   1      41.992  31.657  37.606  1.00  0.00     0.031 C 
ATOM     50  C   UNL A   1      43.543  27.993  31.967  1.00  0.00     0.029 A 
ATOM     51  C   UNL A   1      42.363  28.846  31.867  1.00  0.00     0.049 A 
ATOM     52  H   UNL A   1      41.589  30.113  33.329  1.00  0.00     0.167 HD
ATOM     53  C   UNL A   1      40.066  32.733  36.489  1.00  0.00     0.031 A 
ATOM     54  C   UNL A   1      41.565  28.946  30.786  1.00  0.00     0.031 A 
ATOM     55  C   UNL A   1      39.206  32.967  35.359  1.00  0.00     0.049 A 
ATOM     56  C   UNL A   1      40.397  29.895  30.826  1.00  0.00     0.074 A 
ATOM     57  C   UNL A   1      38.146  33.850  35.251  1.00  0.00     0.029 A 
ATOM     58  N   UNL A   1      39.308  32.313  34.140  1.00  0.00    -0.354 N 
ATOM     59  N   UNL A   1      40.006  30.680  31.801  1.00  0.00    -0.248 NA
ATOM     60  C   UNL A   1      39.577  29.985  29.610  1.00  0.00     0.031 C 
ATOM     61  C   UNL A   1      37.569  33.687  33.988  1.00  0.00     0.029 A 
ATOM     62  C   UNL A   1      38.313  32.753  33.283  1.00  0.00     0.049 A 
ATOM     63  H   UNL A   1      39.987  31.637  33.917  1.00  0.00     0.167 HD
ATOM     64  C   UNL A   1      38.907  31.377  31.307  1.00  0.00     0.074 A 
ATOM     65  C   UNL A   1      38.715  30.936  29.940  1.00  0.00     0.031 C 
ATOM     66  C   UNL A   1      38.128  32.298  31.928  1.00  0.00     0.031 A 
BRANCH  53  67
ATOM     67  C   UNL A   1      39.783  33.474  37.773  1.00  0.00    -0.014 A 
ATOM     68  C   UNL A   1      40.373  34.724  38.040  1.00  0.00     0.010 A 
ATOM     69  C   UNL A   1      38.887  32.930  38.712  1.00  0.00     0.010 A 
ATOM     70  C   UNL A   1      40.109  35.392  39.238  1.00  0.00     0.020 A 
ATOM     71  C   UNL A   1      38.595  33.611  39.898  1.00  0.00     0.020 A 
ATOM     72  C   UNL A   1      39.222  34.831  40.160  1.00  0.00     0.054 A 
BRANCH  72  73
ATOM     73  S   UNL A   1      38.880  35.734  41.695  1.00  0.00     0.124 S 
ATOM     74  O   UNL A   1      38.981  37.123  41.255  1.00  0.00    -0.237 OA
ATOM     75  O   UNL A   1      37.535  35.281  42.039  1.00  0.00    -0.237 OA
ATOM     76  O   UNL A   1      39.935  35.291  42.603  1.00  0.00    -0.744 OA
ENDBRANCH  72  73
ENDBRANCH  53  67
BRANCH  54  77
ATOM     77  C   UNL A   1      41.856  28.142  29.566  1.00  0.00    -0.014 A 
ATOM     78  C   UNL A   1      42.785  28.596  28.612  1.00  0.00     0.010 A 
ATOM     79  C   UNL A   1      41.207  26.911  29.353  1.00  0.00     0.010 A 
ATOM     80  C   UNL A   1      43.041  27.848  27.459  1.00  0.00     0.020 A 
ATOM     81  C   UNL A   1      41.485  26.145  28.217  1.00  0.00     0.020 A 
ATOM     82  C   UNL A   1      42.391  26.625  27.271  1.00  0.00     0.054 A 
BRANCH  82  83
ATOM     83  S   UNL A   1      42.775  25.647  25.790  1.00  0.00     0.124 S 
ATOM     84  O   UNL A   1      41.605  25.894  24.952  1.00  0.00    -0.237 OA
ATOM     85  O   UNL A   1      44.023  26.252  25.330  1.00  0.00    -0.237 OA
ATOM     86  O   UNL A   1      42.902  24.286  26.303  1.00  0.00    -0.744 OA
ENDBRANCH  82  83
ENDBRANCH  54  77
BRANCH  66  87
ATOM     87  C   UNL A   1      37.015  32.916  31.122  1.00  0.00    -0.014 A 
ATOM     88  C   UNL A   1      37.276  33.874  30.127  1.00  0.00     0.010 A 
ATOM     89  C   UNL A   1      35.688  32.504  31.343  1.00  0.00     0.010 A 
ATOM     90  C   UNL A   1      36.226  34.447  29.403  1.00  0.00     0.020 A 
ATOM     91  C   UNL A   1      34.639  33.048  30.599  1.00  0.00     0.020 A 
ATOM     92  C   UNL A   1      34.913  34.032  29.648  1.00  0.00     0.054 A 
BRANCH  92  93
ATOM     93  S   UNL A   1      33.570  34.777  28.683  1.00  0.00     0.124 S 
ATOM     94  O   UNL A   1      34.223  35.949  28.109  1.00  0.00    -0.237 OA
ATOM     95  O   UNL A   1      33.229  33.718  27.736  1.00  0.00    -0.237 OA
ATOM     96  O   UNL A   1      32.544  35.064  29.683  1.00  0.00    -0.744 OA
ENDBRANCH  92  93
ENDBRANCH  66  87
ENDBRANCH  40  41
ENDBRANCH  32  35
ENDBRANCH  30  31
ENDBRANCH   1  30
TORSDOF 16
ENDMDL
