MODEL 1
REMARK VINA RESULT:     -11.4      0.000      0.000
REMARK SMILES Cc1nc(=O)[nH]c(C)c1CC(=O)Nc1sccc1C(=O)NCCCNC(=O)c1ccc(-c2c3nc(c(-c4ccc(S(=O)(=O)[O-])cc4)c4ccc([nH]4)c(-c4ccc(S(=O)(=O)[O-])cc4)c4nc(c(-c5ccc(S(=O)(=O)[O-])cc5)c5ccc2[nH]5)C=C4)C=C3)cc1
REMARK SMILES IDX 23 1 22 2 21 3 19 4 20 5 18 7 14 8 15 9 16 10 17 11 13 12
REMARK SMILES IDX 11 13 12 14 10 16 9 17 1 18 2 19 3 20 4 21 7 22 5 23 6 24
REMARK SMILES IDX 8 25 24 27 25 28 26 29 27 31 28 32 29 33 87 34 30 35 86 36
REMARK SMILES IDX 31 37 32 38 33 39 80 40 34 41 85 42 79 43 81 44 35 45 84 46
REMARK SMILES IDX 78 47 77 48 36 50 66 51 47 52 65 53 48 54 51 55 64 56 82 57
REMARK SMILES IDX 49 58 50 59 63 61 83 62 52 63 37 64 38 65 46 66 39 67 45 68
REMARK SMILES IDX 40 69 41 70 42 71 43 72 44 73 67 74 68 75 76 76 69 77 75 78
REMARK SMILES IDX 70 79 71 80 72 81 73 82 74 83 53 84 54 85 62 86 55 87 61 88
REMARK SMILES IDX 56 89 57 90 58 91 59 92 60 93
REMARK H PARENT 21 6 13 15 6 26 25 30 81 49 51 60
REMARK Flexibility Score: inf
ROOT
ATOM      1  C   UNL A   1      33.727  29.052  25.736  1.00  0.00     0.042 C 
ENDROOT
BRANCH   1   2
ATOM      2  C   UNL A   1      32.293  29.098  25.250  1.00  0.00     0.118 C 
BRANCH   2   3
ATOM      3  N   UNL A   1      31.452  28.040  25.749  1.00  0.00    -0.352 N 
ATOM      4  C   UNL A   1      31.209  26.789  25.243  1.00  0.00     0.254 C 
ATOM      5  O   UNL A   1      30.363  26.121  25.839  1.00  0.00    -0.269 OA
ATOM      6  H   UNL A   1      30.977  28.248  26.585  1.00  0.00     0.163 HD
BRANCH   4   7
ATOM      7  C   UNL A   1      31.822  26.285  24.007  1.00  0.00     0.074 A 
ATOM      8  C   UNL A   1      33.092  25.814  23.716  1.00  0.00     0.108 A 
ATOM      9  S   UNL A   1      33.398  25.752  22.029  1.00  0.00    -0.126 S 
ATOM     10  C   UNL A   1      31.753  25.968  21.658  1.00  0.00     0.068 A 
ATOM     11  C   UNL A   1      31.027  26.249  22.790  1.00  0.00     0.028 A 
BRANCH   8  12
ATOM     12  N   UNL A   1      34.236  25.479  24.396  1.00  0.00    -0.317 N 
ATOM     13  C   UNL A   1      34.787  24.283  24.725  1.00  0.00     0.229 C 
ATOM     14  O   UNL A   1      35.579  24.286  25.678  1.00  0.00    -0.274 OA
ATOM     15  H   UNL A   1      34.755  26.256  24.705  1.00  0.00     0.170 HD
BRANCH  13  16
ATOM     16  C   UNL A   1      34.682  23.023  23.868  1.00  0.00     0.139 C 
BRANCH  16  17
ATOM     17  C   UNL A   1      34.107  21.762  24.423  1.00  0.00     0.002 A 
ATOM     18  C   UNL A   1      31.736  22.447  23.557  1.00  0.00     0.067 C 
ATOM     19  C   UNL A   1      32.643  21.464  24.271  1.00  0.00     0.049 A 
ATOM     20  N   UNL A   1      32.064  20.376  24.666  1.00  0.00    -0.198 NA
ATOM     21  C   UNL A   1      32.809  19.411  25.279  1.00  0.00     0.345 A 
ATOM     22  C   UNL A   1      34.817  20.740  24.941  1.00  0.00     0.022 A 
ATOM     23  O   UNL A   1      32.331  18.360  25.697  1.00  0.00    -0.246 OA
ATOM     24  N   UNL A   1      34.160  19.617  25.371  1.00  0.00    -0.310 N 
ATOM     25  C   UNL A   1      36.311  20.684  25.110  1.00  0.00     0.065 C 
ATOM     26  H   UNL A   1      34.701  18.903  25.779  1.00  0.00     0.171 HD
ENDBRANCH  16  17
ENDBRANCH  13  16
ENDBRANCH   8  12
ENDBRANCH   4   7
ENDBRANCH   2   3
ENDBRANCH   1   2
BRANCH   1  27
ATOM     27  C   UNL A   1      33.871  28.900  27.244  1.00  0.00     0.118 C 
BRANCH  27  28
ATOM     28  N   UNL A   1      33.924  30.157  27.990  1.00  0.00    -0.352 N 
ATOM     29  C   UNL A   1      35.008  30.756  28.597  1.00  0.00     0.251 C 
ATOM     30  H   UNL A   1      33.071  30.641  28.070  1.00  0.00     0.163 HD
ATOM     31  O   UNL A   1      34.891  31.844  29.151  1.00  0.00    -0.269 OA
BRANCH  29  32
ATOM     32  C   UNL A   1      36.290  30.026  28.644  1.00  0.00     0.039 A 
ATOM     33  C   UNL A   1      37.152  30.133  27.550  1.00  0.00     0.014 A 
ATOM     34  C   UNL A   1      36.700  29.384  29.813  1.00  0.00     0.014 A 
ATOM     35  C   UNL A   1      38.470  29.698  27.676  1.00  0.00     0.010 A 
ATOM     36  C   UNL A   1      38.041  29.055  29.971  1.00  0.00     0.010 A 
ATOM     37  C   UNL A   1      38.945  29.222  28.911  1.00  0.00    -0.014 A 
BRANCH  37  38
ATOM     38  C   UNL A   1      40.389  28.936  29.108  1.00  0.00     0.031 A 
ATOM     39  C   UNL A   1      40.959  27.598  28.729  1.00  0.00     0.074 A 
ATOM     40  C   UNL A   1      41.180  29.874  29.673  1.00  0.00     0.049 A 
ATOM     41  N   UNL A   1      42.198  27.183  28.796  1.00  0.00    -0.248 NA
ATOM     42  C   UNL A   1      40.014  26.581  28.237  1.00  0.00     0.031 C 
ATOM     43  C   UNL A   1      40.732  31.184  30.159  1.00  0.00     0.029 A 
ATOM     44  N   UNL A   1      42.529  29.877  29.926  1.00  0.00    -0.354 N 
ATOM     45  C   UNL A   1      42.177  25.862  28.366  1.00  0.00     0.074 A 
ATOM     46  C   UNL A   1      40.797  25.521  28.108  1.00  0.00     0.031 C 
ATOM     47  C   UNL A   1      41.793  31.880  30.594  1.00  0.00     0.029 A 
ATOM     48  C   UNL A   1      42.991  31.060  30.457  1.00  0.00     0.049 A 
ATOM     49  H   UNL A   1      43.112  29.105  29.744  1.00  0.00     0.167 HD
ATOM     50  C   UNL A   1      43.216  25.015  28.170  1.00  0.00     0.031 A 
ATOM     51  C   UNL A   1      44.240  31.447  30.783  1.00  0.00     0.031 A 
ATOM     52  C   UNL A   1      44.590  25.361  28.420  1.00  0.00     0.049 A 
ATOM     53  C   UNL A   1      45.380  30.494  30.544  1.00  0.00     0.074 A 
ATOM     54  C   UNL A   1      45.724  24.601  28.197  1.00  0.00     0.029 A 
ATOM     55  N   UNL A   1      45.016  26.570  28.951  1.00  0.00    -0.354 N 
ATOM     56  N   UNL A   1      45.349  29.280  30.047  1.00  0.00    -0.248 NA
ATOM     57  C   UNL A   1      46.724  30.972  30.891  1.00  0.00     0.031 C 
ATOM     58  C   UNL A   1      46.831  25.328  28.646  1.00  0.00     0.029 A 
ATOM     59  C   UNL A   1      46.394  26.565  29.089  1.00  0.00     0.049 A 
ATOM     60  H   UNL A   1      44.427  27.320  29.194  1.00  0.00     0.167 HD
ATOM     61  C   UNL A   1      46.672  28.856  30.005  1.00  0.00     0.074 A 
ATOM     62  C   UNL A   1      47.478  29.955  30.499  1.00  0.00     0.031 C 
ATOM     63  C   UNL A   1      47.177  27.664  29.599  1.00  0.00     0.031 A 
BRANCH  50  64
ATOM     64  C   UNL A   1      42.899  23.635  27.657  1.00  0.00    -0.014 A 
ATOM     65  C   UNL A   1      42.550  22.595  28.538  1.00  0.00     0.010 A 
ATOM     66  C   UNL A   1      42.923  23.379  26.274  1.00  0.00     0.010 A 
ATOM     67  C   UNL A   1      42.278  21.315  28.052  1.00  0.00     0.020 A 
ATOM     68  C   UNL A   1      42.619  22.106  25.780  1.00  0.00     0.020 A 
ATOM     69  C   UNL A   1      42.315  21.078  26.675  1.00  0.00     0.054 A 
BRANCH  69  70
ATOM     70  S   UNL A   1      41.931  19.411  26.072  1.00  0.00     0.124 S 
ATOM     71  O   UNL A   1      42.767  19.325  24.877  1.00  0.00    -0.237 OA
ATOM     72  O   UNL A   1      42.344  18.565  27.189  1.00  0.00    -0.237 OA
ATOM     73  O   UNL A   1      40.493  19.454  25.824  1.00  0.00    -0.744 OA
ENDBRANCH  69  70
ENDBRANCH  50  64
BRANCH  51  74
ATOM     74  C   UNL A   1      44.482  32.809  31.340  1.00  0.00    -0.014 A 
ATOM     75  C   UNL A   1      44.528  33.015  32.730  1.00  0.00     0.010 A 
ATOM     76  C   UNL A   1      44.674  33.906  30.481  1.00  0.00     0.010 A 
ATOM     77  C   UNL A   1      44.742  34.297  33.251  1.00  0.00     0.020 A 
ATOM     78  C   UNL A   1      44.917  35.182  30.997  1.00  0.00     0.020 A 
ATOM     79  C   UNL A   1      44.938  35.371  32.380  1.00  0.00     0.054 A 
BRANCH  79  80
ATOM     80  S   UNL A   1      45.265  37.015  33.078  1.00  0.00     0.124 S 
ATOM     81  O   UNL A   1      46.695  37.170  32.833  1.00  0.00    -0.237 OA
ATOM     82  O   UNL A   1      44.388  37.874  32.285  1.00  0.00    -0.237 OA
ATOM     83  O   UNL A   1      44.880  36.872  34.481  1.00  0.00    -0.744 OA
ENDBRANCH  79  80
ENDBRANCH  51  74
BRANCH  63  84
ATOM     84  C   UNL A   1      48.672  27.498  29.657  1.00  0.00    -0.014 A 
ATOM     85  C   UNL A   1      49.302  26.965  30.795  1.00  0.00     0.010 A 
ATOM     86  C   UNL A   1      49.456  27.859  28.545  1.00  0.00     0.010 A 
ATOM     87  C   UNL A   1      50.693  26.844  30.842  1.00  0.00     0.020 A 
ATOM     88  C   UNL A   1      50.844  27.708  28.575  1.00  0.00     0.020 A 
ATOM     89  C   UNL A   1      51.455  27.223  29.732  1.00  0.00     0.054 A 
BRANCH  89  90
ATOM     90  S   UNL A   1      53.259  27.048  29.813  1.00  0.00     0.124 S 
ATOM     91  O   UNL A   1      53.552  26.361  28.559  1.00  0.00    -0.237 OA
ATOM     92  O   UNL A   1      53.712  28.434  29.892  1.00  0.00    -0.237 OA
ATOM     93  O   UNL A   1      53.476  26.258  31.023  1.00  0.00    -0.744 OA
ENDBRANCH  89  90
ENDBRANCH  63  84
ENDBRANCH  37  38
ENDBRANCH  29  32
ENDBRANCH  27  28
ENDBRANCH   1  27
TORSDOF 16
ENDMDL
MODEL 2
REMARK VINA RESULT:     -11.3      1.790      8.612
REMARK SMILES Cc1nc(=O)[nH]c(C)c1CC(=O)Nc1sccc1C(=O)NCCCNC(=O)c1ccc(-c2c3nc(c(-c4ccc(S(=O)(=O)[O-])cc4)c4ccc([nH]4)c(-c4ccc(S(=O)(=O)[O-])cc4)c4nc(c(-c5ccc(S(=O)(=O)[O-])cc5)c5ccc2[nH]5)C=C4)C=C3)cc1
REMARK SMILES IDX 23 1 22 2 21 3 19 4 20 5 18 7 14 8 15 9 16 10 17 11 13 12
REMARK SMILES IDX 11 13 12 14 10 16 9 17 1 18 2 19 3 20 4 21 7 22 5 23 6 24
REMARK SMILES IDX 8 25 24 27 25 28 26 29 27 31 28 32 29 33 87 34 30 35 86 36
REMARK SMILES IDX 31 37 32 38 33 39 80 40 34 41 85 42 79 43 81 44 35 45 84 46
REMARK SMILES IDX 78 47 77 48 36 50 66 51 47 52 65 53 48 54 51 55 64 56 82 57
REMARK SMILES IDX 49 58 50 59 63 61 83 62 52 63 37 64 38 65 46 66 39 67 45 68
REMARK SMILES IDX 40 69 41 70 42 71 43 72 44 73 67 74 68 75 76 76 69 77 75 78
REMARK SMILES IDX 70 79 71 80 72 81 73 82 74 83 53 84 54 85 62 86 55 87 61 88
REMARK SMILES IDX 56 89 57 90 58 91 59 92 60 93
REMARK H PARENT 21 6 13 15 6 26 25 30 81 49 51 60
REMARK Flexibility Score: inf
ROOT
ATOM      1  C   UNL A   1      32.577  28.174  27.620  1.00  0.00     0.042 C 
ENDROOT
BRANCH   1   2
ATOM      2  C   UNL A   1      32.184  27.076  26.653  1.00  0.00     0.118 C 
BRANCH   2   3
ATOM      3  N   UNL A   1      32.907  27.083  25.406  1.00  0.00    -0.352 N 
ATOM      4  C   UNL A   1      33.744  26.143  24.863  1.00  0.00     0.254 C 
ATOM      5  O   UNL A   1      34.302  26.461  23.812  1.00  0.00    -0.269 OA
ATOM      6  H   UNL A   1      32.780  27.891  24.858  1.00  0.00     0.163 HD
BRANCH   4   7
ATOM      7  C   UNL A   1      34.061  24.868  25.521  1.00  0.00     0.074 A 
ATOM      8  C   UNL A   1      33.325  24.027  26.340  1.00  0.00     0.108 A 
ATOM      9  S   UNL A   1      34.309  22.894  27.170  1.00  0.00    -0.126 S 
ATOM     10  C   UNL A   1      35.648  23.233  26.178  1.00  0.00     0.068 A 
ATOM     11  C   UNL A   1      35.391  24.302  25.355  1.00  0.00     0.028 A 
BRANCH   8  12
ATOM     12  N   UNL A   1      32.029  23.904  26.772  1.00  0.00    -0.317 N 
ATOM     13  C   UNL A   1      30.845  23.857  26.111  1.00  0.00     0.229 C 
ATOM     14  O   UNL A   1      29.837  24.158  26.766  1.00  0.00    -0.274 OA
ATOM     15  H   UNL A   1      31.942  23.837  27.750  1.00  0.00     0.170 HD
BRANCH  13  16
ATOM     16  C   UNL A   1      30.658  23.242  24.724  1.00  0.00     0.139 C 
BRANCH  16  17
ATOM     17  C   UNL A   1      31.313  23.840  23.524  1.00  0.00     0.002 A 
ATOM     18  C   UNL A   1      29.813  25.970  23.752  1.00  0.00     0.067 C 
ATOM     19  C   UNL A   1      30.904  25.200  23.034  1.00  0.00     0.049 A 
ATOM     20  N   UNL A   1      31.450  25.825  22.042  1.00  0.00    -0.198 NA
ATOM     21  C   UNL A   1      32.472  25.229  21.362  1.00  0.00     0.345 A 
ATOM     22  C   UNL A   1      32.390  23.337  22.888  1.00  0.00     0.022 A 
ATOM     23  O   UNL A   1      33.030  25.749  20.400  1.00  0.00    -0.246 OA
ATOM     24  N   UNL A   1      32.920  24.020  21.826  1.00  0.00    -0.310 N 
ATOM     25  C   UNL A   1      33.109  22.059  23.222  1.00  0.00     0.065 C 
ATOM     26  H   UNL A   1      33.683  23.610  21.357  1.00  0.00     0.171 HD
ENDBRANCH  16  17
ENDBRANCH  13  16
ENDBRANCH   8  12
ENDBRANCH   4   7
ENDBRANCH   2   3
ENDBRANCH   1   2
BRANCH   1  27
ATOM     27  C   UNL A   1      33.523  29.213  27.035  1.00  0.00     0.118 C 
BRANCH  27  28
ATOM     28  N   UNL A   1      33.604  30.467  27.782  1.00  0.00    -0.352 N 
ATOM     29  C   UNL A   1      34.687  31.014  28.439  1.00  0.00     0.251 C 
ATOM     30  H   UNL A   1      32.773  30.993  27.822  1.00  0.00     0.163 HD
ATOM     31  O   UNL A   1      34.598  32.108  28.987  1.00  0.00    -0.269 OA
BRANCH  29  32
ATOM     32  C   UNL A   1      35.928  30.221  28.546  1.00  0.00     0.039 A 
ATOM     33  C   UNL A   1      36.837  30.273  27.488  1.00  0.00     0.014 A 
ATOM     34  C   UNL A   1      36.256  29.574  29.738  1.00  0.00     0.014 A 
ATOM     35  C   UNL A   1      38.126  29.774  27.673  1.00  0.00     0.010 A 
ATOM     36  C   UNL A   1      37.572  29.181  29.954  1.00  0.00     0.010 A 
ATOM     37  C   UNL A   1      38.525  29.290  28.931  1.00  0.00    -0.014 A 
BRANCH  37  38
ATOM     38  C   UNL A   1      39.944  28.935  29.191  1.00  0.00     0.031 A 
ATOM     39  C   UNL A   1      40.867  29.921  29.850  1.00  0.00     0.074 A 
ATOM     40  C   UNL A   1      40.412  27.733  28.789  1.00  0.00     0.049 A 
ATOM     41  N   UNL A   1      42.123  29.775  30.186  1.00  0.00    -0.248 NA
ATOM     42  C   UNL A   1      40.321  31.257  30.146  1.00  0.00     0.031 C 
ATOM     43  C   UNL A   1      39.638  26.718  28.066  1.00  0.00     0.029 A 
ATOM     44  N   UNL A   1      41.648  27.155  28.939  1.00  0.00    -0.354 N 
ATOM     45  C   UNL A   1      42.515  30.995  30.722  1.00  0.00     0.074 A 
ATOM     46  C   UNL A   1      41.389  31.894  30.601  1.00  0.00     0.031 C 
ATOM     47  C   UNL A   1      40.398  25.626  27.890  1.00  0.00     0.029 A 
ATOM     48  C   UNL A   1      41.722  25.871  28.449  1.00  0.00     0.049 A 
ATOM     49  H   UNL A   1      42.410  27.616  29.358  1.00  0.00     0.167 HD
ATOM     50  C   UNL A   1      43.696  31.333  31.293  1.00  0.00     0.031 A 
ATOM     51  C   UNL A   1      42.737  24.984  28.462  1.00  0.00     0.031 A 
ATOM     52  C   UNL A   1      44.811  30.434  31.419  1.00  0.00     0.049 A 
ATOM     53  C   UNL A   1      44.034  25.377  29.115  1.00  0.00     0.074 A 
ATOM     54  C   UNL A   1      46.030  30.654  32.036  1.00  0.00     0.029 A 
ATOM     55  N   UNL A   1      44.845  29.141  30.917  1.00  0.00    -0.354 N 
ATOM     56  N   UNL A   1      44.354  26.507  29.700  1.00  0.00    -0.248 NA
ATOM     57  C   UNL A   1      45.101  24.367  29.127  1.00  0.00     0.031 C 
ATOM     58  C   UNL A   1      46.821  29.515  31.857  1.00  0.00     0.029 A 
ATOM     59  C   UNL A   1      46.073  28.561  31.185  1.00  0.00     0.049 A 
ATOM     60  H   UNL A   1      44.104  28.700  30.440  1.00  0.00     0.167 HD
ATOM     61  C   UNL A   1      45.653  26.337  30.166  1.00  0.00     0.074 A 
ATOM     62  C   UNL A   1      46.045  24.985  29.820  1.00  0.00     0.031 C 
ATOM     63  C   UNL A   1      46.452  27.220  30.817  1.00  0.00     0.031 A 
BRANCH  50  64
ATOM     64  C   UNL A   1      43.832  32.735  31.827  1.00  0.00    -0.014 A 
ATOM     65  C   UNL A   1      44.245  33.792  30.995  1.00  0.00     0.010 A 
ATOM     66  C   UNL A   1      43.518  33.007  33.171  1.00  0.00     0.010 A 
ATOM     67  C   UNL A   1      44.387  35.083  31.506  1.00  0.00     0.020 A 
ATOM     68  C   UNL A   1      43.627  34.305  33.679  1.00  0.00     0.020 A 
ATOM     69  C   UNL A   1      44.078  35.332  32.847  1.00  0.00     0.054 A 
BRANCH  69  70
ATOM     70  S   UNL A   1      44.248  37.025  33.476  1.00  0.00     0.124 S 
ATOM     71  O   UNL A   1      42.880  37.331  33.885  1.00  0.00    -0.237 OA
ATOM     72  O   UNL A   1      45.208  36.865  34.565  1.00  0.00    -0.237 OA
ATOM     73  O   UNL A   1      44.736  37.776  32.322  1.00  0.00    -0.744 OA
ENDBRANCH  69  70
ENDBRANCH  50  64
BRANCH  51  74
ATOM     74  C   UNL A   1      42.557  23.629  27.867  1.00  0.00    -0.014 A 
ATOM     75  C   UNL A   1      42.873  23.393  26.517  1.00  0.00     0.010 A 
ATOM     76  C   UNL A   1      42.073  22.565  28.649  1.00  0.00     0.010 A 
ATOM     77  C   UNL A   1      42.691  22.124  25.957  1.00  0.00     0.020 A 
ATOM     78  C   UNL A   1      41.917  21.289  28.101  1.00  0.00     0.020 A 
ATOM     79  C   UNL A   1      42.216  21.079  26.754  1.00  0.00     0.054 A 
BRANCH  79  80
ATOM     80  S   UNL A   1      42.036  19.429  26.019  1.00  0.00     0.124 S 
ATOM     81  O   UNL A   1      42.557  18.567  27.075  1.00  0.00    -0.237 OA
ATOM     82  O   UNL A   1      40.597  19.345  25.783  1.00  0.00    -0.237 OA
ATOM     83  O   UNL A   1      42.854  19.504  24.810  1.00  0.00    -0.744 OA
ENDBRANCH  79  80
ENDBRANCH  51  74
BRANCH  63  84
ATOM     84  C   UNL A   1      47.823  26.740  31.212  1.00  0.00    -0.014 A 
ATOM     85  C   UNL A   1      48.903  26.803  30.314  1.00  0.00     0.010 A 
ATOM     86  C   UNL A   1      48.038  26.240  32.509  1.00  0.00     0.010 A 
ATOM     87  C   UNL A   1      50.162  26.327  30.688  1.00  0.00     0.020 A 
ATOM     88  C   UNL A   1      49.304  25.794  32.899  1.00  0.00     0.020 A 
ATOM     89  C   UNL A   1      50.352  25.820  31.977  1.00  0.00     0.054 A 
BRANCH  89  90
ATOM     90  S   UNL A   1      51.998  25.217  32.443  1.00  0.00     0.124 S 
ATOM     91  O   UNL A   1      51.840  23.772  32.309  1.00  0.00    -0.237 OA
ATOM     92  O   UNL A   1      52.864  25.850  31.451  1.00  0.00    -0.237 OA
ATOM     93  O   UNL A   1      52.171  25.702  33.810  1.00  0.00    -0.744 OA
ENDBRANCH  89  90
ENDBRANCH  63  84
ENDBRANCH  37  38
ENDBRANCH  29  32
ENDBRANCH  27  28
ENDBRANCH   1  27
TORSDOF 16
ENDMDL
MODEL 3
REMARK VINA RESULT:     -11.2      1.506      2.066
REMARK SMILES Cc1nc(=O)[nH]c(C)c1CC(=O)Nc1sccc1C(=O)NCCCNC(=O)c1ccc(-c2c3nc(c(-c4ccc(S(=O)(=O)[O-])cc4)c4ccc([nH]4)c(-c4ccc(S(=O)(=O)[O-])cc4)c4nc(c(-c5ccc(S(=O)(=O)[O-])cc5)c5ccc2[nH]5)C=C4)C=C3)cc1
REMARK SMILES IDX 23 1 22 2 21 3 19 4 20 5 18 7 14 8 15 9 16 10 17 11 13 12
REMARK SMILES IDX 11 13 12 14 10 16 9 17 1 18 2 19 3 20 4 21 7 22 5 23 6 24
REMARK SMILES IDX 8 25 24 27 25 28 26 29 27 31 28 32 29 33 87 34 30 35 86 36
REMARK SMILES IDX 31 37 32 38 33 39 80 40 34 41 85 42 79 43 81 44 35 45 84 46
REMARK SMILES IDX 78 47 77 48 36 50 66 51 47 52 65 53 48 54 51 55 64 56 82 57
REMARK SMILES IDX 49 58 50 59 63 61 83 62 52 63 37 64 38 65 46 66 39 67 45 68
REMARK SMILES IDX 40 69 41 70 42 71 43 72 44 73 67 74 68 75 76 76 69 77 75 78
REMARK SMILES IDX 70 79 71 80 72 81 73 82 74 83 53 84 54 85 62 86 55 87 61 88
REMARK SMILES IDX 56 89 57 90 58 91 59 92 60 93
REMARK H PARENT 21 6 13 15 6 26 25 30 81 49 51 60
REMARK Flexibility Score: inf
ROOT
ATOM      1  C   UNL A   1      31.864  28.071  26.662  1.00  0.00     0.042 C 
ENDROOT
BRANCH   1   2
ATOM      2  C   UNL A   1      31.862  28.372  25.177  1.00  0.00     0.118 C 
BRANCH   2   3
ATOM      3  N   UNL A   1      30.561  28.349  24.558  1.00  0.00    -0.352 N 
ATOM      4  C   UNL A   1      30.033  27.481  23.638  1.00  0.00     0.254 C 
ATOM      5  O   UNL A   1      28.911  27.763  23.212  1.00  0.00    -0.269 OA
ATOM      6  H   UNL A   1      29.955  29.072  24.841  1.00  0.00     0.163 HD
BRANCH   4   7
ATOM      7  C   UNL A   1      30.772  26.335  23.092  1.00  0.00     0.074 A 
ATOM      8  C   UNL A   1      30.967  25.042  23.549  1.00  0.00     0.108 A 
ATOM      9  S   UNL A   1      32.256  24.248  22.742  1.00  0.00    -0.126 S 
ATOM     10  C   UNL A   1      32.315  25.439  21.531  1.00  0.00     0.068 A 
ATOM     11  C   UNL A   1      31.489  26.493  21.837  1.00  0.00     0.028 A 
BRANCH   8  12
ATOM     12  N   UNL A   1      30.493  24.233  24.551  1.00  0.00    -0.317 N 
ATOM     13  C   UNL A   1      31.093  23.663  25.627  1.00  0.00     0.229 C 
ATOM     14  O   UNL A   1      30.530  22.670  26.109  1.00  0.00    -0.274 OA
ATOM     15  H   UNL A   1      29.534  24.026  24.473  1.00  0.00     0.170 HD
BRANCH  13  16
ATOM     16  C   UNL A   1      32.248  24.295  26.403  1.00  0.00     0.139 C 
BRANCH  16  17
ATOM     17  C   UNL A   1      33.643  23.788  26.252  1.00  0.00     0.002 A 
ATOM     18  C   UNL A   1      34.294  25.939  24.914  1.00  0.00     0.067 C 
ATOM     19  C   UNL A   1      34.671  24.600  25.517  1.00  0.00     0.049 A 
ATOM     20  N   UNL A   1      35.916  24.273  25.383  1.00  0.00    -0.198 NA
ATOM     21  C   UNL A   1      36.359  23.105  25.931  1.00  0.00     0.345 A 
ATOM     22  C   UNL A   1      34.149  22.697  26.861  1.00  0.00     0.022 A 
ATOM     23  O   UNL A   1      37.520  22.716  25.834  1.00  0.00    -0.246 OA
ATOM     24  N   UNL A   1      35.467  22.374  26.671  1.00  0.00    -0.310 N 
ATOM     25  C   UNL A   1      33.406  21.751  27.765  1.00  0.00     0.065 C 
ATOM     26  H   UNL A   1      35.799  21.551  27.098  1.00  0.00     0.171 HD
ENDBRANCH  16  17
ENDBRANCH  13  16
ENDBRANCH   8  12
ENDBRANCH   4   7
ENDBRANCH   2   3
ENDBRANCH   1   2
BRANCH   1  27
ATOM     27  C   UNL A   1      33.132  28.506  27.385  1.00  0.00     0.118 C 
BRANCH  27  28
ATOM     28  N   UNL A   1      33.201  29.931  27.707  1.00  0.00    -0.352 N 
ATOM     29  C   UNL A   1      34.304  30.689  28.039  1.00  0.00     0.251 C 
ATOM     30  H   UNL A   1      32.344  30.415  27.682  1.00  0.00     0.163 HD
ATOM     31  O   UNL A   1      34.196  31.894  28.240  1.00  0.00    -0.269 OA
BRANCH  29  32
ATOM     32  C   UNL A   1      35.600  30.011  28.235  1.00  0.00     0.039 A 
ATOM     33  C   UNL A   1      36.503  29.992  27.170  1.00  0.00     0.014 A 
ATOM     34  C   UNL A   1      35.977  29.548  29.496  1.00  0.00     0.014 A 
ATOM     35  C   UNL A   1      37.826  29.617  27.404  1.00  0.00     0.010 A 
ATOM     36  C   UNL A   1      37.318  29.284  29.749  1.00  0.00     0.010 A 
ATOM     37  C   UNL A   1      38.260  29.330  28.710  1.00  0.00    -0.014 A 
BRANCH  37  38
ATOM     38  C   UNL A   1      39.702  29.117  28.999  1.00  0.00     0.031 A 
ATOM     39  C   UNL A   1      40.356  27.802  28.678  1.00  0.00     0.074 A 
ATOM     40  C   UNL A   1      40.412  30.100  29.593  1.00  0.00     0.049 A 
ATOM     41  N   UNL A   1      41.607  27.448  28.827  1.00  0.00    -0.248 NA
ATOM     42  C   UNL A   1      39.492  26.734  28.148  1.00  0.00     0.031 C 
ATOM     43  C   UNL A   1      39.874  31.394  30.028  1.00  0.00     0.029 A 
ATOM     44  N   UNL A   1      41.741  30.172  29.927  1.00  0.00    -0.354 N 
ATOM     45  C   UNL A   1      41.675  26.122  28.419  1.00  0.00     0.074 A 
ATOM     46  C   UNL A   1      40.330  25.711  28.085  1.00  0.00     0.031 C 
ATOM     47  C   UNL A   1      40.873  32.147  30.514  1.00  0.00     0.029 A 
ATOM     48  C   UNL A   1      42.113  31.383  30.464  1.00  0.00     0.049 A 
ATOM     49  H   UNL A   1      42.370  29.426  29.794  1.00  0.00     0.167 HD
ATOM     50  C   UNL A   1      42.762  25.323  28.302  1.00  0.00     0.031 A 
ATOM     51  C   UNL A   1      43.321  31.834  30.857  1.00  0.00     0.031 A 
ATOM     52  C   UNL A   1      44.100  25.739  28.627  1.00  0.00     0.049 A 
ATOM     53  C   UNL A   1      44.517  30.935  30.704  1.00  0.00     0.074 A 
ATOM     54  C   UNL A   1      45.280  25.031  28.486  1.00  0.00     0.029 A 
ATOM     55  N   UNL A   1      44.436  26.974  29.162  1.00  0.00    -0.354 N 
ATOM     56  N   UNL A   1      44.573  29.713  30.227  1.00  0.00    -0.248 NA
ATOM     57  C   UNL A   1      45.814  31.482  31.123  1.00  0.00     0.031 C 
ATOM     58  C   UNL A   1      46.323  25.816  28.988  1.00  0.00     0.029 A 
ATOM     59  C   UNL A   1      45.802  27.038  29.382  1.00  0.00     0.049 A 
ATOM     60  H   UNL A   1      43.798  27.699  29.355  1.00  0.00     0.167 HD
ATOM     61  C   UNL A   1      45.916  29.353  30.273  1.00  0.00     0.074 A 
ATOM     62  C   UNL A   1      46.637  30.496  30.794  1.00  0.00     0.031 C 
ATOM     63  C   UNL A   1      46.500  28.180  29.919  1.00  0.00     0.031 A 
BRANCH  50  64
ATOM     64  C   UNL A   1      42.542  23.922  27.795  1.00  0.00    -0.014 A 
ATOM     65  C   UNL A   1      42.279  22.862  28.682  1.00  0.00     0.010 A 
ATOM     66  C   UNL A   1      42.572  23.664  26.412  1.00  0.00     0.010 A 
ATOM     67  C   UNL A   1      42.096  21.564  28.202  1.00  0.00     0.020 A 
ATOM     68  C   UNL A   1      42.357  22.371  25.924  1.00  0.00     0.020 A 
ATOM     69  C   UNL A   1      42.138  21.326  26.825  1.00  0.00     0.054 A 
BRANCH  69  70
ATOM     70  S   UNL A   1      41.872  19.634  26.229  1.00  0.00     0.124 S 
ATOM     71  O   UNL A   1      40.422  19.599  26.060  1.00  0.00    -0.237 OA
ATOM     72  O   UNL A   1      42.649  19.605  24.992  1.00  0.00    -0.237 OA
ATOM     73  O   UNL A   1      42.394  18.800  27.309  1.00  0.00    -0.744 OA
ENDBRANCH  69  70
ENDBRANCH  50  64
BRANCH  51  74
ATOM     74  C   UNL A   1      43.464  33.214  31.404  1.00  0.00    -0.014 A 
ATOM     75  C   UNL A   1      43.387  33.448  32.788  1.00  0.00     0.010 A 
ATOM     76  C   UNL A   1      43.686  34.303  30.541  1.00  0.00     0.010 A 
ATOM     77  C   UNL A   1      43.508  34.745  33.298  1.00  0.00     0.020 A 
ATOM     78  C   UNL A   1      43.836  35.597  31.048  1.00  0.00     0.020 A 
ATOM     79  C   UNL A   1      43.735  35.811  32.424  1.00  0.00     0.054 A 
BRANCH  79  80
ATOM     80  S   UNL A   1      43.941  37.479  33.112  1.00  0.00     0.124 S 
ATOM     81  O   UNL A   1      45.257  37.391  33.735  1.00  0.00    -0.237 OA
ATOM     82  O   UNL A   1      43.857  38.322  31.922  1.00  0.00    -0.237 OA
ATOM     83  O   UNL A   1      42.816  37.607  34.036  1.00  0.00    -0.744 OA
ENDBRANCH  79  80
ENDBRANCH  51  74
BRANCH  63  84
ATOM     84  C   UNL A   1      47.995  28.087  30.069  1.00  0.00    -0.014 A 
ATOM     85  C   UNL A   1      48.579  27.615  31.258  1.00  0.00     0.010 A 
ATOM     86  C   UNL A   1      48.826  28.455  28.995  1.00  0.00     0.010 A 
ATOM     87  C   UNL A   1      49.968  27.563  31.390  1.00  0.00     0.020 A 
ATOM     88  C   UNL A   1      50.216  28.371  29.111  1.00  0.00     0.020 A 
ATOM     89  C   UNL A   1      50.778  27.947  30.316  1.00  0.00     0.054 A 
BRANCH  89  90
ATOM     90  S   UNL A   1      52.579  27.860  30.508  1.00  0.00     0.124 S 
ATOM     91  O   UNL A   1      53.042  28.146  29.153  1.00  0.00    -0.237 OA
ATOM     92  O   UNL A   1      52.847  28.902  31.497  1.00  0.00    -0.237 OA
ATOM     93  O   UNL A   1      52.813  26.495  30.972  1.00  0.00    -0.744 OA
ENDBRANCH  89  90
ENDBRANCH  63  84
ENDBRANCH  37  38
ENDBRANCH  29  32
ENDBRANCH  27  28
ENDBRANCH   1  27
TORSDOF 16
ENDMDL
