MODEL 1
REMARK VINA RESULT:      -9.7      0.000      0.000
REMARK SMILES COc1cccc([C@H]2CC(c3ccc(S(C)(=O)=O)cc3)=NN2c2ccc(C(=O)NCCCNC(=O)c3ccc(-c4c5nc(c(-c6ccc(S(=O)(=O)[O-])cc6)c6ccc([nH]6)c(-c6ccc(S(=O)(=O)[O-])cc6)c6nc(c(-c7ccc(S(=O)(=O)[O-])cc7)c7ccc4[nH]7)C=C6)C=C5)cc3)cc2)c1
REMARK SMILES IDX 31 1 30 2 29 3 27 4 28 5 26 7 23 8 24 9 97 10 25 11 96 12
REMARK SMILES IDX 22 13 8 14 9 15 10 16 21 17 7 18 3 19 4 20 98 21 5 22 6 23
REMARK SMILES IDX 2 24 1 25 11 26 12 27 20 28 13 29 19 30 14 31 15 32 16 33
REMARK SMILES IDX 17 34 18 35 32 36 33 37 34 38 35 40 36 41 37 42 95 43 38 44
REMARK SMILES IDX 94 45 39 46 40 47 41 48 88 49 42 50 93 51 87 52 89 53 43 54
REMARK SMILES IDX 92 55 86 56 85 57 44 59 74 60 55 61 73 62 56 63 59 64 72 65
REMARK SMILES IDX 90 66 57 67 58 68 71 70 91 71 60 72 45 73 46 74 54 75 47 76
REMARK SMILES IDX 53 77 48 78 49 79 50 80 51 81 52 82 75 83 76 84 84 85 77 86
REMARK SMILES IDX 83 87 78 88 79 89 80 90 81 91 82 92 61 93 62 94 70 95 63 96
REMARK SMILES IDX 69 97 64 98 65 99 66 100 67 101 68 102
REMARK H PARENT 29 6 33 39 89 58 59 69
REMARK Flexibility Score: inf
ROOT
ATOM      1  C   UNL A   1      41.834  21.739  25.965  1.00  0.00     0.042 C 
ENDROOT
BRANCH   1   2
ATOM      2  C   UNL A   1      43.067  21.669  26.864  1.00  0.00     0.118 C 
BRANCH   2   3
ATOM      3  N   UNL A   1      44.223  21.187  26.131  1.00  0.00    -0.352 N 
ATOM      4  C   UNL A   1      45.405  21.783  25.774  1.00  0.00     0.251 C 
ATOM      5  O   UNL A   1      46.236  21.084  25.192  1.00  0.00    -0.269 OA
ATOM      6  H   UNL A   1      44.143  20.253  25.833  1.00  0.00     0.163 HD
BRANCH   4   7
ATOM      7  C   UNL A   1      45.749  23.194  26.105  1.00  0.00     0.039 A 
ATOM      8  C   UNL A   1      46.450  25.904  26.526  1.00  0.00     0.060 A 
ATOM      9  C   UNL A   1      46.075  25.450  25.258  1.00  0.00     0.029 A 
ATOM     10  C   UNL A   1      46.409  25.001  27.590  1.00  0.00     0.029 A 
ATOM     11  C   UNL A   1      45.748  24.109  25.044  1.00  0.00     0.016 A 
ATOM     12  C   UNL A   1      46.028  23.668  27.388  1.00  0.00     0.016 A 
BRANCH   8  13
ATOM     13  N   UNL A   1      46.845  27.219  26.698  1.00  0.00    -0.257 N 
ATOM     14  C   UNL A   1      48.181  27.623  27.133  1.00  0.00     0.144 C 
ATOM     15  C   UNL A   1      48.017  29.131  27.363  1.00  0.00     0.091 C 
ATOM     16  C   UNL A   1      46.537  29.267  27.143  1.00  0.00     0.071 C 
ATOM     17  N   UNL A   1      45.910  28.197  26.769  1.00  0.00    -0.176 NA
BRANCH  14  18
ATOM     18  C   UNL A   1      49.219  27.282  26.074  1.00  0.00    -0.019 A 
ATOM     19  C   UNL A   1      51.452  26.509  25.461  1.00  0.00     0.119 A 
ATOM     20  C   UNL A   1      51.176  26.798  24.125  1.00  0.00     0.046 A 
ATOM     21  C   UNL A   1      50.481  26.763  26.431  1.00  0.00     0.052 A 
ATOM     22  C   UNL A   1      49.931  27.307  23.753  1.00  0.00     0.004 A 
ATOM     23  C   UNL A   1      48.956  27.545  24.721  1.00  0.00     0.006 A 
BRANCH  19  24
ATOM     24  O   UNL A   1      52.708  26.024  25.702  1.00  0.00    -0.497 OA
ATOM     25  C   UNL A   1      53.488  25.713  24.554  1.00  0.00     0.278 C 
ENDBRANCH  19  24
ENDBRANCH  14  18
BRANCH  16  26
ATOM     26  C   UNL A   1      45.851  30.538  27.376  1.00  0.00    -0.002 A 
ATOM     27  C   UNL A   1      45.587  31.365  26.280  1.00  0.00     0.011 A 
ATOM     28  C   UNL A   1      45.505  30.923  28.672  1.00  0.00     0.011 A 
ATOM     29  C   UNL A   1      44.954  32.591  26.478  1.00  0.00     0.021 A 
ATOM     30  C   UNL A   1      44.895  32.162  28.877  1.00  0.00     0.021 A 
ATOM     31  C   UNL A   1      44.627  32.989  27.779  1.00  0.00     0.067 A 
BRANCH  31  32
ATOM     32  S   UNL A   1      43.853  34.571  28.031  1.00  0.00     0.175 S 
ATOM     33  C   UNL A   1      43.309  35.056  26.414  1.00  0.00     0.163 C 
ATOM     34  O   UNL A   1      42.689  34.339  28.863  1.00  0.00    -0.224 OA
ATOM     35  O   UNL A   1      44.889  35.502  28.439  1.00  0.00    -0.224 OA
ENDBRANCH  31  32
ENDBRANCH  16  26
ENDBRANCH   8  13
ENDBRANCH   4   7
ENDBRANCH   2   3
ENDBRANCH   1   2
BRANCH   1  36
ATOM     36  C   UNL A   1      40.520  21.595  26.728  1.00  0.00     0.118 C 
BRANCH  36  37
ATOM     37  N   UNL A   1      39.377  22.004  25.923  1.00  0.00    -0.352 N 
ATOM     38  C   UNL A   1      38.641  23.160  25.963  1.00  0.00     0.251 C 
ATOM     39  H   UNL A   1      39.091  21.349  25.245  1.00  0.00     0.163 HD
ATOM     40  O   UNL A   1      37.574  23.212  25.358  1.00  0.00    -0.269 OA
BRANCH  38  41
ATOM     41  C   UNL A   1      39.114  24.334  26.731  1.00  0.00     0.039 A 
ATOM     42  C   UNL A   1      39.967  25.248  26.104  1.00  0.00     0.014 A 
ATOM     43  C   UNL A   1      38.770  24.511  28.075  1.00  0.00     0.014 A 
ATOM     44  C   UNL A   1      40.439  26.358  26.809  1.00  0.00     0.010 A 
ATOM     45  C   UNL A   1      39.191  25.651  28.759  1.00  0.00     0.010 A 
ATOM     46  C   UNL A   1      40.037  26.581  28.136  1.00  0.00    -0.014 A 
BRANCH  46  47
ATOM     47  C   UNL A   1      40.504  27.771  28.892  1.00  0.00     0.031 A 
ATOM     48  C   UNL A   1      41.859  27.767  29.546  1.00  0.00     0.074 A 
ATOM     49  C   UNL A   1      39.689  28.835  29.030  1.00  0.00     0.049 A 
ATOM     50  N   UNL A   1      42.413  28.681  30.302  1.00  0.00    -0.248 NA
ATOM     51  C   UNL A   1      42.694  26.572  29.340  1.00  0.00     0.031 C 
ATOM     52  C   UNL A   1      38.341  28.950  28.466  1.00  0.00     0.029 A 
ATOM     53  N   UNL A   1      39.873  30.022  29.694  1.00  0.00    -0.354 N 
ATOM     54  C   UNL A   1      43.652  28.168  30.671  1.00  0.00     0.074 A 
ATOM     55  C   UNL A   1      43.749  26.844  30.095  1.00  0.00     0.031 C 
ATOM     56  C   UNL A   1      37.829  30.149  28.793  1.00  0.00     0.029 A 
ATOM     57  C   UNL A   1      38.792  30.870  29.619  1.00  0.00     0.049 A 
ATOM     58  H   UNL A   1      40.699  30.245  30.180  1.00  0.00     0.167 HD
ATOM     59  C   UNL A   1      44.629  28.753  31.405  1.00  0.00     0.031 A 
ATOM     60  C   UNL A   1      38.596  32.088  30.161  1.00  0.00     0.031 A 
ATOM     61  C   UNL A   1      44.533  30.071  31.972  1.00  0.00     0.049 A 
ATOM     62  C   UNL A   1      39.690  32.709  30.985  1.00  0.00     0.074 A 
ATOM     63  C   UNL A   1      45.479  30.764  32.708  1.00  0.00     0.029 A 
ATOM     64  N   UNL A   1      43.428  30.901  31.861  1.00  0.00    -0.354 N 
ATOM     65  N   UNL A   1      40.869  32.222  31.289  1.00  0.00    -0.248 NA
ATOM     66  C   UNL A   1      39.429  34.048  31.531  1.00  0.00     0.031 C 
ATOM     67  C   UNL A   1      44.931  31.999  33.073  1.00  0.00     0.029 A 
ATOM     68  C   UNL A   1      43.664  32.095  32.523  1.00  0.00     0.049 A 
ATOM     69  H   UNL A   1      42.599  30.676  31.382  1.00  0.00     0.167 HD
ATOM     70  C   UNL A   1      41.503  33.209  32.036  1.00  0.00     0.074 A 
ATOM     71  C   UNL A   1      40.581  34.323  32.128  1.00  0.00     0.031 C 
ATOM     72  C   UNL A   1      42.738  33.194  32.596  1.00  0.00     0.031 A 
BRANCH  59  73
ATOM     73  C   UNL A   1      45.891  27.963  31.634  1.00  0.00    -0.014 A 
ATOM     74  C   UNL A   1      46.046  27.168  32.785  1.00  0.00     0.010 A 
ATOM     75  C   UNL A   1      46.920  27.984  30.674  1.00  0.00     0.010 A 
ATOM     76  C   UNL A   1      47.221  26.445  32.994  1.00  0.00     0.020 A 
ATOM     77  C   UNL A   1      48.088  27.239  30.867  1.00  0.00     0.020 A 
ATOM     78  C   UNL A   1      48.238  26.488  32.036  1.00  0.00     0.054 A 
BRANCH  78  79
ATOM     79  S   UNL A   1      49.748  25.525  32.325  1.00  0.00     0.124 S 
ATOM     80  O   UNL A   1      50.663  26.546  32.831  1.00  0.00    -0.237 OA
ATOM     81  O   UNL A   1      49.314  24.532  33.304  1.00  0.00    -0.237 OA
ATOM     82  O   UNL A   1      50.077  24.991  31.006  1.00  0.00    -0.744 OA
ENDBRANCH  78  79
ENDBRANCH  59  73
BRANCH  60  83
ATOM     83  C   UNL A   1      37.314  32.807  29.932  1.00  0.00    -0.014 A 
ATOM     84  C   UNL A   1      36.298  32.784  30.904  1.00  0.00     0.010 A 
ATOM     85  C   UNL A   1      37.099  33.516  28.736  1.00  0.00     0.010 A 
ATOM     86  C   UNL A   1      35.082  33.433  30.676  1.00  0.00     0.020 A 
ATOM     87  C   UNL A   1      35.893  34.189  28.514  1.00  0.00     0.020 A 
ATOM     88  C   UNL A   1      34.886  34.130  29.479  1.00  0.00     0.054 A 
BRANCH  88  89
ATOM     89  S   UNL A   1      33.314  34.996  29.215  1.00  0.00     0.124 S 
ATOM     90  O   UNL A   1      32.727  34.970  30.551  1.00  0.00    -0.237 OA
ATOM     91  O   UNL A   1      33.749  36.307  28.739  1.00  0.00    -0.237 OA
ATOM     92  O   UNL A   1      32.637  34.173  28.216  1.00  0.00    -0.744 OA
ENDBRANCH  88  89
ENDBRANCH  60  83
BRANCH  72  93
ATOM     93  C   UNL A   1      43.180  34.437  33.322  1.00  0.00    -0.014 A 
ATOM     94  C   UNL A   1      42.987  34.582  34.705  1.00  0.00     0.010 A 
ATOM     95  C   UNL A   1      43.844  35.453  32.610  1.00  0.00     0.010 A 
ATOM     96  C   UNL A   1      43.421  35.737  35.361  1.00  0.00     0.020 A 
ATOM     97  C   UNL A   1      44.302  36.598  33.266  1.00  0.00     0.020 A 
ATOM     98  C   UNL A   1      44.075  36.739  34.636  1.00  0.00     0.054 A 
BRANCH  98  99
ATOM     99  S   UNL A   1      44.666  38.210  35.515  1.00  0.00     0.124 S 
ATOM    100  O   UNL A   1      44.116  39.292  34.704  1.00  0.00    -0.237 OA
ATOM    101  O   UNL A   1      44.073  38.054  36.841  1.00  0.00    -0.237 OA
ATOM    102  O   UNL A   1      46.121  38.077  35.473  1.00  0.00    -0.744 OA
ENDBRANCH  98  99
ENDBRANCH  72  93
ENDBRANCH  46  47
ENDBRANCH  38  41
ENDBRANCH  36  37
ENDBRANCH   1  36
TORSDOF 18
ENDMDL
MODEL 2
REMARK VINA RESULT:      -9.6      2.989      3.740
REMARK SMILES COc1cccc([C@H]2CC(c3ccc(S(C)(=O)=O)cc3)=NN2c2ccc(C(=O)NCCCNC(=O)c3ccc(-c4c5nc(c(-c6ccc(S(=O)(=O)[O-])cc6)c6ccc([nH]6)c(-c6ccc(S(=O)(=O)[O-])cc6)c6nc(c(-c7ccc(S(=O)(=O)[O-])cc7)c7ccc4[nH]7)C=C6)C=C5)cc3)cc2)c1
REMARK SMILES IDX 31 1 30 2 29 3 27 4 28 5 26 7 23 8 24 9 97 10 25 11 96 12
REMARK SMILES IDX 22 13 8 14 9 15 10 16 21 17 7 18 3 19 4 20 98 21 5 22 6 23
REMARK SMILES IDX 2 24 1 25 11 26 12 27 20 28 13 29 19 30 14 31 15 32 16 33
REMARK SMILES IDX 17 34 18 35 32 36 33 37 34 38 35 40 36 41 37 42 95 43 38 44
REMARK SMILES IDX 94 45 39 46 40 47 41 48 88 49 42 50 93 51 87 52 89 53 43 54
REMARK SMILES IDX 92 55 86 56 85 57 44 59 74 60 55 61 73 62 56 63 59 64 72 65
REMARK SMILES IDX 90 66 57 67 58 68 71 70 91 71 60 72 45 73 46 74 54 75 47 76
REMARK SMILES IDX 53 77 48 78 49 79 50 80 51 81 52 82 75 83 76 84 84 85 77 86
REMARK SMILES IDX 83 87 78 88 79 89 80 90 81 91 82 92 61 93 62 94 70 95 63 96
REMARK SMILES IDX 69 97 64 98 65 99 66 100 67 101 68 102
REMARK H PARENT 29 6 33 39 89 58 59 69
REMARK Flexibility Score: inf
ROOT
ATOM      1  C   UNL A   1      40.854  21.505  27.327  1.00  0.00     0.042 C 
ENDROOT
BRANCH   1   2
ATOM      2  C   UNL A   1      42.309  21.116  27.588  1.00  0.00     0.118 C 
BRANCH   2   3
ATOM      3  N   UNL A   1      42.983  20.749  26.356  1.00  0.00    -0.352 N 
ATOM      4  C   UNL A   1      43.881  21.413  25.561  1.00  0.00     0.251 C 
ATOM      5  O   UNL A   1      44.330  20.805  24.588  1.00  0.00    -0.269 OA
ATOM      6  H   UNL A   1      42.750  19.851  26.029  1.00  0.00     0.163 HD
BRANCH   4   7
ATOM      7  C   UNL A   1      44.374  22.790  25.847  1.00  0.00     0.039 A 
ATOM      8  C   UNL A   1      45.330  25.345  26.597  1.00  0.00     0.060 A 
ATOM      9  C   UNL A   1      45.595  24.223  27.387  1.00  0.00     0.029 A 
ATOM     10  C   UNL A   1      44.637  25.163  25.400  1.00  0.00     0.029 A 
ATOM     11  C   UNL A   1      45.107  22.963  27.029  1.00  0.00     0.016 A 
ATOM     12  C   UNL A   1      44.194  23.892  25.011  1.00  0.00     0.016 A 
BRANCH   8  13
ATOM     13  N   UNL A   1      45.757  26.595  27.013  1.00  0.00    -0.257 N 
ATOM     14  C   UNL A   1      47.154  26.939  27.272  1.00  0.00     0.144 C 
ATOM     15  C   UNL A   1      47.044  28.335  27.899  1.00  0.00     0.091 C 
ATOM     16  C   UNL A   1      45.550  28.454  28.005  1.00  0.00     0.071 C 
ATOM     17  N   UNL A   1      44.857  27.482  27.503  1.00  0.00    -0.176 NA
BRANCH  14  18
ATOM     18  C   UNL A   1      47.963  26.915  25.985  1.00  0.00    -0.019 A 
ATOM     19  C   UNL A   1      48.153  27.336  23.588  1.00  0.00     0.119 A 
ATOM     20  C   UNL A   1      49.409  26.729  23.589  1.00  0.00     0.046 A 
ATOM     21  C   UNL A   1      47.430  27.415  24.779  1.00  0.00     0.052 A 
ATOM     22  C   UNL A   1      49.954  26.233  24.774  1.00  0.00     0.004 A 
ATOM     23  C   UNL A   1      49.238  26.329  25.967  1.00  0.00     0.006 A 
BRANCH  19  24
ATOM     24  O   UNL A   1      47.722  27.774  22.366  1.00  0.00    -0.497 OA
ATOM     25  C   UNL A   1      48.735  28.035  21.403  1.00  0.00     0.278 C 
ENDBRANCH  19  24
ENDBRANCH  14  18
BRANCH  16  26
ATOM     26  C   UNL A   1      44.928  29.597  28.675  1.00  0.00    -0.002 A 
ATOM     27  C   UNL A   1      44.935  29.636  30.073  1.00  0.00     0.011 A 
ATOM     28  C   UNL A   1      44.312  30.601  27.927  1.00  0.00     0.011 A 
ATOM     29  C   UNL A   1      44.329  30.703  30.735  1.00  0.00     0.021 A 
ATOM     30  C   UNL A   1      43.682  31.657  28.588  1.00  0.00     0.021 A 
ATOM     31  C   UNL A   1      43.691  31.699  29.987  1.00  0.00     0.067 A 
BRANCH  31  32
ATOM     32  S   UNL A   1      42.888  33.039  30.837  1.00  0.00     0.175 S 
ATOM     33  C   UNL A   1      42.404  34.152  29.544  1.00  0.00     0.163 C 
ATOM     34  O   UNL A   1      41.693  32.490  31.448  1.00  0.00    -0.224 OA
ATOM     35  O   UNL A   1      43.894  33.713  31.638  1.00  0.00    -0.224 OA
ENDBRANCH  31  32
ENDBRANCH  16  26
ENDBRANCH   8  13
ENDBRANCH   4   7
ENDBRANCH   2   3
ENDBRANCH   1   2
BRANCH   1  36
ATOM     36  C   UNL A   1      40.584  22.996  27.518  1.00  0.00     0.118 C 
BRANCH  36  37
ATOM     37  N   UNL A   1      40.918  23.764  26.327  1.00  0.00    -0.352 N 
ATOM     38  C   UNL A   1      40.921  25.121  26.128  1.00  0.00     0.251 C 
ATOM     39  H   UNL A   1      41.183  23.227  25.546  1.00  0.00     0.163 HD
ATOM     40  O   UNL A   1      41.008  25.558  24.984  1.00  0.00    -0.269 OA
BRANCH  38  41
ATOM     41  C   UNL A   1      40.812  26.056  27.271  1.00  0.00     0.039 A 
ATOM     42  C   UNL A   1      41.643  27.180  27.301  1.00  0.00     0.014 A 
ATOM     43  C   UNL A   1      39.941  25.805  28.336  1.00  0.00     0.014 A 
ATOM     44  C   UNL A   1      41.571  28.072  28.373  1.00  0.00     0.010 A 
ATOM     45  C   UNL A   1      39.825  26.727  29.375  1.00  0.00     0.010 A 
ATOM     46  C   UNL A   1      40.646  27.865  29.409  1.00  0.00    -0.014 A 
BRANCH  46  47
ATOM     47  C   UNL A   1      40.533  28.819  30.542  1.00  0.00     0.031 A 
ATOM     48  C   UNL A   1      41.422  28.668  31.748  1.00  0.00     0.074 A 
ATOM     49  C   UNL A   1      39.599  29.789  30.507  1.00  0.00     0.049 A 
ATOM     50  N   UNL A   1      41.425  29.357  32.861  1.00  0.00    -0.248 NA
ATOM     51  C   UNL A   1      42.423  27.590  31.705  1.00  0.00     0.031 C 
ATOM     52  C   UNL A   1      38.660  30.023  29.407  1.00  0.00     0.029 A 
ATOM     53  N   UNL A   1      39.281  30.758  31.426  1.00  0.00    -0.354 N 
ATOM     54  C   UNL A   1      42.417  28.790  33.654  1.00  0.00     0.074 A 
ATOM     55  C   UNL A   1      42.961  27.672  32.914  1.00  0.00     0.031 C 
ATOM     56  C   UNL A   1      37.885  31.079  29.708  1.00  0.00     0.029 A 
ATOM     57  C   UNL A   1      38.244  31.572  31.033  1.00  0.00     0.049 A 
ATOM     58  H   UNL A   1      39.750  30.860  32.285  1.00  0.00     0.167 HD
ATOM     59  C   UNL A   1      42.851  29.177  34.878  1.00  0.00     0.031 A 
ATOM     60  C   UNL A   1      37.645  32.595  31.672  1.00  0.00     0.031 A 
ATOM     61  C   UNL A   1      42.313  30.293  35.610  1.00  0.00     0.049 A 
ATOM     62  C   UNL A   1      38.134  32.995  33.038  1.00  0.00     0.074 A 
ATOM     63  C   UNL A   1      42.703  30.782  36.845  1.00  0.00     0.029 A 
ATOM     64  N   UNL A   1      41.274  31.099  35.170  1.00  0.00    -0.354 N 
ATOM     65  N   UNL A   1      39.099  32.470  33.752  1.00  0.00    -0.248 NA
ATOM     66  C   UNL A   1      37.458  34.133  33.676  1.00  0.00     0.031 C 
ATOM     67  C   UNL A   1      41.873  31.862  37.169  1.00  0.00     0.029 A 
ATOM     68  C   UNL A   1      41.001  32.075  36.114  1.00  0.00     0.049 A 
ATOM     69  H   UNL A   1      40.800  30.992  34.315  1.00  0.00     0.167 HD
ATOM     70  C   UNL A   1      39.167  33.233  34.913  1.00  0.00     0.074 A 
ATOM     71  C   UNL A   1      38.153  34.262  34.798  1.00  0.00     0.031 C 
ATOM     72  C   UNL A   1      39.994  33.095  35.978  1.00  0.00     0.031 A 
BRANCH  59  73
ATOM     73  C   UNL A   1      43.968  28.381  35.501  1.00  0.00    -0.014 A 
ATOM     74  C   UNL A   1      45.314  28.713  35.255  1.00  0.00     0.010 A 
ATOM     75  C   UNL A   1      43.675  27.313  36.368  1.00  0.00     0.010 A 
ATOM     76  C   UNL A   1      46.344  27.967  35.830  1.00  0.00     0.020 A 
ATOM     77  C   UNL A   1      44.704  26.580  36.967  1.00  0.00     0.020 A 
ATOM     78  C   UNL A   1      46.033  26.900  36.679  1.00  0.00     0.054 A 
BRANCH  78  79
ATOM     79  S   UNL A   1      47.392  25.958  37.426  1.00  0.00     0.124 S 
ATOM     80  O   UNL A   1      47.240  24.654  36.785  1.00  0.00    -0.237 OA
ATOM     81  O   UNL A   1      48.571  26.721  37.024  1.00  0.00    -0.237 OA
ATOM     82  O   UNL A   1      47.091  25.990  38.855  1.00  0.00    -0.744 OA
ENDBRANCH  78  79
ENDBRANCH  59  73
BRANCH  60  83
ATOM     83  C   UNL A   1      36.521  33.323  31.024  1.00  0.00    -0.014 A 
ATOM     84  C   UNL A   1      35.210  33.198  31.517  1.00  0.00     0.010 A 
ATOM     85  C   UNL A   1      36.754  34.142  29.904  1.00  0.00     0.010 A 
ATOM     86  C   UNL A   1      34.149  33.856  30.889  1.00  0.00     0.020 A 
ATOM     87  C   UNL A   1      35.699  34.822  29.287  1.00  0.00     0.020 A 
ATOM     88  C   UNL A   1      34.401  34.662  29.774  1.00  0.00     0.054 A 
BRANCH  88  89
ATOM     89  S   UNL A   1      33.017  35.536  28.993  1.00  0.00     0.124 S 
ATOM     90  O   UNL A   1      32.240  35.967  30.150  1.00  0.00    -0.237 OA
ATOM     91  O   UNL A   1      33.690  36.599  28.250  1.00  0.00    -0.237 OA
ATOM     92  O   UNL A   1      32.391  34.509  28.164  1.00  0.00    -0.744 OA
ENDBRANCH  88  89
ENDBRANCH  60  83
BRANCH  72  93
ATOM     93  C   UNL A   1      39.867  34.106  37.086  1.00  0.00    -0.014 A 
ATOM     94  C   UNL A   1      40.453  35.379  36.983  1.00  0.00     0.010 A 
ATOM     95  C   UNL A   1      39.106  33.790  38.226  1.00  0.00     0.010 A 
ATOM     96  C   UNL A   1      40.308  36.308  38.016  1.00  0.00     0.020 A 
ATOM     97  C   UNL A   1      38.937  34.725  39.250  1.00  0.00     0.020 A 
ATOM     98  C   UNL A   1      39.552  35.975  39.145  1.00  0.00     0.054 A 
BRANCH  98  99
ATOM     99  S   UNL A   1      39.342  37.211  40.454  1.00  0.00     0.124 S 
ATOM    100  O   UNL A   1      40.725  37.541  40.785  1.00  0.00    -0.237 OA
ATOM    101  O   UNL A   1      38.587  38.266  39.783  1.00  0.00    -0.237 OA
ATOM    102  O   UNL A   1      38.606  36.493  41.493  1.00  0.00    -0.744 OA
ENDBRANCH  98  99
ENDBRANCH  72  93
ENDBRANCH  46  47
ENDBRANCH  38  41
ENDBRANCH  36  37
ENDBRANCH   1  36
TORSDOF 18
ENDMDL
MODEL 3
REMARK VINA RESULT:      -9.4      3.635      5.391
REMARK SMILES COc1cccc([C@H]2CC(c3ccc(S(C)(=O)=O)cc3)=NN2c2ccc(C(=O)NCCCNC(=O)c3ccc(-c4c5nc(c(-c6ccc(S(=O)(=O)[O-])cc6)c6ccc([nH]6)c(-c6ccc(S(=O)(=O)[O-])cc6)c6nc(c(-c7ccc(S(=O)(=O)[O-])cc7)c7ccc4[nH]7)C=C6)C=C5)cc3)cc2)c1
REMARK SMILES IDX 31 1 30 2 29 3 27 4 28 5 26 7 23 8 24 9 97 10 25 11 96 12
REMARK SMILES IDX 22 13 8 14 9 15 10 16 21 17 7 18 3 19 4 20 98 21 5 22 6 23
REMARK SMILES IDX 2 24 1 25 11 26 12 27 20 28 13 29 19 30 14 31 15 32 16 33
REMARK SMILES IDX 17 34 18 35 32 36 33 37 34 38 35 40 36 41 37 42 95 43 38 44
REMARK SMILES IDX 94 45 39 46 40 47 41 48 88 49 42 50 93 51 87 52 89 53 43 54
REMARK SMILES IDX 92 55 86 56 85 57 44 59 74 60 55 61 73 62 56 63 59 64 72 65
REMARK SMILES IDX 90 66 57 67 58 68 71 70 91 71 60 72 45 73 46 74 54 75 47 76
REMARK SMILES IDX 53 77 48 78 49 79 50 80 51 81 52 82 75 83 76 84 84 85 77 86
REMARK SMILES IDX 83 87 78 88 79 89 80 90 81 91 82 92 61 93 62 94 70 95 63 96
REMARK SMILES IDX 69 97 64 98 65 99 66 100 67 101 68 102
REMARK H PARENT 29 6 33 39 89 58 59 69
REMARK Flexibility Score: inf
ROOT
ATOM      1  C   UNL A   1      40.603  21.614  27.387  1.00  0.00     0.042 C 
ENDROOT
BRANCH   1   2
ATOM      2  C   UNL A   1      42.053  21.167  27.571  1.00  0.00     0.118 C 
BRANCH   2   3
ATOM      3  N   UNL A   1      42.485  20.328  26.469  1.00  0.00    -0.352 N 
ATOM      4  C   UNL A   1      43.384  20.527  25.453  1.00  0.00     0.251 C 
ATOM      5  O   UNL A   1      43.586  19.585  24.686  1.00  0.00    -0.269 OA
ATOM      6  H   UNL A   1      42.050  19.446  26.447  1.00  0.00     0.163 HD
BRANCH   4   7
ATOM      7  C   UNL A   1      44.158  21.788  25.273  1.00  0.00     0.039 A 
ATOM      8  C   UNL A   1      45.758  24.114  25.087  1.00  0.00     0.060 A 
ATOM      9  C   UNL A   1      46.270  22.936  25.637  1.00  0.00     0.029 A 
ATOM     10  C   UNL A   1      44.459  24.096  24.577  1.00  0.00     0.029 A 
ATOM     11  C   UNL A   1      45.476  21.792  25.748  1.00  0.00     0.016 A 
ATOM     12  C   UNL A   1      43.679  22.934  24.636  1.00  0.00     0.016 A 
BRANCH   8  13
ATOM     13  N   UNL A   1      46.539  25.257  25.060  1.00  0.00    -0.257 N 
ATOM     14  C   UNL A   1      46.173  26.514  25.711  1.00  0.00     0.144 C 
ATOM     15  C   UNL A   1      47.248  27.481  25.198  1.00  0.00     0.091 C 
ATOM     16  C   UNL A   1      47.951  26.589  24.214  1.00  0.00     0.071 C 
ATOM     17  N   UNL A   1      47.546  25.360  24.160  1.00  0.00    -0.176 NA
BRANCH  14  18
ATOM     18  C   UNL A   1      46.173  26.358  27.224  1.00  0.00    -0.019 A 
ATOM     19  C   UNL A   1      45.038  25.737  29.295  1.00  0.00     0.119 A 
ATOM     20  C   UNL A   1      46.126  26.215  30.025  1.00  0.00     0.046 A 
ATOM     21  C   UNL A   1      45.058  25.822  27.901  1.00  0.00     0.052 A 
ATOM     22  C   UNL A   1      47.240  26.743  29.371  1.00  0.00     0.004 A 
ATOM     23  C   UNL A   1      47.266  26.812  27.978  1.00  0.00     0.006 A 
BRANCH  19  24
ATOM     24  O   UNL A   1      44.003  25.252  30.046  1.00  0.00    -0.497 OA
ATOM     25  C   UNL A   1      43.275  24.169  29.480  1.00  0.00     0.278 C 
ENDBRANCH  19  24
ENDBRANCH  14  18
BRANCH  16  26
ATOM     26  C   UNL A   1      49.011  27.105  23.348  1.00  0.00    -0.002 A 
ATOM     27  C   UNL A   1      48.670  27.540  22.063  1.00  0.00     0.011 A 
ATOM     28  C   UNL A   1      50.335  27.124  23.789  1.00  0.00     0.011 A 
ATOM     29  C   UNL A   1      49.664  28.016  21.210  1.00  0.00     0.021 A 
ATOM     30  C   UNL A   1      51.336  27.575  22.928  1.00  0.00     0.021 A 
ATOM     31  C   UNL A   1      50.995  28.014  21.643  1.00  0.00     0.067 A 
BRANCH  31  32
ATOM     32  S   UNL A   1      52.265  28.587  20.537  1.00  0.00     0.175 S 
ATOM     33  C   UNL A   1      52.759  27.135  19.646  1.00  0.00     0.163 C 
ATOM     34  O   UNL A   1      51.633  29.506  19.613  1.00  0.00    -0.224 OA
ATOM     35  O   UNL A   1      53.394  29.003  21.349  1.00  0.00    -0.224 OA
ENDBRANCH  31  32
ENDBRANCH  16  26
ENDBRANCH   8  13
ENDBRANCH   4   7
ENDBRANCH   2   3
ENDBRANCH   1   2
BRANCH   1  36
ATOM     36  C   UNL A   1      40.416  23.124  27.505  1.00  0.00     0.118 C 
BRANCH  36  37
ATOM     37  N   UNL A   1      40.971  23.830  26.358  1.00  0.00    -0.352 N 
ATOM     38  C   UNL A   1      41.150  25.174  26.155  1.00  0.00     0.251 C 
ATOM     39  H   UNL A   1      41.261  23.252  25.615  1.00  0.00     0.163 HD
ATOM     40  O   UNL A   1      41.418  25.578  25.027  1.00  0.00    -0.269 OA
BRANCH  38  41
ATOM     41  C   UNL A   1      41.017  26.135  27.273  1.00  0.00     0.039 A 
ATOM     42  C   UNL A   1      40.023  25.915  28.233  1.00  0.00     0.014 A 
ATOM     43  C   UNL A   1      41.820  27.277  27.352  1.00  0.00     0.014 A 
ATOM     44  C   UNL A   1      39.866  26.814  29.291  1.00  0.00     0.010 A 
ATOM     45  C   UNL A   1      41.704  28.139  28.440  1.00  0.00     0.010 A 
ATOM     46  C   UNL A   1      40.719  27.921  29.416  1.00  0.00    -0.014 A 
BRANCH  46  47
ATOM     47  C   UNL A   1      40.587  28.870  30.551  1.00  0.00     0.031 A 
ATOM     48  C   UNL A   1      41.469  28.726  31.763  1.00  0.00     0.074 A 
ATOM     49  C   UNL A   1      39.643  29.831  30.511  1.00  0.00     0.049 A 
ATOM     50  N   UNL A   1      41.456  29.411  32.878  1.00  0.00    -0.248 NA
ATOM     51  C   UNL A   1      42.482  27.658  31.725  1.00  0.00     0.031 C 
ATOM     52  C   UNL A   1      38.710  30.057  29.405  1.00  0.00     0.029 A 
ATOM     53  N   UNL A   1      39.308  30.793  31.431  1.00  0.00    -0.354 N 
ATOM     54  C   UNL A   1      42.448  28.853  33.677  1.00  0.00     0.074 A 
ATOM     55  C   UNL A   1      43.010  27.742  32.938  1.00  0.00     0.031 C 
ATOM     56  C   UNL A   1      37.921  31.103  29.703  1.00  0.00     0.029 A 
ATOM     57  C   UNL A   1      38.265  31.597  31.032  1.00  0.00     0.049 A 
ATOM     58  H   UNL A   1      39.768  30.897  32.294  1.00  0.00     0.167 HD
ATOM     59  C   UNL A   1      42.869  29.241  34.905  1.00  0.00     0.031 A 
ATOM     60  C   UNL A   1      37.650  32.612  31.670  1.00  0.00     0.031 A 
ATOM     61  C   UNL A   1      42.313  30.348  35.636  1.00  0.00     0.049 A 
ATOM     62  C   UNL A   1      38.124  33.013  33.040  1.00  0.00     0.074 A 
ATOM     63  C   UNL A   1      42.688  30.838  36.876  1.00  0.00     0.029 A 
ATOM     64  N   UNL A   1      41.268  31.144  35.191  1.00  0.00    -0.354 N 
ATOM     65  N   UNL A   1      39.090  32.496  33.761  1.00  0.00    -0.248 NA
ATOM     66  C   UNL A   1      37.431  34.141  33.677  1.00  0.00     0.031 C 
ATOM     67  C   UNL A   1      41.844  31.908  37.196  1.00  0.00     0.029 A 
ATOM     68  C   UNL A   1      40.978  32.115  36.135  1.00  0.00     0.049 A 
ATOM     69  H   UNL A   1      40.802  31.035  34.332  1.00  0.00     0.167 HD
ATOM     70  C   UNL A   1      39.141  33.256  34.924  1.00  0.00     0.074 A 
ATOM     71  C   UNL A   1      38.116  34.275  34.805  1.00  0.00     0.031 C 
ATOM     72  C   UNL A   1      39.961  33.124  35.995  1.00  0.00     0.031 A 
BRANCH  59  73
ATOM     73  C   UNL A   1      43.990  28.455  35.534  1.00  0.00    -0.014 A 
ATOM     74  C   UNL A   1      45.295  28.979  35.588  1.00  0.00     0.010 A 
ATOM     75  C   UNL A   1      43.734  27.198  36.110  1.00  0.00     0.010 A 
ATOM     76  C   UNL A   1      46.331  28.243  36.166  1.00  0.00     0.020 A 
ATOM     77  C   UNL A   1      44.763  26.468  36.713  1.00  0.00     0.020 A 
ATOM     78  C   UNL A   1      46.059  26.988  36.721  1.00  0.00     0.054 A 
BRANCH  78  79
ATOM     79  S   UNL A   1      47.421  26.060  37.481  1.00  0.00     0.124 S 
ATOM     80  O   UNL A   1      47.487  24.874  36.629  1.00  0.00    -0.237 OA
ATOM     81  O   UNL A   1      48.547  26.983  37.359  1.00  0.00    -0.237 OA
ATOM     82  O   UNL A   1      46.960  25.823  38.846  1.00  0.00    -0.744 OA
ENDBRANCH  78  79
ENDBRANCH  59  73
BRANCH  60  83
ATOM     83  C   UNL A   1      36.522  33.329  31.015  1.00  0.00    -0.014 A 
ATOM     84  C   UNL A   1      36.749  34.137  29.887  1.00  0.00     0.010 A 
ATOM     85  C   UNL A   1      35.214  33.211  31.519  1.00  0.00     0.010 A 
ATOM     86  C   UNL A   1      35.696  34.836  29.291  1.00  0.00     0.020 A 
ATOM     87  C   UNL A   1      34.153  33.888  30.911  1.00  0.00     0.020 A 
ATOM     88  C   UNL A   1      34.403  34.709  29.810  1.00  0.00     0.054 A 
BRANCH  88  89
ATOM     89  S   UNL A   1      33.043  35.596  29.002  1.00  0.00     0.124 S 
ATOM     90  O   UNL A   1      32.301  36.117  30.145  1.00  0.00    -0.237 OA
ATOM     91  O   UNL A   1      33.746  36.591  28.195  1.00  0.00    -0.237 OA
ATOM     92  O   UNL A   1      32.364  34.553  28.237  1.00  0.00    -0.744 OA
ENDBRANCH  88  89
ENDBRANCH  60  83
BRANCH  72  93
ATOM     93  C   UNL A   1      39.814  34.131  37.105  1.00  0.00    -0.014 A 
ATOM     94  C   UNL A   1      40.400  35.404  37.016  1.00  0.00     0.010 A 
ATOM     95  C   UNL A   1      39.035  33.809  38.231  1.00  0.00     0.010 A 
ATOM     96  C   UNL A   1      40.237  36.329  38.051  1.00  0.00     0.020 A 
ATOM     97  C   UNL A   1      38.848  34.740  39.256  1.00  0.00     0.020 A 
ATOM     98  C   UNL A   1      39.463  35.990  39.166  1.00  0.00     0.054 A 
BRANCH  98  99
ATOM     99  S   UNL A   1      39.230  37.221  40.477  1.00  0.00     0.124 S 
ATOM    100  O   UNL A   1      38.211  38.092  39.899  1.00  0.00    -0.237 OA
ATOM    101  O   UNL A   1      38.794  36.407  41.609  1.00  0.00    -0.237 OA
ATOM    102  O   UNL A   1      40.554  37.822  40.625  1.00  0.00    -0.744 OA
ENDBRANCH  98  99
ENDBRANCH  72  93
ENDBRANCH  46  47
ENDBRANCH  38  41
ENDBRANCH  36  37
ENDBRANCH   1  36
TORSDOF 18
ENDMDL
