MODEL 1
REMARK VINA RESULT:     -12.9      0.000      0.000
REMARK SMILES Cc1ccc(C(F)(F)F)cc1/C=C/C(=O)NCCCNC(=O)c1ccc(-c2c3nc(c(-c4ccc(S(=O)(=O)[O-])cc4)c4ccc([nH]4)c(-c4ccc(S(=O)(=O)[O-])cc4)c4nc(c(-c5ccc(S(=O)(=O)[O-])cc5)c5ccc2[nH]5)C=C4)C=C3)cc1
REMARK SMILES IDX 18 1 17 2 16 3 14 4 15 5 13 7 12 8 11 9 1 10 2 11 3 12 4 13
REMARK SMILES IDX 10 14 5 15 6 16 7 17 8 18 9 19 19 20 20 21 21 22 22 24 23 25
REMARK SMILES IDX 24 26 82 27 25 28 81 29 26 30 27 31 28 32 75 33 29 34 80 35
REMARK SMILES IDX 74 36 76 37 30 38 79 39 73 40 72 41 31 43 61 44 42 45 60 46
REMARK SMILES IDX 43 47 46 48 59 49 77 50 44 51 45 52 58 54 78 55 47 56 32 57
REMARK SMILES IDX 33 58 41 59 34 60 40 61 35 62 36 63 37 64 38 65 39 66 62 67
REMARK SMILES IDX 63 68 71 69 64 70 70 71 65 72 66 73 67 74 68 75 69 76 48 77
REMARK SMILES IDX 49 78 57 79 50 80 56 81 51 82 52 83 53 84 54 85 55 86
REMARK H PARENT 16 6 20 23 76 42 46 53
REMARK Flexibility Score: inf
ROOT
ATOM      1  C   UNL A   1      34.478  33.067  28.490  1.00  0.00     0.042 C 
ENDROOT
BRANCH   1   2
ATOM      2  C   UNL A   1      33.559  32.021  27.674  1.00  0.00     0.118 C 
BRANCH   2   3
ATOM      3  N   UNL A   1      33.785  30.571  27.839  1.00  0.00    -0.352 N 
ATOM      4  C   UNL A   1      33.289  29.436  27.259  1.00  0.00     0.244 C 
ATOM      5  O   UNL A   1      33.862  28.349  27.277  1.00  0.00    -0.270 OA
ATOM      6  H   UNL A   1      34.453  30.375  28.534  1.00  0.00     0.163 HD
BRANCH   4   7
ATOM      7  C   UNL A   1      32.013  29.533  26.546  1.00  0.00     0.072 C 
ATOM      8  C   UNL A   1      32.061  29.606  25.210  1.00  0.00     0.014 C 
BRANCH   8   9
ATOM      9  C   UNL A   1      30.871  29.469  24.374  1.00  0.00    -0.022 A 
ATOM     10  C   UNL A   1      31.281  26.945  24.170  1.00  0.00     0.045 C 
ATOM     11  C   UNL A   1      30.491  28.197  23.900  1.00  0.00    -0.044 A 
ATOM     12  C   UNL A   1      29.335  28.073  23.123  1.00  0.00     0.004 A 
ATOM     13  C   UNL A   1      28.546  29.186  22.844  1.00  0.00     0.013 A 
ATOM     14  C   UNL A   1      30.081  30.588  24.074  1.00  0.00     0.021 A 
ATOM     15  C   UNL A   1      28.905  30.454  23.324  1.00  0.00     0.056 A 
BRANCH  15  16
ATOM     16  C   UNL A   1      28.032  31.640  23.022  1.00  0.00     0.416 C 
ATOM     17  F   UNL A   1      28.689  32.823  23.175  1.00  0.00    -0.166 F 
ATOM     18  F   UNL A   1      27.578  31.636  21.736  1.00  0.00    -0.166 F 
ATOM     19  F   UNL A   1      26.920  31.725  23.803  1.00  0.00    -0.166 F 
ENDBRANCH  15  16
ENDBRANCH   8   9
ENDBRANCH   4   7
ENDBRANCH   2   3
ENDBRANCH   1   2
BRANCH   1  20
ATOM     20  C   UNL A   1      34.789  32.681  30.001  1.00  0.00     0.118 C 
BRANCH  20  21
ATOM     21  N   UNL A   1      36.132  32.143  30.560  1.00  0.00    -0.352 N 
ATOM     22  C   UNL A   1      37.335  31.629  29.916  1.00  0.00     0.251 C 
ATOM     23  H   UNL A   1      36.182  32.150  31.544  1.00  0.00     0.163 HD
ATOM     24  O   UNL A   1      38.301  32.411  29.948  1.00  0.00    -0.269 OA
BRANCH  22  25
ATOM     25  C   UNL A   1      37.670  30.215  29.273  1.00  0.00     0.039 A 
ATOM     26  C   UNL A   1      37.702  29.033  30.084  1.00  0.00     0.014 A 
ATOM     27  C   UNL A   1      38.082  29.977  27.965  1.00  0.00     0.014 A 
ATOM     28  C   UNL A   1      38.577  27.912  29.765  1.00  0.00     0.010 A 
ATOM     29  C   UNL A   1      38.950  28.874  27.649  1.00  0.00     0.010 A 
ATOM     30  C   UNL A   1      39.399  27.963  28.621  1.00  0.00    -0.014 A 
BRANCH  30  31
ATOM     31  C   UNL A   1      40.827  27.393  28.552  1.00  0.00     0.031 A 
ATOM     32  C   UNL A   1      41.072  25.988  28.248  1.00  0.00     0.074 A 
ATOM     33  C   UNL A   1      42.029  28.053  28.586  1.00  0.00     0.049 A 
ATOM     34  N   UNL A   1      41.803  25.186  28.955  1.00  0.00    -0.248 NA
ATOM     35  C   UNL A   1      40.589  25.439  26.994  1.00  0.00     0.031 C 
ATOM     36  C   UNL A   1      43.440  27.654  28.415  1.00  0.00     0.029 A 
ATOM     37  N   UNL A   1      42.235  29.396  28.757  1.00  0.00    -0.354 N 
ATOM     38  C   UNL A   1      42.150  24.169  28.090  1.00  0.00     0.074 A 
ATOM     39  C   UNL A   1      41.195  24.251  26.997  1.00  0.00     0.031 C 
ATOM     40  C   UNL A   1      44.256  28.629  28.896  1.00  0.00     0.029 A 
ATOM     41  C   UNL A   1      43.417  29.685  29.427  1.00  0.00     0.049 A 
ATOM     42  H   UNL A   1      41.612  30.087  28.438  1.00  0.00     0.167 HD
ATOM     43  C   UNL A   1      43.373  23.556  28.136  1.00  0.00     0.031 A 
ATOM     44  C   UNL A   1      43.350  30.235  30.685  1.00  0.00     0.031 A 
ATOM     45  C   UNL A   1      44.331  24.255  29.017  1.00  0.00     0.049 A 
ATOM     46  C   UNL A   1      43.749  29.197  31.701  1.00  0.00     0.074 A 
ATOM     47  C   UNL A   1      45.516  24.936  28.764  1.00  0.00     0.029 A 
ATOM     48  N   UNL A   1      43.984  24.592  30.323  1.00  0.00    -0.354 N 
ATOM     49  N   UNL A   1      44.103  27.994  31.361  1.00  0.00    -0.248 NA
ATOM     50  C   UNL A   1      43.761  29.375  33.145  1.00  0.00     0.031 C 
ATOM     51  C   UNL A   1      45.852  25.709  29.912  1.00  0.00     0.029 A 
ATOM     52  C   UNL A   1      44.895  25.476  30.883  1.00  0.00     0.049 A 
ATOM     53  H   UNL A   1      43.190  24.247  30.791  1.00  0.00     0.167 HD
ATOM     54  C   UNL A   1      44.370  27.230  32.448  1.00  0.00     0.074 A 
ATOM     55  C   UNL A   1      44.158  28.151  33.555  1.00  0.00     0.031 C 
ATOM     56  C   UNL A   1      44.732  25.922  32.277  1.00  0.00     0.031 A 
BRANCH  43  57
ATOM     57  C   UNL A   1      43.784  22.506  27.108  1.00  0.00    -0.014 A 
ATOM     58  C   UNL A   1      44.994  22.604  26.393  1.00  0.00     0.010 A 
ATOM     59  C   UNL A   1      43.016  21.351  26.844  1.00  0.00     0.010 A 
ATOM     60  C   UNL A   1      45.366  21.659  25.418  1.00  0.00     0.020 A 
ATOM     61  C   UNL A   1      43.334  20.437  25.829  1.00  0.00     0.020 A 
ATOM     62  C   UNL A   1      44.519  20.590  25.126  1.00  0.00     0.054 A 
BRANCH  62  63
ATOM     63  S   UNL A   1      45.012  19.359  23.889  1.00  0.00     0.124 S 
ATOM     64  O   UNL A   1      44.316  18.156  24.338  1.00  0.00    -0.237 OA
ATOM     65  O   UNL A   1      44.518  19.949  22.649  1.00  0.00    -0.237 OA
ATOM     66  O   UNL A   1      46.469  19.308  24.010  1.00  0.00    -0.744 OA
ENDBRANCH  62  63
ENDBRANCH  43  57
BRANCH  44  67
ATOM     67  C   UNL A   1      42.265  31.324  30.906  1.00  0.00    -0.014 A 
ATOM     68  C   UNL A   1      40.942  30.829  30.851  1.00  0.00     0.010 A 
ATOM     69  C   UNL A   1      42.527  32.113  32.014  1.00  0.00     0.010 A 
ATOM     70  C   UNL A   1      40.305  30.397  32.030  1.00  0.00     0.020 A 
ATOM     71  C   UNL A   1      41.891  31.665  33.187  1.00  0.00     0.020 A 
ATOM     72  C   UNL A   1      40.934  30.672  33.226  1.00  0.00     0.054 A 
BRANCH  72  73
ATOM     73  S   UNL A   1      40.777  29.493  34.819  1.00  0.00     0.124 S 
ATOM     74  O   UNL A   1      39.481  29.874  35.296  1.00  0.00    -0.237 OA
ATOM     75  O   UNL A   1      40.807  28.128  34.299  1.00  0.00    -0.237 OA
ATOM     76  O   UNL A   1      41.880  29.818  35.712  1.00  0.00    -0.744 OA
ENDBRANCH  72  73
ENDBRANCH  44  67
BRANCH  56  77
ATOM     77  C   UNL A   1      45.019  24.909  33.357  1.00  0.00    -0.014 A 
ATOM     78  C   UNL A   1      44.220  23.804  33.665  1.00  0.00     0.010 A 
ATOM     79  C   UNL A   1      46.199  25.068  34.130  1.00  0.00     0.010 A 
ATOM     80  C   UNL A   1      44.586  22.896  34.666  1.00  0.00     0.020 A 
ATOM     81  C   UNL A   1      46.591  24.158  35.109  1.00  0.00     0.020 A 
ATOM     82  C   UNL A   1      45.774  23.073  35.372  1.00  0.00     0.054 A 
BRANCH  82  83
ATOM     83  S   UNL A   1      46.233  21.860  36.625  1.00  0.00     0.124 S 
ATOM     84  O   UNL A   1      45.526  20.667  36.165  1.00  0.00    -0.237 OA
ATOM     85  O   UNL A   1      47.688  21.817  36.495  1.00  0.00    -0.237 OA
ATOM     86  O   UNL A   1      45.739  22.437  37.872  1.00  0.00    -0.744 OA
ENDBRANCH  82  83
ENDBRANCH  56  77
ENDBRANCH  30  31
ENDBRANCH  22  25
ENDBRANCH  20  21
ENDBRANCH   1  20
TORSDOF 15
ENDMDL
MODEL 2
REMARK VINA RESULT:     -12.6      5.843     11.678
REMARK SMILES Cc1ccc(C(F)(F)F)cc1/C=C/C(=O)NCCCNC(=O)c1ccc(-c2c3nc(c(-c4ccc(S(=O)(=O)[O-])cc4)c4ccc([nH]4)c(-c4ccc(S(=O)(=O)[O-])cc4)c4nc(c(-c5ccc(S(=O)(=O)[O-])cc5)c5ccc2[nH]5)C=C4)C=C3)cc1
REMARK SMILES IDX 18 1 17 2 16 3 14 4 15 5 13 7 12 8 11 9 1 10 2 11 3 12 4 13
REMARK SMILES IDX 10 14 5 15 6 16 7 17 8 18 9 19 19 20 20 21 21 22 22 24 23 25
REMARK SMILES IDX 24 26 82 27 25 28 81 29 26 30 27 31 28 32 75 33 29 34 80 35
REMARK SMILES IDX 74 36 76 37 30 38 79 39 73 40 72 41 31 43 61 44 42 45 60 46
REMARK SMILES IDX 43 47 46 48 59 49 77 50 44 51 45 52 58 54 78 55 47 56 32 57
REMARK SMILES IDX 33 58 41 59 34 60 40 61 35 62 36 63 37 64 38 65 39 66 62 67
REMARK SMILES IDX 63 68 71 69 64 70 70 71 65 72 66 73 67 74 68 75 69 76 48 77
REMARK SMILES IDX 49 78 57 79 50 80 56 81 51 82 52 83 53 84 54 85 55 86
REMARK H PARENT 16 6 20 23 76 42 46 53
REMARK Flexibility Score: inf
ROOT
ATOM      1  C   UNL A   1      41.311  21.096  26.135  1.00  0.00     0.042 C 
ENDROOT
BRANCH   1   2
ATOM      2  C   UNL A   1      39.742  21.292  26.457  1.00  0.00     0.118 C 
BRANCH   2   3
ATOM      3  N   UNL A   1      39.052  22.512  25.994  1.00  0.00    -0.352 N 
ATOM      4  C   UNL A   1      37.765  22.837  25.662  1.00  0.00     0.244 C 
ATOM      5  O   UNL A   1      37.328  23.986  25.651  1.00  0.00    -0.270 OA
ATOM      6  H   UNL A   1      39.666  23.276  25.901  1.00  0.00     0.163 HD
BRANCH   4   7
ATOM      7  C   UNL A   1      36.846  21.745  25.333  1.00  0.00     0.072 C 
ATOM      8  C   UNL A   1      35.535  21.995  25.427  1.00  0.00     0.014 C 
BRANCH   8   9
ATOM      9  C   UNL A   1      34.522  21.082  24.907  1.00  0.00    -0.022 A 
ATOM     10  C   UNL A   1      32.943  23.054  24.464  1.00  0.00     0.045 C 
ATOM     11  C   UNL A   1      33.298  21.592  24.428  1.00  0.00    -0.044 A 
ATOM     12  C   UNL A   1      32.346  20.711  23.907  1.00  0.00     0.004 A 
ATOM     13  C   UNL A   1      32.611  19.346  23.829  1.00  0.00     0.013 A 
ATOM     14  C   UNL A   1      34.774  19.703  24.841  1.00  0.00     0.021 A 
ATOM     15  C   UNL A   1      33.831  18.829  24.286  1.00  0.00     0.056 A 
BRANCH  15  16
ATOM     16  C   UNL A   1      34.102  17.353  24.181  1.00  0.00     0.416 C 
ATOM     17  F   UNL A   1      33.287  16.615  24.984  1.00  0.00    -0.166 F 
ATOM     18  F   UNL A   1      33.902  16.878  22.918  1.00  0.00    -0.166 F 
ATOM     19  F   UNL A   1      35.375  16.997  24.508  1.00  0.00    -0.166 F 
ENDBRANCH  15  16
ENDBRANCH   8   9
ENDBRANCH   4   7
ENDBRANCH   2   3
ENDBRANCH   1   2
BRANCH   1  20
ATOM     20  C   UNL A   1      42.094  22.405  25.687  1.00  0.00     0.118 C 
BRANCH  20  21
ATOM     21  N   UNL A   1      42.488  23.602  26.592  1.00  0.00    -0.352 N 
ATOM     22  C   UNL A   1      41.799  24.286  27.680  1.00  0.00     0.251 C 
ATOM     23  H   UNL A   1      43.379  23.971  26.393  1.00  0.00     0.163 HD
ATOM     24  O   UNL A   1      42.253  24.030  28.808  1.00  0.00    -0.269 OA
BRANCH  22  25
ATOM     25  C   UNL A   1      40.644  25.378  27.680  1.00  0.00     0.039 A 
ATOM     26  C   UNL A   1      40.766  26.570  26.893  1.00  0.00     0.014 A 
ATOM     27  C   UNL A   1      39.513  25.386  28.491  1.00  0.00     0.014 A 
ATOM     28  C   UNL A   1      40.147  27.823  27.305  1.00  0.00     0.010 A 
ATOM     29  C   UNL A   1      38.904  26.622  28.903  1.00  0.00     0.010 A 
ATOM     30  C   UNL A   1      39.385  27.877  28.489  1.00  0.00    -0.014 A 
BRANCH  30  31
ATOM     31  C   UNL A   1      39.367  29.074  29.456  1.00  0.00     0.031 A 
ATOM     32  C   UNL A   1      38.443  30.186  29.273  1.00  0.00     0.074 A 
ATOM     33  C   UNL A   1      40.022  29.236  30.651  1.00  0.00     0.049 A 
ATOM     34  N   UNL A   1      38.776  31.437  29.232  1.00  0.00    -0.248 NA
ATOM     35  C   UNL A   1      37.014  29.928  29.267  1.00  0.00     0.031 C 
ATOM     36  C   UNL A   1      40.005  30.259  31.715  1.00  0.00     0.029 A 
ATOM     37  N   UNL A   1      40.911  28.374  31.236  1.00  0.00    -0.354 N 
ATOM     38  C   UNL A   1      37.617  32.121  29.537  1.00  0.00     0.074 A 
ATOM     39  C   UNL A   1      36.539  31.174  29.309  1.00  0.00     0.031 C 
ATOM     40  C   UNL A   1      41.099  30.117  32.508  1.00  0.00     0.029 A 
ATOM     41  C   UNL A   1      41.889  29.022  31.980  1.00  0.00     0.049 A 
ATOM     42  H   UNL A   1      40.862  27.396  31.141  1.00  0.00     0.167 HD
ATOM     43  C   UNL A   1      37.623  33.278  30.270  1.00  0.00     0.031 A 
ATOM     44  C   UNL A   1      43.192  28.981  31.544  1.00  0.00     0.031 A 
ATOM     45  C   UNL A   1      38.935  33.558  30.888  1.00  0.00     0.049 A 
ATOM     46  C   UNL A   1      43.577  30.333  31.005  1.00  0.00     0.074 A 
ATOM     47  C   UNL A   1      39.362  33.600  32.210  1.00  0.00     0.029 A 
ATOM     48  N   UNL A   1      40.101  33.542  30.126  1.00  0.00    -0.354 N 
ATOM     49  N   UNL A   1      42.754  31.338  31.001  1.00  0.00    -0.248 NA
ATOM     50  C   UNL A   1      44.857  30.681  30.407  1.00  0.00     0.031 C 
ATOM     51  C   UNL A   1      40.785  33.571  32.232  1.00  0.00     0.029 A 
ATOM     52  C   UNL A   1      41.235  33.548  30.924  1.00  0.00     0.049 A 
ATOM     53  H   UNL A   1      40.118  33.527  29.141  1.00  0.00     0.167 HD
ATOM     54  C   UNL A   1      43.310  32.431  30.425  1.00  0.00     0.074 A 
ATOM     55  C   UNL A   1      44.649  31.974  30.080  1.00  0.00     0.031 C 
ATOM     56  C   UNL A   1      42.573  33.577  30.310  1.00  0.00     0.031 A 
BRANCH  43  57
ATOM     57  C   UNL A   1      36.329  33.969  30.688  1.00  0.00    -0.014 A 
ATOM     58  C   UNL A   1      36.103  34.373  32.019  1.00  0.00     0.010 A 
ATOM     59  C   UNL A   1      35.303  34.295  29.774  1.00  0.00     0.010 A 
ATOM     60  C   UNL A   1      34.898  34.981  32.423  1.00  0.00     0.020 A 
ATOM     61  C   UNL A   1      34.071  34.835  30.169  1.00  0.00     0.020 A 
ATOM     62  C   UNL A   1      33.878  35.187  31.495  1.00  0.00     0.054 A 
BRANCH  62  63
ATOM     63  S   UNL A   1      32.338  35.994  32.011  1.00  0.00     0.124 S 
ATOM     64  O   UNL A   1      31.621  34.916  32.688  1.00  0.00    -0.237 OA
ATOM     65  O   UNL A   1      32.823  37.068  32.873  1.00  0.00    -0.237 OA
ATOM     66  O   UNL A   1      31.739  36.436  30.753  1.00  0.00    -0.744 OA
ENDBRANCH  62  63
ENDBRANCH  43  57
BRANCH  44  67
ATOM     67  C   UNL A   1      43.686  27.622  30.974  1.00  0.00    -0.014 A 
ATOM     68  C   UNL A   1      42.975  27.192  29.830  1.00  0.00     0.010 A 
ATOM     69  C   UNL A   1      45.063  27.579  30.832  1.00  0.00     0.010 A 
ATOM     70  C   UNL A   1      43.434  27.543  28.547  1.00  0.00     0.020 A 
ATOM     71  C   UNL A   1      45.508  27.941  29.547  1.00  0.00     0.020 A 
ATOM     72  C   UNL A   1      44.682  28.123  28.457  1.00  0.00     0.054 A 
BRANCH  72  73
ATOM     73  S   UNL A   1      45.154  29.446  27.050  1.00  0.00     0.124 S 
ATOM     74  O   UNL A   1      45.196  28.594  25.898  1.00  0.00    -0.237 OA
ATOM     75  O   UNL A   1      44.041  30.391  27.013  1.00  0.00    -0.237 OA
ATOM     76  O   UNL A   1      46.431  30.039  27.421  1.00  0.00    -0.744 OA
ENDBRANCH  72  73
ENDBRANCH  44  67
BRANCH  56  77
ATOM     77  C   UNL A   1      42.998  34.871  29.660  1.00  0.00    -0.014 A 
ATOM     78  C   UNL A   1      44.063  35.676  30.076  1.00  0.00     0.010 A 
ATOM     79  C   UNL A   1      42.276  35.319  28.522  1.00  0.00     0.010 A 
ATOM     80  C   UNL A   1      44.405  36.846  29.387  1.00  0.00     0.020 A 
ATOM     81  C   UNL A   1      42.621  36.465  27.810  1.00  0.00     0.020 A 
ATOM     82  C   UNL A   1      43.689  37.226  28.253  1.00  0.00     0.054 A 
BRANCH  82  83
ATOM     83  S   UNL A   1      44.185  38.715  27.367  1.00  0.00     0.124 S 
ATOM     84  O   UNL A   1      45.345  38.247  26.612  1.00  0.00    -0.237 OA
ATOM     85  O   UNL A   1      42.997  39.013  26.571  1.00  0.00    -0.237 OA
ATOM     86  O   UNL A   1      44.477  39.675  28.428  1.00  0.00    -0.744 OA
ENDBRANCH  82  83
ENDBRANCH  56  77
ENDBRANCH  30  31
ENDBRANCH  22  25
ENDBRANCH  20  21
ENDBRANCH   1  20
TORSDOF 15
ENDMDL
MODEL 3
REMARK VINA RESULT:     -12.5      1.740      2.157
REMARK SMILES Cc1ccc(C(F)(F)F)cc1/C=C/C(=O)NCCCNC(=O)c1ccc(-c2c3nc(c(-c4ccc(S(=O)(=O)[O-])cc4)c4ccc([nH]4)c(-c4ccc(S(=O)(=O)[O-])cc4)c4nc(c(-c5ccc(S(=O)(=O)[O-])cc5)c5ccc2[nH]5)C=C4)C=C3)cc1
REMARK SMILES IDX 18 1 17 2 16 3 14 4 15 5 13 7 12 8 11 9 1 10 2 11 3 12 4 13
REMARK SMILES IDX 10 14 5 15 6 16 7 17 8 18 9 19 19 20 20 21 21 22 22 24 23 25
REMARK SMILES IDX 24 26 82 27 25 28 81 29 26 30 27 31 28 32 75 33 29 34 80 35
REMARK SMILES IDX 74 36 76 37 30 38 79 39 73 40 72 41 31 43 61 44 42 45 60 46
REMARK SMILES IDX 43 47 46 48 59 49 77 50 44 51 45 52 58 54 78 55 47 56 32 57
REMARK SMILES IDX 33 58 41 59 34 60 40 61 35 62 36 63 37 64 38 65 39 66 62 67
REMARK SMILES IDX 63 68 71 69 64 70 70 71 65 72 66 73 67 74 68 75 69 76 48 77
REMARK SMILES IDX 49 78 57 79 50 80 56 81 51 82 52 83 53 84 54 85 55 86
REMARK H PARENT 16 6 20 23 76 42 46 53
REMARK Flexibility Score: inf
ROOT
ATOM      1  C   UNL A   1      35.006  33.169  28.114  1.00  0.00     0.042 C 
ENDROOT
BRANCH   1   2
ATOM      2  C   UNL A   1      33.712  32.255  27.804  1.00  0.00     0.118 C 
BRANCH   2   3
ATOM      3  N   UNL A   1      33.818  30.786  27.905  1.00  0.00    -0.352 N 
ATOM      4  C   UNL A   1      33.299  29.723  27.220  1.00  0.00     0.244 C 
ATOM      5  O   UNL A   1      33.789  28.596  27.227  1.00  0.00    -0.270 OA
ATOM      6  H   UNL A   1      34.403  30.505  28.645  1.00  0.00     0.163 HD
BRANCH   4   7
ATOM      7  C   UNL A   1      32.106  29.953  26.402  1.00  0.00     0.072 C 
ATOM      8  C   UNL A   1      32.084  29.406  25.180  1.00  0.00     0.014 C 
BRANCH   8   9
ATOM      9  C   UNL A   1      30.875  29.359  24.363  1.00  0.00    -0.022 A 
ATOM     10  C   UNL A   1      31.161  26.828  24.054  1.00  0.00     0.045 C 
ATOM     11  C   UNL A   1      30.426  28.125  23.848  1.00  0.00    -0.044 A 
ATOM     12  C   UNL A   1      29.252  28.087  23.090  1.00  0.00     0.004 A 
ATOM     13  C   UNL A   1      28.512  29.246  22.869  1.00  0.00     0.013 A 
ATOM     14  C   UNL A   1      30.133  30.524  24.122  1.00  0.00     0.021 A 
ATOM     15  C   UNL A   1      28.939  30.475  23.391  1.00  0.00     0.056 A 
BRANCH  15  16
ATOM     16  C   UNL A   1      28.118  31.712  23.153  1.00  0.00     0.416 C 
ATOM     17  F   UNL A   1      28.784  32.851  23.487  1.00  0.00    -0.166 F 
ATOM     18  F   UNL A   1      27.772  31.860  21.841  1.00  0.00    -0.166 F 
ATOM     19  F   UNL A   1      26.947  31.744  23.846  1.00  0.00    -0.166 F 
ENDBRANCH  15  16
ENDBRANCH   8   9
ENDBRANCH   4   7
ENDBRANCH   2   3
ENDBRANCH   1   2
BRANCH   1  20
ATOM     20  C   UNL A   1      35.393  33.321  29.649  1.00  0.00     0.118 C 
BRANCH  20  21
ATOM     21  N   UNL A   1      36.058  32.245  30.546  1.00  0.00    -0.352 N 
ATOM     22  C   UNL A   1      37.297  31.486  30.423  1.00  0.00     0.251 C 
ATOM     23  H   UNL A   1      35.542  32.033  31.358  1.00  0.00     0.163 HD
ATOM     24  O   UNL A   1      38.197  31.856  31.197  1.00  0.00    -0.269 OA
BRANCH  22  25
ATOM     25  C   UNL A   1      37.673  30.206  29.559  1.00  0.00     0.039 A 
ATOM     26  C   UNL A   1      37.644  28.896  30.142  1.00  0.00     0.014 A 
ATOM     27  C   UNL A   1      38.176  30.202  28.262  1.00  0.00     0.014 A 
ATOM     28  C   UNL A   1      38.537  27.838  29.686  1.00  0.00     0.010 A 
ATOM     29  C   UNL A   1      39.062  29.162  27.811  1.00  0.00     0.010 A 
ATOM     30  C   UNL A   1      39.438  28.083  28.630  1.00  0.00    -0.014 A 
BRANCH  30  31
ATOM     31  C   UNL A   1      40.866  27.513  28.558  1.00  0.00     0.031 A 
ATOM     32  C   UNL A   1      41.110  26.111  28.243  1.00  0.00     0.074 A 
ATOM     33  C   UNL A   1      42.068  28.173  28.598  1.00  0.00     0.049 A 
ATOM     34  N   UNL A   1      41.840  25.302  28.944  1.00  0.00    -0.248 NA
ATOM     35  C   UNL A   1      40.629  25.572  26.984  1.00  0.00     0.031 C 
ATOM     36  C   UNL A   1      43.479  27.775  28.425  1.00  0.00     0.029 A 
ATOM     37  N   UNL A   1      42.275  29.514  28.780  1.00  0.00    -0.354 N 
ATOM     38  C   UNL A   1      42.188  24.293  28.071  1.00  0.00     0.074 A 
ATOM     39  C   UNL A   1      41.234  24.384  26.978  1.00  0.00     0.031 C 
ATOM     40  C   UNL A   1      44.295  28.745  28.914  1.00  0.00     0.029 A 
ATOM     41  C   UNL A   1      43.456  29.797  29.453  1.00  0.00     0.049 A 
ATOM     42  H   UNL A   1      41.652  30.208  28.466  1.00  0.00     0.167 HD
ATOM     43  C   UNL A   1      43.411  23.679  28.114  1.00  0.00     0.031 A 
ATOM     44  C   UNL A   1      43.389  30.337  30.716  1.00  0.00     0.031 A 
ATOM     45  C   UNL A   1      44.369  24.370  29.001  1.00  0.00     0.049 A 
ATOM     46  C   UNL A   1      43.786  29.291  31.723  1.00  0.00     0.074 A 
ATOM     47  C   UNL A   1      45.554  25.053  28.754  1.00  0.00     0.029 A 
ATOM     48  N   UNL A   1      44.021  24.697  30.309  1.00  0.00    -0.354 N 
ATOM     49  N   UNL A   1      44.140  28.090  31.374  1.00  0.00    -0.248 NA
ATOM     50  C   UNL A   1      43.797  29.457  33.169  1.00  0.00     0.031 C 
ATOM     51  C   UNL A   1      45.889  25.817  29.909  1.00  0.00     0.029 A 
ATOM     52  C   UNL A   1      44.931  25.576  30.877  1.00  0.00     0.049 A 
ATOM     53  H   UNL A   1      43.226  24.349  30.774  1.00  0.00     0.167 HD
ATOM     54  C   UNL A   1      44.406  27.318  32.455  1.00  0.00     0.074 A 
ATOM     55  C   UNL A   1      44.193  28.230  33.569  1.00  0.00     0.031 C 
ATOM     56  C   UNL A   1      44.768  26.011  32.274  1.00  0.00     0.031 A 
BRANCH  43  57
ATOM     57  C   UNL A   1      43.822  22.637  27.078  1.00  0.00    -0.014 A 
ATOM     58  C   UNL A   1      42.951  21.602  26.684  1.00  0.00     0.010 A 
ATOM     59  C   UNL A   1      45.067  22.667  26.412  1.00  0.00     0.010 A 
ATOM     60  C   UNL A   1      43.333  20.615  25.754  1.00  0.00     0.020 A 
ATOM     61  C   UNL A   1      45.491  21.657  25.537  1.00  0.00     0.020 A 
ATOM     62  C   UNL A   1      44.614  20.637  25.203  1.00  0.00     0.054 A 
BRANCH  62  63
ATOM     63  S   UNL A   1      45.094  19.382  23.985  1.00  0.00     0.124 S 
ATOM     64  O   UNL A   1      44.493  18.164  24.524  1.00  0.00    -0.237 OA
ATOM     65  O   UNL A   1      44.493  19.893  22.757  1.00  0.00    -0.237 OA
ATOM     66  O   UNL A   1      46.556  19.411  24.014  1.00  0.00    -0.744 OA
ENDBRANCH  62  63
ENDBRANCH  43  57
BRANCH  44  67
ATOM     67  C   UNL A   1      42.304  31.425  30.945  1.00  0.00    -0.014 A 
ATOM     68  C   UNL A   1      42.301  31.960  32.253  1.00  0.00     0.010 A 
ATOM     69  C   UNL A   1      42.295  32.381  29.943  1.00  0.00     0.010 A 
ATOM     70  C   UNL A   1      43.067  33.105  32.543  1.00  0.00     0.020 A 
ATOM     71  C   UNL A   1      43.072  33.516  30.243  1.00  0.00     0.020 A 
ATOM     72  C   UNL A   1      43.627  33.779  31.478  1.00  0.00     0.054 A 
BRANCH  72  73
ATOM     73  S   UNL A   1      45.347  34.766  31.615  1.00  0.00     0.124 S 
ATOM     74  O   UNL A   1      46.094  33.870  32.447  1.00  0.00    -0.237 OA
ATOM     75  O   UNL A   1      45.868  34.835  30.252  1.00  0.00    -0.237 OA
ATOM     76  O   UNL A   1      45.059  36.062  32.212  1.00  0.00    -0.744 OA
ENDBRANCH  72  73
ENDBRANCH  44  67
BRANCH  56  77
ATOM     77  C   UNL A   1      45.053  24.989  33.347  1.00  0.00    -0.014 A 
ATOM     78  C   UNL A   1      44.096  24.190  33.980  1.00  0.00     0.010 A 
ATOM     79  C   UNL A   1      46.400  24.802  33.753  1.00  0.00     0.010 A 
ATOM     80  C   UNL A   1      44.462  23.242  34.943  1.00  0.00     0.020 A 
ATOM     81  C   UNL A   1      46.782  23.844  34.689  1.00  0.00     0.020 A 
ATOM     82  C   UNL A   1      45.802  23.068  35.282  1.00  0.00     0.054 A 
BRANCH  82  83
ATOM     83  S   UNL A   1      46.238  21.808  36.496  1.00  0.00     0.124 S 
ATOM     84  O   UNL A   1      47.697  21.805  36.421  1.00  0.00    -0.237 OA
ATOM     85  O   UNL A   1      45.674  22.356  37.728  1.00  0.00    -0.237 OA
ATOM     86  O   UNL A   1      45.585  20.600  35.999  1.00  0.00    -0.744 OA
ENDBRANCH  82  83
ENDBRANCH  56  77
ENDBRANCH  30  31
ENDBRANCH  22  25
ENDBRANCH  20  21
ENDBRANCH   1  20
TORSDOF 15
ENDMDL
