MODEL 1
REMARK VINA RESULT:     -12.6      0.000      0.000
REMARK SMILES C=C1C[C@]23CC[C@@H]4[C@](C)(CCC[C@@]4(C)C(=O)NCCCNC(=O)c4ccc(-c5c6nc(c(-c7ccc(S(=O)(=O)[O-])cc7)c7ccc([nH]7)c(-c7ccc(S(=O)(=O)[O-])cc7)c7nc(c(-c8ccc(S(=O)(=O)[O-])cc8)c8ccc5[nH]8)C=C7)C=C6)cc4)[C@@H]2CC[C@@]1(O)C3
REMARK SMILES IDX 20 1 19 2 18 3 17 4 15 5 16 6 13 8 1 9 2 10 3 11 87 12 4 13
REMARK SMILES IDX 86 14 89 15 5 16 84 17 85 18 6 19 8 20 7 21 10 22 9 23 11 24
REMARK SMILES IDX 12 25 14 26 88 27 21 29 22 30 23 32 24 33 25 34 83 35 26 36
REMARK SMILES IDX 82 37 27 38 28 39 29 40 76 41 30 42 81 43 75 44 77 45 31 46
REMARK SMILES IDX 80 47 74 48 73 49 32 51 62 52 43 53 61 54 44 55 47 56 60 57
REMARK SMILES IDX 78 58 45 59 46 60 59 62 79 63 48 64 33 65 34 66 42 67 35 68
REMARK SMILES IDX 41 69 36 70 37 71 38 72 39 73 40 74 63 75 64 76 72 77 65 78
REMARK SMILES IDX 71 79 66 80 67 81 68 82 69 83 70 84 49 85 50 86 58 87 51 88
REMARK SMILES IDX 57 89 52 90 53 91 54 92 55 93 56 94
REMARK H PARENT 17 7 88 28 21 31 77 50 47 61
REMARK Flexibility Score: inf
ROOT
ATOM      1  C   UNL A   1      33.601  29.204  27.494  1.00  0.00     0.118 C 
ENDROOT
BRANCH   1   2
ATOM      2  C   UNL A   1      32.241  28.736  27.010  1.00  0.00     0.042 C 
BRANCH   2   3
ATOM      3  C   UNL A   1      31.702  29.643  25.904  1.00  0.00     0.117 C 
BRANCH   3   4
ATOM      4  N   UNL A   1      32.489  29.650  24.656  1.00  0.00    -0.356 N 
ATOM      5  C   UNL A   1      32.600  28.717  23.616  1.00  0.00     0.226 C 
ATOM      6  O   UNL A   1      33.426  28.922  22.730  1.00  0.00    -0.274 OA
ATOM      7  H   UNL A   1      33.035  30.459  24.531  1.00  0.00     0.163 HD
BRANCH   5   8
ATOM      8  C   UNL A   1      31.572  27.559  23.572  1.00  0.00     0.050 C 
ATOM      9  C   UNL A   1      36.056  20.823  25.564  1.00  0.00     0.011 C 
ATOM     10  C   UNL A   1      35.567  21.998  25.140  1.00  0.00    -0.045 C 
ATOM     11  C   UNL A   1      34.199  22.594  25.463  1.00  0.00     0.040 C 
ATOM     12  C   UNL A   1      36.349  23.027  24.366  1.00  0.00     0.086 C 
ATOM     13  C   UNL A   1      34.286  24.067  24.934  1.00  0.00    -0.020 C 
ATOM     14  C   UNL A   1      35.987  22.952  22.871  1.00  0.00     0.040 C 
ATOM     15  C   UNL A   1      35.818  24.286  25.030  1.00  0.00     0.047 C 
ATOM     16  C   UNL A   1      33.616  25.089  25.832  1.00  0.00     0.008 C 
ATOM     17  C   UNL A   1      33.912  24.271  23.405  1.00  0.00     0.002 C 
ATOM     18  C   UNL A   1      34.467  23.089  22.577  1.00  0.00     0.008 C 
ATOM     19  C   UNL A   1      33.547  26.455  25.090  1.00  0.00     0.006 C 
ATOM     20  C   UNL A   1      32.606  25.112  22.947  1.00  0.00    -0.025 C 
ATOM     21  C   UNL A   1      32.559  26.331  23.872  1.00  0.00     0.010 C 
ATOM     22  C   UNL A   1      31.092  24.622  23.034  1.00  0.00     0.007 C 
ATOM     23  C   UNL A   1      32.879  25.415  21.463  1.00  0.00     0.012 C 
ATOM     24  C   UNL A   1      29.999  25.567  23.847  1.00  0.00     0.002 C 
ATOM     25  C   UNL A   1      30.431  27.012  24.485  1.00  0.00     0.017 C 
ATOM     26  C   UNL A   1      30.621  28.076  22.443  1.00  0.00     0.022 C 
BRANCH  12  27
ATOM     27  O   UNL A   1      37.747  22.920  24.546  1.00  0.00    -0.386 OA
ATOM     28  H   UNL A   1      37.945  22.827  25.491  1.00  0.00     0.211 HD
ENDBRANCH  12  27
ENDBRANCH   5   8
ENDBRANCH   3   4
ENDBRANCH   2   3
ENDBRANCH   1   2
BRANCH   1  29
ATOM     29  N   UNL A   1      33.628  30.578  27.989  1.00  0.00    -0.352 N 
ATOM     30  C   UNL A   1      34.699  31.236  28.584  1.00  0.00     0.251 C 
ATOM     31  H   UNL A   1      32.797  31.096  27.892  1.00  0.00     0.163 HD
ATOM     32  O   UNL A   1      34.585  32.351  29.033  1.00  0.00    -0.269 OA
BRANCH  30  33
ATOM     33  C   UNL A   1      35.978  30.490  28.693  1.00  0.00     0.039 A 
ATOM     34  C   UNL A   1      36.871  30.506  27.621  1.00  0.00     0.014 A 
ATOM     35  C   UNL A   1      36.335  29.907  29.910  1.00  0.00     0.014 A 
ATOM     36  C   UNL A   1      38.167  30.019  27.806  1.00  0.00     0.010 A 
ATOM     37  C   UNL A   1      37.652  29.528  30.122  1.00  0.00     0.010 A 
ATOM     38  C   UNL A   1      38.582  29.578  29.073  1.00  0.00    -0.014 A 
BRANCH  38  39
ATOM     39  C   UNL A   1      39.980  29.152  29.332  1.00  0.00     0.031 A 
ATOM     40  C   UNL A   1      40.959  30.132  29.921  1.00  0.00     0.074 A 
ATOM     41  C   UNL A   1      40.392  27.923  28.958  1.00  0.00     0.049 A 
ATOM     42  N   UNL A   1      42.238  29.985  30.149  1.00  0.00    -0.248 NA
ATOM     43  C   UNL A   1      40.439  31.468  30.261  1.00  0.00     0.031 C 
ATOM     44  C   UNL A   1      39.556  26.904  28.318  1.00  0.00     0.029 A 
ATOM     45  N   UNL A   1      41.623  27.325  29.056  1.00  0.00    -0.354 N 
ATOM     46  C   UNL A   1      42.677  31.212  30.631  1.00  0.00     0.074 A 
ATOM     47  C   UNL A   1      41.544  32.109  30.607  1.00  0.00     0.031 C 
ATOM     48  C   UNL A   1      40.290  25.799  28.109  1.00  0.00     0.029 A 
ATOM     49  C   UNL A   1      41.656  26.041  28.564  1.00  0.00     0.049 A 
ATOM     50  H   UNL A   1      42.410  27.773  29.443  1.00  0.00     0.167 HD
ATOM     51  C   UNL A   1      43.907  31.556  31.081  1.00  0.00     0.031 A 
ATOM     52  C   UNL A   1      42.671  25.158  28.485  1.00  0.00     0.031 A 
ATOM     53  C   UNL A   1      45.022  30.653  31.130  1.00  0.00     0.049 A 
ATOM     54  C   UNL A   1      44.023  25.553  29.013  1.00  0.00     0.074 A 
ATOM     55  C   UNL A   1      46.288  30.877  31.638  1.00  0.00     0.029 A 
ATOM     56  N   UNL A   1      45.003  29.349  30.655  1.00  0.00    -0.354 N 
ATOM     57  N   UNL A   1      44.398  26.693  29.543  1.00  0.00    -0.248 NA
ATOM     58  C   UNL A   1      45.084  24.539  28.947  1.00  0.00     0.031 C 
ATOM     59  C   UNL A   1      47.051  29.724  31.426  1.00  0.00     0.029 A 
ATOM     60  C   UNL A   1      46.244  28.764  30.838  1.00  0.00     0.049 A 
ATOM     61  H   UNL A   1      44.224  28.907  30.249  1.00  0.00     0.167 HD
ATOM     62  C   UNL A   1      45.733  26.525  29.896  1.00  0.00     0.074 A 
ATOM     63  C   UNL A   1      46.093  25.169  29.534  1.00  0.00     0.031 C 
ATOM     64  C   UNL A   1      46.583  27.412  30.469  1.00  0.00     0.031 A 
BRANCH  51  65
ATOM     65  C   UNL A   1      44.100  32.973  31.553  1.00  0.00    -0.014 A 
ATOM     66  C   UNL A   1      43.860  33.333  32.892  1.00  0.00     0.010 A 
ATOM     67  C   UNL A   1      44.546  33.955  30.650  1.00  0.00     0.010 A 
ATOM     68  C   UNL A   1      44.015  34.658  33.308  1.00  0.00     0.020 A 
ATOM     69  C   UNL A   1      44.733  35.275  31.070  1.00  0.00     0.020 A 
ATOM     70  C   UNL A   1      44.447  35.621  32.393  1.00  0.00     0.054 A 
BRANCH  70  71
ATOM     71  S   UNL A   1      44.656  37.330  32.963  1.00  0.00     0.124 S 
ATOM     72  O   UNL A   1      44.795  38.052  31.701  1.00  0.00    -0.237 OA
ATOM     73  O   UNL A   1      43.415  37.577  33.693  1.00  0.00    -0.237 OA
ATOM     74  O   UNL A   1      45.861  37.276  33.786  1.00  0.00    -0.744 OA
ENDBRANCH  70  71
ENDBRANCH  51  65
BRANCH  52  75
ATOM     75  C   UNL A   1      42.438  23.807  27.905  1.00  0.00    -0.014 A 
ATOM     76  C   UNL A   1      42.746  23.544  26.558  1.00  0.00     0.010 A 
ATOM     77  C   UNL A   1      41.928  22.767  28.704  1.00  0.00     0.010 A 
ATOM     78  C   UNL A   1      42.537  22.271  26.017  1.00  0.00     0.020 A 
ATOM     79  C   UNL A   1      41.742  21.486  28.174  1.00  0.00     0.020 A 
ATOM     80  C   UNL A   1      42.039  21.249  26.830  1.00  0.00     0.054 A 
BRANCH  80  81
ATOM     81  S   UNL A   1      41.837  19.590  26.124  1.00  0.00     0.124 S 
ATOM     82  O   UNL A   1      42.694  19.655  24.945  1.00  0.00    -0.237 OA
ATOM     83  O   UNL A   1      42.309  18.727  27.204  1.00  0.00    -0.237 OA
ATOM     84  O   UNL A   1      40.403  19.506  25.855  1.00  0.00    -0.744 OA
ENDBRANCH  80  81
ENDBRANCH  52  75
BRANCH  64  85
ATOM     85  C   UNL A   1      47.979  26.940  30.769  1.00  0.00    -0.014 A 
ATOM     86  C   UNL A   1      49.023  27.119  29.846  1.00  0.00     0.010 A 
ATOM     87  C   UNL A   1      48.261  26.366  32.023  1.00  0.00     0.010 A 
ATOM     88  C   UNL A   1      50.320  26.707  30.160  1.00  0.00     0.020 A 
ATOM     89  C   UNL A   1      49.562  25.979  32.351  1.00  0.00     0.020 A 
ATOM     90  C   UNL A   1      50.581  26.140  31.411  1.00  0.00     0.054 A 
BRANCH  90  91
ATOM     91  S   UNL A   1      52.283  25.657  31.814  1.00  0.00     0.124 S 
ATOM     92  O   UNL A   1      52.592  26.539  32.936  1.00  0.00    -0.237 OA
ATOM     93  O   UNL A   1      52.143  24.241  32.146  1.00  0.00    -0.237 OA
ATOM     94  O   UNL A   1      53.022  25.932  30.583  1.00  0.00    -0.744 OA
ENDBRANCH  90  91
ENDBRANCH  64  85
ENDBRANCH  38  39
ENDBRANCH  30  33
ENDBRANCH   1  29
TORSDOF 14
ENDMDL
MODEL 2
REMARK VINA RESULT:     -12.6      2.679      9.263
REMARK SMILES C=C1C[C@]23CC[C@@H]4[C@](C)(CCC[C@@]4(C)C(=O)NCCCNC(=O)c4ccc(-c5c6nc(c(-c7ccc(S(=O)(=O)[O-])cc7)c7ccc([nH]7)c(-c7ccc(S(=O)(=O)[O-])cc7)c7nc(c(-c8ccc(S(=O)(=O)[O-])cc8)c8ccc5[nH]8)C=C7)C=C6)cc4)[C@@H]2CC[C@@]1(O)C3
REMARK SMILES IDX 20 1 19 2 18 3 17 4 15 5 16 6 13 8 1 9 2 10 3 11 87 12 4 13
REMARK SMILES IDX 86 14 89 15 5 16 84 17 85 18 6 19 8 20 7 21 10 22 9 23 11 24
REMARK SMILES IDX 12 25 14 26 88 27 21 29 22 30 23 32 24 33 25 34 83 35 26 36
REMARK SMILES IDX 82 37 27 38 28 39 29 40 76 41 30 42 81 43 75 44 77 45 31 46
REMARK SMILES IDX 80 47 74 48 73 49 32 51 62 52 43 53 61 54 44 55 47 56 60 57
REMARK SMILES IDX 78 58 45 59 46 60 59 62 79 63 48 64 33 65 34 66 42 67 35 68
REMARK SMILES IDX 41 69 36 70 37 71 38 72 39 73 40 74 63 75 64 76 72 77 65 78
REMARK SMILES IDX 71 79 66 80 67 81 68 82 69 83 70 84 49 85 50 86 58 87 51 88
REMARK SMILES IDX 57 89 52 90 53 91 54 92 55 93 56 94
REMARK H PARENT 17 7 88 28 21 31 77 50 47 61
REMARK Flexibility Score: inf
ROOT
ATOM      1  C   UNL A   1      37.663  23.342  24.979  1.00  0.00     0.118 C 
ENDROOT
BRANCH   1   2
ATOM      2  C   UNL A   1      36.697  22.704  23.997  1.00  0.00     0.042 C 
BRANCH   2   3
ATOM      3  C   UNL A   1      36.193  21.355  24.509  1.00  0.00     0.117 C 
BRANCH   3   4
ATOM      4  N   UNL A   1      35.534  21.388  25.829  1.00  0.00    -0.356 N 
ATOM      5  C   UNL A   1      34.255  21.802  26.225  1.00  0.00     0.226 C 
ATOM      6  O   UNL A   1      33.992  21.831  27.424  1.00  0.00    -0.274 OA
ATOM      7  H   UNL A   1      36.096  21.060  26.567  1.00  0.00     0.163 HD
BRANCH   5   8
ATOM      8  C   UNL A   1      33.203  22.056  25.115  1.00  0.00     0.050 C 
ATOM      9  C   UNL A   1      31.995  30.298  25.353  1.00  0.00     0.011 C 
ATOM     10  C   UNL A   1      32.241  28.999  25.579  1.00  0.00    -0.045 C 
ATOM     11  C   UNL A   1      32.412  27.901  24.532  1.00  0.00     0.040 C 
ATOM     12  C   UNL A   1      32.537  28.401  26.929  1.00  0.00     0.086 C 
ATOM     13  C   UNL A   1      32.940  26.670  25.347  1.00  0.00    -0.020 C 
ATOM     14  C   UNL A   1      31.282  27.704  27.486  1.00  0.00     0.040 C 
ATOM     15  C   UNL A   1      33.619  27.414  26.526  1.00  0.00     0.047 C 
ATOM     16  C   UNL A   1      34.007  25.865  24.632  1.00  0.00     0.008 C 
ATOM     17  C   UNL A   1      31.825  25.749  25.998  1.00  0.00     0.002 C 
ATOM     18  C   UNL A   1      30.676  26.633  26.537  1.00  0.00     0.008 C 
ATOM     19  C   UNL A   1      34.266  24.547  25.418  1.00  0.00     0.006 C 
ATOM     20  C   UNL A   1      31.590  24.219  25.520  1.00  0.00    -0.025 C 
ATOM     21  C   UNL A   1      32.989  23.632  25.324  1.00  0.00     0.010 C 
ATOM     22  C   UNL A   1      30.886  23.753  24.167  1.00  0.00     0.007 C 
ATOM     23  C   UNL A   1      30.768  23.608  26.668  1.00  0.00     0.012 C 
ATOM     24  C   UNL A   1      31.714  22.734  23.155  1.00  0.00     0.002 C 
ATOM     25  C   UNL A   1      33.189  22.146  23.557  1.00  0.00     0.017 C 
ATOM     26  C   UNL A   1      32.391  20.722  25.192  1.00  0.00     0.022 C 
BRANCH  12  27
ATOM     27  O   UNL A   1      33.040  29.339  27.860  1.00  0.00    -0.386 OA
ATOM     28  H   UNL A   1      33.690  29.911  27.423  1.00  0.00     0.211 HD
ENDBRANCH  12  27
ENDBRANCH   5   8
ENDBRANCH   3   4
ENDBRANCH   2   3
ENDBRANCH   1   2
BRANCH   1  29
ATOM     29  N   UNL A   1      38.626  22.415  25.569  1.00  0.00    -0.352 N 
ATOM     30  C   UNL A   1      39.627  22.716  26.487  1.00  0.00     0.251 C 
ATOM     31  H   UNL A   1      38.560  21.475  25.286  1.00  0.00     0.163 HD
ATOM     32  O   UNL A   1      40.424  21.883  26.848  1.00  0.00    -0.269 OA
BRANCH  30  33
ATOM     33  C   UNL A   1      39.710  24.118  26.965  1.00  0.00     0.039 A 
ATOM     34  C   UNL A   1      39.093  24.467  28.167  1.00  0.00     0.014 A 
ATOM     35  C   UNL A   1      40.520  25.032  26.289  1.00  0.00     0.014 A 
ATOM     36  C   UNL A   1      39.372  25.709  28.741  1.00  0.00     0.010 A 
ATOM     37  C   UNL A   1      40.882  26.216  26.914  1.00  0.00     0.010 A 
ATOM     38  C   UNL A   1      40.311  26.569  28.146  1.00  0.00    -0.014 A 
BRANCH  38  39
ATOM     39  C   UNL A   1      40.710  27.850  28.782  1.00  0.00     0.031 A 
ATOM     40  C   UNL A   1      42.077  27.979  29.398  1.00  0.00     0.074 A 
ATOM     41  C   UNL A   1      39.820  28.858  28.885  1.00  0.00     0.049 A 
ATOM     42  N   UNL A   1      42.589  28.978  30.068  1.00  0.00    -0.248 NA
ATOM     43  C   UNL A   1      42.973  26.815  29.279  1.00  0.00     0.031 C 
ATOM     44  C   UNL A   1      38.442  28.831  28.386  1.00  0.00     0.029 A 
ATOM     45  N   UNL A   1      39.941  30.101  29.453  1.00  0.00    -0.354 N 
ATOM     46  C   UNL A   1      43.849  28.555  30.470  1.00  0.00     0.074 A 
ATOM     47  C   UNL A   1      44.002  27.189  30.023  1.00  0.00     0.031 C 
ATOM     48  C   UNL A   1      37.858  30.013  28.643  1.00  0.00     0.029 A 
ATOM     49  C   UNL A   1      38.802  30.867  29.357  1.00  0.00     0.049 A 
ATOM     50  H   UNL A   1      40.765  30.416  29.889  1.00  0.00     0.167 HD
ATOM     51  C   UNL A   1      44.806  29.248  31.131  1.00  0.00     0.031 A 
ATOM     52  C   UNL A   1      38.545  32.115  29.797  1.00  0.00     0.031 A 
ATOM     53  C   UNL A   1      44.661  30.615  31.547  1.00  0.00     0.049 A 
ATOM     54  C   UNL A   1      39.632  32.876  30.506  1.00  0.00     0.074 A 
ATOM     55  C   UNL A   1      45.596  31.433  32.153  1.00  0.00     0.029 A 
ATOM     56  N   UNL A   1      43.504  31.366  31.398  1.00  0.00    -0.354 N 
ATOM     57  N   UNL A   1      40.849  32.485  30.804  1.00  0.00    -0.248 NA
ATOM     58  C   UNL A   1      39.317  34.249  30.923  1.00  0.00     0.031 C 
ATOM     59  C   UNL A   1      44.989  32.665  32.416  1.00  0.00     0.029 A 
ATOM     60  C   UNL A   1      43.694  32.633  31.922  1.00  0.00     0.049 A 
ATOM     61  H   UNL A   1      42.672  31.045  30.982  1.00  0.00     0.167 HD
ATOM     62  C   UNL A   1      41.453  33.574  31.424  1.00  0.00     0.074 A 
ATOM     63  C   UNL A   1      40.473  34.642  31.442  1.00  0.00     0.031 C 
ATOM     64  C   UNL A   1      42.706  33.681  31.931  1.00  0.00     0.031 A 
BRANCH  51  65
ATOM     65  C   UNL A   1      46.094  28.529  31.438  1.00  0.00    -0.014 A 
ATOM     66  C   UNL A   1      47.190  28.589  30.556  1.00  0.00     0.010 A 
ATOM     67  C   UNL A   1      46.217  27.800  32.633  1.00  0.00     0.010 A 
ATOM     68  C   UNL A   1      48.367  27.893  30.841  1.00  0.00     0.020 A 
ATOM     69  C   UNL A   1      47.405  27.127  32.938  1.00  0.00     0.020 A 
ATOM     70  C   UNL A   1      48.465  27.163  32.029  1.00  0.00     0.054 A 
BRANCH  70  71
ATOM     71  S   UNL A   1      50.010  26.282  32.382  1.00  0.00     0.124 S 
ATOM     72  O   UNL A   1      51.011  27.221  31.882  1.00  0.00    -0.237 OA
ATOM     73  O   UNL A   1      49.965  26.126  33.833  1.00  0.00    -0.237 OA
ATOM     74  O   UNL A   1      49.884  25.042  31.620  1.00  0.00    -0.744 OA
ENDBRANCH  70  71
ENDBRANCH  51  65
BRANCH  52  75
ATOM     75  C   UNL A   1      37.210  32.728  29.555  1.00  0.00    -0.014 A 
ATOM     76  C   UNL A   1      36.230  32.728  30.563  1.00  0.00     0.010 A 
ATOM     77  C   UNL A   1      36.920  33.338  28.320  1.00  0.00     0.010 A 
ATOM     78  C   UNL A   1      34.981  33.314  30.338  1.00  0.00     0.020 A 
ATOM     79  C   UNL A   1      35.681  33.949  28.101  1.00  0.00     0.020 A 
ATOM     80  C   UNL A   1      34.715  33.925  29.109  1.00  0.00     0.054 A 
BRANCH  80  81
ATOM     81  S   UNL A   1      33.110  34.735  28.863  1.00  0.00     0.124 S 
ATOM     82  O   UNL A   1      33.506  36.043  28.351  1.00  0.00    -0.237 OA
ATOM     83  O   UNL A   1      32.454  33.851  27.902  1.00  0.00    -0.237 OA
ATOM     84  O   UNL A   1      32.520  34.735  30.199  1.00  0.00    -0.744 OA
ENDBRANCH  80  81
ENDBRANCH  52  75
BRANCH  64  85
ATOM     85  C   UNL A   1      43.104  35.006  32.523  1.00  0.00    -0.014 A 
ATOM     86  C   UNL A   1      43.723  35.996  31.742  1.00  0.00     0.010 A 
ATOM     87  C   UNL A   1      42.794  35.283  33.868  1.00  0.00     0.010 A 
ATOM     88  C   UNL A   1      44.049  37.233  32.303  1.00  0.00     0.020 A 
ATOM     89  C   UNL A   1      43.094  36.528  34.424  1.00  0.00     0.020 A 
ATOM     90  C   UNL A   1      43.733  37.491  33.640  1.00  0.00     0.054 A 
BRANCH  90  91
ATOM     91  S   UNL A   1      44.124  39.122  34.332  1.00  0.00     0.124 S 
ATOM     92  O   UNL A   1      45.415  39.412  33.715  1.00  0.00    -0.237 OA
ATOM     93  O   UNL A   1      43.007  39.942  33.870  1.00  0.00    -0.237 OA
ATOM     94  O   UNL A   1      44.162  38.886  35.775  1.00  0.00    -0.744 OA
ENDBRANCH  90  91
ENDBRANCH  64  85
ENDBRANCH  38  39
ENDBRANCH  30  33
ENDBRANCH   1  29
TORSDOF 14
ENDMDL
MODEL 3
REMARK VINA RESULT:     -12.5      2.607      3.155
REMARK SMILES C=C1C[C@]23CC[C@@H]4[C@](C)(CCC[C@@]4(C)C(=O)NCCCNC(=O)c4ccc(-c5c6nc(c(-c7ccc(S(=O)(=O)[O-])cc7)c7ccc([nH]7)c(-c7ccc(S(=O)(=O)[O-])cc7)c7nc(c(-c8ccc(S(=O)(=O)[O-])cc8)c8ccc5[nH]8)C=C7)C=C6)cc4)[C@@H]2CC[C@@]1(O)C3
REMARK SMILES IDX 20 1 19 2 18 3 17 4 15 5 16 6 13 8 1 9 2 10 3 11 87 12 4 13
REMARK SMILES IDX 86 14 89 15 5 16 84 17 85 18 6 19 8 20 7 21 10 22 9 23 11 24
REMARK SMILES IDX 12 25 14 26 88 27 21 29 22 30 23 32 24 33 25 34 83 35 26 36
REMARK SMILES IDX 82 37 27 38 28 39 29 40 76 41 30 42 81 43 75 44 77 45 31 46
REMARK SMILES IDX 80 47 74 48 73 49 32 51 62 52 43 53 61 54 44 55 47 56 60 57
REMARK SMILES IDX 78 58 45 59 46 60 59 62 79 63 48 64 33 65 34 66 42 67 35 68
REMARK SMILES IDX 41 69 36 70 37 71 38 72 39 73 40 74 63 75 64 76 72 77 65 78
REMARK SMILES IDX 71 79 66 80 67 81 68 82 69 83 70 84 49 85 50 86 58 87 51 88
REMARK SMILES IDX 57 89 52 90 53 91 54 92 55 93 56 94
REMARK H PARENT 17 7 88 28 21 31 77 50 47 61
REMARK Flexibility Score: inf
ROOT
ATOM      1  C   UNL A   1      35.059  29.539  27.749  1.00  0.00     0.118 C 
ENDROOT
BRANCH   1   2
ATOM      2  C   UNL A   1      33.677  28.928  27.607  1.00  0.00     0.042 C 
BRANCH   2   3
ATOM      3  C   UNL A   1      32.850  29.662  26.552  1.00  0.00     0.117 C 
BRANCH   3   4
ATOM      4  N   UNL A   1      33.470  29.755  25.217  1.00  0.00    -0.356 N 
ATOM      5  C   UNL A   1      33.322  28.976  24.061  1.00  0.00     0.226 C 
ATOM      6  O   UNL A   1      34.053  29.206  23.101  1.00  0.00    -0.274 OA
ATOM      7  H   UNL A   1      34.105  30.502  25.120  1.00  0.00     0.163 HD
BRANCH   5   8
ATOM      8  C   UNL A   1      32.144  27.970  24.015  1.00  0.00     0.050 C 
ATOM      9  C   UNL A   1      35.760  20.591  25.399  1.00  0.00     0.011 C 
ATOM     10  C   UNL A   1      35.416  21.843  25.064  1.00  0.00    -0.045 C 
ATOM     11  C   UNL A   1      34.159  22.596  25.495  1.00  0.00     0.040 C 
ATOM     12  C   UNL A   1      36.292  22.803  24.302  1.00  0.00     0.086 C 
ATOM     13  C   UNL A   1      34.421  24.073  25.039  1.00  0.00    -0.020 C 
ATOM     14  C   UNL A   1      35.850  22.865  22.828  1.00  0.00     0.040 C 
ATOM     15  C   UNL A   1      35.971  24.080  25.060  1.00  0.00     0.047 C 
ATOM     16  C   UNL A   1      33.940  25.121  26.025  1.00  0.00     0.008 C 
ATOM     17  C   UNL A   1      34.004  24.415  23.547  1.00  0.00     0.002 C 
ATOM     18  C   UNL A   1      34.351  23.220  22.628  1.00  0.00     0.008 C 
ATOM     19  C   UNL A   1      34.022  26.525  25.360  1.00  0.00     0.006 C 
ATOM     20  C   UNL A   1      32.803  25.449  23.207  1.00  0.00    -0.025 C 
ATOM     21  C   UNL A   1      32.968  26.606  24.195  1.00  0.00     0.010 C 
ATOM     22  C   UNL A   1      31.242  25.160  23.354  1.00  0.00     0.007 C 
ATOM     23  C   UNL A   1      33.042  25.799  21.728  1.00  0.00     0.012 C 
ATOM     24  C   UNL A   1      30.330  26.192  24.276  1.00  0.00     0.002 C 
ATOM     25  C   UNL A   1      30.985  27.527  24.962  1.00  0.00     0.017 C 
ATOM     26  C   UNL A   1      31.218  28.675  22.971  1.00  0.00     0.022 C 
BRANCH  12  27
ATOM     27  O   UNL A   1      37.670  22.500  24.397  1.00  0.00    -0.386 OA
ATOM     28  H   UNL A   1      37.912  21.872  23.700  1.00  0.00     0.211 HD
ENDBRANCH  12  27
ENDBRANCH   5   8
ENDBRANCH   3   4
ENDBRANCH   2   3
ENDBRANCH   1   2
BRANCH   1  29
ATOM     29  N   UNL A   1      35.198  30.465  28.871  1.00  0.00    -0.352 N 
ATOM     30  C   UNL A   1      36.338  30.695  29.633  1.00  0.00     0.251 C 
ATOM     31  H   UNL A   1      34.398  30.983  29.114  1.00  0.00     0.163 HD
ATOM     32  O   UNL A   1      36.319  31.426  30.594  1.00  0.00    -0.269 OA
BRANCH  30  33
ATOM     33  C   UNL A   1      37.571  29.963  29.249  1.00  0.00     0.039 A 
ATOM     34  C   UNL A   1      37.970  29.952  27.912  1.00  0.00     0.014 A 
ATOM     35  C   UNL A   1      38.388  29.419  30.241  1.00  0.00     0.014 A 
ATOM     36  C   UNL A   1      39.243  29.481  27.585  1.00  0.00     0.010 A 
ATOM     37  C   UNL A   1      39.690  29.056  29.928  1.00  0.00     0.010 A 
ATOM     38  C   UNL A   1      40.132  29.081  28.597  1.00  0.00    -0.014 A 
BRANCH  38  39
ATOM     39  C   UNL A   1      41.527  28.674  28.296  1.00  0.00     0.031 A 
ATOM     40  C   UNL A   1      42.613  29.715  28.259  1.00  0.00     0.074 A 
ATOM     41  C   UNL A   1      41.801  27.394  27.969  1.00  0.00     0.049 A 
ATOM     42  N   UNL A   1      43.874  29.580  27.939  1.00  0.00    -0.248 NA
ATOM     43  C   UNL A   1      42.222  31.097  28.585  1.00  0.00     0.031 C 
ATOM     44  C   UNL A   1      40.823  26.304  27.905  1.00  0.00     0.029 A 
ATOM     45  N   UNL A   1      42.985  26.794  27.621  1.00  0.00    -0.354 N 
ATOM     46  C   UNL A   1      44.416  30.858  28.001  1.00  0.00     0.074 A 
ATOM     47  C   UNL A   1      43.337  31.762  28.328  1.00  0.00     0.031 C 
ATOM     48  C   UNL A   1      41.453  25.166  27.570  1.00  0.00     0.029 A 
ATOM     49  C   UNL A   1      42.869  25.449  27.358  1.00  0.00     0.049 A 
ATOM     50  H   UNL A   1      43.839  27.282  27.564  1.00  0.00     0.167 HD
ATOM     51  C   UNL A   1      45.702  31.244  27.826  1.00  0.00     0.031 A 
ATOM     52  C   UNL A   1      43.796  24.545  26.986  1.00  0.00     0.031 A 
ATOM     53  C   UNL A   1      46.775  30.337  27.530  1.00  0.00     0.049 A 
ATOM     54  C   UNL A   1      45.224  24.991  26.823  1.00  0.00     0.074 A 
ATOM     55  C   UNL A   1      48.125  30.614  27.410  1.00  0.00     0.029 A 
ATOM     56  N   UNL A   1      46.621  28.977  27.308  1.00  0.00    -0.354 N 
ATOM     57  N   UNL A   1      45.732  26.193  26.967  1.00  0.00    -0.248 NA
ATOM     58  C   UNL A   1      46.205  23.959  26.462  1.00  0.00     0.031 C 
ATOM     59  C   UNL A   1      48.782  29.427  27.067  1.00  0.00     0.029 A 
ATOM     60  C   UNL A   1      47.849  28.403  27.029  1.00  0.00     0.049 A 
ATOM     61  H   UNL A   1      45.765  28.492  27.343  1.00  0.00     0.167 HD
ATOM     62  C   UNL A   1      47.097  26.056  26.738  1.00  0.00     0.074 A 
ATOM     63  C   UNL A   1      47.336  24.653  26.462  1.00  0.00     0.031 C 
ATOM     64  C   UNL A   1      48.065  27.004  26.756  1.00  0.00     0.031 A 
BRANCH  51  65
ATOM     65  C   UNL A   1      46.007  32.713  27.956  1.00  0.00    -0.014 A 
ATOM     66  C   UNL A   1      46.290  33.291  29.208  1.00  0.00     0.010 A 
ATOM     67  C   UNL A   1      46.032  33.524  26.807  1.00  0.00     0.010 A 
ATOM     68  C   UNL A   1      46.542  34.660  29.315  1.00  0.00     0.020 A 
ATOM     69  C   UNL A   1      46.315  34.889  26.906  1.00  0.00     0.020 A 
ATOM     70  C   UNL A   1      46.549  35.452  28.163  1.00  0.00     0.054 A 
BRANCH  70  71
ATOM     71  S   UNL A   1      46.895  37.224  28.328  1.00  0.00     0.124 S 
ATOM     72  O   UNL A   1      46.836  37.672  26.939  1.00  0.00    -0.237 OA
ATOM     73  O   UNL A   1      45.805  37.685  29.184  1.00  0.00    -0.237 OA
ATOM     74  O   UNL A   1      48.222  37.263  28.938  1.00  0.00    -0.744 OA
ENDBRANCH  70  71
ENDBRANCH  51  65
BRANCH  52  75
ATOM     75  C   UNL A   1      43.406  23.126  26.768  1.00  0.00    -0.014 A 
ATOM     76  C   UNL A   1      43.590  22.518  25.513  1.00  0.00     0.010 A 
ATOM     77  C   UNL A   1      42.869  22.364  27.823  1.00  0.00     0.010 A 
ATOM     78  C   UNL A   1      43.233  21.181  25.313  1.00  0.00     0.020 A 
ATOM     79  C   UNL A   1      42.536  21.020  27.633  1.00  0.00     0.020 A 
ATOM     80  C   UNL A   1      42.711  20.439  26.376  1.00  0.00     0.054 A 
BRANCH  80  81
ATOM     81  S   UNL A   1      42.315  18.688  26.110  1.00  0.00     0.124 S 
ATOM     82  O   UNL A   1      42.596  18.110  27.420  1.00  0.00    -0.237 OA
ATOM     83  O   UNL A   1      40.905  18.737  25.730  1.00  0.00    -0.237 OA
ATOM     84  O   UNL A   1      43.226  18.291  25.040  1.00  0.00    -0.744 OA
ENDBRANCH  80  81
ENDBRANCH  52  75
BRANCH  64  85
ATOM     85  C   UNL A   1      49.479  26.558  26.499  1.00  0.00    -0.014 A 
ATOM     86  C   UNL A   1      50.290  26.072  27.538  1.00  0.00     0.010 A 
ATOM     87  C   UNL A   1      49.978  26.566  25.183  1.00  0.00     0.010 A 
ATOM     88  C   UNL A   1      51.587  25.628  27.270  1.00  0.00     0.020 A 
ATOM     89  C   UNL A   1      51.264  26.096  24.907  1.00  0.00     0.020 A 
ATOM     90  C   UNL A   1      52.065  25.642  25.956  1.00  0.00     0.054 A 
BRANCH  90  91
ATOM     91  S   UNL A   1      53.735  25.015  25.627  1.00  0.00     0.124 S 
ATOM     92  O   UNL A   1      54.414  25.278  26.893  1.00  0.00    -0.237 OA
ATOM     93  O   UNL A   1      53.494  23.606  25.324  1.00  0.00    -0.237 OA
ATOM     94  O   UNL A   1      54.191  25.821  24.496  1.00  0.00    -0.744 OA
ENDBRANCH  90  91
ENDBRANCH  64  85
ENDBRANCH  38  39
ENDBRANCH  30  33
ENDBRANCH   1  29
TORSDOF 14
ENDMDL
