MODEL 1
REMARK VINA RESULT:     -11.4      0.000      0.000
REMARK SMILES CS(=O)(=O)c1ccc(C2=NN(c3ccc(C(=O)NCCCNC(=O)c4ccc(-c5c6nc(c(-c7ccc(S(=O)(=O)[O-])cc7)c7ccc([nH]7)c(-c7ccc(S(=O)(=O)[O-])cc7)c7nc(c(-c8ccc(S(=O)(=O)[O-])cc8)c8ccc5[nH]8)C=C7)C=C6)cc4)cc3)[C@H](c3cccs3)C2)cc1
REMARK SMILES IDX 20 1 19 2 18 3 16 4 17 5 15 7 12 8 13 9 86 10 14 11 85 12
REMARK SMILES IDX 11 13 9 14 10 15 93 16 87 17 8 18 5 19 6 20 95 21 7 22 94 23
REMARK SMILES IDX 2 24 1 25 3 26 4 27 88 28 89 29 92 30 90 31 91 32 21 33
REMARK SMILES IDX 22 34 23 35 24 37 25 38 26 39 84 40 27 41 83 42 28 43 29 44
REMARK SMILES IDX 30 45 77 46 31 47 82 48 76 49 78 50 32 51 81 52 75 53 74 54
REMARK SMILES IDX 33 56 63 57 44 58 62 59 45 60 48 61 61 62 79 63 46 64 47 65
REMARK SMILES IDX 60 67 80 68 49 69 34 70 35 71 43 72 36 73 42 74 37 75 38 76
REMARK SMILES IDX 39 77 40 78 41 79 64 80 65 81 73 82 66 83 72 84 67 85 68 86
REMARK SMILES IDX 69 87 70 88 71 89 50 90 51 91 59 92 52 93 58 94 53 95 54 96
REMARK SMILES IDX 55 97 56 98 57 99
REMARK H PARENT 18 6 22 36 78 55 48 66
REMARK Flexibility Score: inf
ROOT
ATOM      1  C   UNL A   1      38.471  21.058  25.191  1.00  0.00     0.042 C 
ENDROOT
BRANCH   1   2
ATOM      2  C   UNL A   1      37.147  21.680  25.631  1.00  0.00     0.118 C 
BRANCH   2   3
ATOM      3  N   UNL A   1      36.016  20.967  25.062  1.00  0.00    -0.352 N 
ATOM      4  C   UNL A   1      34.725  21.362  24.812  1.00  0.00     0.251 C 
ATOM      5  O   UNL A   1      33.982  20.575  24.224  1.00  0.00    -0.269 OA
ATOM      6  H   UNL A   1      36.210  20.036  24.811  1.00  0.00     0.163 HD
BRANCH   4   7
ATOM      7  C   UNL A   1      34.222  22.716  25.162  1.00  0.00     0.039 A 
ATOM      8  C   UNL A   1      33.443  25.350  25.805  1.00  0.00     0.060 A 
ATOM      9  C   UNL A   1      34.341  25.110  24.762  1.00  0.00     0.029 A 
ATOM     10  C   UNL A   1      32.884  24.256  26.467  1.00  0.00     0.029 A 
ATOM     11  C   UNL A   1      34.735  23.805  24.445  1.00  0.00     0.016 A 
ATOM     12  C   UNL A   1      33.248  22.952  26.132  1.00  0.00     0.016 A 
BRANCH   8  13
ATOM     13  N   UNL A   1      33.065  26.630  26.160  1.00  0.00    -0.257 N 
ATOM     14  C   UNL A   1      33.384  28.533  27.021  1.00  0.00     0.071 C 
ATOM     15  N   UNL A   1      34.012  27.521  26.518  1.00  0.00    -0.176 NA
ATOM     16  C   UNL A   1      31.893  28.392  27.152  1.00  0.00     0.091 C 
ATOM     17  C   UNL A   1      31.686  27.037  26.452  1.00  0.00     0.154 C 
BRANCH  14  18
ATOM     18  C   UNL A   1      34.088  29.752  27.422  1.00  0.00    -0.002 A 
ATOM     19  C   UNL A   1      35.491  31.988  28.278  1.00  0.00     0.067 A 
ATOM     20  C   UNL A   1      36.176  30.788  28.073  1.00  0.00     0.021 A 
ATOM     21  C   UNL A   1      34.106  32.069  28.062  1.00  0.00     0.021 A 
ATOM     22  C   UNL A   1      35.466  29.663  27.656  1.00  0.00     0.011 A 
ATOM     23  C   UNL A   1      33.402  30.948  27.620  1.00  0.00     0.011 A 
BRANCH  19  24
ATOM     24  S   UNL A   1      36.325  33.451  28.843  1.00  0.00     0.175 S 
ATOM     25  C   UNL A   1      36.123  33.527  30.601  1.00  0.00     0.163 C 
ATOM     26  O   UNL A   1      35.605  34.578  28.282  1.00  0.00    -0.224 OA
ATOM     27  O   UNL A   1      37.734  33.251  28.559  1.00  0.00    -0.224 OA
ENDBRANCH  19  24
ENDBRANCH  14  18
BRANCH  17  28
ATOM     28  C   UNL A   1      30.730  27.015  25.267  1.00  0.00     0.030 A 
ATOM     29  C   UNL A   1      29.669  26.138  25.088  1.00  0.00     0.017 A 
ATOM     30  S   UNL A   1      30.861  28.071  23.920  1.00  0.00    -0.147 S 
ATOM     31  C   UNL A   1      28.986  26.327  23.854  1.00  0.00     0.012 A 
ATOM     32  C   UNL A   1      29.519  27.369  23.132  1.00  0.00     0.065 A 
ENDBRANCH  17  28
ENDBRANCH   8  13
ENDBRANCH   4   7
ENDBRANCH   2   3
ENDBRANCH   1   2
BRANCH   1  33
ATOM     33  C   UNL A   1      39.492  20.960  26.318  1.00  0.00     0.118 C 
BRANCH  33  34
ATOM     34  N   UNL A   1      40.521  19.969  26.033  1.00  0.00    -0.352 N 
ATOM     35  C   UNL A   1      41.871  20.132  25.850  1.00  0.00     0.251 C 
ATOM     36  H   UNL A   1      40.199  19.041  25.961  1.00  0.00     0.163 HD
ATOM     37  O   UNL A   1      42.530  19.208  25.379  1.00  0.00    -0.269 OA
BRANCH  35  38
ATOM     38  C   UNL A   1      42.528  21.408  26.207  1.00  0.00     0.039 A 
ATOM     39  C   UNL A   1      42.653  22.398  25.229  1.00  0.00     0.014 A 
ATOM     40  C   UNL A   1      43.050  21.617  27.485  1.00  0.00     0.014 A 
ATOM     41  C   UNL A   1      43.252  23.619  25.551  1.00  0.00     0.010 A 
ATOM     42  C   UNL A   1      43.574  22.861  27.827  1.00  0.00     0.010 A 
ATOM     43  C   UNL A   1      43.687  23.872  26.862  1.00  0.00    -0.014 A 
BRANCH  43  44
ATOM     44  C   UNL A   1      44.260  25.189  27.242  1.00  0.00     0.031 A 
ATOM     45  C   UNL A   1      43.450  26.162  28.056  1.00  0.00     0.074 A 
ATOM     46  C   UNL A   1      45.486  25.532  26.800  1.00  0.00     0.049 A 
ATOM     47  N   UNL A   1      43.759  27.376  28.435  1.00  0.00    -0.248 NA
ATOM     48  C   UNL A   1      42.108  25.726  28.478  1.00  0.00     0.031 C 
ATOM     49  C   UNL A   1      46.353  24.689  25.971  1.00  0.00     0.029 A 
ATOM     50  N   UNL A   1      46.215  26.680  26.978  1.00  0.00    -0.354 N 
ATOM     51  C   UNL A   1      42.649  27.852  29.125  1.00  0.00     0.074 A 
ATOM     52  C   UNL A   1      41.641  26.818  29.066  1.00  0.00     0.031 C 
ATOM     53  C   UNL A   1      47.505  25.338  25.739  1.00  0.00     0.029 A 
ATOM     54  C   UNL A   1      47.443  26.658  26.358  1.00  0.00     0.049 A 
ATOM     55  H   UNL A   1      45.890  27.448  27.502  1.00  0.00     0.167 HD
ATOM     56  C   UNL A   1      42.491  29.037  29.763  1.00  0.00     0.031 A 
ATOM     57  C   UNL A   1      48.406  27.597  26.286  1.00  0.00     0.031 A 
ATOM     58  C   UNL A   1      43.501  30.061  29.819  1.00  0.00     0.049 A 
ATOM     59  C   UNL A   1      48.200  28.912  26.986  1.00  0.00     0.074 A 
ATOM     60  C   UNL A   1      43.459  31.273  30.485  1.00  0.00     0.029 A 
ATOM     61  N   UNL A   1      44.732  29.996  29.181  1.00  0.00    -0.354 N 
ATOM     62  N   UNL A   1      47.169  29.316  27.690  1.00  0.00    -0.248 NA
ATOM     63  C   UNL A   1      49.290  29.892  26.892  1.00  0.00     0.031 C 
ATOM     64  C   UNL A   1      44.638  31.968  30.199  1.00  0.00     0.029 A 
ATOM     65  C   UNL A   1      45.446  31.159  29.415  1.00  0.00     0.049 A 
ATOM     66  H   UNL A   1      45.050  29.236  28.643  1.00  0.00     0.167 HD
ATOM     67  C   UNL A   1      47.501  30.586  28.150  1.00  0.00     0.074 A 
ATOM     68  C   UNL A   1      48.831  30.875  27.655  1.00  0.00     0.031 C 
ATOM     69  C   UNL A   1      46.771  31.433  28.916  1.00  0.00     0.031 A 
BRANCH  56  70
ATOM     70  C   UNL A   1      41.170  29.293  30.444  1.00  0.00    -0.014 A 
ATOM     71  C   UNL A   1      40.234  30.195  29.905  1.00  0.00     0.010 A 
ATOM     72  C   UNL A   1      40.841  28.589  31.618  1.00  0.00     0.010 A 
ATOM     73  C   UNL A   1      39.014  30.421  30.550  1.00  0.00     0.020 A 
ATOM     74  C   UNL A   1      39.609  28.788  32.248  1.00  0.00     0.020 A 
ATOM     75  C   UNL A   1      38.710  29.716  31.719  1.00  0.00     0.054 A 
BRANCH  75  76
ATOM     76  S   UNL A   1      37.111  30.014  32.520  1.00  0.00     0.124 S 
ATOM     77  O   UNL A   1      37.284  31.367  33.043  1.00  0.00    -0.237 OA
ATOM     78  O   UNL A   1      36.169  29.885  31.412  1.00  0.00    -0.237 OA
ATOM     79  O   UNL A   1      37.027  28.964  33.532  1.00  0.00    -0.744 OA
ENDBRANCH  75  76
ENDBRANCH  56  70
BRANCH  57  80
ATOM     80  C   UNL A   1      49.658  27.317  25.529  1.00  0.00    -0.014 A 
ATOM     81  C   UNL A   1      50.795  26.813  26.186  1.00  0.00     0.010 A 
ATOM     82  C   UNL A   1      49.715  27.538  24.140  1.00  0.00     0.010 A 
ATOM     83  C   UNL A   1      51.969  26.552  25.472  1.00  0.00     0.020 A 
ATOM     84  C   UNL A   1      50.876  27.249  23.418  1.00  0.00     0.020 A 
ATOM     85  C   UNL A   1      52.001  26.768  24.091  1.00  0.00     0.054 A 
BRANCH  85  86
ATOM     86  S   UNL A   1      53.518  26.371  23.179  1.00  0.00     0.124 S 
ATOM     87  O   UNL A   1      54.229  27.645  23.205  1.00  0.00    -0.237 OA
ATOM     88  O   UNL A   1      54.101  25.304  23.988  1.00  0.00    -0.237 OA
ATOM     89  O   UNL A   1      53.029  25.953  21.867  1.00  0.00    -0.744 OA
ENDBRANCH  85  86
ENDBRANCH  57  80
BRANCH  69  90
ATOM     90  C   UNL A   1      47.407  32.742  29.308  1.00  0.00    -0.014 A 
ATOM     91  C   UNL A   1      47.234  33.903  28.535  1.00  0.00     0.010 A 
ATOM     92  C   UNL A   1      48.137  32.821  30.508  1.00  0.00     0.010 A 
ATOM     93  C   UNL A   1      47.804  35.112  28.940  1.00  0.00     0.020 A 
ATOM     94  C   UNL A   1      48.682  34.035  30.934  1.00  0.00     0.020 A 
ATOM     95  C   UNL A   1      48.522  35.171  30.139  1.00  0.00     0.054 A 
BRANCH  95  96
ATOM     96  S   UNL A   1      49.206  36.765  30.668  1.00  0.00     0.124 S 
ATOM     97  O   UNL A   1      50.458  36.823  29.918  1.00  0.00    -0.237 OA
ATOM     98  O   UNL A   1      48.176  37.711  30.247  1.00  0.00    -0.237 OA
ATOM     99  O   UNL A   1      49.354  36.616  32.115  1.00  0.00    -0.744 OA
ENDBRANCH  95  96
ENDBRANCH  69  90
ENDBRANCH  43  44
ENDBRANCH  35  38
ENDBRANCH  33  34
ENDBRANCH   1  33
TORSDOF 17
ENDMDL
MODEL 2
REMARK VINA RESULT:     -11.3      5.398     10.284
REMARK SMILES CS(=O)(=O)c1ccc(C2=NN(c3ccc(C(=O)NCCCNC(=O)c4ccc(-c5c6nc(c(-c7ccc(S(=O)(=O)[O-])cc7)c7ccc([nH]7)c(-c7ccc(S(=O)(=O)[O-])cc7)c7nc(c(-c8ccc(S(=O)(=O)[O-])cc8)c8ccc5[nH]8)C=C7)C=C6)cc4)cc3)[C@H](c3cccs3)C2)cc1
REMARK SMILES IDX 20 1 19 2 18 3 16 4 17 5 15 7 12 8 13 9 86 10 14 11 85 12
REMARK SMILES IDX 11 13 9 14 10 15 93 16 87 17 8 18 5 19 6 20 95 21 7 22 94 23
REMARK SMILES IDX 2 24 1 25 3 26 4 27 88 28 89 29 92 30 90 31 91 32 21 33
REMARK SMILES IDX 22 34 23 35 24 37 25 38 26 39 84 40 27 41 83 42 28 43 29 44
REMARK SMILES IDX 30 45 77 46 31 47 82 48 76 49 78 50 32 51 81 52 75 53 74 54
REMARK SMILES IDX 33 56 63 57 44 58 62 59 45 60 48 61 61 62 79 63 46 64 47 65
REMARK SMILES IDX 60 67 80 68 49 69 34 70 35 71 43 72 36 73 42 74 37 75 38 76
REMARK SMILES IDX 39 77 40 78 41 79 64 80 65 81 73 82 66 83 72 84 67 85 68 86
REMARK SMILES IDX 69 87 70 88 71 89 50 90 51 91 59 92 52 93 58 94 53 95 54 96
REMARK SMILES IDX 55 97 56 98 57 99
REMARK H PARENT 18 6 22 36 78 55 48 66
REMARK Flexibility Score: inf
ROOT
ATOM      1  C   UNL A   1      40.625  25.490  26.800  1.00  0.00     0.042 C 
ENDROOT
BRANCH   1   2
ATOM      2  C   UNL A   1      39.342  24.760  26.409  1.00  0.00     0.118 C 
BRANCH   2   3
ATOM      3  N   UNL A   1      39.568  23.331  26.278  1.00  0.00    -0.352 N 
ATOM      4  C   UNL A   1      38.735  22.309  25.897  1.00  0.00     0.251 C 
ATOM      5  O   UNL A   1      39.217  21.183  25.776  1.00  0.00    -0.269 OA
ATOM      6  H   UNL A   1      40.483  23.045  26.500  1.00  0.00     0.163 HD
BRANCH   4   7
ATOM      7  C   UNL A   1      37.302  22.528  25.566  1.00  0.00     0.039 A 
ATOM      8  C   UNL A   1      34.639  23.037  24.784  1.00  0.00     0.060 A 
ATOM      9  C   UNL A   1      35.598  22.659  23.839  1.00  0.00     0.029 A 
ATOM     10  C   UNL A   1      35.012  23.080  26.128  1.00  0.00     0.029 A 
ATOM     11  C   UNL A   1      36.921  22.413  24.223  1.00  0.00     0.016 A 
ATOM     12  C   UNL A   1      36.322  22.803  26.520  1.00  0.00     0.016 A 
BRANCH   8  13
ATOM     13  N   UNL A   1      33.336  23.318  24.426  1.00  0.00    -0.257 N 
ATOM     14  C   UNL A   1      31.707  24.612  24.059  1.00  0.00     0.071 C 
ATOM     15  N   UNL A   1      32.998  24.587  24.117  1.00  0.00    -0.176 NA
ATOM     16  C   UNL A   1      30.999  23.339  24.431  1.00  0.00     0.091 C 
ATOM     17  C   UNL A   1      32.207  22.403  24.618  1.00  0.00     0.154 C 
BRANCH  14  18
ATOM     18  C   UNL A   1      30.980  25.811  23.637  1.00  0.00    -0.002 A 
ATOM     19  C   UNL A   1      29.709  28.160  22.884  1.00  0.00     0.067 A 
ATOM     20  C   UNL A   1      31.059  27.983  22.574  1.00  0.00     0.021 A 
ATOM     21  C   UNL A   1      28.996  27.167  23.574  1.00  0.00     0.021 A 
ATOM     22  C   UNL A   1      31.698  26.808  22.965  1.00  0.00     0.011 A 
ATOM     23  C   UNL A   1      29.631  25.980  23.944  1.00  0.00     0.011 A 
BRANCH  19  24
ATOM     24  S   UNL A   1      28.840  29.647  22.447  1.00  0.00     0.175 S 
ATOM     25  C   UNL A   1      29.265  30.877  23.648  1.00  0.00     0.163 C 
ATOM     26  O   UNL A   1      27.428  29.362  22.610  1.00  0.00    -0.224 OA
ATOM     27  O   UNL A   1      29.373  30.066  21.165  1.00  0.00    -0.224 OA
ENDBRANCH  19  24
ENDBRANCH  14  18
BRANCH  17  28
ATOM     28  C   UNL A   1      32.234  21.140  23.767  1.00  0.00     0.030 A 
ATOM     29  C   UNL A   1      31.978  21.067  22.404  1.00  0.00     0.017 A 
ATOM     30  S   UNL A   1      32.544  19.574  24.398  1.00  0.00    -0.147 S 
ATOM     31  C   UNL A   1      32.025  19.739  21.894  1.00  0.00     0.012 A 
ATOM     32  C   UNL A   1      32.350  18.829  22.874  1.00  0.00     0.065 A 
ENDBRANCH  17  28
ENDBRANCH   8  13
ENDBRANCH   4   7
ENDBRANCH   2   3
ENDBRANCH   1   2
BRANCH   1  33
ATOM     33  C   UNL A   1      41.580  25.693  25.630  1.00  0.00     0.118 C 
BRANCH  33  34
ATOM     34  N   UNL A   1      42.882  25.090  25.882  1.00  0.00    -0.352 N 
ATOM     35  C   UNL A   1      43.852  25.440  26.787  1.00  0.00     0.251 C 
ATOM     36  H   UNL A   1      43.099  24.313  25.318  1.00  0.00     0.163 HD
ATOM     37  O   UNL A   1      44.977  24.959  26.679  1.00  0.00    -0.269 OA
BRANCH  35  38
ATOM     38  C   UNL A   1      43.552  26.393  27.878  1.00  0.00     0.039 A 
ATOM     39  C   UNL A   1      43.848  27.746  27.691  1.00  0.00     0.014 A 
ATOM     40  C   UNL A   1      43.016  25.956  29.091  1.00  0.00     0.014 A 
ATOM     41  C   UNL A   1      43.554  28.666  28.701  1.00  0.00     0.010 A 
ATOM     42  C   UNL A   1      42.650  26.882  30.063  1.00  0.00     0.010 A 
ATOM     43  C   UNL A   1      42.922  28.246  29.882  1.00  0.00    -0.014 A 
BRANCH  43  44
ATOM     44  C   UNL A   1      42.534  29.218  30.935  1.00  0.00     0.031 A 
ATOM     45  C   UNL A   1      43.355  29.344  32.191  1.00  0.00     0.074 A 
ATOM     46  C   UNL A   1      41.408  29.943  30.788  1.00  0.00     0.049 A 
ATOM     47  N   UNL A   1      43.142  30.095  33.241  1.00  0.00    -0.248 NA
ATOM     48  C   UNL A   1      44.557  28.500  32.291  1.00  0.00     0.031 C 
ATOM     49  C   UNL A   1      40.507  29.882  29.632  1.00  0.00     0.029 A 
ATOM     50  N   UNL A   1      40.821  30.868  31.613  1.00  0.00    -0.354 N 
ATOM     51  C   UNL A   1      44.172  29.803  34.131  1.00  0.00     0.074 A 
ATOM     52  C   UNL A   1      44.976  28.769  33.519  1.00  0.00     0.031 C 
ATOM     53  C   UNL A   1      39.501  30.752  29.812  1.00  0.00     0.029 A 
ATOM     54  C   UNL A   1      39.655  31.398  31.111  1.00  0.00     0.049 A 
ATOM     55  H   UNL A   1      41.200  31.129  32.484  1.00  0.00     0.167 HD
ATOM     56  C   UNL A   1      44.431  30.357  35.339  1.00  0.00     0.031 A 
ATOM     57  C   UNL A   1      38.799  32.295  31.639  1.00  0.00     0.031 A 
ATOM     58  C   UNL A   1      43.626  31.388  35.940  1.00  0.00     0.049 A 
ATOM     59  C   UNL A   1      39.099  32.882  32.991  1.00  0.00     0.074 A 
ATOM     60  C   UNL A   1      43.835  32.054  37.136  1.00  0.00     0.029 A 
ATOM     61  N   UNL A   1      42.457  31.900  35.396  1.00  0.00    -0.354 N 
ATOM     62  N   UNL A   1      40.114  32.641  33.786  1.00  0.00    -0.248 NA
ATOM     63  C   UNL A   1      38.144  33.869  33.511  1.00  0.00     0.031 C 
ATOM     64  C   UNL A   1      42.759  32.922  37.345  1.00  0.00     0.029 A 
ATOM     65  C   UNL A   1      41.918  32.851  36.245  1.00  0.00     0.049 A 
ATOM     66  H   UNL A   1      42.068  31.626  34.534  1.00  0.00     0.167 HD
ATOM     67  C   UNL A   1      39.937  33.472  34.887  1.00  0.00     0.074 A 
ATOM     68  C   UNL A   1      38.725  34.229  34.649  1.00  0.00     0.031 C 
ATOM     69  C   UNL A   1      40.710  33.599  35.994  1.00  0.00     0.031 A 
BRANCH  56  70
ATOM     70  C   UNL A   1      45.632  29.851  36.098  1.00  0.00    -0.014 A 
ATOM     71  C   UNL A   1      46.880  30.493  36.001  1.00  0.00     0.010 A 
ATOM     72  C   UNL A   1      45.500  28.742  36.955  1.00  0.00     0.010 A 
ATOM     73  C   UNL A   1      47.983  30.009  36.711  1.00  0.00     0.020 A 
ATOM     74  C   UNL A   1      46.593  28.275  37.691  1.00  0.00     0.020 A 
ATOM     75  C   UNL A   1      47.833  28.902  37.551  1.00  0.00     0.054 A 
BRANCH  75  76
ATOM     76  S   UNL A   1      49.276  28.312  38.476  1.00  0.00     0.124 S 
ATOM     77  O   UNL A   1      49.358  29.288  39.560  1.00  0.00    -0.237 OA
ATOM     78  O   UNL A   1      48.874  26.965  38.872  1.00  0.00    -0.237 OA
ATOM     79  O   UNL A   1      50.363  28.374  37.502  1.00  0.00    -0.744 OA
ENDBRANCH  75  76
ENDBRANCH  56  70
BRANCH  57  80
ATOM     80  C   UNL A   1      37.585  32.697  30.878  1.00  0.00    -0.014 A 
ATOM     81  C   UNL A   1      37.634  33.762  29.961  1.00  0.00     0.010 A 
ATOM     82  C   UNL A   1      36.372  32.005  31.054  1.00  0.00     0.010 A 
ATOM     83  C   UNL A   1      36.492  34.138  29.248  1.00  0.00     0.020 A 
ATOM     84  C   UNL A   1      35.235  32.357  30.321  1.00  0.00     0.020 A 
ATOM     85  C   UNL A   1      35.299  33.430  29.430  1.00  0.00     0.054 A 
BRANCH  85  86
ATOM     86  S   UNL A   1      33.844  33.903  28.454  1.00  0.00     0.124 S 
ATOM     87  O   UNL A   1      32.951  34.432  29.479  1.00  0.00    -0.237 OA
ATOM     88  O   UNL A   1      34.395  34.886  27.525  1.00  0.00    -0.237 OA
ATOM     89  O   UNL A   1      33.420  32.646  27.842  1.00  0.00    -0.744 OA
ENDBRANCH  85  86
ENDBRANCH  57  80
BRANCH  69  90
ATOM     90  C   UNL A   1      40.299  34.624  37.018  1.00  0.00    -0.014 A 
ATOM     91  C   UNL A   1      39.415  34.304  38.063  1.00  0.00     0.010 A 
ATOM     92  C   UNL A   1      40.860  35.914  36.966  1.00  0.00     0.010 A 
ATOM     93  C   UNL A   1      39.078  35.264  39.022  1.00  0.00     0.020 A 
ATOM     94  C   UNL A   1      40.551  36.866  37.940  1.00  0.00     0.020 A 
ATOM     95  C   UNL A   1      39.651  36.538  38.955  1.00  0.00     0.054 A 
BRANCH  95  96
ATOM     96  S   UNL A   1      39.238  37.747  40.242  1.00  0.00     0.124 S 
ATOM     97  O   UNL A   1      40.497  38.470  40.397  1.00  0.00    -0.237 OA
ATOM     98  O   UNL A   1      38.149  38.506  39.630  1.00  0.00    -0.237 OA
ATOM     99  O   UNL A   1      38.850  36.921  41.383  1.00  0.00    -0.744 OA
ENDBRANCH  95  96
ENDBRANCH  69  90
ENDBRANCH  43  44
ENDBRANCH  35  38
ENDBRANCH  33  34
ENDBRANCH   1  33
TORSDOF 17
ENDMDL
MODEL 3
REMARK VINA RESULT:     -11.2      5.092     12.050
REMARK SMILES CS(=O)(=O)c1ccc(C2=NN(c3ccc(C(=O)NCCCNC(=O)c4ccc(-c5c6nc(c(-c7ccc(S(=O)(=O)[O-])cc7)c7ccc([nH]7)c(-c7ccc(S(=O)(=O)[O-])cc7)c7nc(c(-c8ccc(S(=O)(=O)[O-])cc8)c8ccc5[nH]8)C=C7)C=C6)cc4)cc3)[C@H](c3cccs3)C2)cc1
REMARK SMILES IDX 20 1 19 2 18 3 16 4 17 5 15 7 12 8 13 9 86 10 14 11 85 12
REMARK SMILES IDX 11 13 9 14 10 15 93 16 87 17 8 18 5 19 6 20 95 21 7 22 94 23
REMARK SMILES IDX 2 24 1 25 3 26 4 27 88 28 89 29 92 30 90 31 91 32 21 33
REMARK SMILES IDX 22 34 23 35 24 37 25 38 26 39 84 40 27 41 83 42 28 43 29 44
REMARK SMILES IDX 30 45 77 46 31 47 82 48 76 49 78 50 32 51 81 52 75 53 74 54
REMARK SMILES IDX 33 56 63 57 44 58 62 59 45 60 48 61 61 62 79 63 46 64 47 65
REMARK SMILES IDX 60 67 80 68 49 69 34 70 35 71 43 72 36 73 42 74 37 75 38 76
REMARK SMILES IDX 39 77 40 78 41 79 64 80 65 81 73 82 66 83 72 84 67 85 68 86
REMARK SMILES IDX 69 87 70 88 71 89 50 90 51 91 59 92 52 93 58 94 53 95 54 96
REMARK SMILES IDX 55 97 56 98 57 99
REMARK H PARENT 18 6 22 36 78 55 48 66
REMARK Flexibility Score: inf
ROOT
ATOM      1  C   UNL A   1      42.408  21.876  27.498  1.00  0.00     0.042 C 
ENDROOT
BRANCH   1   2
ATOM      2  C   UNL A   1      42.520  21.462  26.032  1.00  0.00     0.118 C 
BRANCH   2   3
ATOM      3  N   UNL A   1      43.854  20.980  25.721  1.00  0.00    -0.352 N 
ATOM      4  C   UNL A   1      45.075  21.608  25.735  1.00  0.00     0.251 C 
ATOM      5  O   UNL A   1      46.078  20.930  25.518  1.00  0.00    -0.269 OA
ATOM      6  H   UNL A   1      43.890  20.033  25.454  1.00  0.00     0.163 HD
BRANCH   4   7
ATOM      7  C   UNL A   1      45.227  23.050  26.066  1.00  0.00     0.039 A 
ATOM      8  C   UNL A   1      45.577  25.812  26.519  1.00  0.00     0.060 A 
ATOM      9  C   UNL A   1      45.022  25.353  25.321  1.00  0.00     0.029 A 
ATOM     10  C   UNL A   1      45.879  24.879  27.512  1.00  0.00     0.029 A 
ATOM     11  C   UNL A   1      44.855  23.983  25.091  1.00  0.00     0.016 A 
ATOM     12  C   UNL A   1      45.682  23.515  27.300  1.00  0.00     0.016 A 
BRANCH   8  13
ATOM     13  N   UNL A   1      45.785  27.156  26.757  1.00  0.00    -0.257 N 
ATOM     14  C   UNL A   1      45.338  29.016  27.655  1.00  0.00     0.071 C 
ATOM     15  N   UNL A   1      45.168  27.743  27.804  1.00  0.00    -0.176 NA
ATOM     16  C   UNL A   1      46.031  29.452  26.395  1.00  0.00     0.091 C 
ATOM     17  C   UNL A   1      46.407  28.081  25.804  1.00  0.00     0.154 C 
BRANCH  14  18
ATOM     18  C   UNL A   1      44.894  29.973  28.670  1.00  0.00    -0.002 A 
ATOM     19  C   UNL A   1      44.024  31.680  30.677  1.00  0.00     0.067 A 
ATOM     20  C   UNL A   1      44.881  30.626  31.001  1.00  0.00     0.021 A 
ATOM     21  C   UNL A   1      43.597  31.878  29.354  1.00  0.00     0.021 A 
ATOM     22  C   UNL A   1      45.306  29.762  29.992  1.00  0.00     0.011 A 
ATOM     23  C   UNL A   1      44.043  31.027  28.342  1.00  0.00     0.011 A 
BRANCH  19  24
ATOM     24  S   UNL A   1      43.414  32.798  31.917  1.00  0.00     0.175 S 
ATOM     25  C   UNL A   1      44.363  32.523  33.386  1.00  0.00     0.163 C 
ATOM     26  O   UNL A   1      42.053  32.390  32.205  1.00  0.00    -0.224 OA
ATOM     27  O   UNL A   1      43.706  34.135  31.435  1.00  0.00    -0.224 OA
ENDBRANCH  19  24
ENDBRANCH  14  18
BRANCH  17  28
ATOM     28  C   UNL A   1      47.884  27.838  25.522  1.00  0.00     0.030 A 
ATOM     29  C   UNL A   1      48.946  28.249  26.316  1.00  0.00     0.017 A 
ATOM     30  S   UNL A   1      48.466  27.040  24.119  1.00  0.00    -0.147 S 
ATOM     31  C   UNL A   1      50.218  27.923  25.766  1.00  0.00     0.012 A 
ATOM     32  C   UNL A   1      50.098  27.237  24.580  1.00  0.00     0.065 A 
ENDBRANCH  17  28
ENDBRANCH   8  13
ENDBRANCH   4   7
ENDBRANCH   2   3
ENDBRANCH   1   2
BRANCH   1  33
ATOM     33  C   UNL A   1      41.918  23.308  27.682  1.00  0.00     0.118 C 
BRANCH  33  34
ATOM     34  N   UNL A   1      41.735  23.986  26.406  1.00  0.00    -0.352 N 
ATOM     35  C   UNL A   1      41.246  25.240  26.140  1.00  0.00     0.251 C 
ATOM     36  H   UNL A   1      42.004  23.467  25.614  1.00  0.00     0.163 HD
ATOM     37  O   UNL A   1      40.943  25.536  24.987  1.00  0.00    -0.269 OA
BRANCH  35  38
ATOM     38  C   UNL A   1      41.074  26.226  27.230  1.00  0.00     0.039 A 
ATOM     39  C   UNL A   1      40.100  25.991  28.204  1.00  0.00     0.014 A 
ATOM     40  C   UNL A   1      41.842  27.392  27.275  1.00  0.00     0.014 A 
ATOM     41  C   UNL A   1      39.936  26.900  29.253  1.00  0.00     0.010 A 
ATOM     42  C   UNL A   1      41.733  28.254  28.362  1.00  0.00     0.010 A 
ATOM     43  C   UNL A   1      40.774  28.021  29.359  1.00  0.00    -0.014 A 
BRANCH  43  44
ATOM     44  C   UNL A   1      40.665  28.959  30.506  1.00  0.00     0.031 A 
ATOM     45  C   UNL A   1      41.554  28.793  31.709  1.00  0.00     0.074 A 
ATOM     46  C   UNL A   1      39.722  29.921  30.488  1.00  0.00     0.049 A 
ATOM     47  N   UNL A   1      41.565  29.477  32.824  1.00  0.00    -0.248 NA
ATOM     48  C   UNL A   1      42.541  27.701  31.666  1.00  0.00     0.031 C 
ATOM     49  C   UNL A   1      38.775  30.159  29.394  1.00  0.00     0.029 A 
ATOM     50  N   UNL A   1      39.397  30.876  31.418  1.00  0.00    -0.354 N 
ATOM     51  C   UNL A   1      42.546  28.891  33.619  1.00  0.00     0.074 A 
ATOM     52  C   UNL A   1      43.069  27.765  32.879  1.00  0.00     0.031 C 
ATOM     53  C   UNL A   1      37.998  31.208  29.705  1.00  0.00     0.029 A 
ATOM     54  C   UNL A   1      38.355  31.689  31.036  1.00  0.00     0.049 A 
ATOM     55  H   UNL A   1      39.866  30.971  32.278  1.00  0.00     0.167 HD
ATOM     56  C   UNL A   1      42.981  29.268  34.845  1.00  0.00     0.031 A 
ATOM     57  C   UNL A   1      37.747  32.700  31.686  1.00  0.00     0.031 A 
ATOM     58  C   UNL A   1      42.455  30.392  35.574  1.00  0.00     0.049 A 
ATOM     59  C   UNL A   1      38.235  33.088  33.054  1.00  0.00     0.074 A 
ATOM     60  C   UNL A   1      42.865  30.889  36.799  1.00  0.00     0.029 A 
ATOM     61  N   UNL A   1      41.404  31.192  35.149  1.00  0.00    -0.354 N 
ATOM     62  N   UNL A   1      39.209  32.563  33.760  1.00  0.00    -0.248 NA
ATOM     63  C   UNL A   1      37.551  34.210  33.710  1.00  0.00     0.031 C 
ATOM     64  C   UNL A   1      42.021  31.949  37.144  1.00  0.00     0.029 A 
ATOM     65  C   UNL A   1      41.132  32.160  36.101  1.00  0.00     0.049 A 
ATOM     66  H   UNL A   1      40.922  31.086  34.297  1.00  0.00     0.167 HD
ATOM     67  C   UNL A   1      39.275  33.313  34.929  1.00  0.00     0.074 A 
ATOM     68  C   UNL A   1      38.252  34.334  34.829  1.00  0.00     0.031 C 
ATOM     69  C   UNL A   1      40.111  33.171  35.988  1.00  0.00     0.031 A 
BRANCH  56  70
ATOM     70  C   UNL A   1      44.075  28.447  35.482  1.00  0.00    -0.014 A 
ATOM     71  C   UNL A   1      45.432  28.752  35.271  1.00  0.00     0.010 A 
ATOM     72  C   UNL A   1      43.740  27.382  36.339  1.00  0.00     0.010 A 
ATOM     73  C   UNL A   1      46.433  27.981  35.868  1.00  0.00     0.020 A 
ATOM     74  C   UNL A   1      44.738  26.629  36.964  1.00  0.00     0.020 A 
ATOM     75  C   UNL A   1      46.079  26.923  36.711  1.00  0.00     0.054 A 
BRANCH  75  76
ATOM     76  S   UNL A   1      47.400  25.955  37.489  1.00  0.00     0.124 S 
ATOM     77  O   UNL A   1      47.467  24.782  36.620  1.00  0.00    -0.237 OA
ATOM     78  O   UNL A   1      48.546  26.858  37.413  1.00  0.00    -0.237 OA
ATOM     79  O   UNL A   1      46.898  25.701  38.837  1.00  0.00    -0.744 OA
ENDBRANCH  75  76
ENDBRANCH  56  70
BRANCH  57  80
ATOM     80  C   UNL A   1      36.616  33.423  31.039  1.00  0.00    -0.014 A 
ATOM     81  C   UNL A   1      36.754  33.959  29.746  1.00  0.00     0.010 A 
ATOM     82  C   UNL A   1      35.386  33.565  31.709  1.00  0.00     0.010 A 
ATOM     83  C   UNL A   1      35.691  34.637  29.143  1.00  0.00     0.020 A 
ATOM     84  C   UNL A   1      34.311  34.215  31.097  1.00  0.00     0.020 A 
ATOM     85  C   UNL A   1      34.474  34.758  29.821  1.00  0.00     0.054 A 
BRANCH  85  86
ATOM     86  S   UNL A   1      33.092  35.595  28.996  1.00  0.00     0.124 S 
ATOM     87  O   UNL A   1      32.564  34.538  28.141  1.00  0.00    -0.237 OA
ATOM     88  O   UNL A   1      32.244  35.984  30.120  1.00  0.00    -0.237 OA
ATOM     89  O   UNL A   1      33.734  36.706  28.295  1.00  0.00    -0.744 OA
ENDBRANCH  85  86
ENDBRANCH  57  80
BRANCH  69  90
ATOM     90  C   UNL A   1      39.988  34.168  37.110  1.00  0.00    -0.014 A 
ATOM     91  C   UNL A   1      40.591  35.436  37.036  1.00  0.00     0.010 A 
ATOM     92  C   UNL A   1      39.198  33.850  38.231  1.00  0.00     0.010 A 
ATOM     93  C   UNL A   1      40.430  36.356  38.076  1.00  0.00     0.020 A 
ATOM     94  C   UNL A   1      39.009  34.778  39.258  1.00  0.00     0.020 A 
ATOM     95  C   UNL A   1      39.637  36.022  39.179  1.00  0.00     0.054 A 
BRANCH  95  96
ATOM     96  S   UNL A   1      39.403  37.254  40.488  1.00  0.00     0.124 S 
ATOM     97  O   UNL A   1      38.525  36.548  41.417  1.00  0.00    -0.237 OA
ATOM     98  O   UNL A   1      40.766  37.482  40.960  1.00  0.00    -0.237 OA
ATOM     99  O   UNL A   1      38.792  38.386  39.794  1.00  0.00    -0.744 OA
ENDBRANCH  95  96
ENDBRANCH  69  90
ENDBRANCH  43  44
ENDBRANCH  35  38
ENDBRANCH  33  34
ENDBRANCH   1  33
TORSDOF 17
ENDMDL
