MODEL 1
REMARK VINA RESULT:     -12.9      0.000      0.000
REMARK SMILES Cc1ccc(NC(=O)c2ccccc2NC(=O)[C@H]2CCCC[C@H]2C(=O)NCCCNC(=O)c2ccc(-c3c4nc(c(-c5ccc(S(=O)(=O)[O-])cc5)c5ccc([nH]5)c(-c5ccc(S(=O)(=O)[O-])cc5)c5nc(c(-c6ccc(S(=O)(=O)[O-])cc6)c6ccc3[nH]6)C=C5)C=C4)cc2)cc1
REMARK SMILES IDX 27 1 26 2 24 3 25 4 23 6 18 7 19 8 20 9 22 10 21 11 16 12
REMARK SMILES IDX 15 13 17 15 14 16 9 17 10 18 11 19 13 20 12 21 7 22 6 23
REMARK SMILES IDX 8 25 5 26 1 27 2 28 3 29 94 30 4 31 93 32 28 33 29 34 30 35
REMARK SMILES IDX 31 36 32 38 33 39 34 40 92 41 35 42 91 43 36 44 37 45 38 46
REMARK SMILES IDX 85 47 39 48 90 49 84 50 86 51 40 52 89 53 83 54 82 55 41 57
REMARK SMILES IDX 71 58 52 59 70 60 53 61 56 62 69 63 87 64 54 65 55 66 68 68
REMARK SMILES IDX 88 69 57 70 42 71 43 72 51 73 44 74 50 75 45 76 46 77 47 78
REMARK SMILES IDX 48 79 49 80 72 81 73 82 81 83 74 84 80 85 75 86 76 87 77 88
REMARK SMILES IDX 78 89 79 90 58 91 59 92 67 93 60 94 66 95 61 96 62 97 63 98
REMARK SMILES IDX 64 99 65 100
REMARK H PARENT 26 5 15 14 6 24 30 37 86 56 56 67
REMARK Flexibility Score: inf
ROOT
ATOM      1  C   UNL A   1      32.950  31.032  27.623  1.00  0.00     0.117 C 
ENDROOT
BRANCH   1   2
ATOM      2  N   UNL A   1      32.137  30.721  26.418  1.00  0.00    -0.356 N 
ATOM      3  C   UNL A   1      32.054  29.706  25.507  1.00  0.00     0.223 C 
ATOM      4  O   UNL A   1      31.083  29.637  24.741  1.00  0.00    -0.275 OA
ATOM      5  H   UNL A   1      31.485  31.434  26.225  1.00  0.00     0.163 HD
BRANCH   3   6
ATOM      6  C   UNL A   1      33.151  28.662  25.316  1.00  0.00     0.091 C 
ATOM      7  C   UNL A   1      33.201  27.668  26.504  1.00  0.00     0.091 C 
ATOM      8  C   UNL A   1      33.944  26.370  26.159  1.00  0.00     0.014 C 
ATOM      9  C   UNL A   1      33.549  25.807  24.797  1.00  0.00     0.001 C 
ATOM     10  C   UNL A   1      33.263  28.156  23.872  1.00  0.00     0.014 C 
ATOM     11  C   UNL A   1      33.890  26.782  23.687  1.00  0.00     0.001 C 
BRANCH   7  12
ATOM     12  C   UNL A   1      31.839  27.319  27.092  1.00  0.00     0.228 C 
ATOM     13  N   UNL A   1      31.028  26.296  26.707  1.00  0.00    -0.325 N 
ATOM     14  H   UNL A   1      30.468  25.983  27.454  1.00  0.00     0.169 HD
ATOM     15  O   UNL A   1      31.415  28.049  27.999  1.00  0.00    -0.274 OA
BRANCH  13  16
ATOM     16  C   UNL A   1      30.771  25.559  25.525  1.00  0.00     0.054 A 
ATOM     17  C   UNL A   1      30.815  24.135  25.540  1.00  0.00     0.063 A 
ATOM     18  C   UNL A   1      30.657  23.424  24.324  1.00  0.00     0.016 A 
ATOM     19  C   UNL A   1      30.413  24.074  23.121  1.00  0.00     0.001 A 
ATOM     20  C   UNL A   1      30.420  26.173  24.314  1.00  0.00     0.027 A 
ATOM     21  C   UNL A   1      30.271  25.449  23.124  1.00  0.00     0.002 A 
BRANCH  17  22
ATOM     22  C   UNL A   1      31.080  23.221  26.702  1.00  0.00     0.257 C 
ATOM     23  N   UNL A   1      32.160  22.387  26.838  1.00  0.00    -0.322 N 
ATOM     24  H   UNL A   1      31.996  21.659  27.480  1.00  0.00     0.170 HD
ATOM     25  O   UNL A   1      30.261  23.212  27.628  1.00  0.00    -0.269 OA
BRANCH  23  26
ATOM     26  C   UNL A   1      33.441  22.328  26.277  1.00  0.00     0.041 A 
ATOM     27  C   UNL A   1      36.863  22.969  23.794  1.00  0.00     0.044 C 
ATOM     28  C   UNL A   1      35.754  22.580  24.724  1.00  0.00    -0.051 A 
ATOM     29  C   UNL A   1      35.721  23.076  26.035  1.00  0.00     0.005 A 
ATOM     30  C   UNL A   1      34.678  21.821  24.259  1.00  0.00     0.005 A 
ATOM     31  C   UNL A   1      34.571  22.935  26.820  1.00  0.00     0.026 A 
ATOM     32  C   UNL A   1      33.533  21.685  25.039  1.00  0.00     0.026 A 
ENDBRANCH  23  26
ENDBRANCH  17  22
ENDBRANCH  13  16
ENDBRANCH   7  12
ENDBRANCH   3   6
ENDBRANCH   1   2
BRANCH   1  33
ATOM     33  C   UNL A   1      34.554  31.276  27.509  1.00  0.00     0.042 C 
BRANCH  33  34
ATOM     34  C   UNL A   1      35.488  30.008  27.766  1.00  0.00     0.118 C 
BRANCH  34  35
ATOM     35  N   UNL A   1      35.969  29.377  29.165  1.00  0.00    -0.352 N 
ATOM     36  C   UNL A   1      36.873  29.610  30.304  1.00  0.00     0.251 C 
ATOM     37  H   UNL A   1      35.484  28.533  29.314  1.00  0.00     0.163 HD
ATOM     38  O   UNL A   1      36.266  29.582  31.395  1.00  0.00    -0.269 OA
BRANCH  36  39
ATOM     39  C   UNL A   1      38.448  29.814  30.506  1.00  0.00     0.039 A 
ATOM     40  C   UNL A   1      39.189  30.836  29.816  1.00  0.00     0.014 A 
ATOM     41  C   UNL A   1      39.278  29.041  31.306  1.00  0.00     0.014 A 
ATOM     42  C   UNL A   1      40.605  30.658  29.484  1.00  0.00     0.010 A 
ATOM     43  C   UNL A   1      40.663  28.851  30.976  1.00  0.00     0.010 A 
ATOM     44  C   UNL A   1      41.259  29.470  29.866  1.00  0.00    -0.014 A 
BRANCH  44  45
ATOM     45  C   UNL A   1      42.253  28.674  28.982  1.00  0.00     0.031 A 
ATOM     46  C   UNL A   1      42.224  27.215  28.993  1.00  0.00     0.074 A 
ATOM     47  C   UNL A   1      43.139  29.108  28.020  1.00  0.00     0.049 A 
ATOM     48  N   UNL A   1      43.225  26.451  29.288  1.00  0.00    -0.248 NA
ATOM     49  C   UNL A   1      41.023  26.520  28.558  1.00  0.00     0.031 C 
ATOM     50  C   UNL A   1      44.025  28.430  27.049  1.00  0.00     0.029 A 
ATOM     51  N   UNL A   1      43.411  30.403  27.637  1.00  0.00    -0.354 N 
ATOM     52  C   UNL A   1      42.883  25.213  28.786  1.00  0.00     0.074 A 
ATOM     53  C   UNL A   1      41.447  25.255  28.578  1.00  0.00     0.031 C 
ATOM     54  C   UNL A   1      44.933  29.315  26.554  1.00  0.00     0.029 A 
ATOM     55  C   UNL A   1      44.714  30.594  27.207  1.00  0.00     0.049 A 
ATOM     56  H   UNL A   1      42.742  31.125  27.667  1.00  0.00     0.167 HD
ATOM     57  C   UNL A   1      43.809  24.371  28.238  1.00  0.00     0.031 A 
ATOM     58  C   UNL A   1      45.567  31.381  27.949  1.00  0.00     0.031 A 
ATOM     59  C   UNL A   1      45.090  25.046  27.987  1.00  0.00     0.049 A 
ATOM     60  C   UNL A   1      46.590  30.506  28.610  1.00  0.00     0.074 A 
ATOM     61  C   UNL A   1      45.707  25.437  26.806  1.00  0.00     0.029 A 
ATOM     62  N   UNL A   1      45.773  25.695  29.009  1.00  0.00    -0.354 N 
ATOM     63  N   UNL A   1      46.512  29.211  28.581  1.00  0.00    -0.248 NA
ATOM     64  C   UNL A   1      47.736  30.973  29.378  1.00  0.00     0.031 C 
ATOM     65  C   UNL A   1      46.725  26.374  27.123  1.00  0.00     0.029 A 
ATOM     66  C   UNL A   1      46.755  26.527  28.498  1.00  0.00     0.049 A 
ATOM     67  H   UNL A   1      45.585  25.578  29.968  1.00  0.00     0.167 HD
ATOM     68  C   UNL A   1      47.528  28.658  29.281  1.00  0.00     0.074 A 
ATOM     69  C   UNL A   1      48.287  29.803  29.754  1.00  0.00     0.031 C 
ATOM     70  C   UNL A   1      47.612  27.304  29.393  1.00  0.00     0.031 A 
BRANCH  57  71
ATOM     71  C   UNL A   1      43.437  23.043  27.601  1.00  0.00    -0.014 A 
ATOM     72  C   UNL A   1      42.590  22.136  28.267  1.00  0.00     0.010 A 
ATOM     73  C   UNL A   1      43.851  22.661  26.306  1.00  0.00     0.010 A 
ATOM     74  C   UNL A   1      42.243  20.892  27.712  1.00  0.00     0.020 A 
ATOM     75  C   UNL A   1      43.561  21.402  25.762  1.00  0.00     0.020 A 
ATOM     76  C   UNL A   1      42.747  20.526  26.466  1.00  0.00     0.054 A 
BRANCH  76  77
ATOM     77  S   UNL A   1      42.269  18.933  25.748  1.00  0.00     0.124 S 
ATOM     78  O   UNL A   1      40.822  19.065  25.610  1.00  0.00    -0.237 OA
ATOM     79  O   UNL A   1      43.023  18.916  24.498  1.00  0.00    -0.237 OA
ATOM     80  O   UNL A   1      42.706  17.956  26.745  1.00  0.00    -0.744 OA
ENDBRANCH  76  77
ENDBRANCH  57  71
BRANCH  58  81
ATOM     81  C   UNL A   1      44.967  32.627  28.651  1.00  0.00    -0.014 A 
ATOM     82  C   UNL A   1      45.874  33.350  29.450  1.00  0.00     0.010 A 
ATOM     83  C   UNL A   1      44.224  33.403  27.780  1.00  0.00     0.010 A 
ATOM     84  C   UNL A   1      46.579  34.432  28.893  1.00  0.00     0.020 A 
ATOM     85  C   UNL A   1      44.967  34.448  27.208  1.00  0.00     0.020 A 
ATOM     86  C   UNL A   1      46.202  34.874  27.633  1.00  0.00     0.054 A 
BRANCH  86  87
ATOM     87  S   UNL A   1      47.585  35.486  26.266  1.00  0.00     0.124 S 
ATOM     88  O   UNL A   1      48.627  35.902  27.172  1.00  0.00    -0.237 OA
ATOM     89  O   UNL A   1      47.968  34.306  25.496  1.00  0.00    -0.237 OA
ATOM     90  O   UNL A   1      47.006  36.533  25.449  1.00  0.00    -0.744 OA
ENDBRANCH  86  87
ENDBRANCH  58  81
BRANCH  70  91
ATOM     91  C   UNL A   1      48.566  26.566  30.278  1.00  0.00    -0.014 A 
ATOM     92  C   UNL A   1      49.676  25.849  29.814  1.00  0.00     0.010 A 
ATOM     93  C   UNL A   1      48.402  26.678  31.678  1.00  0.00     0.010 A 
ATOM     94  C   UNL A   1      50.534  25.203  30.706  1.00  0.00     0.020 A 
ATOM     95  C   UNL A   1      49.284  26.090  32.576  1.00  0.00     0.020 A 
ATOM     96  C   UNL A   1      50.329  25.324  32.080  1.00  0.00     0.054 A 
BRANCH  96  97
ATOM     97  S   UNL A   1      51.464  24.500  33.213  1.00  0.00     0.124 S 
ATOM     98  O   UNL A   1      51.689  25.536  34.217  1.00  0.00    -0.237 OA
ATOM     99  O   UNL A   1      50.686  23.348  33.665  1.00  0.00    -0.237 OA
ATOM    100  O   UNL A   1      52.616  24.175  32.378  1.00  0.00    -0.744 OA
ENDBRANCH  96  97
ENDBRANCH  70  91
ENDBRANCH  44  45
ENDBRANCH  36  39
ENDBRANCH  34  35
ENDBRANCH  33  34
ENDBRANCH   1  33
TORSDOF 17
ENDMDL
MODEL 2
REMARK VINA RESULT:     -12.9      3.841      9.407
REMARK SMILES Cc1ccc(NC(=O)c2ccccc2NC(=O)[C@H]2CCCC[C@H]2C(=O)NCCCNC(=O)c2ccc(-c3c4nc(c(-c5ccc(S(=O)(=O)[O-])cc5)c5ccc([nH]5)c(-c5ccc(S(=O)(=O)[O-])cc5)c5nc(c(-c6ccc(S(=O)(=O)[O-])cc6)c6ccc3[nH]6)C=C5)C=C4)cc2)cc1
REMARK SMILES IDX 27 1 26 2 24 3 25 4 23 6 18 7 19 8 20 9 22 10 21 11 16 12
REMARK SMILES IDX 15 13 17 15 14 16 9 17 10 18 11 19 13 20 12 21 7 22 6 23
REMARK SMILES IDX 8 25 5 26 1 27 2 28 3 29 94 30 4 31 93 32 28 33 29 34 30 35
REMARK SMILES IDX 31 36 32 38 33 39 34 40 92 41 35 42 91 43 36 44 37 45 38 46
REMARK SMILES IDX 85 47 39 48 90 49 84 50 86 51 40 52 89 53 83 54 82 55 41 57
REMARK SMILES IDX 71 58 52 59 70 60 53 61 56 62 69 63 87 64 54 65 55 66 68 68
REMARK SMILES IDX 88 69 57 70 42 71 43 72 51 73 44 74 50 75 45 76 46 77 47 78
REMARK SMILES IDX 48 79 49 80 72 81 73 82 81 83 74 84 80 85 75 86 76 87 77 88
REMARK SMILES IDX 78 89 79 90 58 91 59 92 67 93 60 94 66 95 61 96 62 97 63 98
REMARK SMILES IDX 64 99 65 100
REMARK H PARENT 26 5 15 14 6 24 30 37 86 56 56 67
REMARK Flexibility Score: inf
ROOT
ATOM      1  C   UNL A   1      37.833  24.100  26.105  1.00  0.00     0.117 C 
ENDROOT
BRANCH   1   2
ATOM      2  N   UNL A   1      37.404  23.621  24.765  1.00  0.00    -0.356 N 
ATOM      3  C   UNL A   1      36.338  22.946  24.242  1.00  0.00     0.223 C 
ATOM      4  O   UNL A   1      36.165  22.912  23.016  1.00  0.00    -0.275 OA
ATOM      5  H   UNL A   1      38.063  23.852  24.069  1.00  0.00     0.163 HD
BRANCH   3   6
ATOM      6  C   UNL A   1      35.357  22.144  25.093  1.00  0.00     0.091 C 
ATOM      7  C   UNL A   1      34.063  22.948  25.378  1.00  0.00     0.091 C 
ATOM      8  C   UNL A   1      32.895  22.054  25.816  1.00  0.00     0.014 C 
ATOM      9  C   UNL A   1      32.760  20.796  24.963  1.00  0.00     0.001 C 
ATOM     10  C   UNL A   1      35.284  20.663  24.702  1.00  0.00     0.014 C 
ATOM     11  C   UNL A   1      34.001  19.932  25.070  1.00  0.00     0.001 C 
BRANCH   7  12
ATOM     12  C   UNL A   1      33.605  23.833  24.224  1.00  0.00     0.228 C 
ATOM     13  N   UNL A   1      33.368  25.172  24.274  1.00  0.00    -0.325 N 
ATOM     14  H   UNL A   1      33.526  25.596  23.400  1.00  0.00     0.169 HD
ATOM     15  O   UNL A   1      33.410  23.278  23.133  1.00  0.00    -0.274 OA
BRANCH  13  16
ATOM     16  C   UNL A   1      32.955  26.121  25.241  1.00  0.00     0.054 A 
ATOM     17  C   UNL A   1      31.583  26.227  25.608  1.00  0.00     0.063 A 
ATOM     18  C   UNL A   1      31.181  27.253  26.500  1.00  0.00     0.016 A 
ATOM     19  C   UNL A   1      32.095  28.132  27.065  1.00  0.00     0.001 A 
ATOM     20  C   UNL A   1      33.861  26.957  25.912  1.00  0.00     0.027 A 
ATOM     21  C   UNL A   1      33.439  27.966  26.788  1.00  0.00     0.002 A 
BRANCH  17  22
ATOM     22  C   UNL A   1      30.421  25.412  25.118  1.00  0.00     0.257 C 
ATOM     23  N   UNL A   1      29.357  25.885  24.393  1.00  0.00    -0.322 N 
ATOM     24  H   UNL A   1      28.570  25.295  24.449  1.00  0.00     0.170 HD
ATOM     25  O   UNL A   1      30.410  24.204  25.383  1.00  0.00    -0.269 OA
BRANCH  23  26
ATOM     26  C   UNL A   1      29.126  27.010  23.594  1.00  0.00     0.041 A 
ATOM     27  C   UNL A   1      28.349  30.994  22.248  1.00  0.00     0.044 C 
ATOM     28  C   UNL A   1      28.568  29.540  22.539  1.00  0.00    -0.051 A 
ATOM     29  C   UNL A   1      29.837  28.967  22.377  1.00  0.00     0.005 A 
ATOM     30  C   UNL A   1      27.542  28.770  23.093  1.00  0.00     0.005 A 
ATOM     31  C   UNL A   1      30.113  27.694  22.888  1.00  0.00     0.026 A 
ATOM     32  C   UNL A   1      27.819  27.506  23.605  1.00  0.00     0.026 A 
ENDBRANCH  23  26
ENDBRANCH  17  22
ENDBRANCH  13  16
ENDBRANCH   7  12
ENDBRANCH   3   6
ENDBRANCH   1   2
BRANCH   1  33
ATOM     33  C   UNL A   1      39.161  23.495  26.823  1.00  0.00     0.042 C 
BRANCH  33  34
ATOM     34  C   UNL A   1      39.935  24.465  27.826  1.00  0.00     0.118 C 
BRANCH  34  35
ATOM     35  N   UNL A   1      39.479  25.900  28.394  1.00  0.00    -0.352 N 
ATOM     36  C   UNL A   1      39.491  27.339  28.081  1.00  0.00     0.251 C 
ATOM     37  H   UNL A   1      39.030  25.769  29.260  1.00  0.00     0.163 HD
ATOM     38  O   UNL A   1      38.346  27.834  28.117  1.00  0.00    -0.269 OA
BRANCH  36  39
ATOM     39  C   UNL A   1      40.608  28.447  27.782  1.00  0.00     0.039 A 
ATOM     40  C   UNL A   1      41.205  28.610  26.484  1.00  0.00     0.014 A 
ATOM     41  C   UNL A   1      41.153  29.330  28.704  1.00  0.00     0.014 A 
ATOM     42  C   UNL A   1      42.574  29.109  26.332  1.00  0.00     0.010 A 
ATOM     43  C   UNL A   1      42.500  29.810  28.568  1.00  0.00     0.010 A 
ATOM     44  C   UNL A   1      43.314  29.455  27.481  1.00  0.00    -0.014 A 
BRANCH  44  45
ATOM     45  C   UNL A   1      44.809  29.116  27.715  1.00  0.00     0.031 A 
ATOM     46  C   UNL A   1      45.815  30.165  27.597  1.00  0.00     0.074 A 
ATOM     47  C   UNL A   1      45.403  27.959  28.171  1.00  0.00     0.049 A 
ATOM     48  N   UNL A   1      46.833  30.137  26.798  1.00  0.00    -0.248 NA
ATOM     49  C   UNL A   1      45.764  31.310  28.491  1.00  0.00     0.031 C 
ATOM     50  C   UNL A   1      46.784  27.582  28.542  1.00  0.00     0.029 A 
ATOM     51  N   UNL A   1      44.800  26.761  28.485  1.00  0.00    -0.354 N 
ATOM     52  C   UNL A   1      47.698  31.087  27.295  1.00  0.00     0.074 A 
ATOM     53  C   UNL A   1      46.899  31.931  28.165  1.00  0.00     0.031 C 
ATOM     54  C   UNL A   1      46.891  26.228  28.617  1.00  0.00     0.029 A 
ATOM     55  C   UNL A   1      45.604  25.657  28.257  1.00  0.00     0.049 A 
ATOM     56  H   UNL A   1      43.882  26.696  28.839  1.00  0.00     0.167 HD
ATOM     57  C   UNL A   1      49.055  30.921  27.264  1.00  0.00     0.031 A 
ATOM     58  C   UNL A   1      45.265  24.761  27.268  1.00  0.00     0.031 A 
ATOM     59  C   UNL A   1      49.435  29.542  26.930  1.00  0.00     0.049 A 
ATOM     60  C   UNL A   1      46.230  24.901  26.129  1.00  0.00     0.074 A 
ATOM     61  C   UNL A   1      49.985  28.527  27.703  1.00  0.00     0.029 A 
ATOM     62  N   UNL A   1      48.984  28.933  25.764  1.00  0.00    -0.354 N 
ATOM     63  N   UNL A   1      47.109  25.855  26.083  1.00  0.00    -0.248 NA
ATOM     64  C   UNL A   1      46.280  24.047  24.950  1.00  0.00     0.031 C 
ATOM     65  C   UNL A   1      49.804  27.297  27.020  1.00  0.00     0.029 A 
ATOM     66  C   UNL A   1      49.178  27.563  25.814  1.00  0.00     0.049 A 
ATOM     67  H   UNL A   1      48.581  29.413  25.005  1.00  0.00     0.167 HD
ATOM     68  C   UNL A   1      47.827  25.784  24.939  1.00  0.00     0.074 A 
ATOM     69  C   UNL A   1      47.285  24.620  24.260  1.00  0.00     0.031 C 
ATOM     70  C   UNL A   1      48.788  26.715  24.688  1.00  0.00     0.031 A 
BRANCH  57  71
ATOM     71  C   UNL A   1      50.019  31.915  27.887  1.00  0.00    -0.014 A 
ATOM     72  C   UNL A   1      50.545  32.981  27.131  1.00  0.00     0.010 A 
ATOM     73  C   UNL A   1      50.397  31.881  29.247  1.00  0.00     0.010 A 
ATOM     74  C   UNL A   1      51.453  33.906  27.674  1.00  0.00     0.020 A 
ATOM     75  C   UNL A   1      51.345  32.760  29.789  1.00  0.00     0.020 A 
ATOM     76  C   UNL A   1      51.862  33.778  28.999  1.00  0.00     0.054 A 
BRANCH  76  77
ATOM     77  S   UNL A   1      53.010  34.993  29.696  1.00  0.00     0.124 S 
ATOM     78  O   UNL A   1      52.556  35.108  31.079  1.00  0.00    -0.237 OA
ATOM     79  O   UNL A   1      54.303  34.343  29.509  1.00  0.00    -0.237 OA
ATOM     80  O   UNL A   1      52.795  36.186  28.877  1.00  0.00    -0.744 OA
ENDBRANCH  76  77
ENDBRANCH  57  71
BRANCH  58  81
ATOM     81  C   UNL A   1      43.757  24.474  27.044  1.00  0.00    -0.014 A 
ATOM     82  C   UNL A   1      43.353  24.452  25.695  1.00  0.00     0.010 A 
ATOM     83  C   UNL A   1      43.319  23.397  27.793  1.00  0.00     0.010 A 
ATOM     84  C   UNL A   1      43.334  23.232  24.997  1.00  0.00     0.020 A 
ATOM     85  C   UNL A   1      43.353  22.187  27.081  1.00  0.00     0.020 A 
ATOM     86  C   UNL A   1      43.519  22.064  25.723  1.00  0.00     0.054 A 
BRANCH  86  87
ATOM     87  S   UNL A   1      44.606  20.511  24.975  1.00  0.00     0.124 S 
ATOM     88  O   UNL A   1      45.865  20.787  25.621  1.00  0.00    -0.237 OA
ATOM     89  O   UNL A   1      43.992  19.285  25.476  1.00  0.00    -0.237 OA
ATOM     90  O   UNL A   1      44.609  20.593  23.528  1.00  0.00    -0.744 OA
ENDBRANCH  86  87
ENDBRANCH  58  81
BRANCH  70  91
ATOM     91  C   UNL A   1      49.529  26.867  23.397  1.00  0.00    -0.014 A 
ATOM     92  C   UNL A   1      48.916  27.104  22.160  1.00  0.00     0.010 A 
ATOM     93  C   UNL A   1      50.943  26.873  23.435  1.00  0.00     0.010 A 
ATOM     94  C   UNL A   1      49.679  27.256  21.001  1.00  0.00     0.020 A 
ATOM     95  C   UNL A   1      51.713  27.084  22.298  1.00  0.00     0.020 A 
ATOM     96  C   UNL A   1      51.072  27.240  21.078  1.00  0.00     0.054 A 
BRANCH  96  97
ATOM     97  S   UNL A   1      52.036  27.460  19.571  1.00  0.00     0.124 S 
ATOM     98  O   UNL A   1      52.355  28.884  19.626  1.00  0.00    -0.237 OA
ATOM     99  O   UNL A   1      53.166  26.557  19.777  1.00  0.00    -0.237 OA
ATOM    100  O   UNL A   1      51.117  27.065  18.507  1.00  0.00    -0.744 OA
ENDBRANCH  96  97
ENDBRANCH  70  91
ENDBRANCH  44  45
ENDBRANCH  36  39
ENDBRANCH  34  35
ENDBRANCH  33  34
ENDBRANCH   1  33
TORSDOF 17
ENDMDL
MODEL 3
REMARK VINA RESULT:     -12.8      3.750      8.091
REMARK SMILES Cc1ccc(NC(=O)c2ccccc2NC(=O)[C@H]2CCCC[C@H]2C(=O)NCCCNC(=O)c2ccc(-c3c4nc(c(-c5ccc(S(=O)(=O)[O-])cc5)c5ccc([nH]5)c(-c5ccc(S(=O)(=O)[O-])cc5)c5nc(c(-c6ccc(S(=O)(=O)[O-])cc6)c6ccc3[nH]6)C=C5)C=C4)cc2)cc1
REMARK SMILES IDX 27 1 26 2 24 3 25 4 23 6 18 7 19 8 20 9 22 10 21 11 16 12
REMARK SMILES IDX 15 13 17 15 14 16 9 17 10 18 11 19 13 20 12 21 7 22 6 23
REMARK SMILES IDX 8 25 5 26 1 27 2 28 3 29 94 30 4 31 93 32 28 33 29 34 30 35
REMARK SMILES IDX 31 36 32 38 33 39 34 40 92 41 35 42 91 43 36 44 37 45 38 46
REMARK SMILES IDX 85 47 39 48 90 49 84 50 86 51 40 52 89 53 83 54 82 55 41 57
REMARK SMILES IDX 71 58 52 59 70 60 53 61 56 62 69 63 87 64 54 65 55 66 68 68
REMARK SMILES IDX 88 69 57 70 42 71 43 72 51 73 44 74 50 75 45 76 46 77 47 78
REMARK SMILES IDX 48 79 49 80 72 81 73 82 81 83 74 84 80 85 75 86 76 87 77 88
REMARK SMILES IDX 78 89 79 90 58 91 59 92 67 93 60 94 66 95 61 96 62 97 63 98
REMARK SMILES IDX 64 99 65 100
REMARK H PARENT 26 5 15 14 6 24 30 37 86 56 56 67
REMARK Flexibility Score: inf
ROOT
ATOM      1  C   UNL A   1      37.803  24.069  26.129  1.00  0.00     0.117 C 
ENDROOT
BRANCH   1   2
ATOM      2  N   UNL A   1      37.296  23.666  24.791  1.00  0.00    -0.356 N 
ATOM      3  C   UNL A   1      36.189  23.040  24.292  1.00  0.00     0.223 C 
ATOM      4  O   UNL A   1      35.953  23.071  23.076  1.00  0.00    -0.275 OA
ATOM      5  H   UNL A   1      37.923  23.919  24.074  1.00  0.00     0.163 HD
BRANCH   3   6
ATOM      6  C   UNL A   1      35.235  22.215  25.152  1.00  0.00     0.091 C 
ATOM      7  C   UNL A   1      33.941  23.002  25.479  1.00  0.00     0.091 C 
ATOM      8  C   UNL A   1      32.792  22.091  25.930  1.00  0.00     0.014 C 
ATOM      9  C   UNL A   1      32.648  20.845  25.059  1.00  0.00     0.001 C 
ATOM     10  C   UNL A   1      35.167  20.740  24.739  1.00  0.00     0.014 C 
ATOM     11  C   UNL A   1      33.900  19.991  25.125  1.00  0.00     0.001 C 
BRANCH   7  12
ATOM     12  C   UNL A   1      33.449  23.901  24.350  1.00  0.00     0.228 C 
ATOM     13  N   UNL A   1      33.267  25.248  24.407  1.00  0.00    -0.325 N 
ATOM     14  H   UNL A   1      33.389  25.663  23.523  1.00  0.00     0.169 HD
ATOM     15  O   UNL A   1      33.166  23.350  23.276  1.00  0.00    -0.274 OA
BRANCH  13  16
ATOM     16  C   UNL A   1      32.952  26.216  25.392  1.00  0.00     0.054 A 
ATOM     17  C   UNL A   1      31.620  26.340  25.881  1.00  0.00     0.063 A 
ATOM     18  C   UNL A   1      31.309  27.383  26.788  1.00  0.00     0.016 A 
ATOM     19  C   UNL A   1      32.277  28.263  27.254  1.00  0.00     0.001 A 
ATOM     20  C   UNL A   1      33.921  27.054  25.963  1.00  0.00     0.027 A 
ATOM     21  C   UNL A   1      33.589  28.080  26.857  1.00  0.00     0.002 A 
BRANCH  17  22
ATOM     22  C   UNL A   1      30.412  25.528  25.512  1.00  0.00     0.257 C 
ATOM     23  N   UNL A   1      29.364  25.953  24.737  1.00  0.00    -0.322 N 
ATOM     24  H   UNL A   1      28.549  25.417  24.876  1.00  0.00     0.170 HD
ATOM     25  O   UNL A   1      30.343  24.369  25.938  1.00  0.00    -0.269 OA
BRANCH  23  26
ATOM     26  C   UNL A   1      29.180  26.971  23.794  1.00  0.00     0.041 A 
ATOM     27  C   UNL A   1      28.457  30.751  21.929  1.00  0.00     0.044 C 
ATOM     28  C   UNL A   1      28.671  29.346  22.407  1.00  0.00    -0.051 A 
ATOM     29  C   UNL A   1      29.956  28.785  22.407  1.00  0.00     0.005 A 
ATOM     30  C   UNL A   1      27.616  28.626  22.972  1.00  0.00     0.005 A 
ATOM     31  C   UNL A   1      30.208  27.587  23.085  1.00  0.00     0.026 A 
ATOM     32  C   UNL A   1      27.870  27.436  23.650  1.00  0.00     0.026 A 
ENDBRANCH  23  26
ENDBRANCH  17  22
ENDBRANCH  13  16
ENDBRANCH   7  12
ENDBRANCH   3   6
ENDBRANCH   1   2
BRANCH   1  33
ATOM     33  C   UNL A   1      39.265  23.583  26.649  1.00  0.00     0.042 C 
BRANCH  33  34
ATOM     34  C   UNL A   1      39.570  22.019  26.565  1.00  0.00     0.118 C 
BRANCH  34  35
ATOM     35  N   UNL A   1      40.910  21.278  26.072  1.00  0.00    -0.352 N 
ATOM     36  C   UNL A   1      42.376  21.415  26.036  1.00  0.00     0.251 C 
ATOM     37  H   UNL A   1      40.662  20.428  25.642  1.00  0.00     0.163 HD
ATOM     38  O   UNL A   1      42.950  20.427  26.539  1.00  0.00    -0.269 OA
BRANCH  36  39
ATOM     39  C   UNL A   1      43.424  22.473  25.446  1.00  0.00     0.039 A 
ATOM     40  C   UNL A   1      44.832  22.197  25.357  1.00  0.00     0.014 A 
ATOM     41  C   UNL A   1      43.130  23.754  25.000  1.00  0.00     0.014 A 
ATOM     42  C   UNL A   1      45.826  23.270  25.440  1.00  0.00     0.010 A 
ATOM     43  C   UNL A   1      44.096  24.813  25.094  1.00  0.00     0.010 A 
ATOM     44  C   UNL A   1      45.391  24.602  25.591  1.00  0.00    -0.014 A 
BRANCH  44  45
ATOM     45  C   UNL A   1      46.034  25.650  26.536  1.00  0.00     0.031 A 
ATOM     46  C   UNL A   1      47.319  25.365  27.164  1.00  0.00     0.074 A 
ATOM     47  C   UNL A   1      45.661  26.946  26.820  1.00  0.00     0.049 A 
ATOM     48  N   UNL A   1      47.543  25.360  28.438  1.00  0.00    -0.248 NA
ATOM     49  C   UNL A   1      48.492  25.154  26.331  1.00  0.00     0.031 C 
ATOM     50  C   UNL A   1      46.266  28.049  27.596  1.00  0.00     0.029 A 
ATOM     51  N   UNL A   1      44.557  27.631  26.365  1.00  0.00    -0.354 N 
ATOM     52  C   UNL A   1      48.913  25.452  28.556  1.00  0.00     0.074 A 
ATOM     53  C   UNL A   1      49.447  25.077  27.259  1.00  0.00     0.031 C 
ATOM     54  C   UNL A   1      45.336  29.015  27.832  1.00  0.00     0.029 A 
ATOM     55  C   UNL A   1      44.076  28.570  27.263  1.00  0.00     0.049 A 
ATOM     56  H   UNL A   1      44.147  27.469  25.483  1.00  0.00     0.167 HD
ATOM     57  C   UNL A   1      49.509  26.162  29.561  1.00  0.00     0.031 A 
ATOM     58  C   UNL A   1      42.843  28.383  27.847  1.00  0.00     0.031 A 
ATOM     59  C   UNL A   1      48.553  27.019  30.275  1.00  0.00     0.049 A 
ATOM     60  C   UNL A   1      43.034  28.038  29.294  1.00  0.00     0.074 A 
ATOM     61  C   UNL A   1      48.384  28.397  30.288  1.00  0.00     0.029 A 
ATOM     62  N   UNL A   1      47.408  26.487  30.858  1.00  0.00    -0.354 N 
ATOM     63  N   UNL A   1      44.207  27.800  29.797  1.00  0.00    -0.248 NA
ATOM     64  C   UNL A   1      41.971  27.886  30.277  1.00  0.00     0.031 C 
ATOM     65  C   UNL A   1      47.102  28.685  30.824  1.00  0.00     0.029 A 
ATOM     66  C   UNL A   1      46.503  27.487  31.175  1.00  0.00     0.049 A 
ATOM     67  H   UNL A   1      47.260  25.528  31.024  1.00  0.00     0.167 HD
ATOM     68  C   UNL A   1      44.106  27.473  31.105  1.00  0.00     0.074 A 
ATOM     69  C   UNL A   1      42.680  27.556  31.374  1.00  0.00     0.031 C 
ATOM     70  C   UNL A   1      45.227  27.162  31.811  1.00  0.00     0.031 A 
BRANCH  57  71
ATOM     71  C   UNL A   1      51.014  26.348  29.655  1.00  0.00    -0.014 A 
ATOM     72  C   UNL A   1      51.723  27.015  28.637  1.00  0.00     0.010 A 
ATOM     73  C   UNL A   1      51.778  25.935  30.768  1.00  0.00     0.010 A 
ATOM     74  C   UNL A   1      53.117  27.186  28.687  1.00  0.00     0.020 A 
ATOM     75  C   UNL A   1      53.175  26.047  30.808  1.00  0.00     0.020 A 
ATOM     76  C   UNL A   1      53.838  26.683  29.768  1.00  0.00     0.054 A 
BRANCH  76  77
ATOM     77  S   UNL A   1      55.630  26.936  29.835  1.00  0.00     0.124 S 
ATOM     78  O   UNL A   1      56.068  26.479  28.519  1.00  0.00    -0.237 OA
ATOM     79  O   UNL A   1      55.734  28.373  30.069  1.00  0.00    -0.237 OA
ATOM     80  O   UNL A   1      56.059  26.096  30.953  1.00  0.00    -0.744 OA
ENDBRANCH  76  77
ENDBRANCH  57  71
BRANCH  58  81
ATOM     81  C   UNL A   1      41.728  27.739  26.983  1.00  0.00    -0.014 A 
ATOM     82  C   UNL A   1      40.889  26.841  27.673  1.00  0.00     0.010 A 
ATOM     83  C   UNL A   1      41.060  28.676  26.217  1.00  0.00     0.010 A 
ATOM     84  C   UNL A   1      39.694  27.311  28.245  1.00  0.00     0.020 A 
ATOM     85  C   UNL A   1      39.895  29.157  26.835  1.00  0.00     0.020 A 
ATOM     86  C   UNL A   1      39.286  28.600  27.933  1.00  0.00     0.054 A 
BRANCH  86  87
ATOM     87  S   UNL A   1      38.424  29.808  29.331  1.00  0.00     0.124 S 
ATOM     88  O   UNL A   1      37.747  28.801  30.110  1.00  0.00    -0.237 OA
ATOM     89  O   UNL A   1      39.511  30.436  30.075  1.00  0.00    -0.237 OA
ATOM     90  O   UNL A   1      37.568  30.766  28.660  1.00  0.00    -0.744 OA
ENDBRANCH  86  87
ENDBRANCH  58  81
BRANCH  70  91
ATOM     91  C   UNL A   1      45.249  26.612  33.202  1.00  0.00    -0.014 A 
ATOM     92  C   UNL A   1      45.013  27.374  34.353  1.00  0.00     0.010 A 
ATOM     93  C   UNL A   1      45.419  25.218  33.367  1.00  0.00     0.010 A 
ATOM     94  C   UNL A   1      45.029  26.783  35.618  1.00  0.00     0.020 A 
ATOM     95  C   UNL A   1      45.377  24.610  34.616  1.00  0.00     0.020 A 
ATOM     96  C   UNL A   1      45.216  25.406  35.740  1.00  0.00     0.054 A 
BRANCH  96  97
ATOM     97  S   UNL A   1      45.211  24.662  37.382  1.00  0.00     0.124 S 
ATOM     98  O   UNL A   1      46.463  25.164  37.941  1.00  0.00    -0.237 OA
ATOM     99  O   UNL A   1      43.995  25.209  37.980  1.00  0.00    -0.237 OA
ATOM    100  O   UNL A   1      45.174  23.227  37.116  1.00  0.00    -0.744 OA
ENDBRANCH  96  97
ENDBRANCH  70  91
ENDBRANCH  44  45
ENDBRANCH  36  39
ENDBRANCH  34  35
ENDBRANCH  33  34
ENDBRANCH   1  33
TORSDOF 17
ENDMDL
