MODEL 1
REMARK VINA RESULT:     -12.4      0.000      0.000
REMARK SMILES O=C(NCCCNC(=O)[C@H]1CCCN(C(=O)C2CCN(S(=O)(=O)c3ccccc3)CC2)C1)c1ccc(-c2c3nc(c(-c4ccc(S(=O)(=O)[O-])cc4)c4ccc([nH]4)c(-c4ccc(S(=O)(=O)[O-])cc4)c4nc(c(-c5ccc(S(=O)(=O)[O-])cc5)c5ccc2[nH]5)C=C4)C=C3)cc1
REMARK SMILES IDX 5 1 4 2 3 3 1 4 2 5 33 7 34 8 92 9 35 10 91 11 36 12 37 13
REMARK SMILES IDX 38 14 85 15 39 16 90 17 84 18 86 19 40 20 89 21 83 22 82 23
REMARK SMILES IDX 41 25 71 26 52 27 70 28 53 29 56 30 69 31 87 32 54 33 55 34
REMARK SMILES IDX 68 36 88 37 57 38 42 39 43 40 51 41 44 42 50 43 45 44 46 45
REMARK SMILES IDX 47 46 48 47 49 48 72 49 73 50 81 51 74 52 80 53 75 54 76 55
REMARK SMILES IDX 77 56 78 57 79 58 58 59 59 60 67 61 60 62 66 63 61 64 62 65
REMARK SMILES IDX 63 66 64 67 65 68 6 69 7 70 8 71 9 73 10 74 11 75 32 76
REMARK SMILES IDX 12 77 14 78 13 79 15 80 16 81 17 82 18 83 31 84 19 85 30 86
REMARK SMILES IDX 20 87 21 88 22 89 23 90 24 91 25 92 29 93 26 94 28 95 27 96
REMARK H PARENT 3 6 86 24 56 35 7 72
REMARK Flexibility Score: inf
ROOT
ATOM      1  C   UNL A   1      38.070  20.517  24.959  1.00  0.00     0.042 C 
ENDROOT
BRANCH   1   2
ATOM      2  C   UNL A   1      39.200  20.924  25.893  1.00  0.00     0.118 C 
BRANCH   2   3
ATOM      3  N   UNL A   1      40.174  19.858  26.086  1.00  0.00    -0.352 N 
ATOM      4  O   UNL A   1      42.225  18.952  26.293  1.00  0.00    -0.269 OA
ATOM      5  C   UNL A   1      41.523  19.957  26.323  1.00  0.00     0.251 C 
ATOM      6  H   UNL A   1      39.818  18.941  26.041  1.00  0.00     0.163 HD
BRANCH   5   7
ATOM      7  C   UNL A   1      42.115  21.282  26.591  1.00  0.00     0.039 A 
ATOM      8  C   UNL A   1      42.453  21.656  27.895  1.00  0.00     0.014 A 
ATOM      9  C   UNL A   1      42.337  22.158  25.524  1.00  0.00     0.014 A 
ATOM     10  C   UNL A   1      42.894  22.948  28.147  1.00  0.00     0.010 A 
ATOM     11  C   UNL A   1      42.857  23.430  25.772  1.00  0.00     0.010 A 
ATOM     12  C   UNL A   1      43.118  23.841  27.088  1.00  0.00    -0.014 A 
BRANCH  12  13
ATOM     13  C   UNL A   1      43.707  25.167  27.380  1.00  0.00     0.031 A 
ATOM     14  C   UNL A   1      45.152  25.460  27.092  1.00  0.00     0.074 A 
ATOM     15  C   UNL A   1      42.902  26.124  27.882  1.00  0.00     0.049 A 
ATOM     16  N   UNL A   1      45.809  26.579  27.261  1.00  0.00    -0.248 NA
ATOM     17  C   UNL A   1      45.966  24.360  26.552  1.00  0.00     0.031 C 
ATOM     18  C   UNL A   1      41.483  25.945  28.207  1.00  0.00     0.029 A 
ATOM     19  N   UNL A   1      43.148  27.438  28.181  1.00  0.00    -0.354 N 
ATOM     20  C   UNL A   1      47.117  26.314  26.872  1.00  0.00     0.074 A 
ATOM     21  C   UNL A   1      47.165  24.924  26.470  1.00  0.00     0.031 C 
ATOM     22  C   UNL A   1      40.973  27.118  28.609  1.00  0.00     0.029 A 
ATOM     23  C   UNL A   1      42.037  28.114  28.625  1.00  0.00     0.049 A 
ATOM     24  H   UNL A   1      44.034  27.856  28.089  1.00  0.00     0.167 HD
ATOM     25  C   UNL A   1      48.178  27.157  26.851  1.00  0.00     0.031 A 
ATOM     26  C   UNL A   1      41.888  29.394  29.010  1.00  0.00     0.031 A 
ATOM     27  C   UNL A   1      48.119  28.540  27.247  1.00  0.00     0.049 A 
ATOM     28  C   UNL A   1      43.080  30.303  28.980  1.00  0.00     0.074 A 
ATOM     29  C   UNL A   1      49.135  29.481  27.243  1.00  0.00     0.029 A 
ATOM     30  N   UNL A   1      46.983  29.181  27.718  1.00  0.00    -0.354 N 
ATOM     31  N   UNL A   1      44.305  30.036  28.594  1.00  0.00    -0.248 NA
ATOM     32  C   UNL A   1      42.871  31.681  29.439  1.00  0.00     0.031 C 
ATOM     33  C   UNL A   1      48.620  30.682  27.746  1.00  0.00     0.029 A 
ATOM     34  C   UNL A   1      47.275  30.500  28.024  1.00  0.00     0.049 A 
ATOM     35  H   UNL A   1      46.099  28.760  27.820  1.00  0.00     0.167 HD
ATOM     36  C   UNL A   1      45.016  31.216  28.764  1.00  0.00     0.074 A 
ATOM     37  C   UNL A   1      44.078  32.202  29.263  1.00  0.00     0.031 C 
ATOM     38  C   UNL A   1      46.329  31.459  28.534  1.00  0.00     0.031 A 
BRANCH  25  39
ATOM     39  C   UNL A   1      49.502  26.595  26.410  1.00  0.00    -0.014 A 
ATOM     40  C   UNL A   1      49.979  26.799  25.102  1.00  0.00     0.010 A 
ATOM     41  C   UNL A   1      50.300  25.889  27.328  1.00  0.00     0.010 A 
ATOM     42  C   UNL A   1      51.215  26.275  24.711  1.00  0.00     0.020 A 
ATOM     43  C   UNL A   1      51.545  25.381  26.946  1.00  0.00     0.020 A 
ATOM     44  C   UNL A   1      51.986  25.562  25.634  1.00  0.00     0.054 A 
BRANCH  44  45
ATOM     45  S   UNL A   1      53.593  24.902  25.107  1.00  0.00     0.124 S 
ATOM     46  O   UNL A   1      53.327  23.466  25.060  1.00  0.00    -0.237 OA
ATOM     47  O   UNL A   1      53.799  25.545  23.811  1.00  0.00    -0.237 OA
ATOM     48  O   UNL A   1      54.507  25.332  26.163  1.00  0.00    -0.744 OA
ENDBRANCH  44  45
ENDBRANCH  25  39
BRANCH  26  49
ATOM     49  C   UNL A   1      40.558  29.871  29.466  1.00  0.00    -0.014 A 
ATOM     50  C   UNL A   1      39.511  30.053  28.547  1.00  0.00     0.010 A 
ATOM     51  C   UNL A   1      40.318  30.092  30.835  1.00  0.00     0.010 A 
ATOM     52  C   UNL A   1      38.247  30.454  28.988  1.00  0.00     0.020 A 
ATOM     53  C   UNL A   1      39.050  30.469  31.281  1.00  0.00     0.020 A 
ATOM     54  C   UNL A   1      38.023  30.657  30.354  1.00  0.00     0.054 A 
BRANCH  54  55
ATOM     55  S   UNL A   1      36.358  31.101  30.919  1.00  0.00     0.124 S 
ATOM     56  O   UNL A   1      36.600  32.366  31.606  1.00  0.00    -0.237 OA
ATOM     57  O   UNL A   1      35.608  31.191  29.669  1.00  0.00    -0.237 OA
ATOM     58  O   UNL A   1      35.983  29.980  31.779  1.00  0.00    -0.744 OA
ENDBRANCH  54  55
ENDBRANCH  26  49
BRANCH  38  59
ATOM     59  C   UNL A   1      46.819  32.849  28.818  1.00  0.00    -0.014 A 
ATOM     60  C   UNL A   1      46.795  33.838  27.819  1.00  0.00     0.010 A 
ATOM     61  C   UNL A   1      47.283  33.177  30.104  1.00  0.00     0.010 A 
ATOM     62  C   UNL A   1      47.259  35.126  28.093  1.00  0.00     0.020 A 
ATOM     63  C   UNL A   1      47.729  34.470  30.386  1.00  0.00     0.020 A 
ATOM     64  C   UNL A   1      47.728  35.433  29.375  1.00  0.00     0.054 A 
BRANCH  64  65
ATOM     65  S   UNL A   1      48.298  37.120  29.720  1.00  0.00     0.124 S 
ATOM     66  O   UNL A   1      47.038  37.842  29.859  1.00  0.00    -0.237 OA
ATOM     67  O   UNL A   1      49.070  36.957  30.950  1.00  0.00    -0.237 OA
ATOM     68  O   UNL A   1      49.089  37.463  28.539  1.00  0.00    -0.744 OA
ENDBRANCH  64  65
ENDBRANCH  38  59
ENDBRANCH  12  13
ENDBRANCH   5   7
ENDBRANCH   2   3
ENDBRANCH   1   2
BRANCH   1  69
ATOM     69  C   UNL A   1      36.725  21.102  25.363  1.00  0.00     0.117 C 
BRANCH  69  70
ATOM     70  N   UNL A   1      35.660  20.120  25.240  1.00  0.00    -0.356 N 
ATOM     71  C   UNL A   1      34.345  20.320  24.919  1.00  0.00     0.224 C 
ATOM     72  H   UNL A   1      35.920  19.185  25.409  1.00  0.00     0.163 HD
ATOM     73  O   UNL A   1      33.557  19.382  25.008  1.00  0.00    -0.275 OA
BRANCH  71  74
ATOM     74  C   UNL A   1      33.956  21.670  24.359  1.00  0.00     0.098 C 
ATOM     75  C   UNL A   1      32.721  21.447  23.471  1.00  0.00     0.017 C 
ATOM     76  C   UNL A   1      33.657  22.700  25.461  1.00  0.00     0.133 C 
ATOM     77  C   UNL A   1      32.218  22.769  22.933  1.00  0.00     0.022 C 
ATOM     78  N   UNL A   1      33.127  23.950  24.870  1.00  0.00    -0.342 N 
ATOM     79  C   UNL A   1      31.931  23.729  24.083  1.00  0.00     0.119 C 
BRANCH  78  80
ATOM     80  C   UNL A   1      33.754  25.154  25.130  1.00  0.00     0.225 C 
ATOM     81  O   UNL A   1      34.937  25.304  24.795  1.00  0.00    -0.275 OA
BRANCH  80  82
ATOM     82  C   UNL A   1      33.059  26.390  25.770  1.00  0.00     0.081 C 
ATOM     83  C   UNL A   1      31.622  26.297  26.252  1.00  0.00     0.030 C 
ATOM     84  C   UNL A   1      33.331  27.730  25.115  1.00  0.00     0.030 C 
ATOM     85  C   UNL A   1      30.527  26.966  25.424  1.00  0.00     0.103 C 
ATOM     86  C   UNL A   1      32.345  28.083  24.026  1.00  0.00     0.103 C 
ATOM     87  N   UNL A   1      30.922  28.014  24.414  1.00  0.00    -0.198 NA
BRANCH  87  88
ATOM     88  S   UNL A   1      29.755  28.010  23.113  1.00  0.00     0.243 S 
ATOM     89  O   UNL A   1      30.482  27.760  21.880  1.00  0.00    -0.207 OA
ATOM     90  O   UNL A   1      28.709  27.098  23.517  1.00  0.00    -0.207 OA
BRANCH  88  91
ATOM     91  C   UNL A   1      29.036  29.627  22.912  1.00  0.00     0.082 A 
ATOM     92  C   UNL A   1      28.445  29.948  21.685  1.00  0.00     0.022 A 
ATOM     93  C   UNL A   1      29.300  30.648  23.835  1.00  0.00     0.022 A 
ATOM     94  C   UNL A   1      28.098  31.273  21.404  1.00  0.00     0.001 A 
ATOM     95  C   UNL A   1      28.911  31.961  23.568  1.00  0.00     0.001 A 
ATOM     96  C   UNL A   1      28.319  32.275  22.349  1.00  0.00     0.000 A 
ENDBRANCH  88  91
ENDBRANCH  87  88
ENDBRANCH  80  82
ENDBRANCH  78  80
ENDBRANCH  71  74
ENDBRANCH  69  70
ENDBRANCH   1  69
TORSDOF 17
ENDMDL
MODEL 2
REMARK VINA RESULT:     -12.3      5.266     12.274
REMARK SMILES O=C(NCCCNC(=O)[C@H]1CCCN(C(=O)C2CCN(S(=O)(=O)c3ccccc3)CC2)C1)c1ccc(-c2c3nc(c(-c4ccc(S(=O)(=O)[O-])cc4)c4ccc([nH]4)c(-c4ccc(S(=O)(=O)[O-])cc4)c4nc(c(-c5ccc(S(=O)(=O)[O-])cc5)c5ccc2[nH]5)C=C4)C=C3)cc1
REMARK SMILES IDX 5 1 4 2 3 3 1 4 2 5 33 7 34 8 92 9 35 10 91 11 36 12 37 13
REMARK SMILES IDX 38 14 85 15 39 16 90 17 84 18 86 19 40 20 89 21 83 22 82 23
REMARK SMILES IDX 41 25 71 26 52 27 70 28 53 29 56 30 69 31 87 32 54 33 55 34
REMARK SMILES IDX 68 36 88 37 57 38 42 39 43 40 51 41 44 42 50 43 45 44 46 45
REMARK SMILES IDX 47 46 48 47 49 48 72 49 73 50 81 51 74 52 80 53 75 54 76 55
REMARK SMILES IDX 77 56 78 57 79 58 58 59 59 60 67 61 60 62 66 63 61 64 62 65
REMARK SMILES IDX 63 66 64 67 65 68 6 69 7 70 8 71 9 73 10 74 11 75 32 76
REMARK SMILES IDX 12 77 14 78 13 79 15 80 16 81 17 82 18 83 31 84 19 85 30 86
REMARK SMILES IDX 20 87 21 88 22 89 23 90 24 91 25 92 29 93 26 94 28 95 27 96
REMARK H PARENT 3 6 86 24 56 35 7 72
REMARK Flexibility Score: inf
ROOT
ATOM      1  C   UNL A   1      34.677  32.548  30.593  1.00  0.00     0.042 C 
ENDROOT
BRANCH   1   2
ATOM      2  C   UNL A   1      34.829  32.651  29.082  1.00  0.00     0.118 C 
BRANCH   2   3
ATOM      3  N   UNL A   1      34.171  31.558  28.380  1.00  0.00    -0.352 N 
ATOM      4  O   UNL A   1      34.048  29.660  27.174  1.00  0.00    -0.269 OA
ATOM      5  C   UNL A   1      34.718  30.397  27.890  1.00  0.00     0.251 C 
ATOM      6  H   UNL A   1      33.203  31.665  28.236  1.00  0.00     0.163 HD
BRANCH   5   7
ATOM      7  C   UNL A   1      36.118  30.062  28.217  1.00  0.00     0.039 A 
ATOM      8  C   UNL A   1      37.133  30.268  27.278  1.00  0.00     0.014 A 
ATOM      9  C   UNL A   1      36.416  29.537  29.478  1.00  0.00     0.014 A 
ATOM     10  C   UNL A   1      38.422  29.834  27.554  1.00  0.00     0.010 A 
ATOM     11  C   UNL A   1      37.731  29.177  29.782  1.00  0.00     0.010 A 
ATOM     12  C   UNL A   1      38.738  29.303  28.814  1.00  0.00    -0.014 A 
BRANCH  12  13
ATOM     13  C   UNL A   1      40.148  28.968  29.118  1.00  0.00     0.031 A 
ATOM     14  C   UNL A   1      41.039  29.933  29.845  1.00  0.00     0.074 A 
ATOM     15  C   UNL A   1      40.605  27.753  28.755  1.00  0.00     0.049 A 
ATOM     16  N   UNL A   1      42.286  29.776  30.214  1.00  0.00    -0.248 NA
ATOM     17  C   UNL A   1      40.468  31.241  30.200  1.00  0.00     0.031 C 
ATOM     18  C   UNL A   1      39.825  26.740  28.037  1.00  0.00     0.029 A 
ATOM     19  N   UNL A   1      41.819  27.153  28.961  1.00  0.00    -0.354 N 
ATOM     20  C   UNL A   1      42.655  30.970  30.822  1.00  0.00     0.074 A 
ATOM     21  C   UNL A   1      41.505  31.848  30.762  1.00  0.00     0.031 C 
ATOM     22  C   UNL A   1      40.561  25.627  27.910  1.00  0.00     0.029 A 
ATOM     23  C   UNL A   1      41.879  25.866  28.484  1.00  0.00     0.049 A 
ATOM     24  H   UNL A   1      42.574  27.601  29.406  1.00  0.00     0.167 HD
ATOM     25  C   UNL A   1      43.845  31.300  31.380  1.00  0.00     0.031 A 
ATOM     26  C   UNL A   1      42.887  24.974  28.499  1.00  0.00     0.031 A 
ATOM     27  C   UNL A   1      44.981  30.417  31.441  1.00  0.00     0.049 A 
ATOM     28  C   UNL A   1      44.193  25.367  29.121  1.00  0.00     0.074 A 
ATOM     29  C   UNL A   1      46.224  30.651  32.004  1.00  0.00     0.029 A 
ATOM     30  N   UNL A   1      45.013  29.131  30.922  1.00  0.00    -0.354 N 
ATOM     31  N   UNL A   1      44.516  26.497  29.704  1.00  0.00    -0.248 NA
ATOM     32  C   UNL A   1      45.268  24.369  29.084  1.00  0.00     0.031 C 
ATOM     33  C   UNL A   1      47.020  29.518  31.792  1.00  0.00     0.029 A 
ATOM     34  C   UNL A   1      46.259  28.565  31.135  1.00  0.00     0.049 A 
ATOM     35  H   UNL A   1      44.261  28.687  30.468  1.00  0.00     0.167 HD
ATOM     36  C   UNL A   1      45.836  26.346  30.105  1.00  0.00     0.074 A 
ATOM     37  C   UNL A   1      46.241  25.007  29.720  1.00  0.00     0.031 C 
ATOM     38  C   UNL A   1      46.644  27.237  30.729  1.00  0.00     0.031 A 
BRANCH  25  39
ATOM     39  C   UNL A   1      43.987  32.686  31.946  1.00  0.00    -0.014 A 
ATOM     40  C   UNL A   1      44.356  33.771  31.130  1.00  0.00     0.010 A 
ATOM     41  C   UNL A   1      43.706  32.916  33.305  1.00  0.00     0.010 A 
ATOM     42  C   UNL A   1      44.477  35.054  31.672  1.00  0.00     0.020 A 
ATOM     43  C   UNL A   1      43.807  34.200  33.847  1.00  0.00     0.020 A 
ATOM     44  C   UNL A   1      44.209  35.259  33.029  1.00  0.00     0.054 A 
BRANCH  44  45
ATOM     45  S   UNL A   1      44.360  36.936  33.708  1.00  0.00     0.124 S 
ATOM     46  O   UNL A   1      44.091  36.711  35.126  1.00  0.00    -0.237 OA
ATOM     47  O   UNL A   1      45.737  37.295  33.380  1.00  0.00    -0.237 OA
ATOM     48  O   UNL A   1      43.336  37.692  32.991  1.00  0.00    -0.744 OA
ENDBRANCH  44  45
ENDBRANCH  25  39
BRANCH  26  49
ATOM     49  C   UNL A   1      42.686  23.634  27.891  1.00  0.00    -0.014 A 
ATOM     50  C   UNL A   1      43.114  23.374  26.579  1.00  0.00     0.010 A 
ATOM     51  C   UNL A   1      42.111  22.595  28.647  1.00  0.00     0.010 A 
ATOM     52  C   UNL A   1      42.968  22.097  26.030  1.00  0.00     0.020 A 
ATOM     53  C   UNL A   1      41.986  21.313  28.109  1.00  0.00     0.020 A 
ATOM     54  C   UNL A   1      42.407  21.073  26.800  1.00  0.00     0.054 A 
BRANCH  54  55
ATOM     55  S   UNL A   1      42.294  19.403  26.101  1.00  0.00     0.124 S 
ATOM     56  O   UNL A   1      42.729  18.577  27.222  1.00  0.00    -0.237 OA
ATOM     57  O   UNL A   1      40.882  19.298  25.745  1.00  0.00    -0.237 OA
ATOM     58  O   UNL A   1      43.211  19.451  24.963  1.00  0.00    -0.744 OA
ENDBRANCH  54  55
ENDBRANCH  26  49
BRANCH  38  59
ATOM     59  C   UNL A   1      48.042  26.784  31.036  1.00  0.00    -0.014 A 
ATOM     60  C   UNL A   1      48.374  26.287  32.308  1.00  0.00     0.010 A 
ATOM     61  C   UNL A   1      49.027  26.832  30.034  1.00  0.00     0.010 A 
ATOM     62  C   UNL A   1      49.679  25.873  32.583  1.00  0.00     0.020 A 
ATOM     63  C   UNL A   1      50.328  26.401  30.301  1.00  0.00     0.020 A 
ATOM     64  C   UNL A   1      50.649  25.938  31.579  1.00  0.00     0.054 A 
BRANCH  64  65
ATOM     65  S   UNL A   1      52.332  25.369  31.947  1.00  0.00     0.124 S 
ATOM     66  O   UNL A   1      52.149  23.924  32.040  1.00  0.00    -0.237 OA
ATOM     67  O   UNL A   1      53.092  25.834  30.789  1.00  0.00    -0.237 OA
ATOM     68  O   UNL A   1      52.654  26.041  33.204  1.00  0.00    -0.744 OA
ENDBRANCH  64  65
ENDBRANCH  38  59
ENDBRANCH  12  13
ENDBRANCH   5   7
ENDBRANCH   2   3
ENDBRANCH   1   2
BRANCH   1  69
ATOM     69  C   UNL A   1      35.513  33.572  31.346  1.00  0.00     0.117 C 
BRANCH  69  70
ATOM     70  N   UNL A   1      36.724  33.911  30.614  1.00  0.00    -0.356 N 
ATOM     71  C   UNL A   1      37.996  34.066  31.091  1.00  0.00     0.224 C 
ATOM     72  H   UNL A   1      36.612  34.047  29.645  1.00  0.00     0.163 HD
ATOM     73  O   UNL A   1      38.868  34.501  30.343  1.00  0.00    -0.275 OA
BRANCH  71  74
ATOM     74  C   UNL A   1      38.284  33.581  32.495  1.00  0.00     0.098 C 
ATOM     75  C   UNL A   1      37.491  34.486  33.452  1.00  0.00     0.017 C 
ATOM     76  C   UNL A   1      37.903  32.105  32.697  1.00  0.00     0.133 C 
ATOM     77  C   UNL A   1      37.663  34.014  34.880  1.00  0.00     0.022 C 
ATOM     78  N   UNL A   1      38.051  31.723  34.119  1.00  0.00    -0.342 N 
ATOM     79  C   UNL A   1      37.252  32.549  35.002  1.00  0.00     0.119 C 
BRANCH  78  80
ATOM     80  C   UNL A   1      38.857  30.656  34.466  1.00  0.00     0.225 C 
ATOM     81  O   UNL A   1      38.577  29.989  35.473  1.00  0.00    -0.275 OA
BRANCH  80  82
ATOM     82  C   UNL A   1      40.084  30.172  33.642  1.00  0.00     0.081 C 
ATOM     83  C   UNL A   1      40.035  28.846  32.902  1.00  0.00     0.030 C 
ATOM     84  C   UNL A   1      41.448  30.399  34.267  1.00  0.00     0.030 C 
ATOM     85  C   UNL A   1      40.811  27.660  33.471  1.00  0.00     0.103 C 
ATOM     86  C   UNL A   1      41.918  29.251  35.129  1.00  0.00     0.103 C 
ATOM     87  N   UNL A   1      41.897  27.923  34.482  1.00  0.00    -0.198 NA
BRANCH  87  88
ATOM     88  S   UNL A   1      42.035  26.536  35.535  1.00  0.00     0.243 S 
ATOM     89  O   UNL A   1      42.724  26.973  36.739  1.00  0.00    -0.207 OA
ATOM     90  O   UNL A   1      40.705  25.981  35.641  1.00  0.00    -0.207 OA
BRANCH  88  91
ATOM     91  C   UNL A   1      43.097  25.303  34.811  1.00  0.00     0.082 A 
ATOM     92  C   UNL A   1      44.016  25.703  33.834  1.00  0.00     0.022 A 
ATOM     93  C   UNL A   1      42.838  23.938  34.992  1.00  0.00     0.022 A 
ATOM     94  C   UNL A   1      44.684  24.741  33.071  1.00  0.00     0.001 A 
ATOM     95  C   UNL A   1      43.540  22.981  34.259  1.00  0.00     0.001 A 
ATOM     96  C   UNL A   1      44.456  23.383  33.292  1.00  0.00     0.000 A 
ENDBRANCH  88  91
ENDBRANCH  87  88
ENDBRANCH  80  82
ENDBRANCH  78  80
ENDBRANCH  71  74
ENDBRANCH  69  70
ENDBRANCH   1  69
TORSDOF 17
ENDMDL
MODEL 3
REMARK VINA RESULT:     -12.3      2.150      9.274
REMARK SMILES O=C(NCCCNC(=O)[C@H]1CCCN(C(=O)C2CCN(S(=O)(=O)c3ccccc3)CC2)C1)c1ccc(-c2c3nc(c(-c4ccc(S(=O)(=O)[O-])cc4)c4ccc([nH]4)c(-c4ccc(S(=O)(=O)[O-])cc4)c4nc(c(-c5ccc(S(=O)(=O)[O-])cc5)c5ccc2[nH]5)C=C4)C=C3)cc1
REMARK SMILES IDX 5 1 4 2 3 3 1 4 2 5 33 7 34 8 92 9 35 10 91 11 36 12 37 13
REMARK SMILES IDX 38 14 85 15 39 16 90 17 84 18 86 19 40 20 89 21 83 22 82 23
REMARK SMILES IDX 41 25 71 26 52 27 70 28 53 29 56 30 69 31 87 32 54 33 55 34
REMARK SMILES IDX 68 36 88 37 57 38 42 39 43 40 51 41 44 42 50 43 45 44 46 45
REMARK SMILES IDX 47 46 48 47 49 48 72 49 73 50 81 51 74 52 80 53 75 54 76 55
REMARK SMILES IDX 77 56 78 57 79 58 58 59 59 60 67 61 60 62 66 63 61 64 62 65
REMARK SMILES IDX 63 66 64 67 65 68 6 69 7 70 8 71 9 73 10 74 11 75 32 76
REMARK SMILES IDX 12 77 14 78 13 79 15 80 16 81 17 82 18 83 31 84 19 85 30 86
REMARK SMILES IDX 20 87 21 88 22 89 23 90 24 91 25 92 29 93 26 94 28 95 27 96
REMARK H PARENT 3 6 86 24 56 35 7 72
REMARK Flexibility Score: inf
ROOT
ATOM      1  C   UNL A   1      34.090  28.788  27.243  1.00  0.00     0.042 C 
ENDROOT
BRANCH   1   2
ATOM      2  C   UNL A   1      35.415  29.437  27.613  1.00  0.00     0.118 C 
BRANCH   2   3
ATOM      3  N   UNL A   1      35.369  30.099  28.910  1.00  0.00    -0.352 N 
ATOM      4  O   UNL A   1      36.124  30.707  30.942  1.00  0.00    -0.269 OA
ATOM      5  C   UNL A   1      36.380  30.273  29.824  1.00  0.00     0.251 C 
ATOM      6  H   UNL A   1      34.495  30.471  29.167  1.00  0.00     0.163 HD
BRANCH   5   7
ATOM      7  C   UNL A   1      37.762  29.914  29.452  1.00  0.00     0.039 A 
ATOM      8  C   UNL A   1      38.176  29.980  28.118  1.00  0.00     0.014 A 
ATOM      9  C   UNL A   1      38.653  29.510  30.450  1.00  0.00     0.014 A 
ATOM     10  C   UNL A   1      39.439  29.524  27.768  1.00  0.00     0.010 A 
ATOM     11  C   UNL A   1      39.951  29.128  30.103  1.00  0.00     0.010 A 
ATOM     12  C   UNL A   1      40.345  29.112  28.757  1.00  0.00    -0.014 A 
BRANCH  12  13
ATOM     13  C   UNL A   1      41.725  28.750  28.361  1.00  0.00     0.031 A 
ATOM     14  C   UNL A   1      42.835  29.761  28.393  1.00  0.00     0.074 A 
ATOM     15  C   UNL A   1      41.970  27.475  28.003  1.00  0.00     0.049 A 
ATOM     16  N   UNL A   1      44.102  29.594  28.107  1.00  0.00    -0.248 NA
ATOM     17  C   UNL A   1      42.484  31.134  28.788  1.00  0.00     0.031 C 
ATOM     18  C   UNL A   1      40.962  26.412  27.930  1.00  0.00     0.029 A 
ATOM     19  N   UNL A   1      43.139  26.848  27.660  1.00  0.00    -0.354 N 
ATOM     20  C   UNL A   1      44.695  30.841  28.265  1.00  0.00     0.074 A 
ATOM     21  C   UNL A   1      43.647  31.760  28.659  1.00  0.00     0.031 C 
ATOM     22  C   UNL A   1      41.564  25.255  27.618  1.00  0.00     0.029 A 
ATOM     23  C   UNL A   1      42.986  25.505  27.413  1.00  0.00     0.049 A 
ATOM     24  H   UNL A   1      44.003  27.314  27.595  1.00  0.00     0.167 HD
ATOM     25  C   UNL A   1      45.995  31.184  28.097  1.00  0.00     0.031 A 
ATOM     26  C   UNL A   1      43.888  24.573  27.053  1.00  0.00     0.031 A 
ATOM     27  C   UNL A   1      47.031  30.262  27.711  1.00  0.00     0.049 A 
ATOM     28  C   UNL A   1      45.318  24.982  26.872  1.00  0.00     0.074 A 
ATOM     29  C   UNL A   1      48.382  30.508  27.534  1.00  0.00     0.029 A 
ATOM     30  N   UNL A   1      46.832  28.916  27.442  1.00  0.00    -0.354 N 
ATOM     31  N   UNL A   1      45.860  26.165  27.041  1.00  0.00    -0.248 NA
ATOM     32  C   UNL A   1      46.256  23.935  26.450  1.00  0.00     0.031 C 
ATOM     33  C   UNL A   1      48.993  29.317  27.124  1.00  0.00     0.029 A 
ATOM     34  C   UNL A   1      48.031  28.322  27.084  1.00  0.00     0.049 A 
ATOM     35  H   UNL A   1      45.966  28.451  27.497  1.00  0.00     0.167 HD
ATOM     36  C   UNL A   1      47.207  26.004  26.745  1.00  0.00     0.074 A 
ATOM     37  C   UNL A   1      47.399  24.606  26.412  1.00  0.00     0.031 C 
ATOM     38  C   UNL A   1      48.195  26.932  26.742  1.00  0.00     0.031 A 
BRANCH  25  39
ATOM     39  C   UNL A   1      46.365  32.628  28.304  1.00  0.00    -0.014 A 
ATOM     40  C   UNL A   1      46.312  33.551  27.244  1.00  0.00     0.010 A 
ATOM     41  C   UNL A   1      46.730  33.076  29.586  1.00  0.00     0.010 A 
ATOM     42  C   UNL A   1      46.653  34.891  27.457  1.00  0.00     0.020 A 
ATOM     43  C   UNL A   1      47.053  34.418  29.807  1.00  0.00     0.020 A 
ATOM     44  C   UNL A   1      47.029  35.313  28.735  1.00  0.00     0.054 A 
BRANCH  44  45
ATOM     45  S   UNL A   1      47.456  37.059  28.990  1.00  0.00     0.124 S 
ATOM     46  O   UNL A   1      48.723  37.166  28.271  1.00  0.00    -0.237 OA
ATOM     47  O   UNL A   1      46.329  37.761  28.381  1.00  0.00    -0.237 OA
ATOM     48  O   UNL A   1      47.552  37.184  30.443  1.00  0.00    -0.744 OA
ENDBRANCH  44  45
ENDBRANCH  25  39
BRANCH  26  49
ATOM     49  C   UNL A   1      43.445  23.173  26.833  1.00  0.00    -0.014 A 
ATOM     50  C   UNL A   1      43.464  22.612  25.546  1.00  0.00     0.010 A 
ATOM     51  C   UNL A   1      43.051  22.378  27.925  1.00  0.00     0.010 A 
ATOM     52  C   UNL A   1      43.094  21.279  25.352  1.00  0.00     0.020 A 
ATOM     53  C   UNL A   1      42.703  21.039  27.738  1.00  0.00     0.020 A 
ATOM     54  C   UNL A   1      42.718  20.499  26.450  1.00  0.00     0.054 A 
BRANCH  54  55
ATOM     55  S   UNL A   1      42.314  18.749  26.194  1.00  0.00     0.124 S 
ATOM     56  O   UNL A   1      42.537  18.190  27.523  1.00  0.00    -0.237 OA
ATOM     57  O   UNL A   1      40.922  18.802  25.754  1.00  0.00    -0.237 OA
ATOM     58  O   UNL A   1      43.266  18.330  25.167  1.00  0.00    -0.744 OA
ENDBRANCH  54  55
ENDBRANCH  26  49
BRANCH  38  59
ATOM     59  C   UNL A   1      49.569  26.455  26.371  1.00  0.00    -0.014 A 
ATOM     60  C   UNL A   1      50.044  26.585  25.055  1.00  0.00     0.010 A 
ATOM     61  C   UNL A   1      50.404  25.897  27.355  1.00  0.00     0.010 A 
ATOM     62  C   UNL A   1      51.323  26.134  24.720  1.00  0.00     0.020 A 
ATOM     63  C   UNL A   1      51.690  25.462  27.027  1.00  0.00     0.020 A 
ATOM     64  C   UNL A   1      52.136  25.570  25.708  1.00  0.00     0.054 A 
BRANCH  64  65
ATOM     65  S   UNL A   1      53.804  25.016  25.260  1.00  0.00     0.124 S 
ATOM     66  O   UNL A   1      53.619  23.575  25.122  1.00  0.00    -0.237 OA
ATOM     67  O   UNL A   1      54.063  25.740  24.018  1.00  0.00    -0.237 OA
ATOM     68  O   UNL A   1      54.621  25.436  26.398  1.00  0.00    -0.744 OA
ENDBRANCH  64  65
ENDBRANCH  38  59
ENDBRANCH  12  13
ENDBRANCH   5   7
ENDBRANCH   2   3
ENDBRANCH   1   2
BRANCH   1  69
ATOM     69  C   UNL A   1      33.186  29.703  26.432  1.00  0.00     0.117 C 
BRANCH  69  70
ATOM     70  N   UNL A   1      33.539  29.684  25.021  1.00  0.00    -0.356 N 
ATOM     71  C   UNL A   1      32.982  28.950  24.010  1.00  0.00     0.224 C 
ATOM     72  H   UNL A   1      34.278  30.280  24.759  1.00  0.00     0.163 HD
ATOM     73  O   UNL A   1      33.513  28.956  22.902  1.00  0.00    -0.275 OA
BRANCH  71  74
ATOM     74  C   UNL A   1      31.667  28.256  24.288  1.00  0.00     0.098 C 
ATOM     75  C   UNL A   1      30.721  28.610  23.128  1.00  0.00     0.017 C 
ATOM     76  C   UNL A   1      31.823  26.732  24.419  1.00  0.00     0.133 C 
ATOM     77  C   UNL A   1      29.402  27.886  23.291  1.00  0.00     0.022 C 
ATOM     78  N   UNL A   1      30.496  26.084  24.528  1.00  0.00    -0.342 N 
ATOM     79  C   UNL A   1      29.638  26.382  23.399  1.00  0.00     0.119 C 
BRANCH  78  80
ATOM     80  C   UNL A   1      30.213  25.270  25.609  1.00  0.00     0.225 C 
ATOM     81  O   UNL A   1      29.581  25.736  26.567  1.00  0.00    -0.275 OA
BRANCH  80  82
ATOM     82  C   UNL A   1      30.581  23.761  25.697  1.00  0.00     0.081 C 
ATOM     83  C   UNL A   1      31.387  23.237  26.874  1.00  0.00     0.030 C 
ATOM     84  C   UNL A   1      31.006  23.095  24.403  1.00  0.00     0.030 C 
ATOM     85  C   UNL A   1      32.856  22.882  26.656  1.00  0.00     0.103 C 
ATOM     86  C   UNL A   1      32.493  23.162  24.147  1.00  0.00     0.103 C 
ATOM     87  N   UNL A   1      33.349  22.672  25.247  1.00  0.00    -0.198 NA
BRANCH  87  88
ATOM     88  S   UNL A   1      35.041  23.100  25.173  1.00  0.00     0.243 S 
ATOM     89  O   UNL A   1      35.227  23.932  23.996  1.00  0.00    -0.207 OA
ATOM     90  O   UNL A   1      35.378  23.627  26.475  1.00  0.00    -0.207 OA
BRANCH  88  91
ATOM     91  C   UNL A   1      36.040  21.653  24.883  1.00  0.00     0.082 A 
ATOM     92  C   UNL A   1      35.411  20.403  24.850  1.00  0.00     0.022 A 
ATOM     93  C   UNL A   1      37.437  21.717  24.970  1.00  0.00     0.022 A 
ATOM     94  C   UNL A   1      36.180  19.236  24.876  1.00  0.00     0.001 A 
ATOM     95  C   UNL A   1      38.201  20.550  24.951  1.00  0.00     0.001 A 
ATOM     96  C   UNL A   1      37.572  19.309  24.913  1.00  0.00     0.000 A 
ENDBRANCH  88  91
ENDBRANCH  87  88
ENDBRANCH  80  82
ENDBRANCH  78  80
ENDBRANCH  71  74
ENDBRANCH  69  70
ENDBRANCH   1  69
TORSDOF 17
ENDMDL
