MODEL 1
REMARK VINA RESULT:     -11.5      0.000      0.000
REMARK SMILES C[C@H](C(=O)NCCCNC(=O)c1ccc(-c2c3nc(c(-c4ccc(S(=O)(=O)[O-])cc4)c4ccc([nH]4)c(-c4ccc(S(=O)(=O)[O-])cc4)c4nc(c(-c5ccc(S(=O)(=O)[O-])cc5)c5ccc2[nH]5)C=C4)C=C3)cc1)c1ccc2c(c1)OCCO2
REMARK SMILES IDX 8 1 7 2 6 3 5 4 3 5 4 6 2 8 1 9 72 10 73 11 77 12 74 13
REMARK SMILES IDX 76 14 75 15 78 16 81 17 79 18 80 19 9 20 10 21 11 23 12 24
REMARK SMILES IDX 13 25 71 26 14 27 70 28 15 29 16 30 17 31 64 32 18 33 69 34
REMARK SMILES IDX 63 35 65 36 19 37 68 38 62 39 61 40 20 42 50 43 31 44 49 45
REMARK SMILES IDX 32 46 35 47 48 48 66 49 33 50 34 51 47 53 67 54 36 55 21 56
REMARK SMILES IDX 22 57 30 58 23 59 29 60 24 61 25 62 26 63 27 64 28 65 51 66
REMARK SMILES IDX 52 67 60 68 53 69 59 70 54 71 55 72 56 73 57 74 58 75 37 76
REMARK SMILES IDX 38 77 46 78 39 79 45 80 40 81 41 82 42 83 43 84 44 85
REMARK H PARENT 5 7 9 22 65 41 35 52
REMARK Flexibility Score: inf
ROOT
ATOM      1  C   UNL A   1      34.366  28.447  26.078  1.00  0.00     0.118 C 
ENDROOT
BRANCH   1   2
ATOM      2  C   UNL A   1      33.341  27.348  26.321  1.00  0.00     0.042 C 
BRANCH   2   3
ATOM      3  C   UNL A   1      31.921  27.855  26.575  1.00  0.00     0.117 C 
BRANCH   3   4
ATOM      4  N   UNL A   1      30.997  26.760  26.835  1.00  0.00    -0.356 N 
ATOM      5  C   UNL A   1      30.271  25.966  25.989  1.00  0.00     0.227 C 
ATOM      6  O   UNL A   1      29.478  25.179  26.513  1.00  0.00    -0.274 OA
ATOM      7  H   UNL A   1      30.873  26.553  27.789  1.00  0.00     0.163 HD
BRANCH   5   8
ATOM      8  C   UNL A   1      30.506  25.991  24.468  1.00  0.00     0.105 C 
ATOM      9  C   UNL A   1      30.627  24.591  23.872  1.00  0.00     0.023 C 
BRANCH   8  10
ATOM     10  C   UNL A   1      29.495  26.822  23.696  1.00  0.00    -0.032 A 
ATOM     11  C   UNL A   1      28.113  26.712  23.919  1.00  0.00     0.008 A 
ATOM     12  C   UNL A   1      29.985  27.861  22.893  1.00  0.00     0.055 A 
ATOM     13  C   UNL A   1      27.267  27.762  23.554  1.00  0.00     0.051 A 
ATOM     14  C   UNL A   1      29.165  28.941  22.614  1.00  0.00     0.161 A 
ATOM     15  C   UNL A   1      27.827  28.914  23.012  1.00  0.00     0.161 A 
ATOM     16  O   UNL A   1      29.788  30.054  22.117  1.00  0.00    -0.486 OA
ATOM     17  O   UNL A   1      27.082  30.066  23.049  1.00  0.00    -0.486 OA
ATOM     18  C   UNL A   1      29.062  31.268  22.359  1.00  0.00     0.271 C 
ATOM     19  C   UNL A   1      27.978  31.125  23.418  1.00  0.00     0.271 C 
ENDBRANCH   8  10
ENDBRANCH   5   8
ENDBRANCH   3   4
ENDBRANCH   2   3
ENDBRANCH   1   2
BRANCH   1  20
ATOM     20  N   UNL A   1      33.953  29.725  26.642  1.00  0.00    -0.352 N 
ATOM     21  C   UNL A   1      34.551  30.486  27.618  1.00  0.00     0.251 C 
ATOM     22  H   UNL A   1      33.123  30.100  26.269  1.00  0.00     0.163 HD
ATOM     23  O   UNL A   1      33.937  31.431  28.112  1.00  0.00    -0.269 OA
BRANCH  21  24
ATOM     24  C   UNL A   1      35.916  30.161  28.092  1.00  0.00     0.039 A 
ATOM     25  C   UNL A   1      36.092  29.635  29.376  1.00  0.00     0.014 A 
ATOM     26  C   UNL A   1      37.024  30.378  27.272  1.00  0.00     0.014 A 
ATOM     27  C   UNL A   1      37.368  29.252  29.805  1.00  0.00     0.010 A 
ATOM     28  C   UNL A   1      38.275  29.915  27.662  1.00  0.00     0.010 A 
ATOM     29  C   UNL A   1      38.464  29.351  28.935  1.00  0.00    -0.014 A 
BRANCH  29  30
ATOM     30  C   UNL A   1      39.829  28.895  29.309  1.00  0.00     0.031 A 
ATOM     31  C   UNL A   1      40.797  29.877  29.911  1.00  0.00     0.074 A 
ATOM     32  C   UNL A   1      40.239  27.652  28.994  1.00  0.00     0.049 A 
ATOM     33  N   UNL A   1      42.081  29.750  30.123  1.00  0.00    -0.248 NA
ATOM     34  C   UNL A   1      40.252  31.192  30.285  1.00  0.00     0.031 C 
ATOM     35  C   UNL A   1      39.408  26.612  28.385  1.00  0.00     0.029 A 
ATOM     36  N   UNL A   1      41.474  27.062  29.113  1.00  0.00    -0.354 N 
ATOM     37  C   UNL A   1      42.503  30.979  30.617  1.00  0.00     0.074 A 
ATOM     38  C   UNL A   1      41.348  31.849  30.627  1.00  0.00     0.031 C 
ATOM     39  C   UNL A   1      40.155  25.515  28.183  1.00  0.00     0.029 A 
ATOM     40  C   UNL A   1      41.528  25.789  28.594  1.00  0.00     0.049 A 
ATOM     41  H   UNL A   1      42.247  27.508  29.530  1.00  0.00     0.167 HD
ATOM     42  C   UNL A   1      43.739  31.347  31.036  1.00  0.00     0.031 A 
ATOM     43  C   UNL A   1      42.569  24.947  28.434  1.00  0.00     0.031 A 
ATOM     44  C   UNL A   1      44.882  30.475  31.022  1.00  0.00     0.049 A 
ATOM     45  C   UNL A   1      43.938  25.374  28.888  1.00  0.00     0.074 A 
ATOM     46  C   UNL A   1      46.165  30.730  31.472  1.00  0.00     0.029 A 
ATOM     47  N   UNL A   1      44.882  29.179  30.525  1.00  0.00    -0.354 N 
ATOM     48  N   UNL A   1      44.311  26.521  29.403  1.00  0.00    -0.248 NA
ATOM     49  C   UNL A   1      45.024  24.393  28.750  1.00  0.00     0.031 C 
ATOM     50  C   UNL A   1      46.955  29.611  31.191  1.00  0.00     0.029 A 
ATOM     51  C   UNL A   1      46.147  28.630  30.635  1.00  0.00     0.049 A 
ATOM     52  H   UNL A   1      44.098  28.718  30.149  1.00  0.00     0.167 HD
ATOM     53  C   UNL A   1      45.667  26.389  29.684  1.00  0.00     0.074 A 
ATOM     54  C   UNL A   1      46.048  25.051  29.279  1.00  0.00     0.031 C 
ATOM     55  C   UNL A   1      46.513  27.292  30.237  1.00  0.00     0.031 A 
BRANCH  42  56
ATOM     56  C   UNL A   1      43.911  32.769  31.510  1.00  0.00    -0.014 A 
ATOM     57  C   UNL A   1      43.584  33.149  32.825  1.00  0.00     0.010 A 
ATOM     58  C   UNL A   1      44.397  33.745  30.620  1.00  0.00     0.010 A 
ATOM     59  C   UNL A   1      43.663  34.488  33.216  1.00  0.00     0.020 A 
ATOM     60  C   UNL A   1      44.515  35.080  31.020  1.00  0.00     0.020 A 
ATOM     61  C   UNL A   1      44.117  35.446  32.307  1.00  0.00     0.054 A 
BRANCH  61  62
ATOM     62  S   UNL A   1      44.178  37.182  32.830  1.00  0.00     0.124 S 
ATOM     63  O   UNL A   1      43.841  37.879  31.591  1.00  0.00    -0.237 OA
ATOM     64  O   UNL A   1      43.160  37.237  33.876  1.00  0.00    -0.237 OA
ATOM     65  O   UNL A   1      45.553  37.359  33.291  1.00  0.00    -0.744 OA
ENDBRANCH  61  62
ENDBRANCH  42  56
BRANCH  43  66
ATOM     66  C   UNL A   1      42.336  23.611  27.819  1.00  0.00    -0.014 A 
ATOM     67  C   UNL A   1      42.555  23.410  26.445  1.00  0.00     0.010 A 
ATOM     68  C   UNL A   1      41.964  22.514  28.619  1.00  0.00     0.010 A 
ATOM     69  C   UNL A   1      42.415  22.136  25.885  1.00  0.00     0.020 A 
ATOM     70  C   UNL A   1      41.849  21.235  28.068  1.00  0.00     0.020 A 
ATOM     71  C   UNL A   1      42.075  21.054  26.703  1.00  0.00     0.054 A 
BRANCH  71  72
ATOM     72  S   UNL A   1      42.002  19.395  25.969  1.00  0.00     0.124 S 
ATOM     73  O   UNL A   1      42.863  19.542  24.800  1.00  0.00    -0.237 OA
ATOM     74  O   UNL A   1      42.529  18.555  27.042  1.00  0.00    -0.237 OA
ATOM     75  O   UNL A   1      40.582  19.209  25.684  1.00  0.00    -0.744 OA
ENDBRANCH  71  72
ENDBRANCH  43  66
BRANCH  55  76
ATOM     76  C   UNL A   1      47.933  26.863  30.501  1.00  0.00    -0.014 A 
ATOM     77  C   UNL A   1      48.967  27.134  29.588  1.00  0.00     0.010 A 
ATOM     78  C   UNL A   1      48.250  26.281  31.743  1.00  0.00     0.010 A 
ATOM     79  C   UNL A   1      50.292  26.828  29.913  1.00  0.00     0.020 A 
ATOM     80  C   UNL A   1      49.575  25.999  32.083  1.00  0.00     0.020 A 
ATOM     81  C   UNL A   1      50.588  26.272  31.163  1.00  0.00     0.054 A 
BRANCH  81  82
ATOM     82  S   UNL A   1      52.324  25.973  31.597  1.00  0.00     0.124 S 
ATOM     83  O   UNL A   1      52.538  26.930  32.679  1.00  0.00    -0.237 OA
ATOM     84  O   UNL A   1      52.316  24.567  31.993  1.00  0.00    -0.237 OA
ATOM     85  O   UNL A   1      53.046  26.261  30.360  1.00  0.00    -0.744 OA
ENDBRANCH  81  82
ENDBRANCH  55  76
ENDBRANCH  29  30
ENDBRANCH  21  24
ENDBRANCH   1  20
TORSDOF 14
ENDMDL
MODEL 2
REMARK VINA RESULT:     -11.4      3.271      6.471
REMARK SMILES C[C@H](C(=O)NCCCNC(=O)c1ccc(-c2c3nc(c(-c4ccc(S(=O)(=O)[O-])cc4)c4ccc([nH]4)c(-c4ccc(S(=O)(=O)[O-])cc4)c4nc(c(-c5ccc(S(=O)(=O)[O-])cc5)c5ccc2[nH]5)C=C4)C=C3)cc1)c1ccc2c(c1)OCCO2
REMARK SMILES IDX 8 1 7 2 6 3 5 4 3 5 4 6 2 8 1 9 72 10 73 11 77 12 74 13
REMARK SMILES IDX 76 14 75 15 78 16 81 17 79 18 80 19 9 20 10 21 11 23 12 24
REMARK SMILES IDX 13 25 71 26 14 27 70 28 15 29 16 30 17 31 64 32 18 33 69 34
REMARK SMILES IDX 63 35 65 36 19 37 68 38 62 39 61 40 20 42 50 43 31 44 49 45
REMARK SMILES IDX 32 46 35 47 48 48 66 49 33 50 34 51 47 53 67 54 36 55 21 56
REMARK SMILES IDX 22 57 30 58 23 59 29 60 24 61 25 62 26 63 27 64 28 65 51 66
REMARK SMILES IDX 52 67 60 68 53 69 59 70 54 71 55 72 56 73 57 74 58 75 37 76
REMARK SMILES IDX 38 77 46 78 39 79 45 80 40 81 41 82 42 83 43 84 44 85
REMARK H PARENT 5 7 9 22 65 41 35 52
REMARK Flexibility Score: inf
ROOT
ATOM      1  C   UNL A   1      34.649  32.758  28.043  1.00  0.00     0.118 C 
ENDROOT
BRANCH   1   2
ATOM      2  C   UNL A   1      34.574  33.245  29.483  1.00  0.00     0.042 C 
BRANCH   2   3
ATOM      3  C   UNL A   1      34.139  34.703  29.634  1.00  0.00     0.117 C 
BRANCH   3   4
ATOM      4  N   UNL A   1      33.065  34.845  30.608  1.00  0.00    -0.356 N 
ATOM      5  C   UNL A   1      33.076  35.248  31.916  1.00  0.00     0.227 C 
ATOM      6  O   UNL A   1      32.009  35.163  32.530  1.00  0.00    -0.274 OA
ATOM      7  H   UNL A   1      32.174  34.609  30.266  1.00  0.00     0.163 HD
BRANCH   5   8
ATOM      8  C   UNL A   1      34.333  35.866  32.553  1.00  0.00     0.105 C 
ATOM      9  C   UNL A   1      34.000  36.833  33.686  1.00  0.00     0.023 C 
BRANCH   8  10
ATOM     10  C   UNL A   1      35.370  34.849  32.998  1.00  0.00    -0.032 A 
ATOM     11  C   UNL A   1      36.567  34.645  32.292  1.00  0.00     0.008 A 
ATOM     12  C   UNL A   1      35.200  34.255  34.257  1.00  0.00     0.055 A 
ATOM     13  C   UNL A   1      37.662  34.070  32.939  1.00  0.00     0.051 A 
ATOM     14  C   UNL A   1      36.309  33.770  34.928  1.00  0.00     0.161 A 
ATOM     15  C   UNL A   1      37.550  33.749  34.288  1.00  0.00     0.161 A 
ATOM     16  O   UNL A   1      36.138  33.511  36.261  1.00  0.00    -0.486 OA
ATOM     17  O   UNL A   1      38.709  33.590  35.007  1.00  0.00    -0.486 OA
ATOM     18  C   UNL A   1      37.359  33.555  37.012  1.00  0.00     0.271 C 
ATOM     19  C   UNL A   1      38.502  34.237  36.272  1.00  0.00     0.271 C 
ENDBRANCH   8  10
ENDBRANCH   5   8
ENDBRANCH   3   4
ENDBRANCH   2   3
ENDBRANCH   1   2
BRANCH   1  20
ATOM     20  N   UNL A   1      33.955  31.492  27.849  1.00  0.00    -0.352 N 
ATOM     21  C   UNL A   1      34.459  30.214  27.810  1.00  0.00     0.251 C 
ATOM     22  H   UNL A   1      32.981  31.562  27.729  1.00  0.00     0.163 HD
ATOM     23  O   UNL A   1      33.743  29.291  27.421  1.00  0.00    -0.269 OA
BRANCH  21  24
ATOM     24  C   UNL A   1      35.859  29.946  28.208  1.00  0.00     0.039 A 
ATOM     25  C   UNL A   1      36.140  29.555  29.522  1.00  0.00     0.014 A 
ATOM     26  C   UNL A   1      36.899  30.085  27.287  1.00  0.00     0.014 A 
ATOM     27  C   UNL A   1      37.449  29.225  29.887  1.00  0.00     0.010 A 
ATOM     28  C   UNL A   1      38.182  29.671  27.626  1.00  0.00     0.010 A 
ATOM     29  C   UNL A   1      38.475  29.241  28.930  1.00  0.00    -0.014 A 
BRANCH  29  30
ATOM     30  C   UNL A   1      39.870  28.833  29.243  1.00  0.00     0.031 A 
ATOM     31  C   UNL A   1      40.837  29.855  29.778  1.00  0.00     0.074 A 
ATOM     32  C   UNL A   1      40.302  27.597  28.929  1.00  0.00     0.049 A 
ATOM     33  N   UNL A   1      42.133  29.770  29.926  1.00  0.00    -0.248 NA
ATOM     34  C   UNL A   1      40.270  31.160  30.157  1.00  0.00     0.031 C 
ATOM     35  C   UNL A   1      39.474  26.522  28.380  1.00  0.00     0.029 A 
ATOM     36  N   UNL A   1      41.559  27.047  28.994  1.00  0.00    -0.354 N 
ATOM     37  C   UNL A   1      42.541  31.020  30.378  1.00  0.00     0.074 A 
ATOM     38  C   UNL A   1      41.361  31.856  30.432  1.00  0.00     0.031 C 
ATOM     39  C   UNL A   1      40.244  25.445  28.159  1.00  0.00     0.029 A 
ATOM     40  C   UNL A   1      41.626  25.767  28.495  1.00  0.00     0.049 A 
ATOM     41  H   UNL A   1      42.338  27.523  29.364  1.00  0.00     0.167 HD
ATOM     42  C   UNL A   1      43.784  31.433  30.727  1.00  0.00     0.031 A 
ATOM     43  C   UNL A   1      42.684  24.954  28.297  1.00  0.00     0.031 A 
ATOM     44  C   UNL A   1      44.951  30.596  30.670  1.00  0.00     0.049 A 
ATOM     45  C   UNL A   1      44.060  25.430  28.674  1.00  0.00     0.074 A 
ATOM     46  C   UNL A   1      46.247  30.897  31.050  1.00  0.00     0.029 A 
ATOM     47  N   UNL A   1      44.967  29.291  30.196  1.00  0.00    -0.354 N 
ATOM     48  N   UNL A   1      44.423  26.597  29.150  1.00  0.00    -0.248 NA
ATOM     49  C   UNL A   1      45.168  24.480  28.498  1.00  0.00     0.031 C 
ATOM     50  C   UNL A   1      47.056  29.798  30.749  1.00  0.00     0.029 A 
ATOM     51  C   UNL A   1      46.252  28.783  30.252  1.00  0.00     0.049 A 
ATOM     52  H   UNL A   1      44.179  28.800  29.868  1.00  0.00     0.167 HD
ATOM     53  C   UNL A   1      45.794  26.511  29.364  1.00  0.00     0.074 A 
ATOM     54  C   UNL A   1      46.196  25.178  28.963  1.00  0.00     0.031 C 
ATOM     55  C   UNL A   1      46.639  27.449  29.858  1.00  0.00     0.031 A 
BRANCH  42  56
ATOM     56  C   UNL A   1      43.936  32.868  31.168  1.00  0.00    -0.014 A 
ATOM     57  C   UNL A   1      43.962  33.218  32.531  1.00  0.00     0.010 A 
ATOM     58  C   UNL A   1      44.042  33.886  30.201  1.00  0.00     0.010 A 
ATOM     59  C   UNL A   1      44.010  34.561  32.917  1.00  0.00     0.020 A 
ATOM     60  C   UNL A   1      44.129  35.227  30.584  1.00  0.00     0.020 A 
ATOM     61  C   UNL A   1      44.082  35.557  31.940  1.00  0.00     0.054 A 
BRANCH  61  62
ATOM     62  S   UNL A   1      44.109  37.292  32.467  1.00  0.00     0.124 S 
ATOM     63  O   UNL A   1      45.453  37.413  33.027  1.00  0.00    -0.237 OA
ATOM     64  O   UNL A   1      43.884  38.011  31.216  1.00  0.00    -0.237 OA
ATOM     65  O   UNL A   1      43.020  37.378  33.437  1.00  0.00    -0.744 OA
ENDBRANCH  61  62
ENDBRANCH  42  56
BRANCH  43  66
ATOM     66  C   UNL A   1      42.462  23.600  27.717  1.00  0.00    -0.014 A 
ATOM     67  C   UNL A   1      42.650  23.373  26.343  1.00  0.00     0.010 A 
ATOM     68  C   UNL A   1      42.131  22.514  28.551  1.00  0.00     0.010 A 
ATOM     69  C   UNL A   1      42.521  22.084  25.815  1.00  0.00     0.020 A 
ATOM     70  C   UNL A   1      42.029  21.222  28.031  1.00  0.00     0.020 A 
ATOM     71  C   UNL A   1      42.223  21.014  26.664  1.00  0.00     0.054 A 
BRANCH  71  72
ATOM     72  S   UNL A   1      42.165  19.339  25.969  1.00  0.00     0.124 S 
ATOM     73  O   UNL A   1      43.020  19.468  24.793  1.00  0.00    -0.237 OA
ATOM     74  O   UNL A   1      42.704  18.529  27.059  1.00  0.00    -0.237 OA
ATOM     75  O   UNL A   1      40.745  19.131  25.693  1.00  0.00    -0.744 OA
ENDBRANCH  71  72
ENDBRANCH  43  66
BRANCH  55  76
ATOM     76  C   UNL A   1      48.083  27.069  30.057  1.00  0.00    -0.014 A 
ATOM     77  C   UNL A   1      49.051  27.305  29.066  1.00  0.00     0.010 A 
ATOM     78  C   UNL A   1      48.491  26.571  31.310  1.00  0.00     0.010 A 
ATOM     79  C   UNL A   1      50.401  27.048  29.325  1.00  0.00     0.020 A 
ATOM     80  C   UNL A   1      49.841  26.339  31.581  1.00  0.00     0.020 A 
ATOM     81  C   UNL A   1      50.788  26.577  30.585  1.00  0.00     0.054 A 
BRANCH  81  82
ATOM     82  S   UNL A   1      52.555  26.343  30.925  1.00  0.00     0.124 S 
ATOM     83  O   UNL A   1      53.107  26.189  29.583  1.00  0.00    -0.237 OA
ATOM     84  O   UNL A   1      52.913  27.580  31.615  1.00  0.00    -0.237 OA
ATOM     85  O   UNL A   1      52.592  25.141  31.755  1.00  0.00    -0.744 OA
ENDBRANCH  81  82
ENDBRANCH  55  76
ENDBRANCH  29  30
ENDBRANCH  21  24
ENDBRANCH   1  20
TORSDOF 14
ENDMDL
MODEL 3
REMARK VINA RESULT:     -11.3      3.314      6.438
REMARK SMILES C[C@H](C(=O)NCCCNC(=O)c1ccc(-c2c3nc(c(-c4ccc(S(=O)(=O)[O-])cc4)c4ccc([nH]4)c(-c4ccc(S(=O)(=O)[O-])cc4)c4nc(c(-c5ccc(S(=O)(=O)[O-])cc5)c5ccc2[nH]5)C=C4)C=C3)cc1)c1ccc2c(c1)OCCO2
REMARK SMILES IDX 8 1 7 2 6 3 5 4 3 5 4 6 2 8 1 9 72 10 73 11 77 12 74 13
REMARK SMILES IDX 76 14 75 15 78 16 81 17 79 18 80 19 9 20 10 21 11 23 12 24
REMARK SMILES IDX 13 25 71 26 14 27 70 28 15 29 16 30 17 31 64 32 18 33 69 34
REMARK SMILES IDX 63 35 65 36 19 37 68 38 62 39 61 40 20 42 50 43 31 44 49 45
REMARK SMILES IDX 32 46 35 47 48 48 66 49 33 50 34 51 47 53 67 54 36 55 21 56
REMARK SMILES IDX 22 57 30 58 23 59 29 60 24 61 25 62 26 63 27 64 28 65 51 66
REMARK SMILES IDX 52 67 60 68 53 69 59 70 54 71 55 72 56 73 57 74 58 75 37 76
REMARK SMILES IDX 38 77 46 78 39 79 45 80 40 81 41 82 42 83 43 84 44 85
REMARK H PARENT 5 7 9 22 65 41 35 52
REMARK Flexibility Score: inf
ROOT
ATOM      1  C   UNL A   1      34.651  32.571  28.207  1.00  0.00     0.118 C 
ENDROOT
BRANCH   1   2
ATOM      2  C   UNL A   1      34.539  33.041  29.651  1.00  0.00     0.042 C 
BRANCH   2   3
ATOM      3  C   UNL A   1      34.925  34.503  29.870  1.00  0.00     0.117 C 
BRANCH   3   4
ATOM      4  N   UNL A   1      35.148  34.795  31.279  1.00  0.00    -0.356 N 
ATOM      5  C   UNL A   1      36.086  34.334  32.163  1.00  0.00     0.227 C 
ATOM      6  O   UNL A   1      35.956  34.684  33.339  1.00  0.00    -0.274 OA
ATOM      7  H   UNL A   1      34.511  35.439  31.664  1.00  0.00     0.163 HD
BRANCH   5   8
ATOM      8  C   UNL A   1      37.291  33.503  31.690  1.00  0.00     0.105 C 
ATOM      9  C   UNL A   1      38.469  34.374  31.260  1.00  0.00     0.023 C 
BRANCH   8  10
ATOM     10  C   UNL A   1      37.738  32.439  32.678  1.00  0.00    -0.032 A 
ATOM     11  C   UNL A   1      37.003  31.260  32.887  1.00  0.00     0.008 A 
ATOM     12  C   UNL A   1      39.020  32.562  33.232  1.00  0.00     0.055 A 
ATOM     13  C   UNL A   1      37.636  30.137  33.424  1.00  0.00     0.051 A 
ATOM     14  C   UNL A   1      39.673  31.426  33.678  1.00  0.00     0.161 A 
ATOM     15  C   UNL A   1      38.997  30.205  33.702  1.00  0.00     0.161 A 
ATOM     16  O   UNL A   1      41.018  31.554  33.896  1.00  0.00    -0.486 OA
ATOM     17  O   UNL A   1      39.686  29.023  33.821  1.00  0.00    -0.486 OA
ATOM     18  C   UNL A   1      41.730  30.312  33.809  1.00  0.00     0.271 C 
ATOM     19  C   UNL A   1      40.934  29.202  33.135  1.00  0.00     0.271 C 
ENDBRANCH   8  10
ENDBRANCH   5   8
ENDBRANCH   3   4
ENDBRANCH   2   3
ENDBRANCH   1   2
BRANCH   1  20
ATOM     20  N   UNL A   1      33.986  31.294  27.986  1.00  0.00    -0.352 N 
ATOM     21  C   UNL A   1      34.522  30.032  27.893  1.00  0.00     0.251 C 
ATOM     22  H   UNL A   1      33.008  31.341  27.889  1.00  0.00     0.163 HD
ATOM     23  O   UNL A   1      33.822  29.103  27.489  1.00  0.00    -0.269 OA
BRANCH  21  24
ATOM     24  C   UNL A   1      35.939  29.789  28.251  1.00  0.00     0.039 A 
ATOM     25  C   UNL A   1      36.262  29.391  29.553  1.00  0.00     0.014 A 
ATOM     26  C   UNL A   1      36.950  29.958  27.305  1.00  0.00     0.014 A 
ATOM     27  C   UNL A   1      37.587  29.084  29.880  1.00  0.00     0.010 A 
ATOM     28  C   UNL A   1      38.250  29.567  27.605  1.00  0.00     0.010 A 
ATOM     29  C   UNL A   1      38.586  29.131  28.896  1.00  0.00    -0.014 A 
BRANCH  29  30
ATOM     30  C   UNL A   1      39.997  28.749  29.168  1.00  0.00     0.031 A 
ATOM     31  C   UNL A   1      40.963  29.791  29.663  1.00  0.00     0.074 A 
ATOM     32  C   UNL A   1      40.440  27.518  28.850  1.00  0.00     0.049 A 
ATOM     33  N   UNL A   1      42.265  29.729  29.771  1.00  0.00    -0.248 NA
ATOM     34  C   UNL A   1      40.387  31.090  30.050  1.00  0.00     0.031 C 
ATOM     35  C   UNL A   1      39.613  26.424  28.337  1.00  0.00     0.029 A 
ATOM     36  N   UNL A   1      41.707  26.988  28.881  1.00  0.00    -0.354 N 
ATOM     37  C   UNL A   1      42.666  30.990  30.200  1.00  0.00     0.074 A 
ATOM     38  C   UNL A   1      41.474  31.806  30.284  1.00  0.00     0.031 C 
ATOM     39  C   UNL A   1      40.393  25.357  28.100  1.00  0.00     0.029 A 
ATOM     40  C   UNL A   1      41.780  25.706  28.390  1.00  0.00     0.049 A 
ATOM     41  H   UNL A   1      42.489  27.481  29.221  1.00  0.00     0.167 HD
ATOM     42  C   UNL A   1      43.912  31.426  30.506  1.00  0.00     0.031 A 
ATOM     43  C   UNL A   1      42.844  24.908  28.165  1.00  0.00     0.031 A 
ATOM     44  C   UNL A   1      45.091  30.607  30.418  1.00  0.00     0.049 A 
ATOM     45  C   UNL A   1      44.223  25.410  28.494  1.00  0.00     0.074 A 
ATOM     46  C   UNL A   1      46.392  30.934  30.755  1.00  0.00     0.029 A 
ATOM     47  N   UNL A   1      45.113  29.299  29.955  1.00  0.00    -0.354 N 
ATOM     48  N   UNL A   1      44.581  26.587  28.949  1.00  0.00    -0.248 NA
ATOM     49  C   UNL A   1      45.340  24.477  28.290  1.00  0.00     0.031 C 
ATOM     50  C   UNL A   1      47.210  29.845  30.436  1.00  0.00     0.029 A 
ATOM     51  C   UNL A   1      46.408  28.812  29.974  1.00  0.00     0.049 A 
ATOM     52  H   UNL A   1      44.324  28.792  29.656  1.00  0.00     0.167 HD
ATOM     53  C   UNL A   1      45.960  26.526  29.120  1.00  0.00     0.074 A 
ATOM     54  C   UNL A   1      46.371  25.195  28.717  1.00  0.00     0.031 C 
ATOM     55  C   UNL A   1      46.804  27.482  29.579  1.00  0.00     0.031 A 
BRANCH  42  56
ATOM     56  C   UNL A   1      44.054  32.867  30.929  1.00  0.00    -0.014 A 
ATOM     57  C   UNL A   1      43.911  33.254  32.275  1.00  0.00     0.010 A 
ATOM     58  C   UNL A   1      44.322  33.854  29.962  1.00  0.00     0.010 A 
ATOM     59  C   UNL A   1      43.954  34.604  32.633  1.00  0.00     0.020 A 
ATOM     60  C   UNL A   1      44.405  35.202  30.322  1.00  0.00     0.020 A 
ATOM     61  C   UNL A   1      44.189  35.570  31.651  1.00  0.00     0.054 A 
BRANCH  61  62
ATOM     62  S   UNL A   1      44.206  37.317  32.137  1.00  0.00     0.124 S 
ATOM     63  O   UNL A   1      45.628  37.546  32.380  1.00  0.00    -0.237 OA
ATOM     64  O   UNL A   1      43.656  37.983  30.959  1.00  0.00    -0.237 OA
ATOM     65  O   UNL A   1      43.357  37.357  33.326  1.00  0.00    -0.744 OA
ENDBRANCH  61  62
ENDBRANCH  42  56
BRANCH  43  66
ATOM     66  C   UNL A   1      42.626  23.546  27.604  1.00  0.00    -0.014 A 
ATOM     67  C   UNL A   1      42.865  23.288  26.243  1.00  0.00     0.010 A 
ATOM     68  C   UNL A   1      42.249  22.482  28.445  1.00  0.00     0.010 A 
ATOM     69  C   UNL A   1      42.739  21.991  25.736  1.00  0.00     0.020 A 
ATOM     70  C   UNL A   1      42.149  21.180  27.947  1.00  0.00     0.020 A 
ATOM     71  C   UNL A   1      42.394  20.943  26.594  1.00  0.00     0.054 A 
BRANCH  71  72
ATOM     72  S   UNL A   1      42.339  19.254  25.930  1.00  0.00     0.124 S 
ATOM     73  O   UNL A   1      43.180  19.367  24.742  1.00  0.00    -0.237 OA
ATOM     74  O   UNL A   1      42.897  18.468  27.028  1.00  0.00    -0.237 OA
ATOM     75  O   UNL A   1      40.919  19.032  25.674  1.00  0.00    -0.744 OA
ENDBRANCH  71  72
ENDBRANCH  43  66
BRANCH  55  76
ATOM     76  C   UNL A   1      48.260  27.127  29.735  1.00  0.00    -0.014 A 
ATOM     77  C   UNL A   1      49.205  27.439  28.743  1.00  0.00     0.010 A 
ATOM     78  C   UNL A   1      48.700  26.573  30.953  1.00  0.00     0.010 A 
ATOM     79  C   UNL A   1      50.565  27.202  28.967  1.00  0.00     0.020 A 
ATOM     80  C   UNL A   1      50.060  26.361  31.191  1.00  0.00     0.020 A 
ATOM     81  C   UNL A   1      50.984  26.675  30.194  1.00  0.00     0.054 A 
BRANCH  81  82
ATOM     82  S   UNL A   1      52.762  26.466  30.494  1.00  0.00     0.124 S 
ATOM     83  O   UNL A   1      53.266  26.179  29.155  1.00  0.00    -0.237 OA
ATOM     84  O   UNL A   1      53.145  27.763  31.047  1.00  0.00    -0.237 OA
ATOM     85  O   UNL A   1      52.826  25.351  31.436  1.00  0.00    -0.744 OA
ENDBRANCH  81  82
ENDBRANCH  55  76
ENDBRANCH  29  30
ENDBRANCH  21  24
ENDBRANCH   1  20
TORSDOF 14
ENDMDL
