MODEL 1
REMARK VINA RESULT:     -10.7      0.000      0.000
REMARK SMILES CCOC(=O)C1=NN(c2ccc(Br)cc2F)[C@](C)(C(=O)NCCCNC(=O)c2ccc(-c3c4nc(c(-c5ccc(S(=O)(=O)[O-])cc5)c5ccc([nH]5)c(-c5ccc(S(=O)(=O)[O-])cc5)c5nc(c(-c6ccc(S(=O)(=O)[O-])cc6)c6ccc3[nH]6)C=C5)C=C4)cc2)C1
REMARK SMILES IDX 23 1 22 2 21 3 19 4 20 5 17 7 6 8 7 9 88 10 8 11 18 12 4 13
REMARK SMILES IDX 5 14 3 15 2 16 1 17 9 18 10 19 15 20 11 21 14 22 16 23 12 24
REMARK SMILES IDX 13 25 24 26 25 27 26 28 27 30 28 31 29 32 87 33 30 34 86 35
REMARK SMILES IDX 31 36 32 37 33 38 80 39 34 40 85 41 79 42 81 43 35 44 84 45
REMARK SMILES IDX 78 46 77 47 36 49 66 50 47 51 65 52 48 53 51 54 64 55 82 56
REMARK SMILES IDX 49 57 50 58 63 60 83 61 52 62 37 63 38 64 46 65 39 66 45 67
REMARK SMILES IDX 40 68 41 69 42 70 43 71 44 72 67 73 68 74 76 75 69 76 75 77
REMARK SMILES IDX 70 78 71 79 72 80 73 81 74 82 53 83 54 84 62 85 55 86 61 87
REMARK SMILES IDX 56 88 57 89 58 90 59 91 60 92
REMARK H PARENT 21 6 25 29 81 48 51 59
REMARK Flexibility Score: inf
ROOT
ATOM      1  C   UNL A   1      39.539  21.872  25.815  1.00  0.00     0.042 C 
ENDROOT
BRANCH   1   2
ATOM      2  C   UNL A   1      38.062  22.207  25.746  1.00  0.00     0.117 C 
BRANCH   2   3
ATOM      3  N   UNL A   1      37.546  22.450  24.416  1.00  0.00    -0.354 N 
ATOM      4  C   UNL A   1      36.254  22.507  23.974  1.00  0.00     0.248 C 
ATOM      5  O   UNL A   1      36.114  22.991  22.841  1.00  0.00    -0.272 OA
ATOM      6  H   UNL A   1      38.230  22.596  23.723  1.00  0.00     0.163 HD
BRANCH   4   7
ATOM      7  C   UNL A   1      35.048  21.899  24.744  1.00  0.00     0.145 C 
ATOM      8  C   UNL A   1      33.699  20.023  24.551  1.00  0.00     0.149 C 
ATOM      9  N   UNL A   1      32.916  20.997  24.214  1.00  0.00    -0.169 NA
ATOM     10  C   UNL A   1      35.146  20.347  24.681  1.00  0.00     0.106 C 
ATOM     11  N   UNL A   1      33.718  22.097  24.104  1.00  0.00    -0.246 N 
ATOM     12  C   UNL A   1      35.069  22.294  26.228  1.00  0.00     0.048 C 
BRANCH   8  13
ATOM     13  C   UNL A   1      33.212  18.625  24.792  1.00  0.00     0.354 C 
ATOM     14  O   UNL A   1      32.158  18.402  25.363  1.00  0.00    -0.245 OA
BRANCH  13  15
ATOM     15  O   UNL A   1      34.100  17.745  24.298  1.00  0.00    -0.461 OA
BRANCH  15  16
ATOM     16  C   UNL A   1      33.907  16.380  24.681  1.00  0.00     0.230 C 
ATOM     17  C   UNL A   1      35.146  15.838  25.365  1.00  0.00     0.049 C 
ENDBRANCH  15  16
ENDBRANCH  13  15
ENDBRANCH   8  13
BRANCH  11  18
ATOM     18  C   UNL A   1      33.074  23.284  23.810  1.00  0.00     0.096 A 
ATOM     19  C   UNL A   1      32.632  24.148  24.822  1.00  0.00     0.032 A 
ATOM     20  C   UNL A   1      32.839  23.664  22.477  1.00  0.00     0.149 A 
ATOM     21  C   UNL A   1      32.066  25.389  24.508  1.00  0.00     0.018 A 
ATOM     22  C   UNL A   1      32.270  24.895  22.151  1.00  0.00     0.057 A 
ATOM     23  F   UNL A   1      33.249  22.870  21.475  1.00  0.00    -0.205 F 
ATOM     24  C   UNL A   1      31.905  25.762  23.175  1.00  0.00     0.021 A 
ATOM     25  Br  UNL A   1      31.219  27.472  22.754  1.00  0.00    -0.051 Br
ENDBRANCH  11  18
ENDBRANCH   4   7
ENDBRANCH   2   3
ENDBRANCH   1   2
BRANCH   1  26
ATOM     26  C   UNL A   1      39.837  20.674  26.707  1.00  0.00     0.118 C 
BRANCH  26  27
ATOM     27  N   UNL A   1      40.808  19.742  26.132  1.00  0.00    -0.352 N 
ATOM     28  C   UNL A   1      42.129  19.886  25.775  1.00  0.00     0.251 C 
ATOM     29  H   UNL A   1      40.446  18.842  25.970  1.00  0.00     0.163 HD
ATOM     30  O   UNL A   1      42.679  18.983  25.148  1.00  0.00    -0.269 OA
BRANCH  28  31
ATOM     31  C   UNL A   1      42.879  21.120  26.097  1.00  0.00     0.039 A 
ATOM     32  C   UNL A   1      43.235  22.005  25.073  1.00  0.00     0.014 A 
ATOM     33  C   UNL A   1      43.246  21.410  27.408  1.00  0.00     0.014 A 
ATOM     34  C   UNL A   1      43.847  23.226  25.384  1.00  0.00     0.010 A 
ATOM     35  C   UNL A   1      43.728  22.671  27.727  1.00  0.00     0.010 A 
ATOM     36  C   UNL A   1      44.036  23.600  26.722  1.00  0.00    -0.014 A 
BRANCH  36  37
ATOM     37  C   UNL A   1      44.556  24.931  27.143  1.00  0.00     0.031 A 
ATOM     38  C   UNL A   1      43.588  25.969  27.651  1.00  0.00     0.074 A 
ATOM     39  C   UNL A   1      45.843  25.268  26.919  1.00  0.00     0.049 A 
ATOM     40  N   UNL A   1      43.735  27.265  27.747  1.00  0.00    -0.248 NA
ATOM     41  C   UNL A   1      42.250  25.487  28.039  1.00  0.00     0.031 C 
ATOM     42  C   UNL A   1      46.887  24.377  26.406  1.00  0.00     0.029 A 
ATOM     43  N   UNL A   1      46.486  26.473  27.069  1.00  0.00    -0.354 N 
ATOM     44  C   UNL A   1      42.491  27.758  28.126  1.00  0.00     0.074 A 
ATOM     45  C   UNL A   1      41.596  26.625  28.216  1.00  0.00     0.031 C 
ATOM     46  C   UNL A   1      48.039  25.059  26.301  1.00  0.00     0.029 A 
ATOM     47  C   UNL A   1      47.804  26.448  26.677  1.00  0.00     0.049 A 
ATOM     48  H   UNL A   1      46.043  27.278  27.423  1.00  0.00     0.167 HD
ATOM     49  C   UNL A   1      42.128  29.036  28.384  1.00  0.00     0.031 A 
ATOM     50  C   UNL A   1      48.717  27.437  26.602  1.00  0.00     0.031 A 
ATOM     51  C   UNL A   1      43.042  30.145  28.373  1.00  0.00     0.049 A 
ATOM     52  C   UNL A   1      48.313  28.839  26.967  1.00  0.00     0.074 A 
ATOM     53  C   UNL A   1      42.795  31.468  28.690  1.00  0.00     0.029 A 
ATOM     54  N   UNL A   1      44.390  30.051  28.061  1.00  0.00    -0.354 N 
ATOM     55  N   UNL A   1      47.133  29.287  27.323  1.00  0.00    -0.248 NA
ATOM     56  C   UNL A   1      49.362  29.868  26.922  1.00  0.00     0.031 C 
ATOM     57  C   UNL A   1      43.992  32.179  28.556  1.00  0.00     0.029 A 
ATOM     58  C   UNL A   1      44.990  31.289  28.189  1.00  0.00     0.049 A 
ATOM     59  H   UNL A   1      44.851  29.224  27.788  1.00  0.00     0.167 HD
ATOM     60  C   UNL A   1      47.305  30.643  27.577  1.00  0.00     0.074 A 
ATOM     61  C   UNL A   1      48.702  30.943  27.334  1.00  0.00     0.031 C 
ATOM     62  C   UNL A   1      46.388  31.557  27.976  1.00  0.00     0.031 A 
BRANCH  49  63
ATOM     63  C   UNL A   1      40.680  29.299  28.701  1.00  0.00    -0.014 A 
ATOM     64  C   UNL A   1      39.707  29.332  27.686  1.00  0.00     0.010 A 
ATOM     65  C   UNL A   1      40.284  29.501  30.035  1.00  0.00     0.010 A 
ATOM     66  C   UNL A   1      38.375  29.620  27.993  1.00  0.00     0.020 A 
ATOM     67  C   UNL A   1      38.947  29.759  30.350  1.00  0.00     0.020 A 
ATOM     68  C   UNL A   1      38.005  29.841  29.322  1.00  0.00     0.054 A 
BRANCH  68  69
ATOM     69  S   UNL A   1      36.268  30.210  29.696  1.00  0.00     0.124 S 
ATOM     70  O   UNL A   1      36.076  29.493  30.955  1.00  0.00    -0.237 OA
ATOM     71  O   UNL A   1      36.262  31.667  29.797  1.00  0.00    -0.237 OA
ATOM     72  O   UNL A   1      35.545  29.665  28.551  1.00  0.00    -0.744 OA
ENDBRANCH  68  69
ENDBRANCH  49  63
BRANCH  50  73
ATOM     73  C   UNL A   1      50.109  27.132  26.175  1.00  0.00    -0.014 A 
ATOM     74  C   UNL A   1      50.446  27.153  24.810  1.00  0.00     0.010 A 
ATOM     75  C   UNL A   1      51.107  26.843  27.122  1.00  0.00     0.010 A 
ATOM     76  C   UNL A   1      51.751  26.873  24.398  1.00  0.00     0.020 A 
ATOM     77  C   UNL A   1      52.420  26.584  26.715  1.00  0.00     0.020 A 
ATOM     78  C   UNL A   1      52.731  26.590  25.353  1.00  0.00     0.054 A 
BRANCH  78  79
ATOM     79  S   UNL A   1      54.432  26.282  24.801  1.00  0.00     0.124 S 
ATOM     80  O   UNL A   1      54.492  27.051  23.562  1.00  0.00    -0.237 OA
ATOM     81  O   UNL A   1      55.226  26.806  25.911  1.00  0.00    -0.237 OA
ATOM     82  O   UNL A   1      54.480  24.830  24.644  1.00  0.00    -0.744 OA
ENDBRANCH  78  79
ENDBRANCH  50  73
BRANCH  62  83
ATOM     83  C   UNL A   1      46.865  32.956  28.242  1.00  0.00    -0.014 A 
ATOM     84  C   UNL A   1      46.826  33.940  27.240  1.00  0.00     0.010 A 
ATOM     85  C   UNL A   1      47.246  33.312  29.548  1.00  0.00     0.010 A 
ATOM     86  C   UNL A   1      47.163  35.262  27.542  1.00  0.00     0.020 A 
ATOM     87  C   UNL A   1      47.566  34.637  29.856  1.00  0.00     0.020 A 
ATOM     88  C   UNL A   1      47.525  35.602  28.850  1.00  0.00     0.054 A 
BRANCH  88  89
ATOM     89  S   UNL A   1      47.862  37.342  29.238  1.00  0.00     0.124 S 
ATOM     90  O   UNL A   1      49.298  37.436  28.991  1.00  0.00    -0.237 OA
ATOM     91  O   UNL A   1      47.012  38.056  28.288  1.00  0.00    -0.237 OA
ATOM     92  O   UNL A   1      47.461  37.467  30.638  1.00  0.00    -0.744 OA
ENDBRANCH  88  89
ENDBRANCH  62  83
ENDBRANCH  36  37
ENDBRANCH  28  31
ENDBRANCH  26  27
ENDBRANCH   1  26
TORSDOF 17
ENDMDL
MODEL 2
REMARK VINA RESULT:     -10.6      8.778     13.453
REMARK SMILES CCOC(=O)C1=NN(c2ccc(Br)cc2F)[C@](C)(C(=O)NCCCNC(=O)c2ccc(-c3c4nc(c(-c5ccc(S(=O)(=O)[O-])cc5)c5ccc([nH]5)c(-c5ccc(S(=O)(=O)[O-])cc5)c5nc(c(-c6ccc(S(=O)(=O)[O-])cc6)c6ccc3[nH]6)C=C5)C=C4)cc2)C1
REMARK SMILES IDX 23 1 22 2 21 3 19 4 20 5 17 7 6 8 7 9 88 10 8 11 18 12 4 13
REMARK SMILES IDX 5 14 3 15 2 16 1 17 9 18 10 19 15 20 11 21 14 22 16 23 12 24
REMARK SMILES IDX 13 25 24 26 25 27 26 28 27 30 28 31 29 32 87 33 30 34 86 35
REMARK SMILES IDX 31 36 32 37 33 38 80 39 34 40 85 41 79 42 81 43 35 44 84 45
REMARK SMILES IDX 78 46 77 47 36 49 66 50 47 51 65 52 48 53 51 54 64 55 82 56
REMARK SMILES IDX 49 57 50 58 63 60 83 61 52 62 37 63 38 64 46 65 39 66 45 67
REMARK SMILES IDX 40 68 41 69 42 70 43 71 44 72 67 73 68 74 76 75 69 76 75 77
REMARK SMILES IDX 70 78 71 79 72 80 73 81 74 82 53 83 54 84 62 85 55 86 61 87
REMARK SMILES IDX 56 88 57 89 58 90 59 91 60 92
REMARK H PARENT 21 6 25 29 81 48 51 59
REMARK Flexibility Score: inf
ROOT
ATOM      1  C   UNL A   1      48.679  23.873  35.617  1.00  0.00     0.042 C 
ENDROOT
BRANCH   1   2
ATOM      2  C   UNL A   1      49.376  23.252  36.811  1.00  0.00     0.117 C 
BRANCH   2   3
ATOM      3  N   UNL A   1      49.831  21.891  36.622  1.00  0.00    -0.354 N 
ATOM      4  C   UNL A   1      49.203  20.710  36.906  1.00  0.00     0.248 C 
ATOM      5  O   UNL A   1      49.726  19.710  36.394  1.00  0.00    -0.272 OA
ATOM      6  H   UNL A   1      50.729  21.802  36.228  1.00  0.00     0.163 HD
BRANCH   4   7
ATOM      7  C   UNL A   1      48.013  20.579  37.897  1.00  0.00     0.145 C 
ATOM      8  C   UNL A   1      46.628  18.880  38.650  1.00  0.00     0.149 C 
ATOM      9  N   UNL A   1      45.850  19.596  37.904  1.00  0.00    -0.169 NA
ATOM     10  C   UNL A   1      48.083  19.183  38.581  1.00  0.00     0.106 C 
ATOM     11  N   UNL A   1      46.667  20.487  37.266  1.00  0.00    -0.246 N 
ATOM     12  C   UNL A   1      48.086  21.634  39.011  1.00  0.00     0.048 C 
BRANCH   8  13
ATOM     13  C   UNL A   1      46.125  17.781  39.539  1.00  0.00     0.354 C 
ATOM     14  O   UNL A   1      46.879  17.118  40.229  1.00  0.00    -0.245 OA
BRANCH  13  15
ATOM     15  O   UNL A   1      44.789  17.681  39.422  1.00  0.00    -0.461 OA
BRANCH  15  16
ATOM     16  C   UNL A   1      44.314  16.694  38.501  1.00  0.00     0.230 C 
ATOM     17  C   UNL A   1      43.314  15.776  39.173  1.00  0.00     0.049 C 
ENDBRANCH  15  16
ENDBRANCH  13  15
ENDBRANCH   8  13
BRANCH  11  18
ATOM     18  C   UNL A   1      46.033  21.408  36.453  1.00  0.00     0.096 A 
ATOM     19  C   UNL A   1      45.422  22.554  36.982  1.00  0.00     0.032 A 
ATOM     20  C   UNL A   1      45.980  21.223  35.061  1.00  0.00     0.149 A 
ATOM     21  C   UNL A   1      44.867  23.524  36.140  1.00  0.00     0.018 A 
ATOM     22  C   UNL A   1      45.424  22.178  34.211  1.00  0.00     0.057 A 
ATOM     23  F   UNL A   1      46.555  20.141  34.509  1.00  0.00    -0.205 F 
ATOM     24  C   UNL A   1      44.888  23.339  34.758  1.00  0.00     0.021 A 
ATOM     25  Br  UNL A   1      44.214  24.688  33.619  1.00  0.00    -0.051 Br
ENDBRANCH  11  18
ENDBRANCH   4   7
ENDBRANCH   2   3
ENDBRANCH   1   2
BRANCH   1  26
ATOM     26  C   UNL A   1      47.972  25.179  35.953  1.00  0.00     0.118 C 
BRANCH  26  27
ATOM     27  N   UNL A   1      47.869  25.437  37.390  1.00  0.00    -0.352 N 
ATOM     28  C   UNL A   1      47.168  26.374  38.115  1.00  0.00     0.251 C 
ATOM     29  H   UNL A   1      48.403  24.823  37.943  1.00  0.00     0.163 HD
ATOM     30  O   UNL A   1      47.388  26.484  39.319  1.00  0.00    -0.269 OA
BRANCH  28  31
ATOM     31  C   UNL A   1      46.190  27.271  37.461  1.00  0.00     0.039 A 
ATOM     32  C   UNL A   1      46.630  28.444  36.838  1.00  0.00     0.014 A 
ATOM     33  C   UNL A   1      44.831  26.969  37.466  1.00  0.00     0.014 A 
ATOM     34  C   UNL A   1      45.725  29.240  36.124  1.00  0.00     0.010 A 
ATOM     35  C   UNL A   1      43.962  27.682  36.651  1.00  0.00     0.010 A 
ATOM     36  C   UNL A   1      44.395  28.827  35.966  1.00  0.00    -0.014 A 
BRANCH  36  37
ATOM     37  C   UNL A   1      43.402  29.543  35.115  1.00  0.00     0.031 A 
ATOM     38  C   UNL A   1      42.514  30.585  35.746  1.00  0.00     0.074 A 
ATOM     39  C   UNL A   1      43.182  29.156  33.843  1.00  0.00     0.049 A 
ATOM     40  N   UNL A   1      41.382  31.080  35.317  1.00  0.00    -0.248 NA
ATOM     41  C   UNL A   1      42.923  31.085  37.071  1.00  0.00     0.031 C 
ATOM     42  C   UNL A   1      43.945  28.142  33.110  1.00  0.00     0.029 A 
ATOM     43  N   UNL A   1      42.219  29.553  32.946  1.00  0.00    -0.354 N 
ATOM     44  C   UNL A   1      40.906  31.882  36.349  1.00  0.00     0.074 A 
ATOM     45  C   UNL A   1      41.859  31.786  37.433  1.00  0.00     0.031 C 
ATOM     46  C   UNL A   1      43.434  28.011  31.874  1.00  0.00     0.029 A 
ATOM     47  C   UNL A   1      42.271  28.881  31.747  1.00  0.00     0.049 A 
ATOM     48  H   UNL A   1      41.556  30.253  33.145  1.00  0.00     0.167 HD
ATOM     49  C   UNL A   1      39.783  32.637  36.388  1.00  0.00     0.031 A 
ATOM     50  C   UNL A   1      41.459  28.938  30.673  1.00  0.00     0.031 A 
ATOM     51  C   UNL A   1      38.885  32.792  35.277  1.00  0.00     0.049 A 
ATOM     52  C   UNL A   1      40.258  29.842  30.707  1.00  0.00     0.074 A 
ATOM     53  C   UNL A   1      37.759  33.590  35.184  1.00  0.00     0.029 A 
ATOM     54  N   UNL A   1      39.034  32.163  34.050  1.00  0.00    -0.354 N 
ATOM     55  N   UNL A   1      39.823  30.593  31.691  1.00  0.00    -0.248 NA
ATOM     56  C   UNL A   1      39.438  29.908  29.489  1.00  0.00     0.031 C 
ATOM     57  C   UNL A   1      37.217  33.432  33.905  1.00  0.00     0.029 A 
ATOM     58  C   UNL A   1      38.028  32.562  33.191  1.00  0.00     0.049 A 
ATOM     59  H   UNL A   1      39.751  31.525  33.825  1.00  0.00     0.167 HD
ATOM     60  C   UNL A   1      38.699  31.247  31.199  1.00  0.00     0.074 A 
ATOM     61  C   UNL A   1      38.519  30.804  29.831  1.00  0.00     0.031 C 
ATOM     62  C   UNL A   1      37.889  32.134  31.824  1.00  0.00     0.031 A 
BRANCH  49  63
ATOM     63  C   UNL A   1      39.468  33.352  37.674  1.00  0.00    -0.014 A 
ATOM     64  C   UNL A   1      40.085  34.574  37.997  1.00  0.00     0.010 A 
ATOM     65  C   UNL A   1      38.529  32.803  38.566  1.00  0.00     0.010 A 
ATOM     66  C   UNL A   1      39.812  35.203  39.215  1.00  0.00     0.020 A 
ATOM     67  C   UNL A   1      38.230  33.444  39.771  1.00  0.00     0.020 A 
ATOM     68  C   UNL A   1      38.894  34.629  40.098  1.00  0.00     0.054 A 
BRANCH  68  69
ATOM     69  S   UNL A   1      38.554  35.466  41.672  1.00  0.00     0.124 S 
ATOM     70  O   UNL A   1      39.614  34.934  42.526  1.00  0.00    -0.237 OA
ATOM     71  O   UNL A   1      38.681  36.878  41.321  1.00  0.00    -0.237 OA
ATOM     72  O   UNL A   1      37.203  35.030  42.010  1.00  0.00    -0.744 OA
ENDBRANCH  68  69
ENDBRANCH  49  63
BRANCH  50  73
ATOM     73  C   UNL A   1      41.763  28.122  29.467  1.00  0.00    -0.014 A 
ATOM     74  C   UNL A   1      42.710  28.578  28.532  1.00  0.00     0.010 A 
ATOM     75  C   UNL A   1      41.133  26.884  29.254  1.00  0.00     0.010 A 
ATOM     76  C   UNL A   1      43.007  27.819  27.397  1.00  0.00     0.020 A 
ATOM     77  C   UNL A   1      41.444  26.111  28.132  1.00  0.00     0.020 A 
ATOM     78  C   UNL A   1      42.373  26.590  27.204  1.00  0.00     0.054 A 
BRANCH  78  79
ATOM     79  S   UNL A   1      42.812  25.594  25.751  1.00  0.00     0.124 S 
ATOM     80  O   UNL A   1      42.992  24.269  26.337  1.00  0.00    -0.237 OA
ATOM     81  O   UNL A   1      41.641  25.753  24.891  1.00  0.00    -0.237 OA
ATOM     82  O   UNL A   1      44.029  26.234  25.257  1.00  0.00    -0.744 OA
ENDBRANCH  78  79
ENDBRANCH  50  73
BRANCH  62  83
ATOM     83  C   UNL A   1      36.771  32.743  31.027  1.00  0.00    -0.014 A 
ATOM     84  C   UNL A   1      35.439  32.336  31.214  1.00  0.00     0.010 A 
ATOM     85  C   UNL A   1      37.051  33.818  30.165  1.00  0.00     0.010 A 
ATOM     86  C   UNL A   1      34.404  32.996  30.549  1.00  0.00     0.020 A 
ATOM     87  C   UNL A   1      36.015  34.492  29.513  1.00  0.00     0.020 A 
ATOM     88  C   UNL A   1      34.698  34.074  29.708  1.00  0.00     0.054 A 
BRANCH  88  89
ATOM     89  S   UNL A   1      33.329  34.977  28.932  1.00  0.00     0.124 S 
ATOM     90  O   UNL A   1      32.463  35.256  30.074  1.00  0.00    -0.237 OA
ATOM     91  O   UNL A   1      33.997  36.139  28.351  1.00  0.00    -0.237 OA
ATOM     92  O   UNL A   1      32.794  34.025  27.961  1.00  0.00    -0.744 OA
ENDBRANCH  88  89
ENDBRANCH  62  83
ENDBRANCH  36  37
ENDBRANCH  28  31
ENDBRANCH  26  27
ENDBRANCH   1  26
TORSDOF 17
ENDMDL
MODEL 3
REMARK VINA RESULT:     -10.4      5.143     11.323
REMARK SMILES CCOC(=O)C1=NN(c2ccc(Br)cc2F)[C@](C)(C(=O)NCCCNC(=O)c2ccc(-c3c4nc(c(-c5ccc(S(=O)(=O)[O-])cc5)c5ccc([nH]5)c(-c5ccc(S(=O)(=O)[O-])cc5)c5nc(c(-c6ccc(S(=O)(=O)[O-])cc6)c6ccc3[nH]6)C=C5)C=C4)cc2)C1
REMARK SMILES IDX 23 1 22 2 21 3 19 4 20 5 17 7 6 8 7 9 88 10 8 11 18 12 4 13
REMARK SMILES IDX 5 14 3 15 2 16 1 17 9 18 10 19 15 20 11 21 14 22 16 23 12 24
REMARK SMILES IDX 13 25 24 26 25 27 26 28 27 30 28 31 29 32 87 33 30 34 86 35
REMARK SMILES IDX 31 36 32 37 33 38 80 39 34 40 85 41 79 42 81 43 35 44 84 45
REMARK SMILES IDX 78 46 77 47 36 49 66 50 47 51 65 52 48 53 51 54 64 55 82 56
REMARK SMILES IDX 49 57 50 58 63 60 83 61 52 62 37 63 38 64 46 65 39 66 45 67
REMARK SMILES IDX 40 68 41 69 42 70 43 71 44 72 67 73 68 74 76 75 69 76 75 77
REMARK SMILES IDX 70 78 71 79 72 80 73 81 74 82 53 83 54 84 62 85 55 86 61 87
REMARK SMILES IDX 56 88 57 89 58 90 59 91 60 92
REMARK H PARENT 21 6 25 29 81 48 51 59
REMARK Flexibility Score: inf
ROOT
ATOM      1  C   UNL A   1      35.167  32.039  31.584  1.00  0.00     0.042 C 
ENDROOT
BRANCH   1   2
ATOM      2  C   UNL A   1      36.124  31.809  32.736  1.00  0.00     0.117 C 
BRANCH   2   3
ATOM      3  N   UNL A   1      36.724  30.493  32.788  1.00  0.00    -0.354 N 
ATOM      4  C   UNL A   1      37.914  30.093  33.328  1.00  0.00     0.248 C 
ATOM      5  O   UNL A   1      38.039  28.866  33.455  1.00  0.00    -0.272 OA
ATOM      6  H   UNL A   1      36.194  29.776  32.371  1.00  0.00     0.163 HD
BRANCH   4   7
ATOM      7  C   UNL A   1      39.091  31.059  33.641  1.00  0.00     0.145 C 
ATOM      8  C   UNL A   1      40.628  32.292  32.419  1.00  0.00     0.149 C 
ATOM      9  N   UNL A   1      41.343  31.348  32.942  1.00  0.00    -0.169 NA
ATOM     10  C   UNL A   1      39.150  32.149  32.532  1.00  0.00     0.106 C 
ATOM     11  N   UNL A   1      40.452  30.473  33.495  1.00  0.00    -0.246 N 
ATOM     12  C   UNL A   1      38.886  31.784  34.979  1.00  0.00     0.048 C 
BRANCH   8  13
ATOM     13  C   UNL A   1      41.222  33.476  31.715  1.00  0.00     0.354 C 
ATOM     14  O   UNL A   1      42.425  33.593  31.561  1.00  0.00    -0.245 OA
BRANCH  13  15
ATOM     15  O   UNL A   1      40.242  34.312  31.330  1.00  0.00    -0.461 OA
BRANCH  15  16
ATOM     16  C   UNL A   1      40.129  34.535  29.922  1.00  0.00     0.230 C 
ATOM     17  C   UNL A   1      38.689  34.386  29.473  1.00  0.00     0.049 C 
ENDBRANCH  15  16
ENDBRANCH  13  15
ENDBRANCH   8  13
BRANCH  11  18
ATOM     18  C   UNL A   1      41.004  29.402  34.174  1.00  0.00     0.096 A 
ATOM     19  C   UNL A   1      41.167  29.423  35.567  1.00  0.00     0.032 A 
ATOM     20  C   UNL A   1      41.426  28.252  33.484  1.00  0.00     0.149 A 
ATOM     21  C   UNL A   1      41.639  28.297  36.250  1.00  0.00     0.018 A 
ATOM     22  C   UNL A   1      41.904  27.126  34.153  1.00  0.00     0.057 A 
ATOM     23  F   UNL A   1      41.286  28.186  32.150  1.00  0.00    -0.205 F 
ATOM     24  C   UNL A   1      41.988  27.149  35.540  1.00  0.00     0.021 A 
ATOM     25  Br  UNL A   1      42.546  25.602  36.472  1.00  0.00    -0.051 Br
ENDBRANCH  11  18
ENDBRANCH   4   7
ENDBRANCH   2   3
ENDBRANCH   1   2
BRANCH   1  26
ATOM     26  C   UNL A   1      35.828  31.888  30.221  1.00  0.00     0.118 C 
BRANCH  26  27
ATOM     27  N   UNL A   1      35.280  30.791  29.422  1.00  0.00    -0.352 N 
ATOM     28  C   UNL A   1      35.878  29.795  28.683  1.00  0.00     0.251 C 
ATOM     29  H   UNL A   1      34.297  30.760  29.411  1.00  0.00     0.163 HD
ATOM     30  O   UNL A   1      35.180  29.088  27.959  1.00  0.00    -0.269 OA
BRANCH  28  31
ATOM     31  C   UNL A   1      37.343  29.591  28.718  1.00  0.00     0.039 A 
ATOM     32  C   UNL A   1      37.952  29.121  29.887  1.00  0.00     0.014 A 
ATOM     33  C   UNL A   1      38.129  29.871  27.604  1.00  0.00     0.014 A 
ATOM     34  C   UNL A   1      39.321  28.822  29.891  1.00  0.00     0.010 A 
ATOM     35  C   UNL A   1      39.451  29.451  27.568  1.00  0.00     0.010 A 
ATOM     36  C   UNL A   1      40.068  28.919  28.710  1.00  0.00    -0.014 A 
BRANCH  36  37
ATOM     37  C   UNL A   1      41.493  28.496  28.596  1.00  0.00     0.031 A 
ATOM     38  C   UNL A   1      42.575  29.543  28.666  1.00  0.00     0.074 A 
ATOM     39  C   UNL A   1      41.808  27.227  28.270  1.00  0.00     0.049 A 
ATOM     40  N   UNL A   1      43.818  29.480  28.263  1.00  0.00    -0.248 NA
ATOM     41  C   UNL A   1      42.184  30.860  29.199  1.00  0.00     0.031 C 
ATOM     42  C   UNL A   1      40.864  26.113  28.140  1.00  0.00     0.029 A 
ATOM     43  N   UNL A   1      43.022  26.665  27.954  1.00  0.00    -0.354 N 
ATOM     44  C   UNL A   1      44.329  30.764  28.417  1.00  0.00     0.074 A 
ATOM     45  C   UNL A   1      43.256  31.589  28.926  1.00  0.00     0.031 C 
ATOM     46  C   UNL A   1      41.535  25.003  27.791  1.00  0.00     0.029 A 
ATOM     47  C   UNL A   1      42.943  25.335  27.609  1.00  0.00     0.049 A 
ATOM     48  H   UNL A   1      43.868  27.168  27.972  1.00  0.00     0.167 HD
ATOM     49  C   UNL A   1      45.582  31.214  28.167  1.00  0.00     0.031 A 
ATOM     50  C   UNL A   1      43.890  24.484  27.170  1.00  0.00     0.031 A 
ATOM     51  C   UNL A   1      46.664  30.370  27.741  1.00  0.00     0.049 A 
ATOM     52  C   UNL A   1      45.294  24.985  26.972  1.00  0.00     0.074 A 
ATOM     53  C   UNL A   1      47.989  30.709  27.530  1.00  0.00     0.029 A 
ATOM     54  N   UNL A   1      46.553  29.010  27.497  1.00  0.00    -0.354 N 
ATOM     55  N   UNL A   1      45.760  26.202  27.123  1.00  0.00    -0.248 NA
ATOM     56  C   UNL A   1      46.300  24.001  26.546  1.00  0.00     0.031 C 
ATOM     57  C   UNL A   1      48.677  29.555  27.144  1.00  0.00     0.029 A 
ATOM     58  C   UNL A   1      47.786  28.492  27.149  1.00  0.00     0.049 A 
ATOM     59  H   UNL A   1      45.719  28.490  27.562  1.00  0.00     0.167 HD
ATOM     60  C   UNL A   1      47.120  26.123  26.843  1.00  0.00     0.074 A 
ATOM     61  C   UNL A   1      47.402  24.741  26.514  1.00  0.00     0.031 C 
ATOM     62  C   UNL A   1      48.050  27.107  26.859  1.00  0.00     0.031 A 
BRANCH  49  63
ATOM     63  C   UNL A   1      45.844  32.685  28.351  1.00  0.00    -0.014 A 
ATOM     64  C   UNL A   1      46.259  33.200  29.592  1.00  0.00     0.010 A 
ATOM     65  C   UNL A   1      45.689  33.562  27.263  1.00  0.00     0.010 A 
ATOM     66  C   UNL A   1      46.457  34.573  29.757  1.00  0.00     0.020 A 
ATOM     67  C   UNL A   1      45.916  34.933  27.416  1.00  0.00     0.020 A 
ATOM     68  C   UNL A   1      46.275  35.432  28.670  1.00  0.00     0.054 A 
BRANCH  68  69
ATOM     69  S   UNL A   1      46.540  37.211  28.907  1.00  0.00     0.124 S 
ATOM     70  O   UNL A   1      45.294  37.770  28.390  1.00  0.00    -0.237 OA
ATOM     71  O   UNL A   1      46.725  37.321  30.352  1.00  0.00    -0.237 OA
ATOM     72  O   UNL A   1      47.729  37.493  28.107  1.00  0.00    -0.744 OA
ENDBRANCH  68  69
ENDBRANCH  49  63
BRANCH  50  73
ATOM     73  C   UNL A   1      43.545  23.062  26.900  1.00  0.00    -0.014 A 
ATOM     74  C   UNL A   1      42.820  22.323  27.852  1.00  0.00     0.010 A 
ATOM     75  C   UNL A   1      43.915  22.446  25.692  1.00  0.00     0.010 A 
ATOM     76  C   UNL A   1      42.486  20.989  27.609  1.00  0.00     0.020 A 
ATOM     77  C   UNL A   1      43.563  21.117  25.435  1.00  0.00     0.020 A 
ATOM     78  C   UNL A   1      42.859  20.393  26.401  1.00  0.00     0.054 A 
BRANCH  78  79
ATOM     79  S   UNL A   1      42.370  18.675  26.082  1.00  0.00     0.124 S 
ATOM     80  O   UNL A   1      40.968  18.826  25.703  1.00  0.00    -0.237 OA
ATOM     81  O   UNL A   1      43.277  18.282  25.005  1.00  0.00    -0.237 OA
ATOM     82  O   UNL A   1      42.609  18.011  27.360  1.00  0.00    -0.744 OA
ENDBRANCH  78  79
ENDBRANCH  50  73
BRANCH  62  83
ATOM     83  C   UNL A   1      49.475  26.728  26.576  1.00  0.00    -0.014 A 
ATOM     84  C   UNL A   1      49.974  26.699  25.263  1.00  0.00     0.010 A 
ATOM     85  C   UNL A   1      50.353  26.510  27.654  1.00  0.00     0.010 A 
ATOM     86  C   UNL A   1      51.330  26.458  25.032  1.00  0.00     0.020 A 
ATOM     87  C   UNL A   1      51.713  26.287  27.427  1.00  0.00     0.020 A 
ATOM     88  C   UNL A   1      52.192  26.260  26.116  1.00  0.00     0.054 A 
BRANCH  88  89
ATOM     89  S   UNL A   1      53.965  26.047  25.796  1.00  0.00     0.124 S 
ATOM     90  O   UNL A   1      54.507  27.337  26.213  1.00  0.00    -0.237 OA
ATOM     91  O   UNL A   1      54.313  24.913  26.649  1.00  0.00    -0.237 OA
ATOM     92  O   UNL A   1      54.026  25.780  24.361  1.00  0.00    -0.744 OA
ENDBRANCH  88  89
ENDBRANCH  62  83
ENDBRANCH  36  37
ENDBRANCH  28  31
ENDBRANCH  26  27
ENDBRANCH   1  26
TORSDOF 17
ENDMDL
