MODEL 1
REMARK VINA RESULT:     -11.8      0.000      0.000
REMARK SMILES O=C(NCCCNC(=O)c1c(-c2ccc(Cl)cc2)noc1CO[C@@H]1CCCCO1)c1ccc(-c2c3nc(c(-c4ccc(S(=O)(=O)[O-])cc4)c4ccc([nH]4)c(-c4ccc(S(=O)(=O)[O-])cc4)c4nc(c(-c5ccc(S(=O)(=O)[O-])cc5)c5ccc2[nH]5)C=C4)C=C3)cc1
REMARK SMILES IDX 5 1 4 2 3 3 1 4 2 5 30 7 31 8 89 9 32 10 88 11 33 12 34 13
REMARK SMILES IDX 35 14 82 15 36 16 87 17 81 18 83 19 37 20 86 21 80 22 79 23
REMARK SMILES IDX 38 25 68 26 49 27 67 28 50 29 53 30 66 31 84 32 51 33 52 34
REMARK SMILES IDX 65 36 85 37 54 38 39 39 40 40 48 41 41 42 47 43 42 44 43 45
REMARK SMILES IDX 44 46 45 47 46 48 69 49 70 50 78 51 71 52 77 53 72 54 73 55
REMARK SMILES IDX 74 56 75 57 76 58 55 59 56 60 64 61 57 62 63 63 58 64 59 65
REMARK SMILES IDX 60 66 61 67 62 68 6 69 7 70 8 71 9 73 10 74 11 75 21 76
REMARK SMILES IDX 19 77 20 78 12 79 13 80 18 81 14 82 17 83 15 84 16 85 22 86
REMARK SMILES IDX 23 87 24 88 25 89 29 90 26 91 28 92 27 93
REMARK H PARENT 3 6 83 24 53 35 7 72
REMARK Flexibility Score: inf
ROOT
ATOM      1  C   UNL A   1      34.052  27.956  25.733  1.00  0.00     0.042 C 
ENDROOT
BRANCH   1   2
ATOM      2  C   UNL A   1      33.435  28.295  27.091  1.00  0.00     0.118 C 
BRANCH   2   3
ATOM      3  N   UNL A   1      33.418  29.723  27.363  1.00  0.00    -0.352 N 
ATOM      4  O   UNL A   1      34.029  31.685  28.243  1.00  0.00    -0.269 OA
ATOM      5  C   UNL A   1      34.351  30.533  27.958  1.00  0.00     0.251 C 
ATOM      6  H   UNL A   1      32.600  30.185  27.070  1.00  0.00     0.163 HD
BRANCH   5   7
ATOM      7  C   UNL A   1      35.716  30.053  28.268  1.00  0.00     0.039 A 
ATOM      8  C   UNL A   1      36.762  30.157  27.345  1.00  0.00     0.014 A 
ATOM      9  C   UNL A   1      35.975  29.571  29.557  1.00  0.00     0.014 A 
ATOM     10  C   UNL A   1      38.037  29.702  27.681  1.00  0.00     0.010 A 
ATOM     11  C   UNL A   1      37.262  29.152  29.907  1.00  0.00     0.010 A 
ATOM     12  C   UNL A   1      38.298  29.198  28.965  1.00  0.00    -0.014 A 
BRANCH  12  13
ATOM     13  C   UNL A   1      39.673  28.778  29.326  1.00  0.00     0.031 A 
ATOM     14  C   UNL A   1      40.549  29.651  30.178  1.00  0.00     0.074 A 
ATOM     15  C   UNL A   1      40.132  27.589  28.894  1.00  0.00     0.049 A 
ATOM     16  N   UNL A   1      41.750  29.407  30.638  1.00  0.00    -0.248 NA
ATOM     17  C   UNL A   1      40.010  30.965  30.558  1.00  0.00     0.031 C 
ATOM     18  C   UNL A   1      39.391  26.656  28.043  1.00  0.00     0.029 A 
ATOM     19  N   UNL A   1      41.327  26.956  29.127  1.00  0.00    -0.354 N 
ATOM     20  C   UNL A   1      42.121  30.541  31.348  1.00  0.00     0.074 A 
ATOM     21  C   UNL A   1      41.018  31.476  31.254  1.00  0.00     0.031 C 
ATOM     22  C   UNL A   1      40.133  25.553  27.857  1.00  0.00     0.029 A 
ATOM     23  C   UNL A   1      41.404  25.710  28.558  1.00  0.00     0.049 A 
ATOM     24  H   UNL A   1      42.057  27.358  29.650  1.00  0.00     0.167 HD
ATOM     25  C   UNL A   1      43.270  30.782  32.022  1.00  0.00     0.031 A 
ATOM     26  C   UNL A   1      42.385  24.789  28.597  1.00  0.00     0.031 A 
ATOM     27  C   UNL A   1      44.357  29.851  32.152  1.00  0.00     0.049 A 
ATOM     28  C   UNL A   1      43.651  25.080  29.343  1.00  0.00     0.074 A 
ATOM     29  C   UNL A   1      45.520  29.978  32.892  1.00  0.00     0.029 A 
ATOM     30  N   UNL A   1      44.419  28.622  31.516  1.00  0.00    -0.354 N 
ATOM     31  N   UNL A   1      43.958  26.138  30.054  1.00  0.00    -0.248 NA
ATOM     32  C   UNL A   1      44.707  24.061  29.279  1.00  0.00     0.031 C 
ATOM     33  C   UNL A   1      46.297  28.827  32.688  1.00  0.00     0.029 A 
ATOM     34  C   UNL A   1      45.612  27.989  31.823  1.00  0.00     0.049 A 
ATOM     35  H   UNL A   1      43.718  28.253  30.932  1.00  0.00     0.167 HD
ATOM     36  C   UNL A   1      45.246  25.914  30.520  1.00  0.00     0.074 A 
ATOM     37  C   UNL A   1      45.660  24.619  30.014  1.00  0.00     0.031 C 
ATOM     38  C   UNL A   1      46.016  26.712  31.300  1.00  0.00     0.031 A 
BRANCH  25  39
ATOM     39  C   UNL A   1      43.393  32.128  32.672  1.00  0.00    -0.014 A 
ATOM     40  C   UNL A   1      43.969  33.206  31.979  1.00  0.00     0.010 A 
ATOM     41  C   UNL A   1      42.957  32.309  33.996  1.00  0.00     0.010 A 
ATOM     42  C   UNL A   1      44.145  34.437  32.614  1.00  0.00     0.020 A 
ATOM     43  C   UNL A   1      43.128  33.540  34.633  1.00  0.00     0.020 A 
ATOM     44  C   UNL A   1      43.743  34.590  33.944  1.00  0.00     0.054 A 
BRANCH  44  45
ATOM     45  S   UNL A   1      44.007  36.179  34.779  1.00  0.00     0.124 S 
ATOM     46  O   UNL A   1      42.982  37.014  34.157  1.00  0.00    -0.237 OA
ATOM     47  O   UNL A   1      43.784  35.858  36.186  1.00  0.00    -0.237 OA
ATOM     48  O   UNL A   1      45.385  36.517  34.433  1.00  0.00    -0.744 OA
ENDBRANCH  44  45
ENDBRANCH  25  39
BRANCH  26  49
ATOM     49  C   UNL A   1      42.183  23.495  27.905  1.00  0.00    -0.014 A 
ATOM     50  C   UNL A   1      42.744  23.285  26.634  1.00  0.00     0.010 A 
ATOM     51  C   UNL A   1      41.507  22.445  28.549  1.00  0.00     0.010 A 
ATOM     52  C   UNL A   1      42.648  22.034  26.021  1.00  0.00     0.020 A 
ATOM     53  C   UNL A   1      41.414  21.193  27.939  1.00  0.00     0.020 A 
ATOM     54  C   UNL A   1      41.987  20.994  26.680  1.00  0.00     0.054 A 
BRANCH  54  55
ATOM     55  S   UNL A   1      41.952  19.334  25.946  1.00  0.00     0.124 S 
ATOM     56  O   UNL A   1      42.830  19.495  24.792  1.00  0.00    -0.237 OA
ATOM     57  O   UNL A   1      42.467  18.482  27.016  1.00  0.00    -0.237 OA
ATOM     58  O   UNL A   1      40.535  19.147  25.641  1.00  0.00    -0.744 OA
ENDBRANCH  54  55
ENDBRANCH  26  49
BRANCH  38  59
ATOM     59  C   UNL A   1      47.389  26.209  31.632  1.00  0.00    -0.014 A 
ATOM     60  C   UNL A   1      48.442  26.377  30.716  1.00  0.00     0.010 A 
ATOM     61  C   UNL A   1      47.635  25.580  32.863  1.00  0.00     0.010 A 
ATOM     62  C   UNL A   1      49.720  25.904  31.017  1.00  0.00     0.020 A 
ATOM     63  C   UNL A   1      48.915  25.108  33.168  1.00  0.00     0.020 A 
ATOM     64  C   UNL A   1      49.947  25.262  32.237  1.00  0.00     0.054 A 
BRANCH  64  65
ATOM     65  S   UNL A   1      51.611  24.664  32.644  1.00  0.00     0.124 S 
ATOM     66  O   UNL A   1      51.632  23.359  31.990  1.00  0.00    -0.237 OA
ATOM     67  O   UNL A   1      52.486  25.675  32.054  1.00  0.00    -0.237 OA
ATOM     68  O   UNL A   1      51.606  24.634  34.104  1.00  0.00    -0.744 OA
ENDBRANCH  64  65
ENDBRANCH  38  59
ENDBRANCH  12  13
ENDBRANCH   5   7
ENDBRANCH   2   3
ENDBRANCH   1   2
BRANCH   1  69
ATOM     69  C   UNL A   1      33.634  28.863  24.579  1.00  0.00     0.118 C 
BRANCH  69  70
ATOM     70  N   UNL A   1      33.886  28.272  23.275  1.00  0.00    -0.352 N 
ATOM     71  C   UNL A   1      33.240  27.252  22.624  1.00  0.00     0.257 C 
ATOM     72  H   UNL A   1      34.639  28.666  22.780  1.00  0.00     0.163 HD
ATOM     73  O   UNL A   1      33.707  26.837  21.567  1.00  0.00    -0.269 OA
BRANCH  71  74
ATOM     74  C   UNL A   1      32.032  26.707  23.185  1.00  0.00     0.113 A 
ATOM     75  C   UNL A   1      31.854  25.491  23.907  1.00  0.00     0.127 A 
ATOM     76  C   UNL A   1      30.750  27.188  23.004  1.00  0.00     0.175 A 
ATOM     77  N   UNL A   1      30.553  25.299  24.184  1.00  0.00    -0.079 NA
ATOM     78  O   UNL A   1      29.873  26.359  23.625  1.00  0.00    -0.357 OA
BRANCH  75  79
ATOM     79  C   UNL A   1      32.860  24.521  24.335  1.00  0.00     0.005 A 
ATOM     80  C   UNL A   1      33.624  23.806  23.401  1.00  0.00     0.012 A 
ATOM     81  C   UNL A   1      33.076  24.295  25.704  1.00  0.00     0.012 A 
ATOM     82  C   UNL A   1      34.575  22.873  23.828  1.00  0.00     0.021 A 
ATOM     83  C   UNL A   1      34.024  23.360  26.130  1.00  0.00     0.021 A 
ATOM     84  C   UNL A   1      34.768  22.651  25.189  1.00  0.00     0.041 A 
ATOM     85  Cl  UNL A   1      35.932  21.499  25.714  1.00  0.00    -0.084 Cl
ENDBRANCH  75  79
BRANCH  76  86
ATOM     86  C   UNL A   1      30.171  28.351  22.298  1.00  0.00     0.242 C 
BRANCH  86  87
ATOM     87  O   UNL A   1      29.151  28.969  23.074  1.00  0.00    -0.345 OA
BRANCH  87  88
ATOM     88  C   UNL A   1      27.981  29.402  22.383  1.00  0.00     0.250 C 
ATOM     89  C   UNL A   1      28.243  30.341  21.199  1.00  0.00     0.062 C 
ATOM     90  O   UNL A   1      27.106  30.063  23.310  1.00  0.00    -0.353 OA
ATOM     91  C   UNL A   1      28.846  31.660  21.671  1.00  0.00     0.008 C 
ATOM     92  C   UNL A   1      27.680  31.251  23.856  1.00  0.00     0.163 C 
ATOM     93  C   UNL A   1      27.979  32.271  22.766  1.00  0.00     0.029 C 
ENDBRANCH  87  88
ENDBRANCH  86  87
ENDBRANCH  76  86
ENDBRANCH  71  74
ENDBRANCH  69  70
ENDBRANCH   1  69
TORSDOF 17
ENDMDL
MODEL 2
REMARK VINA RESULT:     -11.7      1.942      4.306
REMARK SMILES O=C(NCCCNC(=O)c1c(-c2ccc(Cl)cc2)noc1CO[C@@H]1CCCCO1)c1ccc(-c2c3nc(c(-c4ccc(S(=O)(=O)[O-])cc4)c4ccc([nH]4)c(-c4ccc(S(=O)(=O)[O-])cc4)c4nc(c(-c5ccc(S(=O)(=O)[O-])cc5)c5ccc2[nH]5)C=C4)C=C3)cc1
REMARK SMILES IDX 5 1 4 2 3 3 1 4 2 5 30 7 31 8 89 9 32 10 88 11 33 12 34 13
REMARK SMILES IDX 35 14 82 15 36 16 87 17 81 18 83 19 37 20 86 21 80 22 79 23
REMARK SMILES IDX 38 25 68 26 49 27 67 28 50 29 53 30 66 31 84 32 51 33 52 34
REMARK SMILES IDX 65 36 85 37 54 38 39 39 40 40 48 41 41 42 47 43 42 44 43 45
REMARK SMILES IDX 44 46 45 47 46 48 69 49 70 50 78 51 71 52 77 53 72 54 73 55
REMARK SMILES IDX 74 56 75 57 76 58 55 59 56 60 64 61 57 62 63 63 58 64 59 65
REMARK SMILES IDX 60 66 61 67 62 68 6 69 7 70 8 71 9 73 10 74 11 75 21 76
REMARK SMILES IDX 19 77 20 78 12 79 13 80 18 81 14 82 17 83 15 84 16 85 22 86
REMARK SMILES IDX 23 87 24 88 25 89 29 90 26 91 28 92 27 93
REMARK H PARENT 3 6 83 24 53 35 7 72
REMARK Flexibility Score: inf
ROOT
ATOM      1  C   UNL A   1      32.912  27.739  26.142  1.00  0.00     0.042 C 
ENDROOT
BRANCH   1   2
ATOM      2  C   UNL A   1      33.486  28.339  27.425  1.00  0.00     0.118 C 
BRANCH   2   3
ATOM      3  N   UNL A   1      33.442  29.792  27.439  1.00  0.00    -0.352 N 
ATOM      4  O   UNL A   1      34.013  31.891  27.956  1.00  0.00    -0.269 OA
ATOM      5  C   UNL A   1      34.357  30.713  27.882  1.00  0.00     0.251 C 
ATOM      6  H   UNL A   1      32.618  30.180  27.066  1.00  0.00     0.163 HD
BRANCH   5   7
ATOM      7  C   UNL A   1      35.728  30.321  28.276  1.00  0.00     0.039 A 
ATOM      8  C   UNL A   1      36.027  29.887  29.571  1.00  0.00     0.014 A 
ATOM      9  C   UNL A   1      36.723  30.300  27.291  1.00  0.00     0.014 A 
ATOM     10  C   UNL A   1      37.332  29.516  29.900  1.00  0.00     0.010 A 
ATOM     11  C   UNL A   1      38.021  29.890  27.610  1.00  0.00     0.010 A 
ATOM     12  C   UNL A   1      38.339  29.512  28.922  1.00  0.00    -0.014 A 
BRANCH  12  13
ATOM     13  C   UNL A   1      39.704  29.054  29.272  1.00  0.00     0.031 A 
ATOM     14  C   UNL A   1      40.621  29.915  30.092  1.00  0.00     0.074 A 
ATOM     15  C   UNL A   1      40.118  27.843  28.857  1.00  0.00     0.049 A 
ATOM     16  N   UNL A   1      41.820  29.642  30.540  1.00  0.00    -0.248 NA
ATOM     17  C   UNL A   1      40.131  31.254  30.453  1.00  0.00     0.031 C 
ATOM     18  C   UNL A   1      39.334  26.918  28.036  1.00  0.00     0.029 A 
ATOM     19  N   UNL A   1      41.295  27.176  29.085  1.00  0.00    -0.354 N 
ATOM     20  C   UNL A   1      42.238  30.776  31.221  1.00  0.00     0.074 A 
ATOM     21  C   UNL A   1      41.165  31.745  31.124  1.00  0.00     0.031 C 
ATOM     22  C   UNL A   1      40.037  25.788  27.861  1.00  0.00     0.029 A 
ATOM     23  C   UNL A   1      41.323  25.917  28.541  1.00  0.00     0.049 A 
ATOM     24  H   UNL A   1      42.045  27.564  29.590  1.00  0.00     0.167 HD
ATOM     25  C   UNL A   1      43.404  30.993  31.874  1.00  0.00     0.031 A 
ATOM     26  C   UNL A   1      42.275  24.966  28.585  1.00  0.00     0.031 A 
ATOM     27  C   UNL A   1      44.463  30.030  32.008  1.00  0.00     0.049 A 
ATOM     28  C   UNL A   1      43.560  25.229  29.306  1.00  0.00     0.074 A 
ATOM     29  C   UNL A   1      45.640  30.133  32.728  1.00  0.00     0.029 A 
ATOM     30  N   UNL A   1      44.475  28.787  31.396  1.00  0.00    -0.354 N 
ATOM     31  N   UNL A   1      43.912  26.290  29.991  1.00  0.00    -0.248 NA
ATOM     32  C   UNL A   1      44.581  24.175  29.248  1.00  0.00     0.031 C 
ATOM     33  C   UNL A   1      46.376  28.953  32.536  1.00  0.00     0.029 A 
ATOM     34  C   UNL A   1      45.651  28.122  31.698  1.00  0.00     0.049 A 
ATOM     35  H   UNL A   1      43.753  28.429  30.830  1.00  0.00     0.167 HD
ATOM     36  C   UNL A   1      45.199  26.034  30.443  1.00  0.00     0.074 A 
ATOM     37  C   UNL A   1      45.563  24.716  29.957  1.00  0.00     0.031 C 
ATOM     38  C   UNL A   1      46.005  26.821  31.195  1.00  0.00     0.031 A 
BRANCH  25  39
ATOM     39  C   UNL A   1      43.581  32.347  32.495  1.00  0.00    -0.014 A 
ATOM     40  C   UNL A   1      43.136  32.596  33.804  1.00  0.00     0.010 A 
ATOM     41  C   UNL A   1      44.170  33.385  31.753  1.00  0.00     0.010 A 
ATOM     42  C   UNL A   1      43.240  33.877  34.351  1.00  0.00     0.020 A 
ATOM     43  C   UNL A   1      44.278  34.667  32.298  1.00  0.00     0.020 A 
ATOM     44  C   UNL A   1      43.792  34.909  33.586  1.00  0.00     0.054 A 
BRANCH  44  45
ATOM     45  S   UNL A   1      43.891  36.581  34.284  1.00  0.00     0.124 S 
ATOM     46  O   UNL A   1      45.326  36.717  34.525  1.00  0.00    -0.237 OA
ATOM     47  O   UNL A   1      43.354  37.421  33.216  1.00  0.00    -0.237 OA
ATOM     48  O   UNL A   1      43.060  36.497  35.482  1.00  0.00    -0.744 OA
ENDBRANCH  44  45
ENDBRANCH  25  39
BRANCH  26  49
ATOM     49  C   UNL A   1      42.019  23.666  27.922  1.00  0.00    -0.014 A 
ATOM     50  C   UNL A   1      42.552  23.413  26.646  1.00  0.00     0.010 A 
ATOM     51  C   UNL A   1      41.322  22.650  28.597  1.00  0.00     0.010 A 
ATOM     52  C   UNL A   1      42.407  22.154  26.060  1.00  0.00     0.020 A 
ATOM     53  C   UNL A   1      41.179  21.389  28.014  1.00  0.00     0.020 A 
ATOM     54  C   UNL A   1      41.725  21.148  26.750  1.00  0.00     0.054 A 
BRANCH  54  55
ATOM     55  S   UNL A   1      41.625  19.477  26.050  1.00  0.00     0.124 S 
ATOM     56  O   UNL A   1      42.522  19.574  24.904  1.00  0.00    -0.237 OA
ATOM     57  O   UNL A   1      42.090  18.626  27.144  1.00  0.00    -0.237 OA
ATOM     58  O   UNL A   1      40.205  19.344  25.733  1.00  0.00    -0.744 OA
ENDBRANCH  54  55
ENDBRANCH  26  49
BRANCH  38  59
ATOM     59  C   UNL A   1      47.367  26.281  31.517  1.00  0.00    -0.014 A 
ATOM     60  C   UNL A   1      48.427  26.456  30.612  1.00  0.00     0.010 A 
ATOM     61  C   UNL A   1      47.594  25.608  32.729  1.00  0.00     0.010 A 
ATOM     62  C   UNL A   1      49.694  25.948  30.904  1.00  0.00     0.020 A 
ATOM     63  C   UNL A   1      48.862  25.101  33.025  1.00  0.00     0.020 A 
ATOM     64  C   UNL A   1      49.902  25.263  32.104  1.00  0.00     0.054 A 
BRANCH  64  65
ATOM     65  S   UNL A   1      51.551  24.619  32.499  1.00  0.00     0.124 S 
ATOM     66  O   UNL A   1      51.390  23.192  32.237  1.00  0.00    -0.237 OA
ATOM     67  O   UNL A   1      52.424  25.333  31.569  1.00  0.00    -0.237 OA
ATOM     68  O   UNL A   1      51.723  24.983  33.904  1.00  0.00    -0.744 OA
ENDBRANCH  64  65
ENDBRANCH  38  59
ENDBRANCH  12  13
ENDBRANCH   5   7
ENDBRANCH   2   3
ENDBRANCH   1   2
BRANCH   1  69
ATOM     69  C   UNL A   1      33.523  26.409  25.709  1.00  0.00     0.118 C 
BRANCH  69  70
ATOM     70  N   UNL A   1      32.563  25.317  25.714  1.00  0.00    -0.352 N 
ATOM     71  C   UNL A   1      31.969  24.655  24.671  1.00  0.00     0.257 C 
ATOM     72  H   UNL A   1      32.298  25.003  26.608  1.00  0.00     0.163 HD
ATOM     73  O   UNL A   1      31.090  23.834  24.917  1.00  0.00    -0.269 OA
BRANCH  71  74
ATOM     74  C   UNL A   1      32.398  24.924  23.324  1.00  0.00     0.113 A 
ATOM     75  C   UNL A   1      31.933  25.927  22.425  1.00  0.00     0.127 A 
ATOM     76  C   UNL A   1      33.259  24.157  22.564  1.00  0.00     0.175 A 
ATOM     77  N   UNL A   1      32.528  25.792  21.227  1.00  0.00    -0.079 NA
ATOM     78  O   UNL A   1      33.355  24.694  21.322  1.00  0.00    -0.357 OA
BRANCH  75  79
ATOM     79  C   UNL A   1      30.959  26.992  22.660  1.00  0.00     0.005 A 
ATOM     80  C   UNL A   1      29.694  26.713  23.197  1.00  0.00     0.012 A 
ATOM     81  C   UNL A   1      31.286  28.321  22.347  1.00  0.00     0.012 A 
ATOM     82  C   UNL A   1      28.769  27.742  23.405  1.00  0.00     0.021 A 
ATOM     83  C   UNL A   1      30.360  29.349  22.552  1.00  0.00     0.021 A 
ATOM     84  C   UNL A   1      29.105  29.054  23.078  1.00  0.00     0.041 A 
ATOM     85  Cl  UNL A   1      27.965  30.318  23.327  1.00  0.00    -0.084 Cl
ENDBRANCH  75  79
BRANCH  76  86
ATOM     86  C   UNL A   1      34.042  22.928  22.813  1.00  0.00     0.242 C 
BRANCH  86  87
ATOM     87  O   UNL A   1      35.202  23.205  23.591  1.00  0.00    -0.345 OA
BRANCH  87  88
ATOM     88  C   UNL A   1      35.191  22.771  24.950  1.00  0.00     0.250 C 
ATOM     89  C   UNL A   1      35.963  23.673  25.920  1.00  0.00     0.062 C 
ATOM     90  O   UNL A   1      35.735  21.445  25.022  1.00  0.00    -0.353 OA
ATOM     91  C   UNL A   1      37.453  23.677  25.594  1.00  0.00     0.008 C 
ATOM     92  C   UNL A   1      37.105  21.390  24.622  1.00  0.00     0.163 C 
ATOM     93  C   UNL A   1      37.979  22.248  25.526  1.00  0.00     0.029 C 
ENDBRANCH  87  88
ENDBRANCH  86  87
ENDBRANCH  76  86
ENDBRANCH  71  74
ENDBRANCH  69  70
ENDBRANCH   1  69
TORSDOF 17
ENDMDL
MODEL 3
REMARK VINA RESULT:     -11.7      3.227      9.613
REMARK SMILES O=C(NCCCNC(=O)c1c(-c2ccc(Cl)cc2)noc1CO[C@@H]1CCCCO1)c1ccc(-c2c3nc(c(-c4ccc(S(=O)(=O)[O-])cc4)c4ccc([nH]4)c(-c4ccc(S(=O)(=O)[O-])cc4)c4nc(c(-c5ccc(S(=O)(=O)[O-])cc5)c5ccc2[nH]5)C=C4)C=C3)cc1
REMARK SMILES IDX 5 1 4 2 3 3 1 4 2 5 30 7 31 8 89 9 32 10 88 11 33 12 34 13
REMARK SMILES IDX 35 14 82 15 36 16 87 17 81 18 83 19 37 20 86 21 80 22 79 23
REMARK SMILES IDX 38 25 68 26 49 27 67 28 50 29 53 30 66 31 84 32 51 33 52 34
REMARK SMILES IDX 65 36 85 37 54 38 39 39 40 40 48 41 41 42 47 43 42 44 43 45
REMARK SMILES IDX 44 46 45 47 46 48 69 49 70 50 78 51 71 52 77 53 72 54 73 55
REMARK SMILES IDX 74 56 75 57 76 58 55 59 56 60 64 61 57 62 63 63 58 64 59 65
REMARK SMILES IDX 60 66 61 67 62 68 6 69 7 70 8 71 9 73 10 74 11 75 21 76
REMARK SMILES IDX 19 77 20 78 12 79 13 80 18 81 14 82 17 83 15 84 16 85 22 86
REMARK SMILES IDX 23 87 24 88 25 89 29 90 26 91 28 92 27 93
REMARK H PARENT 3 6 83 24 53 35 7 72
REMARK Flexibility Score: inf
ROOT
ATOM      1  C   UNL A   1      35.433  23.864  25.705  1.00  0.00     0.042 C 
ENDROOT
BRANCH   1   2
ATOM      2  C   UNL A   1      36.811  23.960  25.049  1.00  0.00     0.118 C 
BRANCH   2   3
ATOM      3  N   UNL A   1      37.704  22.887  25.453  1.00  0.00    -0.352 N 
ATOM      4  O   UNL A   1      39.560  21.890  26.202  1.00  0.00    -0.269 OA
ATOM      5  C   UNL A   1      38.891  22.919  26.140  1.00  0.00     0.251 C 
ATOM      6  H   UNL A   1      37.408  21.987  25.189  1.00  0.00     0.163 HD
BRANCH   5   7
ATOM      7  C   UNL A   1      39.381  24.154  26.792  1.00  0.00     0.039 A 
ATOM      8  C   UNL A   1      40.095  25.127  26.085  1.00  0.00     0.014 A 
ATOM      9  C   UNL A   1      39.030  24.385  28.128  1.00  0.00     0.014 A 
ATOM     10  C   UNL A   1      40.530  26.283  26.734  1.00  0.00     0.010 A 
ATOM     11  C   UNL A   1      39.431  25.562  28.767  1.00  0.00     0.010 A 
ATOM     12  C   UNL A   1      40.200  26.511  28.080  1.00  0.00    -0.014 A 
BRANCH  12  13
ATOM     13  C   UNL A   1      40.614  27.773  28.737  1.00  0.00     0.031 A 
ATOM     14  C   UNL A   1      42.024  27.967  29.218  1.00  0.00     0.074 A 
ATOM     15  C   UNL A   1      39.714  28.763  28.888  1.00  0.00     0.049 A 
ATOM     16  N   UNL A   1      42.568  29.029  29.755  1.00  0.00    -0.248 NA
ATOM     17  C   UNL A   1      42.936  26.822  29.083  1.00  0.00     0.031 C 
ATOM     18  C   UNL A   1      38.309  28.695  28.484  1.00  0.00     0.029 A 
ATOM     19  N   UNL A   1      39.855  30.024  29.408  1.00  0.00    -0.354 N 
ATOM     20  C   UNL A   1      43.881  28.680  30.038  1.00  0.00     0.074 A 
ATOM     21  C   UNL A   1      44.051  27.304  29.617  1.00  0.00     0.031 C 
ATOM     22  C   UNL A   1      37.725  29.877  28.737  1.00  0.00     0.029 A 
ATOM     23  C   UNL A   1      38.709  30.775  29.334  1.00  0.00     0.049 A 
ATOM     24  H   UNL A   1      40.695  30.357  29.796  1.00  0.00     0.167 HD
ATOM     25  C   UNL A   1      44.860  29.435  30.591  1.00  0.00     0.031 A 
ATOM     26  C   UNL A   1      38.472  32.049  29.701  1.00  0.00     0.031 A 
ATOM     27  C   UNL A   1      44.716  30.811  30.981  1.00  0.00     0.049 A 
ATOM     28  C   UNL A   1      39.567  32.863  30.318  1.00  0.00     0.074 A 
ATOM     29  C   UNL A   1      45.679  31.678  31.466  1.00  0.00     0.029 A 
ATOM     30  N   UNL A   1      43.525  31.518  30.941  1.00  0.00    -0.354 N 
ATOM     31  N   UNL A   1      40.817  32.529  30.526  1.00  0.00    -0.248 NA
ATOM     32  C   UNL A   1      39.215  34.217  30.763  1.00  0.00     0.031 C 
ATOM     33  C   UNL A   1      45.064  32.910  31.736  1.00  0.00     0.029 A 
ATOM     34  C   UNL A   1      43.720  32.803  31.417  1.00  0.00     0.049 A 
ATOM     35  H   UNL A   1      42.666  31.159  30.620  1.00  0.00     0.167 HD
ATOM     36  C   UNL A   1      41.403  33.633  31.131  1.00  0.00     0.074 A 
ATOM     37  C   UNL A   1      40.372  34.645  31.252  1.00  0.00     0.031 C 
ATOM     38  C   UNL A   1      42.683  33.791  31.547  1.00  0.00     0.031 A 
BRANCH  25  39
ATOM     39  C   UNL A   1      46.183  28.762  30.803  1.00  0.00    -0.014 A 
ATOM     40  C   UNL A   1      47.186  28.833  29.822  1.00  0.00     0.010 A 
ATOM     41  C   UNL A   1      46.415  28.029  31.980  1.00  0.00     0.010 A 
ATOM     42  C   UNL A   1      48.390  28.146  29.995  1.00  0.00     0.020 A 
ATOM     43  C   UNL A   1      47.619  27.343  32.157  1.00  0.00     0.020 A 
ATOM     44  C   UNL A   1      48.590  27.388  31.153  1.00  0.00     0.054 A 
BRANCH  44  45
ATOM     45  S   UNL A   1      50.138  26.466  31.358  1.00  0.00     0.124 S 
ATOM     46  O   UNL A   1      50.196  26.303  32.809  1.00  0.00    -0.237 OA
ATOM     47  O   UNL A   1      49.901  25.240  30.600  1.00  0.00    -0.237 OA
ATOM     48  O   UNL A   1      51.143  27.361  30.789  1.00  0.00    -0.744 OA
ENDBRANCH  44  45
ENDBRANCH  25  39
BRANCH  26  49
ATOM     49  C   UNL A   1      37.125  32.621  29.473  1.00  0.00    -0.014 A 
ATOM     50  C   UNL A   1      36.189  32.649  30.521  1.00  0.00     0.010 A 
ATOM     51  C   UNL A   1      36.807  33.218  28.242  1.00  0.00     0.010 A 
ATOM     52  C   UNL A   1      34.956  33.282  30.347  1.00  0.00     0.020 A 
ATOM     53  C   UNL A   1      35.577  33.855  28.067  1.00  0.00     0.020 A 
ATOM     54  C   UNL A   1      34.660  33.885  29.121  1.00  0.00     0.054 A 
BRANCH  54  55
ATOM     55  S   UNL A   1      33.110  34.807  28.917  1.00  0.00     0.124 S 
ATOM     56  O   UNL A   1      32.567  34.790  30.271  1.00  0.00    -0.237 OA
ATOM     57  O   UNL A   1      33.557  36.112  28.433  1.00  0.00    -0.237 OA
ATOM     58  O   UNL A   1      32.385  34.005  27.934  1.00  0.00    -0.744 OA
ENDBRANCH  54  55
ENDBRANCH  26  49
BRANCH  38  59
ATOM     59  C   UNL A   1      43.027  35.102  32.190  1.00  0.00    -0.014 A 
ATOM     60  C   UNL A   1      42.791  35.298  33.561  1.00  0.00     0.010 A 
ATOM     61  C   UNL A   1      43.597  36.136  31.430  1.00  0.00     0.010 A 
ATOM     62  C   UNL A   1      43.101  36.519  34.162  1.00  0.00     0.020 A 
ATOM     63  C   UNL A   1      43.912  37.359  32.029  1.00  0.00     0.020 A 
ATOM     64  C   UNL A   1      43.650  37.546  33.390  1.00  0.00     0.054 A 
BRANCH  64  65
ATOM     65  S   UNL A   1      44.076  39.129  34.170  1.00  0.00     0.124 S 
ATOM     66  O   UNL A   1      44.084  38.776  35.586  1.00  0.00    -0.237 OA
ATOM     67  O   UNL A   1      45.382  39.447  33.595  1.00  0.00    -0.237 OA
ATOM     68  O   UNL A   1      42.990  40.011  33.748  1.00  0.00    -0.744 OA
ENDBRANCH  64  65
ENDBRANCH  38  59
ENDBRANCH  12  13
ENDBRANCH   5   7
ENDBRANCH   2   3
ENDBRANCH   1   2
BRANCH   1  69
ATOM     69  C   UNL A   1      34.453  24.974  25.336  1.00  0.00     0.118 C 
BRANCH  69  70
ATOM     70  N   UNL A   1      33.687  24.678  24.136  1.00  0.00    -0.352 N 
ATOM     71  C   UNL A   1      32.352  24.410  23.980  1.00  0.00     0.257 C 
ATOM     72  H   UNL A   1      34.211  24.669  23.303  1.00  0.00     0.163 HD
ATOM     73  O   UNL A   1      31.943  24.069  22.874  1.00  0.00    -0.269 OA
BRANCH  71  74
ATOM     74  C   UNL A   1      31.465  24.549  25.105  1.00  0.00     0.113 A 
ATOM     75  C   UNL A   1      30.592  25.630  25.424  1.00  0.00     0.127 A 
ATOM     76  C   UNL A   1      31.389  23.714  26.202  1.00  0.00     0.175 A 
ATOM     77  N   UNL A   1      29.996  25.414  26.609  1.00  0.00    -0.079 NA
ATOM     78  O   UNL A   1      30.491  24.220  27.085  1.00  0.00    -0.357 OA
BRANCH  75  79
ATOM     79  C   UNL A   1      30.310  26.841  24.654  1.00  0.00     0.005 A 
ATOM     80  C   UNL A   1      31.133  27.973  24.754  1.00  0.00     0.012 A 
ATOM     81  C   UNL A   1      29.201  26.881  23.795  1.00  0.00     0.012 A 
ATOM     82  C   UNL A   1      30.841  29.127  24.019  1.00  0.00     0.021 A 
ATOM     83  C   UNL A   1      28.908  28.036  23.063  1.00  0.00     0.021 A 
ATOM     84  C   UNL A   1      29.729  29.155  23.181  1.00  0.00     0.041 A 
ATOM     85  Cl  UNL A   1      29.368  30.577  22.282  1.00  0.00    -0.084 Cl
ENDBRANCH  75  79
BRANCH  76  86
ATOM     86  C   UNL A   1      32.062  22.457  26.594  1.00  0.00     0.242 C 
BRANCH  86  87
ATOM     87  O   UNL A   1      31.960  21.477  25.567  1.00  0.00    -0.345 OA
BRANCH  87  88
ATOM     88  C   UNL A   1      33.175  21.057  24.948  1.00  0.00     0.250 C 
ATOM     89  C   UNL A   1      33.068  20.780  23.444  1.00  0.00     0.062 C 
ATOM     90  O   UNL A   1      33.648  19.870  25.601  1.00  0.00    -0.353 OA
ATOM     91  C   UNL A   1      32.141  19.601  23.169  1.00  0.00     0.008 C 
ATOM     92  C   UNL A   1      32.752  18.767  25.456  1.00  0.00     0.163 C 
ATOM     93  C   UNL A   1      32.572  18.392  23.991  1.00  0.00     0.029 C 
ENDBRANCH  87  88
ENDBRANCH  86  87
ENDBRANCH  76  86
ENDBRANCH  71  74
ENDBRANCH  69  70
ENDBRANCH   1  69
TORSDOF 17
ENDMDL
