MODEL 1
REMARK VINA RESULT:     -11.9      0.000      0.000
REMARK SMILES C[C@@H](C(=O)NCCCNC(=O)c1ccc(-c2c3nc(c(-c4ccc(S(=O)(=O)[O-])cc4)c4ccc([nH]4)c(-c4ccc(S(=O)(=O)[O-])cc4)c4nc(c(-c5ccc(S(=O)(=O)[O-])cc5)c5ccc2[nH]5)C=C4)C=C3)cc1)c1ccc(-c2cccc(OC(=O)NC3CC3)c2)c(F)c1
REMARK SMILES IDX 6 1 5 2 3 3 4 4 2 6 1 7 72 8 73 9 91 10 74 11 89 12 75 13
REMARK SMILES IDX 90 14 76 15 77 16 88 17 78 18 80 19 79 20 81 21 82 22 83 23
REMARK SMILES IDX 84 24 85 26 86 27 87 28 7 29 8 30 9 31 10 32 11 34 12 35
REMARK SMILES IDX 13 36 71 37 14 38 70 39 15 40 16 41 17 42 64 43 18 44 69 45
REMARK SMILES IDX 63 46 65 47 19 48 68 49 62 50 61 51 20 53 50 54 31 55 49 56
REMARK SMILES IDX 32 57 35 58 48 59 66 60 33 61 34 62 47 64 67 65 36 66 21 67
REMARK SMILES IDX 22 68 30 69 23 70 29 71 24 72 25 73 26 74 27 75 28 76 51 77
REMARK SMILES IDX 52 78 60 79 53 80 59 81 54 82 55 83 56 84 57 85 58 86 37 87
REMARK SMILES IDX 38 88 46 89 39 90 45 91 40 92 41 93 42 94 43 95 44 96
REMARK H PARENT 5 5 84 25 9 33 65 52 35 63
REMARK Flexibility Score: inf
ROOT
ATOM      1  C   UNL A   1      31.701  28.565  25.204  1.00  0.00     0.117 C 
ENDROOT
BRANCH   1   2
ATOM      2  N   UNL A   1      31.530  29.232  23.931  1.00  0.00    -0.356 N 
ATOM      3  C   UNL A   1      30.952  28.814  22.770  1.00  0.00     0.227 C 
ATOM      4  O   UNL A   1      31.145  29.553  21.805  1.00  0.00    -0.274 OA
ATOM      5  H   UNL A   1      31.893  30.147  23.898  1.00  0.00     0.163 HD
BRANCH   3   6
ATOM      6  C   UNL A   1      30.110  27.524  22.744  1.00  0.00     0.105 C 
ATOM      7  C   UNL A   1      28.820  27.669  23.558  1.00  0.00     0.023 C 
BRANCH   6   8
ATOM      8  C   UNL A   1      30.796  26.228  23.185  1.00  0.00    -0.033 A 
ATOM      9  C   UNL A   1      30.442  25.496  24.325  1.00  0.00     0.005 A 
ATOM     10  C   UNL A   1      31.795  25.690  22.356  1.00  0.00     0.044 A 
ATOM     11  C   UNL A   1      31.080  24.294  24.646  1.00  0.00     0.012 A 
ATOM     12  C   UNL A   1      32.407  24.476  22.664  1.00  0.00     0.131 A 
ATOM     13  C   UNL A   1      32.074  23.760  23.820  1.00  0.00     0.018 A 
ATOM     14  F   UNL A   1      33.335  24.005  21.816  1.00  0.00    -0.206 F 
BRANCH  13  15
ATOM     15  C   UNL A   1      32.783  22.542  24.220  1.00  0.00    -0.012 A 
ATOM     16  C   UNL A   1      34.133  22.563  24.610  1.00  0.00     0.009 A 
ATOM     17  C   UNL A   1      32.129  21.304  24.135  1.00  0.00     0.056 A 
ATOM     18  C   UNL A   1      34.813  21.378  24.893  1.00  0.00     0.004 A 
ATOM     19  C   UNL A   1      32.809  20.126  24.407  1.00  0.00     0.133 A 
ATOM     20  C   UNL A   1      34.152  20.156  24.786  1.00  0.00     0.047 A 
BRANCH  19  21
ATOM     21  O   UNL A   1      32.229  18.838  24.312  1.00  0.00    -0.410 OA
BRANCH  21  22
ATOM     22  C   UNL A   1      32.467  17.896  23.317  1.00  0.00     0.412 C 
ATOM     23  O   UNL A   1      32.404  18.079  22.105  1.00  0.00    -0.224 OA
ATOM     24  N   UNL A   1      32.786  16.653  23.795  1.00  0.00    -0.318 N 
ATOM     25  H   UNL A   1      32.907  15.959  23.108  1.00  0.00     0.167 HD
BRANCH  24  26
ATOM     26  C   UNL A   1      32.970  16.214  25.137  1.00  0.00     0.085 C 
ATOM     27  C   UNL A   1      31.986  15.469  25.992  1.00  0.00     0.027 C 
ATOM     28  C   UNL A   1      33.145  14.738  25.389  1.00  0.00     0.027 C 
ENDBRANCH  24  26
ENDBRANCH  21  22
ENDBRANCH  19  21
ENDBRANCH  13  15
ENDBRANCH   6   8
ENDBRANCH   3   6
ENDBRANCH   1   2
BRANCH   1  29
ATOM     29  C   UNL A   1      33.147  28.112  25.402  1.00  0.00     0.042 C 
BRANCH  29  30
ATOM     30  C   UNL A   1      33.703  28.380  26.796  1.00  0.00     0.118 C 
BRANCH  30  31
ATOM     31  N   UNL A   1      33.601  29.779  27.180  1.00  0.00    -0.352 N 
ATOM     32  C   UNL A   1      34.478  30.556  27.895  1.00  0.00     0.251 C 
ATOM     33  H   UNL A   1      32.782  30.237  26.883  1.00  0.00     0.163 HD
ATOM     34  O   UNL A   1      34.122  31.659  28.298  1.00  0.00    -0.269 OA
BRANCH  32  35
ATOM     35  C   UNL A   1      35.837  30.056  28.198  1.00  0.00     0.039 A 
ATOM     36  C   UNL A   1      36.815  30.117  27.203  1.00  0.00     0.014 A 
ATOM     37  C   UNL A   1      36.146  29.521  29.452  1.00  0.00     0.014 A 
ATOM     38  C   UNL A   1      38.117  29.699  27.486  1.00  0.00     0.010 A 
ATOM     39  C   UNL A   1      37.461  29.185  29.759  1.00  0.00     0.010 A 
ATOM     40  C   UNL A   1      38.461  29.265  28.777  1.00  0.00    -0.014 A 
BRANCH  40  41
ATOM     41  C   UNL A   1      39.859  28.896  29.119  1.00  0.00     0.031 A 
ATOM     42  C   UNL A   1      40.771  29.900  29.774  1.00  0.00     0.074 A 
ATOM     43  C   UNL A   1      40.327  27.676  28.785  1.00  0.00     0.049 A 
ATOM     44  N   UNL A   1      42.032  29.777  30.100  1.00  0.00    -0.248 NA
ATOM     45  C   UNL A   1      40.197  31.220  30.085  1.00  0.00     0.031 C 
ATOM     46  C   UNL A   1      39.555  26.628  28.113  1.00  0.00     0.029 A 
ATOM     47  N   UNL A   1      41.566  27.112  28.961  1.00  0.00    -0.354 N 
ATOM     48  C   UNL A   1      42.406  31.004  30.637  1.00  0.00     0.074 A 
ATOM     49  C   UNL A   1      41.254  31.873  30.545  1.00  0.00     0.031 C 
ATOM     50  C   UNL A   1      40.328  25.541  27.960  1.00  0.00     0.029 A 
ATOM     51  C   UNL A   1      41.662  25.829  28.476  1.00  0.00     0.049 A 
ATOM     52  H   UNL A   1      42.316  27.583  29.392  1.00  0.00     0.167 HD
ATOM     53  C   UNL A   1      43.595  31.369  31.176  1.00  0.00     0.031 A 
ATOM     54  C   UNL A   1      42.708  24.980  28.440  1.00  0.00     0.031 A 
ATOM     55  C   UNL A   1      44.738  30.499  31.267  1.00  0.00     0.049 A 
ATOM     56  C   UNL A   1      44.026  25.417  29.020  1.00  0.00     0.074 A 
ATOM     57  C   UNL A   1      45.970  30.756  31.842  1.00  0.00     0.029 A 
ATOM     58  N   UNL A   1      44.794  29.207  30.764  1.00  0.00    -0.354 N 
ATOM     59  N   UNL A   1      44.338  26.558  29.588  1.00  0.00    -0.248 NA
ATOM     60  C   UNL A   1      45.128  24.447  28.968  1.00  0.00     0.031 C 
ATOM     61  C   UNL A   1      46.791  29.645  31.630  1.00  0.00     0.029 A 
ATOM     62  C   UNL A   1      46.049  28.666  30.988  1.00  0.00     0.049 A 
ATOM     63  H   UNL A   1      44.051  28.742  30.315  1.00  0.00     0.167 HD
ATOM     64  C   UNL A   1      45.666  26.431  29.985  1.00  0.00     0.074 A 
ATOM     65  C   UNL A   1      46.089  25.099  29.608  1.00  0.00     0.031 C 
ATOM     66  C   UNL A   1      46.459  27.337  30.608  1.00  0.00     0.031 A 
BRANCH  53  67
ATOM     67  C   UNL A   1      43.722  32.777  31.699  1.00  0.00    -0.014 A 
ATOM     68  C   UNL A   1      44.206  33.816  30.884  1.00  0.00     0.010 A 
ATOM     69  C   UNL A   1      43.309  33.076  33.010  1.00  0.00     0.010 A 
ATOM     70  C   UNL A   1      44.318  35.117  31.384  1.00  0.00     0.020 A 
ATOM     71  C   UNL A   1      43.388  34.381  33.505  1.00  0.00     0.020 A 
ATOM     72  C   UNL A   1      43.909  35.390  32.693  1.00  0.00     0.054 A 
BRANCH  72  73
ATOM     73  S   UNL A   1      44.043  37.091  33.307  1.00  0.00     0.124 S 
ATOM     74  O   UNL A   1      42.898  37.177  34.210  1.00  0.00    -0.237 OA
ATOM     75  O   UNL A   1      45.353  37.094  33.953  1.00  0.00    -0.237 OA
ATOM     76  O   UNL A   1      43.945  37.906  32.099  1.00  0.00    -0.744 OA
ENDBRANCH  72  73
ENDBRANCH  53  67
BRANCH  54  77
ATOM     77  C   UNL A   1      42.548  23.627  27.837  1.00  0.00    -0.014 A 
ATOM     78  C   UNL A   1      43.078  23.340  26.567  1.00  0.00     0.010 A 
ATOM     79  C   UNL A   1      41.873  22.611  28.541  1.00  0.00     0.010 A 
ATOM     80  C   UNL A   1      42.917  22.071  26.002  1.00  0.00     0.020 A 
ATOM     81  C   UNL A   1      41.740  21.332  27.993  1.00  0.00     0.020 A 
ATOM     82  C   UNL A   1      42.252  21.074  26.720  1.00  0.00     0.054 A 
BRANCH  82  83
ATOM     83  S   UNL A   1      42.101  19.421  25.988  1.00  0.00     0.124 S 
ATOM     84  O   UNL A   1      40.661  19.312  25.778  1.00  0.00    -0.237 OA
ATOM     85  O   UNL A   1      42.912  19.538  24.779  1.00  0.00    -0.237 OA
ATOM     86  O   UNL A   1      42.653  18.540  27.015  1.00  0.00    -0.744 OA
ENDBRANCH  82  83
ENDBRANCH  54  77
BRANCH  66  87
ATOM     87  C   UNL A   1      47.861  26.909  30.960  1.00  0.00    -0.014 A 
ATOM     88  C   UNL A   1      48.954  27.223  30.133  1.00  0.00     0.010 A 
ATOM     89  C   UNL A   1      48.091  26.230  32.172  1.00  0.00     0.010 A 
ATOM     90  C   UNL A   1      50.247  26.839  30.497  1.00  0.00     0.020 A 
ATOM     91  C   UNL A   1      49.386  25.873  32.554  1.00  0.00     0.020 A 
ATOM     92  C   UNL A   1      50.455  26.168  31.707  1.00  0.00     0.054 A 
BRANCH  92  93
ATOM     93  S   UNL A   1      52.150  25.723  32.176  1.00  0.00     0.124 S 
ATOM     94  O   UNL A   1      51.991  24.340  32.617  1.00  0.00    -0.237 OA
ATOM     95  O   UNL A   1      52.886  25.905  30.927  1.00  0.00    -0.237 OA
ATOM     96  O   UNL A   1      52.479  26.678  33.232  1.00  0.00    -0.744 OA
ENDBRANCH  92  93
ENDBRANCH  66  87
ENDBRANCH  40  41
ENDBRANCH  32  35
ENDBRANCH  30  31
ENDBRANCH  29  30
ENDBRANCH   1  29
TORSDOF 18
ENDMDL
MODEL 2
REMARK VINA RESULT:     -11.8      4.603     10.785
REMARK SMILES C[C@@H](C(=O)NCCCNC(=O)c1ccc(-c2c3nc(c(-c4ccc(S(=O)(=O)[O-])cc4)c4ccc([nH]4)c(-c4ccc(S(=O)(=O)[O-])cc4)c4nc(c(-c5ccc(S(=O)(=O)[O-])cc5)c5ccc2[nH]5)C=C4)C=C3)cc1)c1ccc(-c2cccc(OC(=O)NC3CC3)c2)c(F)c1
REMARK SMILES IDX 6 1 5 2 3 3 4 4 2 6 1 7 72 8 73 9 91 10 74 11 89 12 75 13
REMARK SMILES IDX 90 14 76 15 77 16 88 17 78 18 80 19 79 20 81 21 82 22 83 23
REMARK SMILES IDX 84 24 85 26 86 27 87 28 7 29 8 30 9 31 10 32 11 34 12 35
REMARK SMILES IDX 13 36 71 37 14 38 70 39 15 40 16 41 17 42 64 43 18 44 69 45
REMARK SMILES IDX 63 46 65 47 19 48 68 49 62 50 61 51 20 53 50 54 31 55 49 56
REMARK SMILES IDX 32 57 35 58 48 59 66 60 33 61 34 62 47 64 67 65 36 66 21 67
REMARK SMILES IDX 22 68 30 69 23 70 29 71 24 72 25 73 26 74 27 75 28 76 51 77
REMARK SMILES IDX 52 78 60 79 53 80 59 81 54 82 55 83 56 84 57 85 58 86 37 87
REMARK SMILES IDX 38 88 46 89 39 90 45 91 40 92 41 93 42 94 43 95 44 96
REMARK H PARENT 5 5 84 25 9 33 65 52 35 63
REMARK Flexibility Score: inf
ROOT
ATOM      1  C   UNL A   1      43.661  22.031  25.362  1.00  0.00     0.117 C 
ENDROOT
BRANCH   1   2
ATOM      2  N   UNL A   1      42.800  20.951  25.796  1.00  0.00    -0.356 N 
ATOM      3  C   UNL A   1      41.716  20.946  26.622  1.00  0.00     0.227 C 
ATOM      4  O   UNL A   1      41.323  19.825  26.945  1.00  0.00    -0.274 OA
ATOM      5  H   UNL A   1      43.038  20.068  25.431  1.00  0.00     0.163 HD
BRANCH   3   6
ATOM      6  C   UNL A   1      41.064  22.273  27.055  1.00  0.00     0.105 C 
ATOM      7  C   UNL A   1      41.015  22.412  28.580  1.00  0.00     0.023 C 
BRANCH   6   8
ATOM      8  C   UNL A   1      39.664  22.576  26.514  1.00  0.00    -0.033 A 
ATOM      9  C   UNL A   1      39.010  23.805  26.663  1.00  0.00     0.005 A 
ATOM     10  C   UNL A   1      39.019  21.589  25.750  1.00  0.00     0.044 A 
ATOM     11  C   UNL A   1      37.749  24.031  26.103  1.00  0.00     0.012 A 
ATOM     12  C   UNL A   1      37.775  21.830  25.169  1.00  0.00     0.131 A 
ATOM     13  C   UNL A   1      37.108  23.048  25.344  1.00  0.00     0.018 A 
ATOM     14  F   UNL A   1      37.226  20.854  24.428  1.00  0.00    -0.206 F 
BRANCH  13  15
ATOM     15  C   UNL A   1      35.753  23.280  24.836  1.00  0.00    -0.012 A 
ATOM     16  C   UNL A   1      35.334  22.789  23.588  1.00  0.00     0.009 A 
ATOM     17  C   UNL A   1      34.870  24.085  25.571  1.00  0.00     0.056 A 
ATOM     18  C   UNL A   1      34.072  23.105  23.083  1.00  0.00     0.004 A 
ATOM     19  C   UNL A   1      33.619  24.406  25.064  1.00  0.00     0.133 A 
ATOM     20  C   UNL A   1      33.214  23.920  23.820  1.00  0.00     0.047 A 
BRANCH  19  21
ATOM     21  O   UNL A   1      32.686  25.237  25.729  1.00  0.00    -0.410 OA
BRANCH  21  22
ATOM     22  C   UNL A   1      31.586  24.816  26.469  1.00  0.00     0.412 C 
ATOM     23  O   UNL A   1      31.585  23.985  27.372  1.00  0.00    -0.224 OA
ATOM     24  N   UNL A   1      30.409  25.411  26.099  1.00  0.00    -0.318 N 
ATOM     25  H   UNL A   1      29.610  25.089  26.575  1.00  0.00     0.167 HD
BRANCH  24  26
ATOM     26  C   UNL A   1      30.167  26.427  25.132  1.00  0.00     0.085 C 
ATOM     27  C   UNL A   1      30.311  26.315  23.641  1.00  0.00     0.027 C 
ATOM     28  C   UNL A   1      28.947  26.306  24.256  1.00  0.00     0.027 C 
ENDBRANCH  24  26
ENDBRANCH  21  22
ENDBRANCH  19  21
ENDBRANCH  13  15
ENDBRANCH   6   8
ENDBRANCH   3   6
ENDBRANCH   1   2
BRANCH   1  29
ATOM     29  C   UNL A   1      44.397  22.662  26.543  1.00  0.00     0.042 C 
BRANCH  29  30
ATOM     30  C   UNL A   1      44.167  24.161  26.697  1.00  0.00     0.118 C 
BRANCH  30  31
ATOM     31  N   UNL A   1      43.293  24.702  25.669  1.00  0.00    -0.352 N 
ATOM     32  C   UNL A   1      42.293  25.636  25.774  1.00  0.00     0.251 C 
ATOM     33  H   UNL A   1      43.439  24.344  24.763  1.00  0.00     0.163 HD
ATOM     34  O   UNL A   1      41.525  25.811  24.832  1.00  0.00    -0.269 OA
BRANCH  32  35
ATOM     35  C   UNL A   1      42.128  26.412  27.022  1.00  0.00     0.039 A 
ATOM     36  C   UNL A   1      42.872  27.581  27.193  1.00  0.00     0.014 A 
ATOM     37  C   UNL A   1      41.253  25.985  28.026  1.00  0.00     0.014 A 
ATOM     38  C   UNL A   1      42.691  28.354  28.341  1.00  0.00     0.010 A 
ATOM     39  C   UNL A   1      41.012  26.799  29.129  1.00  0.00     0.010 A 
ATOM     40  C   UNL A   1      41.733  27.991  29.302  1.00  0.00    -0.014 A 
BRANCH  40  41
ATOM     41  C   UNL A   1      41.468  28.845  30.488  1.00  0.00     0.031 A 
ATOM     42  C   UNL A   1      42.305  28.699  31.731  1.00  0.00     0.074 A 
ATOM     43  C   UNL A   1      40.435  29.713  30.467  1.00  0.00     0.049 A 
ATOM     44  N   UNL A   1      42.191  29.319  32.878  1.00  0.00    -0.248 NA
ATOM     45  C   UNL A   1      43.398  27.713  31.689  1.00  0.00     0.031 C 
ATOM     46  C   UNL A   1      39.527  29.921  29.337  1.00  0.00     0.029 A 
ATOM     47  N   UNL A   1      39.972  30.578  31.426  1.00  0.00    -0.354 N 
ATOM     48  C   UNL A   1      43.183  28.788  33.696  1.00  0.00     0.074 A 
ATOM     49  C   UNL A   1      43.854  27.760  32.932  1.00  0.00     0.031 C 
ATOM     50  C   UNL A   1      38.636  30.873  29.657  1.00  0.00     0.029 A 
ATOM     51  C   UNL A   1      38.876  31.308  31.029  1.00  0.00     0.049 A 
ATOM     52  H   UNL A   1      40.385  30.668  32.316  1.00  0.00     0.167 HD
ATOM     53  C   UNL A   1      43.518  29.139  34.961  1.00  0.00     0.031 A 
ATOM     54  C   UNL A   1      38.138  32.218  31.695  1.00  0.00     0.031 A 
ATOM     55  C   UNL A   1      42.848  30.164  35.717  1.00  0.00     0.049 A 
ATOM     56  C   UNL A   1      38.513  32.570  33.109  1.00  0.00     0.074 A 
ATOM     57  C   UNL A   1      43.145  30.629  36.986  1.00  0.00     0.029 A 
ATOM     58  N   UNL A   1      41.743  30.879  35.278  1.00  0.00    -0.354 N 
ATOM     59  N   UNL A   1      39.500  32.107  33.840  1.00  0.00    -0.248 NA
ATOM     60  C   UNL A   1      37.684  33.578  33.783  1.00  0.00     0.031 C 
ATOM     61  C   UNL A   1      42.181  31.578  37.340  1.00  0.00     0.029 A 
ATOM     62  C   UNL A   1      41.327  31.759  36.263  1.00  0.00     0.049 A 
ATOM     63  H   UNL A   1      41.317  30.776  34.396  1.00  0.00     0.167 HD
ATOM     64  C   UNL A   1      39.426  32.789  35.050  1.00  0.00     0.074 A 
ATOM     65  C   UNL A   1      38.310  33.707  34.945  1.00  0.00     0.031 C 
ATOM     66  C   UNL A   1      40.213  32.668  36.147  1.00  0.00     0.031 A 
BRANCH  53  67
ATOM     67  C   UNL A   1      44.655  28.395  35.614  1.00  0.00    -0.014 A 
ATOM     68  C   UNL A   1      45.981  28.856  35.515  1.00  0.00     0.010 A 
ATOM     69  C   UNL A   1      44.391  27.243  36.376  1.00  0.00     0.010 A 
ATOM     70  C   UNL A   1      47.024  28.155  36.126  1.00  0.00     0.020 A 
ATOM     71  C   UNL A   1      45.426  26.556  37.017  1.00  0.00     0.020 A 
ATOM     72  C   UNL A   1      46.739  27.008  36.873  1.00  0.00     0.054 A 
BRANCH  72  73
ATOM     73  S   UNL A   1      48.110  26.132  37.675  1.00  0.00     0.124 S 
ATOM     74  O   UNL A   1      48.542  25.219  36.620  1.00  0.00    -0.237 OA
ATOM     75  O   UNL A   1      49.041  27.214  37.987  1.00  0.00    -0.237 OA
ATOM     76  O   UNL A   1      47.488  25.496  38.832  1.00  0.00    -0.744 OA
ENDBRANCH  72  73
ENDBRANCH  53  67
BRANCH  54  77
ATOM     77  C   UNL A   1      36.973  32.863  31.029  1.00  0.00    -0.014 A 
ATOM     78  C   UNL A   1      35.659  32.493  31.363  1.00  0.00     0.010 A 
ATOM     79  C   UNL A   1      37.174  33.866  30.060  1.00  0.00     0.010 A 
ATOM     80  C   UNL A   1      34.568  33.096  30.727  1.00  0.00     0.020 A 
ATOM     81  C   UNL A   1      36.086  34.494  29.447  1.00  0.00     0.020 A 
ATOM     82  C   UNL A   1      34.789  34.095  29.776  1.00  0.00     0.054 A 
BRANCH  82  83
ATOM     83  S   UNL A   1      33.358  34.899  29.003  1.00  0.00     0.124 S 
ATOM     84  O   UNL A   1      32.490  35.141  30.151  1.00  0.00    -0.237 OA
ATOM     85  O   UNL A   1      33.955  36.087  28.398  1.00  0.00    -0.237 OA
ATOM     86  O   UNL A   1      32.877  33.899  28.052  1.00  0.00    -0.744 OA
ENDBRANCH  82  83
ENDBRANCH  54  77
BRANCH  66  87
ATOM     87  C   UNL A   1      39.925  33.575  37.316  1.00  0.00    -0.014 A 
ATOM     88  C   UNL A   1      40.475  34.866  37.397  1.00  0.00     0.010 A 
ATOM     89  C   UNL A   1      39.039  33.143  38.322  1.00  0.00     0.010 A 
ATOM     90  C   UNL A   1      40.169  35.697  38.477  1.00  0.00     0.020 A 
ATOM     91  C   UNL A   1      38.705  33.983  39.387  1.00  0.00     0.020 A 
ATOM     92  C   UNL A   1      39.284  35.251  39.465  1.00  0.00     0.054 A 
BRANCH  92  93
ATOM     93  S   UNL A   1      38.868  36.368  40.831  1.00  0.00     0.124 S 
ATOM     94  O   UNL A   1      40.148  36.495  41.521  1.00  0.00    -0.237 OA
ATOM     95  O   UNL A   1      38.407  37.567  40.134  1.00  0.00    -0.237 OA
ATOM     96  O   UNL A   1      37.833  35.646  41.567  1.00  0.00    -0.744 OA
ENDBRANCH  92  93
ENDBRANCH  66  87
ENDBRANCH  40  41
ENDBRANCH  32  35
ENDBRANCH  30  31
ENDBRANCH  29  30
ENDBRANCH   1  29
TORSDOF 18
ENDMDL
MODEL 3
REMARK VINA RESULT:     -11.8      2.875      3.621
REMARK SMILES C[C@@H](C(=O)NCCCNC(=O)c1ccc(-c2c3nc(c(-c4ccc(S(=O)(=O)[O-])cc4)c4ccc([nH]4)c(-c4ccc(S(=O)(=O)[O-])cc4)c4nc(c(-c5ccc(S(=O)(=O)[O-])cc5)c5ccc2[nH]5)C=C4)C=C3)cc1)c1ccc(-c2cccc(OC(=O)NC3CC3)c2)c(F)c1
REMARK SMILES IDX 6 1 5 2 3 3 4 4 2 6 1 7 72 8 73 9 91 10 74 11 89 12 75 13
REMARK SMILES IDX 90 14 76 15 77 16 88 17 78 18 80 19 79 20 81 21 82 22 83 23
REMARK SMILES IDX 84 24 85 26 86 27 87 28 7 29 8 30 9 31 10 32 11 34 12 35
REMARK SMILES IDX 13 36 71 37 14 38 70 39 15 40 16 41 17 42 64 43 18 44 69 45
REMARK SMILES IDX 63 46 65 47 19 48 68 49 62 50 61 51 20 53 50 54 31 55 49 56
REMARK SMILES IDX 32 57 35 58 48 59 66 60 33 61 34 62 47 64 67 65 36 66 21 67
REMARK SMILES IDX 22 68 30 69 23 70 29 71 24 72 25 73 26 74 27 75 28 76 51 77
REMARK SMILES IDX 52 78 60 79 53 80 59 81 54 82 55 83 56 84 57 85 58 86 37 87
REMARK SMILES IDX 38 88 46 89 39 90 45 91 40 92 41 93 42 94 43 95 44 96
REMARK H PARENT 5 5 84 25 9 33 65 52 35 63
REMARK Flexibility Score: inf
ROOT
ATOM      1  C   UNL A   1      33.435  28.592  27.229  1.00  0.00     0.117 C 
ENDROOT
BRANCH   1   2
ATOM      2  N   UNL A   1      32.388  28.624  26.230  1.00  0.00    -0.356 N 
ATOM      3  C   UNL A   1      32.423  28.402  24.886  1.00  0.00     0.227 C 
ATOM      4  O   UNL A   1      31.389  28.702  24.289  1.00  0.00    -0.274 OA
ATOM      5  H   UNL A   1      31.495  28.844  26.583  1.00  0.00     0.163 HD
BRANCH   3   6
ATOM      6  C   UNL A   1      33.679  27.793  24.233  1.00  0.00     0.105 C 
ATOM      7  C   UNL A   1      33.751  28.108  22.736  1.00  0.00     0.023 C 
BRANCH   6   8
ATOM      8  C   UNL A   1      33.900  26.289  24.405  1.00  0.00    -0.033 A 
ATOM      9  C   UNL A   1      34.040  25.647  25.642  1.00  0.00     0.005 A 
ATOM     10  C   UNL A   1      33.883  25.479  23.255  1.00  0.00     0.044 A 
ATOM     11  C   UNL A   1      34.193  24.260  25.729  1.00  0.00     0.012 A 
ATOM     12  C   UNL A   1      34.006  24.094  23.351  1.00  0.00     0.131 A 
ATOM     13  C   UNL A   1      34.177  23.457  24.586  1.00  0.00     0.018 A 
ATOM     14  F   UNL A   1      33.955  23.377  22.217  1.00  0.00    -0.206 F 
BRANCH  13  15
ATOM     15  C   UNL A   1      34.420  22.016  24.698  1.00  0.00    -0.012 A 
ATOM     16  C   UNL A   1      35.694  21.499  24.984  1.00  0.00     0.009 A 
ATOM     17  C   UNL A   1      33.375  21.119  24.433  1.00  0.00     0.056 A 
ATOM     18  C   UNL A   1      35.922  20.122  24.990  1.00  0.00     0.004 A 
ATOM     19  C   UNL A   1      33.604  19.750  24.430  1.00  0.00     0.133 A 
ATOM     20  C   UNL A   1      34.875  19.245  24.707  1.00  0.00     0.047 A 
BRANCH  19  21
ATOM     21  O   UNL A   1      32.612  18.783  24.141  1.00  0.00    -0.410 OA
BRANCH  21  22
ATOM     22  C   UNL A   1      32.657  17.830  23.128  1.00  0.00     0.412 C 
ATOM     23  O   UNL A   1      32.451  18.020  21.934  1.00  0.00    -0.224 OA
ATOM     24  N   UNL A   1      32.951  16.567  23.569  1.00  0.00    -0.318 N 
ATOM     25  H   UNL A   1      32.936  15.869  22.876  1.00  0.00     0.167 HD
BRANCH  24  26
ATOM     26  C   UNL A   1      33.277  16.113  24.879  1.00  0.00     0.085 C 
ATOM     27  C   UNL A   1      32.360  16.031  26.065  1.00  0.00     0.027 C 
ATOM     28  C   UNL A   1      32.732  14.781  25.330  1.00  0.00     0.027 C 
ENDBRANCH  24  26
ENDBRANCH  21  22
ENDBRANCH  19  21
ENDBRANCH  13  15
ENDBRANCH   6   8
ENDBRANCH   3   6
ENDBRANCH   1   2
BRANCH   1  29
ATOM     29  C   UNL A   1      34.209  29.909  27.263  1.00  0.00     0.042 C 
BRANCH  29  30
ATOM     30  C   UNL A   1      35.570  29.820  27.944  1.00  0.00     0.118 C 
BRANCH  30  31
ATOM     31  N   UNL A   1      35.499  30.084  29.372  1.00  0.00    -0.352 N 
ATOM     32  C   UNL A   1      36.470  29.954  30.334  1.00  0.00     0.251 C 
ATOM     33  H   UNL A   1      34.626  30.402  29.698  1.00  0.00     0.163 HD
ATOM     34  O   UNL A   1      36.162  30.026  31.520  1.00  0.00    -0.269 OA
BRANCH  32  35
ATOM     35  C   UNL A   1      37.875  29.708  29.944  1.00  0.00     0.039 A 
ATOM     36  C   UNL A   1      38.793  29.337  30.929  1.00  0.00     0.014 A 
ATOM     37  C   UNL A   1      38.291  29.850  28.617  1.00  0.00     0.014 A 
ATOM     38  C   UNL A   1      40.112  29.049  30.572  1.00  0.00     0.010 A 
ATOM     39  C   UNL A   1      39.582  29.482  28.250  1.00  0.00     0.010 A 
ATOM     40  C   UNL A   1      40.509  29.082  29.225  1.00  0.00    -0.014 A 
BRANCH  40  41
ATOM     41  C   UNL A   1      41.885  28.697  28.818  1.00  0.00     0.031 A 
ATOM     42  C   UNL A   1      42.979  29.731  28.765  1.00  0.00     0.074 A 
ATOM     43  C   UNL A   1      42.137  27.428  28.437  1.00  0.00     0.049 A 
ATOM     44  N   UNL A   1      44.223  29.595  28.387  1.00  0.00    -0.248 NA
ATOM     45  C   UNL A   1      42.622  31.102  29.170  1.00  0.00     0.031 C 
ATOM     46  C   UNL A   1      41.155  26.342  28.408  1.00  0.00     0.029 A 
ATOM     47  N   UNL A   1      43.296  26.837  27.998  1.00  0.00    -0.354 N 
ATOM     48  C   UNL A   1      44.793  30.860  28.492  1.00  0.00     0.074 A 
ATOM     49  C   UNL A   1      43.744  31.760  28.919  1.00  0.00     0.031 C 
ATOM     50  C   UNL A   1      41.758  25.213  28.002  1.00  0.00     0.029 A 
ATOM     51  C   UNL A   1      43.155  25.503  27.696  1.00  0.00     0.049 A 
ATOM     52  H   UNL A   1      44.148  27.323  27.907  1.00  0.00     0.167 HD
ATOM     53  C   UNL A   1      46.076  31.234  28.273  1.00  0.00     0.031 A 
ATOM     54  C   UNL A   1      44.045  24.613  27.215  1.00  0.00     0.031 A 
ATOM     55  C   UNL A   1      47.117  30.334  27.850  1.00  0.00     0.049 A 
ATOM     56  C   UNL A   1      45.458  25.059  26.953  1.00  0.00     0.074 A 
ATOM     57  C   UNL A   1      48.459  30.605  27.650  1.00  0.00     0.029 A 
ATOM     58  N   UNL A   1      46.932  28.991  27.554  1.00  0.00    -0.354 N 
ATOM     59  N   UNL A   1      45.993  26.244  27.127  1.00  0.00    -0.248 NA
ATOM     60  C   UNL A   1      46.390  24.045  26.444  1.00  0.00     0.031 C 
ATOM     61  C   UNL A   1      49.072  29.443  27.172  1.00  0.00     0.029 A 
ATOM     62  C   UNL A   1      48.129  28.428  27.144  1.00  0.00     0.049 A 
ATOM     63  H   UNL A   1      46.076  28.509  27.626  1.00  0.00     0.167 HD
ATOM     64  C   UNL A   1      47.332  26.110  26.774  1.00  0.00     0.074 A 
ATOM     65  C   UNL A   1      47.527  24.726  26.395  1.00  0.00     0.031 C 
ATOM     66  C   UNL A   1      48.311  27.048  26.769  1.00  0.00     0.031 A 
BRANCH  53  67
ATOM     67  C   UNL A   1      46.424  32.687  28.474  1.00  0.00    -0.014 A 
ATOM     68  C   UNL A   1      46.292  33.621  27.430  1.00  0.00     0.010 A 
ATOM     69  C   UNL A   1      46.846  33.136  29.739  1.00  0.00     0.010 A 
ATOM     70  C   UNL A   1      46.618  34.964  27.633  1.00  0.00     0.020 A 
ATOM     71  C   UNL A   1      47.142  34.485  29.957  1.00  0.00     0.020 A 
ATOM     72  C   UNL A   1      47.043  35.388  28.896  1.00  0.00     0.054 A 
BRANCH  72  73
ATOM     73  S   UNL A   1      47.436  37.142  29.137  1.00  0.00     0.124 S 
ATOM     74  O   UNL A   1      47.178  37.315  30.564  1.00  0.00    -0.237 OA
ATOM     75  O   UNL A   1      48.841  37.210  28.742  1.00  0.00    -0.237 OA
ATOM     76  O   UNL A   1      46.507  37.833  28.248  1.00  0.00    -0.744 OA
ENDBRANCH  72  73
ENDBRANCH  53  67
BRANCH  54  77
ATOM     77  C   UNL A   1      43.626  23.207  26.957  1.00  0.00    -0.014 A 
ATOM     78  C   UNL A   1      43.157  22.394  28.004  1.00  0.00     0.010 A 
ATOM     79  C   UNL A   1      43.684  22.676  25.654  1.00  0.00     0.010 A 
ATOM     80  C   UNL A   1      42.773  21.072  27.757  1.00  0.00     0.020 A 
ATOM     81  C   UNL A   1      43.270  21.366  25.399  1.00  0.00     0.020 A 
ATOM     82  C   UNL A   1      42.829  20.567  26.455  1.00  0.00     0.054 A 
BRANCH  82  83
ATOM     83  S   UNL A   1      42.277  18.866  26.152  1.00  0.00     0.124 S 
ATOM     84  O   UNL A   1      43.204  18.426  25.114  1.00  0.00    -0.237 OA
ATOM     85  O   UNL A   1      42.448  18.242  27.461  1.00  0.00    -0.237 OA
ATOM     86  O   UNL A   1      40.889  19.028  25.725  1.00  0.00    -0.744 OA
ENDBRANCH  82  83
ENDBRANCH  54  77
BRANCH  66  87
ATOM     87  C   UNL A   1      49.697  26.606  26.375  1.00  0.00    -0.014 A 
ATOM     88  C   UNL A   1      50.141  26.679  25.043  1.00  0.00     0.010 A 
ATOM     89  C   UNL A   1      50.589  26.163  27.371  1.00  0.00     0.010 A 
ATOM     90  C   UNL A   1      51.441  26.289  24.710  1.00  0.00     0.020 A 
ATOM     91  C   UNL A   1      51.899  25.804  27.047  1.00  0.00     0.020 A 
ATOM     92  C   UNL A   1      52.312  25.856  25.715  1.00  0.00     0.054 A 
BRANCH  92  93
ATOM     93  S   UNL A   1      54.008  25.401  25.260  1.00  0.00     0.124 S 
ATOM     94  O   UNL A   1      53.945  23.942  25.270  1.00  0.00    -0.237 OA
ATOM     95  O   UNL A   1      54.162  26.016  23.943  1.00  0.00    -0.237 OA
ATOM     96  O   UNL A   1      54.822  25.996  26.318  1.00  0.00    -0.744 OA
ENDBRANCH  92  93
ENDBRANCH  66  87
ENDBRANCH  40  41
ENDBRANCH  32  35
ENDBRANCH  30  31
ENDBRANCH  29  30
ENDBRANCH   1  29
TORSDOF 18
ENDMDL
