MODEL 1
REMARK VINA RESULT:     -10.6      0.000      0.000
REMARK SMILES [NH3+][C@H](C(=O)NCCCNC(=O)c1ccc(-c2c3nc(c(-c4ccc(S(=O)(=O)[O-])cc4)c4ccc([nH]4)c(-c4ccc(S(=O)(=O)[O-])cc4)c4nc(c(-c5ccc(S(=O)(=O)[O-])cc5)c5ccc2[nH]5)C=C4)C=C3)cc1)c1cccc(OCc2ccc(F)cc2)c1
REMARK SMILES IDX 6 1 5 2 3 3 4 4 2 6 1 7 72 11 73 12 86 13 74 14 76 15 75 16
REMARK SMILES IDX 77 17 78 18 79 19 80 20 85 21 81 22 84 23 82 24 83 25 7 26
REMARK SMILES IDX 8 27 9 28 10 29 11 31 12 32 13 33 71 34 14 35 70 36 15 37
REMARK SMILES IDX 16 38 17 39 64 40 18 41 69 42 63 43 65 44 19 45 68 46 62 47
REMARK SMILES IDX 61 48 20 50 50 51 31 52 49 53 32 54 35 55 48 56 66 57 33 58
REMARK SMILES IDX 34 59 47 61 67 62 36 63 21 64 22 65 30 66 23 67 29 68 24 69
REMARK SMILES IDX 25 70 26 71 27 72 28 73 51 74 52 75 60 76 53 77 59 78 54 79
REMARK SMILES IDX 55 80 56 81 57 82 58 83 37 84 38 85 46 86 39 87 45 88 40 89
REMARK SMILES IDX 41 90 42 91 43 92 44 93
REMARK H PARENT 5 5 1 8 1 9 1 10 9 30 65 49 35 60
REMARK Flexibility Score: inf
ROOT
ATOM      1  C   UNL A   1      33.269  26.992  25.138  1.00  0.00     0.118 C 
ENDROOT
BRANCH   1   2
ATOM      2  N   UNL A   1      33.528  26.976  23.687  1.00  0.00    -0.351 N 
ATOM      3  C   UNL A   1      33.353  26.146  22.626  1.00  0.00     0.283 C 
ATOM      4  O   UNL A   1      34.122  26.444  21.685  1.00  0.00    -0.268 OA
ATOM      5  H   UNL A   1      33.952  27.817  23.402  1.00  0.00     0.163 HD
BRANCH   3   6
ATOM      6  C   UNL A   1      32.226  25.059  22.333  1.00  0.00     0.302 C 
BRANCH   6   7
ATOM      7  N   UNL A   1      32.269  24.867  20.839  1.00  0.00    -0.343 N 
ATOM      8  H   UNL A   1      31.326  24.952  20.457  1.00  0.00     0.345 HD
ATOM      9  H   UNL A   1      32.639  23.942  20.625  1.00  0.00     0.345 HD
ATOM     10  H   UNL A   1      32.870  25.579  20.421  1.00  0.00     0.345 HD
ENDBRANCH   6   7
BRANCH   6  11
ATOM     11  C   UNL A   1      32.268  23.682  22.988  1.00  0.00     0.023 A 
ATOM     12  C   UNL A   1      32.198  22.469  22.264  1.00  0.00     0.011 A 
ATOM     13  C   UNL A   1      32.307  23.551  24.364  1.00  0.00     0.057 A 
ATOM     14  C   UNL A   1      32.290  21.215  22.897  1.00  0.00     0.004 A 
ATOM     15  C   UNL A   1      32.548  22.326  24.984  1.00  0.00     0.120 A 
ATOM     16  C   UNL A   1      32.501  21.143  24.269  1.00  0.00     0.046 A 
BRANCH  15  17
ATOM     17  O   UNL A   1      32.869  22.390  26.300  1.00  0.00    -0.489 OA
BRANCH  17  18
ATOM     18  C   UNL A   1      33.955  23.285  26.628  1.00  0.00     0.265 C 
BRANCH  18  19
ATOM     19  C   UNL A   1      35.420  23.015  26.251  1.00  0.00    -0.011 A 
ATOM     20  C   UNL A   1      35.757  21.705  25.885  1.00  0.00     0.010 A 
ATOM     21  C   UNL A   1      36.454  23.958  26.174  1.00  0.00     0.010 A 
ATOM     22  C   UNL A   1      37.076  21.315  25.626  1.00  0.00     0.039 A 
ATOM     23  C   UNL A   1      37.783  23.577  25.931  1.00  0.00     0.039 A 
ATOM     24  C   UNL A   1      38.086  22.250  25.689  1.00  0.00     0.123 A 
ATOM     25  F   UNL A   1      39.357  21.867  25.508  1.00  0.00    -0.207 F 
ENDBRANCH  18  19
ENDBRANCH  17  18
ENDBRANCH  15  17
ENDBRANCH   6  11
ENDBRANCH   3   6
ENDBRANCH   1   2
BRANCH   1  26
ATOM     26  C   UNL A   1      33.093  28.442  25.656  1.00  0.00     0.042 C 
BRANCH  26  27
ATOM     27  C   UNL A   1      32.847  28.696  27.162  1.00  0.00     0.118 C 
BRANCH  27  28
ATOM     28  N   UNL A   1      33.156  30.063  27.592  1.00  0.00    -0.352 N 
ATOM     29  C   UNL A   1      34.257  30.741  28.078  1.00  0.00     0.251 C 
ATOM     30  H   UNL A   1      32.372  30.652  27.513  1.00  0.00     0.163 HD
ATOM     31  O   UNL A   1      34.077  31.940  28.317  1.00  0.00    -0.269 OA
BRANCH  29  32
ATOM     32  C   UNL A   1      35.610  30.180  28.414  1.00  0.00     0.039 A 
ATOM     33  C   UNL A   1      36.577  30.199  27.390  1.00  0.00     0.014 A 
ATOM     34  C   UNL A   1      35.988  29.581  29.615  1.00  0.00     0.014 A 
ATOM     35  C   UNL A   1      37.904  29.741  27.589  1.00  0.00     0.010 A 
ATOM     36  C   UNL A   1      37.342  29.163  29.827  1.00  0.00     0.010 A 
ATOM     37  C   UNL A   1      38.346  29.275  28.837  1.00  0.00    -0.014 A 
BRANCH  37  38
ATOM     38  C   UNL A   1      39.821  28.963  29.093  1.00  0.00     0.031 A 
ATOM     39  C   UNL A   1      40.456  27.640  28.674  1.00  0.00     0.074 A 
ATOM     40  C   UNL A   1      40.635  29.833  29.751  1.00  0.00     0.049 A 
ATOM     41  N   UNL A   1      41.679  27.201  28.883  1.00  0.00    -0.248 NA
ATOM     42  C   UNL A   1      39.611  26.686  27.944  1.00  0.00     0.031 C 
ATOM     43  C   UNL A   1      40.243  31.145  30.275  1.00  0.00     0.029 A 
ATOM     44  N   UNL A   1      41.974  29.746  30.105  1.00  0.00    -0.354 N 
ATOM     45  C   UNL A   1      41.734  25.913  28.354  1.00  0.00     0.074 A 
ATOM     46  C   UNL A   1      40.411  25.632  27.836  1.00  0.00     0.031 C 
ATOM     47  C   UNL A   1      41.303  31.736  30.851  1.00  0.00     0.029 A 
ATOM     48  C   UNL A   1      42.456  30.839  30.801  1.00  0.00     0.049 A 
ATOM     49  H   UNL A   1      42.535  28.969  29.879  1.00  0.00     0.167 HD
ATOM     50  C   UNL A   1      42.774  25.039  28.283  1.00  0.00     0.031 A 
ATOM     51  C   UNL A   1      43.660  31.109  31.361  1.00  0.00     0.031 A 
ATOM     52  C   UNL A   1      44.123  25.296  28.728  1.00  0.00     0.049 A 
ATOM     53  C   UNL A   1      44.795  30.110  31.285  1.00  0.00     0.074 A 
ATOM     54  C   UNL A   1      45.240  24.486  28.573  1.00  0.00     0.029 A 
ATOM     55  N   UNL A   1      44.545  26.416  29.418  1.00  0.00    -0.354 N 
ATOM     56  N   UNL A   1      44.834  28.952  30.676  1.00  0.00    -0.248 NA
ATOM     57  C   UNL A   1      46.051  30.460  31.974  1.00  0.00     0.031 C 
ATOM     58  C   UNL A   1      46.317  25.079  29.235  1.00  0.00     0.029 A 
ATOM     59  C   UNL A   1      45.890  26.293  29.741  1.00  0.00     0.049 A 
ATOM     60  H   UNL A   1      43.978  27.188  29.646  1.00  0.00     0.167 HD
ATOM     61  C   UNL A   1      46.118  28.452  30.891  1.00  0.00     0.074 A 
ATOM     62  C   UNL A   1      46.838  29.439  31.658  1.00  0.00     0.031 C 
ATOM     63  C   UNL A   1      46.640  27.267  30.490  1.00  0.00     0.031 A 
BRANCH  50  64
ATOM     64  C   UNL A   1      42.523  23.672  27.688  1.00  0.00    -0.014 A 
ATOM     65  C   UNL A   1      42.813  23.398  26.341  1.00  0.00     0.010 A 
ATOM     66  C   UNL A   1      42.126  22.613  28.531  1.00  0.00     0.010 A 
ATOM     67  C   UNL A   1      42.688  22.098  25.841  1.00  0.00     0.020 A 
ATOM     68  C   UNL A   1      42.029  21.307  28.042  1.00  0.00     0.020 A 
ATOM     69  C   UNL A   1      42.301  21.060  26.696  1.00  0.00     0.054 A 
BRANCH  69  70
ATOM     70  S   UNL A   1      42.209  19.376  26.025  1.00  0.00     0.124 S 
ATOM     71  O   UNL A   1      40.777  19.223  25.791  1.00  0.00    -0.237 OA
ATOM     72  O   UNL A   1      43.038  19.463  24.829  1.00  0.00    -0.237 OA
ATOM     73  O   UNL A   1      42.755  18.544  27.101  1.00  0.00    -0.744 OA
ENDBRANCH  69  70
ENDBRANCH  50  64
BRANCH  51  74
ATOM     74  C   UNL A   1      43.885  32.386  32.115  1.00  0.00    -0.014 A 
ATOM     75  C   UNL A   1      43.587  32.481  33.488  1.00  0.00     0.010 A 
ATOM     76  C   UNL A   1      44.316  33.543  31.438  1.00  0.00     0.010 A 
ATOM     77  C   UNL A   1      43.676  33.708  34.156  1.00  0.00     0.020 A 
ATOM     78  C   UNL A   1      44.444  34.762  32.112  1.00  0.00     0.020 A 
ATOM     79  C   UNL A   1      44.104  34.843  33.462  1.00  0.00     0.054 A 
BRANCH  79  80
ATOM     80  S   UNL A   1      44.230  36.421  34.351  1.00  0.00     0.124 S 
ATOM     81  O   UNL A   1      43.277  36.234  35.441  1.00  0.00    -0.237 OA
ATOM     82  O   UNL A   1      45.637  36.454  34.738  1.00  0.00    -0.237 OA
ATOM     83  O   UNL A   1      43.845  37.409  33.345  1.00  0.00    -0.744 OA
ENDBRANCH  79  80
ENDBRANCH  51  74
BRANCH  63  84
ATOM     84  C   UNL A   1      48.077  26.953  30.836  1.00  0.00    -0.014 A 
ATOM     85  C   UNL A   1      48.405  26.188  31.969  1.00  0.00     0.010 A 
ATOM     86  C   UNL A   1      49.110  27.348  29.965  1.00  0.00     0.010 A 
ATOM     87  C   UNL A   1      49.735  25.834  32.230  1.00  0.00     0.020 A 
ATOM     88  C   UNL A   1      50.438  26.974  30.207  1.00  0.00     0.020 A 
ATOM     89  C   UNL A   1      50.742  26.223  31.342  1.00  0.00     0.054 A 
BRANCH  89  90
ATOM     90  S   UNL A   1      52.446  25.682  31.663  1.00  0.00     0.124 S 
ATOM     91  O   UNL A   1      52.254  24.300  32.095  1.00  0.00    -0.237 OA
ATOM     92  O   UNL A   1      53.085  25.849  30.358  1.00  0.00    -0.237 OA
ATOM     93  O   UNL A   1      52.914  26.597  32.700  1.00  0.00    -0.744 OA
ENDBRANCH  89  90
ENDBRANCH  63  84
ENDBRANCH  37  38
ENDBRANCH  29  32
ENDBRANCH  27  28
ENDBRANCH  26  27
ENDBRANCH   1  26
TORSDOF 18
ENDMDL
MODEL 2
REMARK VINA RESULT:     -10.6      3.092      9.191
REMARK SMILES [NH3+][C@H](C(=O)NCCCNC(=O)c1ccc(-c2c3nc(c(-c4ccc(S(=O)(=O)[O-])cc4)c4ccc([nH]4)c(-c4ccc(S(=O)(=O)[O-])cc4)c4nc(c(-c5ccc(S(=O)(=O)[O-])cc5)c5ccc2[nH]5)C=C4)C=C3)cc1)c1cccc(OCc2ccc(F)cc2)c1
REMARK SMILES IDX 6 1 5 2 3 3 4 4 2 6 1 7 72 11 73 12 86 13 74 14 76 15 75 16
REMARK SMILES IDX 77 17 78 18 79 19 80 20 85 21 81 22 84 23 82 24 83 25 7 26
REMARK SMILES IDX 8 27 9 28 10 29 11 31 12 32 13 33 71 34 14 35 70 36 15 37
REMARK SMILES IDX 16 38 17 39 64 40 18 41 69 42 63 43 65 44 19 45 68 46 62 47
REMARK SMILES IDX 61 48 20 50 50 51 31 52 49 53 32 54 35 55 48 56 66 57 33 58
REMARK SMILES IDX 34 59 47 61 67 62 36 63 21 64 22 65 30 66 23 67 29 68 24 69
REMARK SMILES IDX 25 70 26 71 27 72 28 73 51 74 52 75 60 76 53 77 59 78 54 79
REMARK SMILES IDX 55 80 56 81 57 82 58 83 37 84 38 85 46 86 39 87 45 88 40 89
REMARK SMILES IDX 41 90 42 91 43 92 44 93
REMARK H PARENT 5 5 1 8 1 9 1 10 9 30 65 49 35 60
REMARK Flexibility Score: inf
ROOT
ATOM      1  C   UNL A   1      35.146  22.369  26.582  1.00  0.00     0.118 C 
ENDROOT
BRANCH   1   2
ATOM      2  N   UNL A   1      35.108  21.232  25.646  1.00  0.00    -0.351 N 
ATOM      3  C   UNL A   1      34.194  20.528  24.927  1.00  0.00     0.283 C 
ATOM      4  O   UNL A   1      34.633  19.399  24.617  1.00  0.00    -0.268 OA
ATOM      5  H   UNL A   1      36.013  20.877  25.496  1.00  0.00     0.163 HD
BRANCH   3   6
ATOM      6  C   UNL A   1      32.818  20.985  24.267  1.00  0.00     0.302 C 
BRANCH   6   7
ATOM      7  N   UNL A   1      31.785  20.722  25.333  1.00  0.00    -0.343 N 
ATOM      8  H   UNL A   1      31.816  19.737  25.600  1.00  0.00     0.345 HD
ATOM      9  H   UNL A   1      30.859  20.947  24.972  1.00  0.00     0.345 HD
ATOM     10  H   UNL A   1      31.982  21.302  26.149  1.00  0.00     0.345 HD
ENDBRANCH   6   7
BRANCH   6  11
ATOM     11  C   UNL A   1      32.621  22.410  23.760  1.00  0.00     0.023 A 
ATOM     12  C   UNL A   1      33.207  22.906  22.573  1.00  0.00     0.011 A 
ATOM     13  C   UNL A   1      31.896  23.331  24.495  1.00  0.00     0.057 A 
ATOM     14  C   UNL A   1      32.964  24.213  22.109  1.00  0.00     0.004 A 
ATOM     15  C   UNL A   1      31.530  24.570  23.972  1.00  0.00     0.120 A 
ATOM     16  C   UNL A   1      32.088  25.044  22.799  1.00  0.00     0.046 A 
BRANCH  15  17
ATOM     17  O   UNL A   1      30.572  25.236  24.665  1.00  0.00    -0.489 OA
BRANCH  17  18
ATOM     18  C   UNL A   1      30.932  25.609  26.013  1.00  0.00     0.265 C 
BRANCH  18  19
ATOM     19  C   UNL A   1      31.950  26.711  26.346  1.00  0.00    -0.011 A 
ATOM     20  C   UNL A   1      31.484  27.819  27.066  1.00  0.00     0.010 A 
ATOM     21  C   UNL A   1      33.321  26.701  26.057  1.00  0.00     0.010 A 
ATOM     22  C   UNL A   1      32.288  28.932  27.333  1.00  0.00     0.039 A 
ATOM     23  C   UNL A   1      34.136  27.817  26.306  1.00  0.00     0.039 A 
ATOM     24  C   UNL A   1      33.602  28.938  26.916  1.00  0.00     0.123 A 
ATOM     25  F   UNL A   1      34.356  30.027  27.110  1.00  0.00    -0.207 F 
ENDBRANCH  18  19
ENDBRANCH  17  18
ENDBRANCH  15  17
ENDBRANCH   6  11
ENDBRANCH   3   6
ENDBRANCH   1   2
BRANCH   1  26
ATOM     26  C   UNL A   1      36.069  23.496  26.052  1.00  0.00     0.042 C 
BRANCH  26  27
ATOM     27  C   UNL A   1      37.050  23.207  24.892  1.00  0.00     0.118 C 
BRANCH  27  28
ATOM     28  N   UNL A   1      38.304  22.578  25.317  1.00  0.00    -0.352 N 
ATOM     29  C   UNL A   1      39.396  22.928  26.088  1.00  0.00     0.251 C 
ATOM     30  H   UNL A   1      38.390  21.666  24.959  1.00  0.00     0.163 HD
ATOM     31  O   UNL A   1      40.267  22.058  26.199  1.00  0.00    -0.269 OA
BRANCH  29  32
ATOM     32  C   UNL A   1      39.679  24.253  26.737  1.00  0.00     0.039 A 
ATOM     33  C   UNL A   1      39.091  24.480  27.998  1.00  0.00     0.014 A 
ATOM     34  C   UNL A   1      40.408  25.309  26.193  1.00  0.00     0.014 A 
ATOM     35  C   UNL A   1      39.313  25.669  28.736  1.00  0.00     0.010 A 
ATOM     36  C   UNL A   1      40.668  26.489  26.962  1.00  0.00     0.010 A 
ATOM     37  C   UNL A   1      40.168  26.680  28.270  1.00  0.00    -0.014 A 
BRANCH  37  38
ATOM     38  C   UNL A   1      40.549  27.869  29.154  1.00  0.00     0.031 A 
ATOM     39  C   UNL A   1      39.605  29.045  29.387  1.00  0.00     0.074 A 
ATOM     40  C   UNL A   1      41.773  27.962  29.743  1.00  0.00     0.049 A 
ATOM     41  N   UNL A   1      39.812  30.159  30.057  1.00  0.00    -0.248 NA
ATOM     42  C   UNL A   1      38.269  28.969  28.783  1.00  0.00     0.031 C 
ATOM     43  C   UNL A   1      42.852  26.976  29.636  1.00  0.00     0.029 A 
ATOM     44  N   UNL A   1      42.329  28.944  30.551  1.00  0.00    -0.354 N 
ATOM     45  C   UNL A   1      38.658  30.927  29.915  1.00  0.00     0.074 A 
ATOM     46  C   UNL A   1      37.762  30.160  29.074  1.00  0.00     0.031 C 
ATOM     47  C   UNL A   1      43.910  27.385  30.356  1.00  0.00     0.029 A 
ATOM     48  C   UNL A   1      43.630  28.694  30.945  1.00  0.00     0.049 A 
ATOM     49  H   UNL A   1      41.837  29.753  30.821  1.00  0.00     0.167 HD
ATOM     50  C   UNL A   1      38.347  32.145  30.436  1.00  0.00     0.031 A 
ATOM     51  C   UNL A   1      44.522  29.414  31.668  1.00  0.00     0.031 A 
ATOM     52  C   UNL A   1      39.179  32.918  31.327  1.00  0.00     0.049 A 
ATOM     53  C   UNL A   1      44.157  30.775  32.220  1.00  0.00     0.074 A 
ATOM     54  C   UNL A   1      38.861  34.104  31.975  1.00  0.00     0.029 A 
ATOM     55  N   UNL A   1      40.477  32.611  31.689  1.00  0.00    -0.354 N 
ATOM     56  N   UNL A   1      43.015  31.412  32.155  1.00  0.00    -0.248 NA
ATOM     57  C   UNL A   1      45.208  31.515  32.944  1.00  0.00     0.031 C 
ATOM     58  C   UNL A   1      39.991  34.553  32.664  1.00  0.00     0.029 A 
ATOM     59  C   UNL A   1      40.989  33.610  32.505  1.00  0.00     0.049 A 
ATOM     60  H   UNL A   1      40.966  31.803  31.410  1.00  0.00     0.167 HD
ATOM     61  C   UNL A   1      43.206  32.608  32.847  1.00  0.00     0.074 A 
ATOM     62  C   UNL A   1      44.559  32.600  33.348  1.00  0.00     0.031 C 
ATOM     63  C   UNL A   1      42.328  33.623  33.033  1.00  0.00     0.031 A 
BRANCH  50  64
ATOM     64  C   UNL A   1      37.019  32.765  30.067  1.00  0.00    -0.014 A 
ATOM     65  C   UNL A   1      35.919  32.708  30.939  1.00  0.00     0.010 A 
ATOM     66  C   UNL A   1      36.920  33.539  28.893  1.00  0.00     0.010 A 
ATOM     67  C   UNL A   1      34.737  33.390  30.633  1.00  0.00     0.020 A 
ATOM     68  C   UNL A   1      35.751  34.247  28.598  1.00  0.00     0.020 A 
ATOM     69  C   UNL A   1      34.662  34.159  29.467  1.00  0.00     0.054 A 
BRANCH  69  70
ATOM     70  S   UNL A   1      33.134  35.080  29.135  1.00  0.00     0.124 S 
ATOM     71  O   UNL A   1      33.651  36.366  28.677  1.00  0.00    -0.237 OA
ATOM     72  O   UNL A   1      32.484  34.264  28.118  1.00  0.00    -0.237 OA
ATOM     73  O   UNL A   1      32.458  35.110  30.434  1.00  0.00    -0.744 OA
ENDBRANCH  69  70
ENDBRANCH  50  64
BRANCH  51  74
ATOM     74  C   UNL A   1      45.911  28.900  31.901  1.00  0.00    -0.014 A 
ATOM     75  C   UNL A   1      46.252  28.249  33.102  1.00  0.00     0.010 A 
ATOM     76  C   UNL A   1      46.925  29.141  30.955  1.00  0.00     0.010 A 
ATOM     77  C   UNL A   1      47.578  27.887  33.369  1.00  0.00     0.020 A 
ATOM     78  C   UNL A   1      48.245  28.746  31.201  1.00  0.00     0.020 A 
ATOM     79  C   UNL A   1      48.568  28.139  32.415  1.00  0.00     0.054 A 
BRANCH  79  80
ATOM     80  S   UNL A   1      50.278  27.646  32.772  1.00  0.00     0.124 S 
ATOM     81  O   UNL A   1      51.041  28.546  31.913  1.00  0.00    -0.237 OA
ATOM     82  O   UNL A   1      50.386  27.895  34.206  1.00  0.00    -0.237 OA
ATOM     83  O   UNL A   1      50.312  26.236  32.389  1.00  0.00    -0.744 OA
ENDBRANCH  79  80
ENDBRANCH  51  74
BRANCH  63  84
ATOM     84  C   UNL A   1      42.768  34.824  33.839  1.00  0.00    -0.014 A 
ATOM     85  C   UNL A   1      42.794  34.792  35.244  1.00  0.00     0.010 A 
ATOM     86  C   UNL A   1      43.252  35.971  33.180  1.00  0.00     0.010 A 
ATOM     87  C   UNL A   1      43.284  35.882  35.973  1.00  0.00     0.020 A 
ATOM     88  C   UNL A   1      43.767  37.053  33.904  1.00  0.00     0.020 A 
ATOM     89  C   UNL A   1      43.775  37.003  35.298  1.00  0.00     0.054 A 
BRANCH  89  90
ATOM     90  S   UNL A   1      44.477  38.369  36.267  1.00  0.00     0.124 S 
ATOM     91  O   UNL A   1      45.886  37.993  36.352  1.00  0.00    -0.237 OA
ATOM     92  O   UNL A   1      44.188  39.535  35.432  1.00  0.00    -0.237 OA
ATOM     93  O   UNL A   1      43.743  38.317  37.528  1.00  0.00    -0.744 OA
ENDBRANCH  89  90
ENDBRANCH  63  84
ENDBRANCH  37  38
ENDBRANCH  29  32
ENDBRANCH  27  28
ENDBRANCH  26  27
ENDBRANCH   1  26
TORSDOF 18
ENDMDL
MODEL 3
REMARK VINA RESULT:     -10.6      4.705     10.720
REMARK SMILES [NH3+][C@H](C(=O)NCCCNC(=O)c1ccc(-c2c3nc(c(-c4ccc(S(=O)(=O)[O-])cc4)c4ccc([nH]4)c(-c4ccc(S(=O)(=O)[O-])cc4)c4nc(c(-c5ccc(S(=O)(=O)[O-])cc5)c5ccc2[nH]5)C=C4)C=C3)cc1)c1cccc(OCc2ccc(F)cc2)c1
REMARK SMILES IDX 6 1 5 2 3 3 4 4 2 6 1 7 72 11 73 12 86 13 74 14 76 15 75 16
REMARK SMILES IDX 77 17 78 18 79 19 80 20 85 21 81 22 84 23 82 24 83 25 7 26
REMARK SMILES IDX 8 27 9 28 10 29 11 31 12 32 13 33 71 34 14 35 70 36 15 37
REMARK SMILES IDX 16 38 17 39 64 40 18 41 69 42 63 43 65 44 19 45 68 46 62 47
REMARK SMILES IDX 61 48 20 50 50 51 31 52 49 53 32 54 35 55 48 56 66 57 33 58
REMARK SMILES IDX 34 59 47 61 67 62 36 63 21 64 22 65 30 66 23 67 29 68 24 69
REMARK SMILES IDX 25 70 26 71 27 72 28 73 51 74 52 75 60 76 53 77 59 78 54 79
REMARK SMILES IDX 55 80 56 81 57 82 58 83 37 84 38 85 46 86 39 87 45 88 40 89
REMARK SMILES IDX 41 90 42 91 43 92 44 93
REMARK H PARENT 5 5 1 8 1 9 1 10 9 30 65 49 35 60
REMARK Flexibility Score: inf
ROOT
ATOM      1  C   UNL A   1      44.389  22.023  25.289  1.00  0.00     0.118 C 
ENDROOT
BRANCH   1   2
ATOM      2  N   UNL A   1      43.466  20.878  25.198  1.00  0.00    -0.351 N 
ATOM      3  C   UNL A   1      42.571  20.220  25.981  1.00  0.00     0.283 C 
ATOM      4  O   UNL A   1      42.361  19.063  25.555  1.00  0.00    -0.268 OA
ATOM      5  H   UNL A   1      43.512  20.468  24.305  1.00  0.00     0.163 HD
BRANCH   3   6
ATOM      6  C   UNL A   1      41.635  20.749  27.156  1.00  0.00     0.302 C 
BRANCH   6   7
ATOM      7  N   UNL A   1      42.578  21.453  28.098  1.00  0.00    -0.343 N 
ATOM      8  H   UNL A   1      43.541  21.270  27.815  1.00  0.00     0.345 HD
ATOM      9  H   UNL A   1      42.431  21.109  29.046  1.00  0.00     0.345 HD
ATOM     10  H   UNL A   1      42.400  22.458  28.070  1.00  0.00     0.345 HD
ENDBRANCH   6   7
BRANCH   6  11
ATOM     11  C   UNL A   1      40.465  21.686  26.872  1.00  0.00     0.023 A 
ATOM     12  C   UNL A   1      40.360  22.991  27.406  1.00  0.00     0.011 A 
ATOM     13  C   UNL A   1      39.387  21.265  26.113  1.00  0.00     0.057 A 
ATOM     14  C   UNL A   1      39.289  23.846  27.082  1.00  0.00     0.004 A 
ATOM     15  C   UNL A   1      38.406  22.150  25.669  1.00  0.00     0.120 A 
ATOM     16  C   UNL A   1      38.318  23.434  26.177  1.00  0.00     0.046 A 
BRANCH  15  17
ATOM     17  O   UNL A   1      37.593  21.678  24.691  1.00  0.00    -0.489 OA
BRANCH  17  18
ATOM     18  C   UNL A   1      36.278  21.267  25.126  1.00  0.00     0.265 C 
BRANCH  18  19
ATOM     19  C   UNL A   1      34.977  21.740  24.458  1.00  0.00    -0.011 A 
ATOM     20  C   UNL A   1      35.040  22.909  23.687  1.00  0.00     0.010 A 
ATOM     21  C   UNL A   1      33.736  21.090  24.486  1.00  0.00     0.010 A 
ATOM     22  C   UNL A   1      33.903  23.495  23.121  1.00  0.00     0.039 A 
ATOM     23  C   UNL A   1      32.585  21.676  23.935  1.00  0.00     0.039 A 
ATOM     24  C   UNL A   1      32.674  22.891  23.283  1.00  0.00     0.123 A 
ATOM     25  F   UNL A   1      31.575  23.483  22.800  1.00  0.00    -0.207 F 
ENDBRANCH  18  19
ENDBRANCH  17  18
ENDBRANCH  15  17
ENDBRANCH   6  11
ENDBRANCH   3   6
ENDBRANCH   1   2
BRANCH   1  26
ATOM     26  C   UNL A   1      43.809  23.265  24.565  1.00  0.00     0.042 C 
BRANCH  26  27
ATOM     27  C   UNL A   1      42.940  24.278  25.348  1.00  0.00     0.118 C 
BRANCH  27  28
ATOM     28  N   UNL A   1      42.903  25.615  24.751  1.00  0.00    -0.352 N 
ATOM     29  C   UNL A   1      42.772  26.915  25.199  1.00  0.00     0.251 C 
ATOM     30  H   UNL A   1      42.998  25.576  23.772  1.00  0.00     0.163 HD
ATOM     31  O   UNL A   1      42.801  27.784  24.320  1.00  0.00    -0.269 OA
BRANCH  29  32
ATOM     32  C   UNL A   1      42.527  27.385  26.605  1.00  0.00     0.039 A 
ATOM     33  C   UNL A   1      42.852  28.726  26.891  1.00  0.00     0.014 A 
ATOM     34  C   UNL A   1      42.075  26.613  27.674  1.00  0.00     0.014 A 
ATOM     35  C   UNL A   1      42.629  29.305  28.165  1.00  0.00     0.010 A 
ATOM     36  C   UNL A   1      41.807  27.214  28.946  1.00  0.00     0.010 A 
ATOM     37  C   UNL A   1      42.032  28.585  29.212  1.00  0.00    -0.014 A 
BRANCH  37  38
ATOM     38  C   UNL A   1      41.623  29.269  30.517  1.00  0.00     0.031 A 
ATOM     39  C   UNL A   1      40.362  30.122  30.628  1.00  0.00     0.074 A 
ATOM     40  C   UNL A   1      42.389  29.191  31.639  1.00  0.00     0.049 A 
ATOM     41  N   UNL A   1      39.917  30.822  31.649  1.00  0.00    -0.248 NA
ATOM     42  C   UNL A   1      39.501  30.212  29.441  1.00  0.00     0.031 C 
ATOM     43  C   UNL A   1      43.654  28.461  31.764  1.00  0.00     0.029 A 
ATOM     44  N   UNL A   1      42.223  29.742  32.902  1.00  0.00    -0.354 N 
ATOM     45  C   UNL A   1      38.760  31.466  31.216  1.00  0.00     0.074 A 
ATOM     46  C   UNL A   1      38.584  31.091  29.827  1.00  0.00     0.031 C 
ATOM     47  C   UNL A   1      44.127  28.589  33.015  1.00  0.00     0.029 A 
ATOM     48  C   UNL A   1      43.242  29.455  33.791  1.00  0.00     0.049 A 
ATOM     49  H   UNL A   1      41.444  30.292  33.145  1.00  0.00     0.167 HD
ATOM     50  C   UNL A   1      37.905  32.280  31.891  1.00  0.00     0.031 A 
ATOM     51  C   UNL A   1      43.478  29.842  35.068  1.00  0.00     0.031 A 
ATOM     52  C   UNL A   1      38.003  32.632  33.287  1.00  0.00     0.049 A 
ATOM     53  C   UNL A   1      42.521  30.765  35.791  1.00  0.00     0.074 A 
ATOM     54  C   UNL A   1      37.097  33.360  34.048  1.00  0.00     0.029 A 
ATOM     55  N   UNL A   1      39.050  32.309  34.130  1.00  0.00    -0.354 N 
ATOM     56  N   UNL A   1      41.380  31.257  35.377  1.00  0.00    -0.248 NA
ATOM     57  C   UNL A   1      42.886  31.183  37.158  1.00  0.00     0.031 C 
ATOM     58  C   UNL A   1      37.633  33.544  35.325  1.00  0.00     0.029 A 
ATOM     59  C   UNL A   1      38.838  32.868  35.383  1.00  0.00     0.049 A 
ATOM     60  H   UNL A   1      39.830  31.763  33.879  1.00  0.00     0.167 HD
ATOM     61  C   UNL A   1      40.888  32.019  36.437  1.00  0.00     0.074 A 
ATOM     62  C   UNL A   1      41.833  31.903  37.522  1.00  0.00     0.031 C 
ATOM     63  C   UNL A   1      39.753  32.757  36.489  1.00  0.00     0.031 A 
BRANCH  50  64
ATOM     64  C   UNL A   1      36.740  32.881  31.138  1.00  0.00    -0.014 A 
ATOM     65  C   UNL A   1      35.412  32.591  31.495  1.00  0.00     0.010 A 
ATOM     66  C   UNL A   1      36.984  33.860  30.153  1.00  0.00     0.010 A 
ATOM     67  C   UNL A   1      34.351  33.250  30.866  1.00  0.00     0.020 A 
ATOM     68  C   UNL A   1      35.927  34.541  29.543  1.00  0.00     0.020 A 
ATOM     69  C   UNL A   1      34.615  34.224  29.897  1.00  0.00     0.054 A 
BRANCH  69  70
ATOM     70  S   UNL A   1      33.214  35.100  29.147  1.00  0.00     0.124 S 
ATOM     71  O   UNL A   1      33.878  36.221  28.489  1.00  0.00    -0.237 OA
ATOM     72  O   UNL A   1      32.647  34.094  28.258  1.00  0.00    -0.237 OA
ATOM     73  O   UNL A   1      32.376  35.461  30.294  1.00  0.00    -0.744 OA
ENDBRANCH  69  70
ENDBRANCH  50  64
BRANCH  51  74
ATOM     74  C   UNL A   1      44.721  29.403  35.784  1.00  0.00    -0.014 A 
ATOM     75  C   UNL A   1      45.932  30.106  35.634  1.00  0.00     0.010 A 
ATOM     76  C   UNL A   1      44.719  28.223  36.552  1.00  0.00     0.010 A 
ATOM     77  C   UNL A   1      47.117  29.620  36.199  1.00  0.00     0.020 A 
ATOM     78  C   UNL A   1      45.893  27.755  37.152  1.00  0.00     0.020 A 
ATOM     79  C   UNL A   1      47.090  28.445  36.955  1.00  0.00     0.054 A 
BRANCH  79  80
ATOM     80  S   UNL A   1      48.633  27.840  37.695  1.00  0.00     0.124 S 
ATOM     81  O   UNL A   1      49.146  29.037  38.353  1.00  0.00    -0.237 OA
ATOM     82  O   UNL A   1      48.164  26.780  38.582  1.00  0.00    -0.237 OA
ATOM     83  O   UNL A   1      49.406  27.380  36.542  1.00  0.00    -0.744 OA
ENDBRANCH  79  80
ENDBRANCH  51  74
BRANCH  63  84
ATOM     84  C   UNL A   1      39.423  33.492  37.768  1.00  0.00    -0.014 A 
ATOM     85  C   UNL A   1      38.737  32.859  38.819  1.00  0.00     0.010 A 
ATOM     86  C   UNL A   1      39.886  34.809  37.958  1.00  0.00     0.010 A 
ATOM     87  C   UNL A   1      38.513  33.528  40.029  1.00  0.00     0.020 A 
ATOM     88  C   UNL A   1      39.688  35.471  39.176  1.00  0.00     0.020 A 
ATOM     89  C   UNL A   1      38.998  34.827  40.202  1.00  0.00     0.054 A 
BRANCH  89  90
ATOM     90  S   UNL A   1      38.762  35.640  41.809  1.00  0.00     0.124 S 
ATOM     91  O   UNL A   1      37.386  35.278  42.138  1.00  0.00    -0.237 OA
ATOM     92  O   UNL A   1      39.791  35.014  42.638  1.00  0.00    -0.237 OA
ATOM     93  O   UNL A   1      38.980  37.055  41.520  1.00  0.00    -0.744 OA
ENDBRANCH  89  90
ENDBRANCH  63  84
ENDBRANCH  37  38
ENDBRANCH  29  32
ENDBRANCH  27  28
ENDBRANCH  26  27
ENDBRANCH   1  26
TORSDOF 18
ENDMDL
