MODEL 1
REMARK VINA RESULT:     -12.8      0.000      0.000
REMARK SMILES CC(=O)c1cccc(C(=O)NCCCNC(=O)c2ccc(-c3c4nc(c(-c5ccc(S(=O)(=O)[O-])cc5)c5ccc([nH]5)c(-c5ccc(S(=O)(=O)[O-])cc5)c5nc(c(-c6ccc(S(=O)(=O)[O-])cc6)c6ccc3[nH]6)C=C5)C=C4)cc2)c1C
REMARK SMILES IDX 14 1 13 2 12 3 11 4 9 5 10 6 8 8 4 9 5 10 78 11 6 12 79 13
REMARK SMILES IDX 7 14 2 15 1 16 3 17 15 18 16 19 17 21 18 22 19 23 77 24
REMARK SMILES IDX 20 25 76 26 21 27 22 28 23 29 70 30 24 31 75 32 69 33 71 34
REMARK SMILES IDX 25 35 74 36 68 37 67 38 26 40 56 41 37 42 55 43 38 44 41 45
REMARK SMILES IDX 54 46 72 47 39 48 40 49 53 51 73 52 42 53 27 54 28 55 36 56
REMARK SMILES IDX 29 57 35 58 30 59 31 60 32 61 33 62 34 63 57 64 58 65 66 66
REMARK SMILES IDX 59 67 65 68 60 69 61 70 62 71 63 72 64 73 43 74 44 75 52 76
REMARK SMILES IDX 45 77 51 78 46 79 47 80 48 81 49 82 50 83
REMARK H PARENT 11 7 15 20 71 39 41 50
REMARK Flexibility Score: inf
ROOT
ATOM      1  C   UNL A   1      38.581  31.808  29.764  1.00  0.00     0.118 C 
ENDROOT
BRANCH   1   2
ATOM      2  C   UNL A   1      39.056  33.199  30.158  1.00  0.00     0.042 C 
BRANCH   2   3
ATOM      3  C   UNL A   1      38.761  33.544  31.609  1.00  0.00     0.118 C 
BRANCH   3   4
ATOM      4  N   UNL A   1      37.648  32.807  32.203  1.00  0.00    -0.352 N 
ATOM      5  C   UNL A   1      36.286  32.765  32.239  1.00  0.00     0.251 C 
ATOM      6  O   UNL A   1      35.866  31.756  32.830  1.00  0.00    -0.269 OA
ATOM      7  H   UNL A   1      38.007  32.093  32.780  1.00  0.00     0.163 HD
BRANCH   5   8
ATOM      8  C   UNL A   1      35.243  33.749  31.755  1.00  0.00     0.043 A 
ATOM      9  C   UNL A   1      33.497  35.473  31.722  1.00  0.00     0.021 A 
ATOM     10  C   UNL A   1      33.340  35.329  30.338  1.00  0.00     0.012 A 
ATOM     11  C   UNL A   1      34.511  34.754  32.429  1.00  0.00    -0.028 A 
ATOM     12  C   UNL A   1      34.124  34.431  29.646  1.00  0.00     0.002 A 
ATOM     13  C   UNL A   1      34.820  35.195  33.821  1.00  0.00     0.046 C 
ATOM     14  C   UNL A   1      35.028  33.638  30.351  1.00  0.00     0.014 A 
BRANCH   9  15
ATOM     15  C   UNL A   1      32.560  36.458  32.349  1.00  0.00     0.160 C 
ATOM     16  C   UNL A   1      31.225  35.992  32.872  1.00  0.00     0.093 C 
ATOM     17  O   UNL A   1      32.867  37.650  32.376  1.00  0.00    -0.295 OA
ENDBRANCH   9  15
ENDBRANCH   5   8
ENDBRANCH   3   4
ENDBRANCH   2   3
ENDBRANCH   1   2
BRANCH   1  18
ATOM     18  N   UNL A   1      37.236  31.807  29.182  1.00  0.00    -0.352 N 
ATOM     19  C   UNL A   1      36.743  30.941  28.220  1.00  0.00     0.251 C 
ATOM     20  H   UNL A   1      36.616  32.497  29.509  1.00  0.00     0.163 HD
ATOM     21  O   UNL A   1      35.718  31.145  27.582  1.00  0.00    -0.269 OA
BRANCH  19  22
ATOM     22  C   UNL A   1      37.457  29.657  28.104  1.00  0.00     0.039 A 
ATOM     23  C   UNL A   1      37.517  28.888  29.274  1.00  0.00     0.014 A 
ATOM     24  C   UNL A   1      38.394  29.524  27.086  1.00  0.00     0.014 A 
ATOM     25  C   UNL A   1      38.658  28.143  29.531  1.00  0.00     0.010 A 
ATOM     26  C   UNL A   1      39.568  28.870  27.391  1.00  0.00     0.010 A 
ATOM     27  C   UNL A   1      39.719  28.235  28.635  1.00  0.00    -0.014 A 
BRANCH  27  28
ATOM     28  C   UNL A   1      41.053  27.730  28.912  1.00  0.00     0.031 A 
ATOM     29  C   UNL A   1      41.327  26.307  28.611  1.00  0.00     0.074 A 
ATOM     30  C   UNL A   1      42.029  28.544  29.375  1.00  0.00     0.049 A 
ATOM     31  N   UNL A   1      42.349  25.654  29.041  1.00  0.00    -0.248 NA
ATOM     32  C   UNL A   1      40.398  25.470  27.846  1.00  0.00     0.031 C 
ATOM     33  C   UNL A   1      43.466  28.273  29.411  1.00  0.00     0.029 A 
ATOM     34  N   UNL A   1      41.940  29.750  30.047  1.00  0.00    -0.354 N 
ATOM     35  C   UNL A   1      42.381  24.456  28.370  1.00  0.00     0.074 A 
ATOM     36  C   UNL A   1      41.090  24.334  27.745  1.00  0.00     0.031 C 
ATOM     37  C   UNL A   1      44.048  29.105  30.292  1.00  0.00     0.029 A 
ATOM     38  C   UNL A   1      42.985  29.828  30.970  1.00  0.00     0.049 A 
ATOM     39  H   UNL A   1      41.252  30.439  29.901  1.00  0.00     0.167 HD
ATOM     40  C   UNL A   1      43.560  23.780  28.296  1.00  0.00     0.031 A 
ATOM     41  C   UNL A   1      42.784  29.790  32.324  1.00  0.00     0.031 A 
ATOM     42  C   UNL A   1      44.513  24.296  29.280  1.00  0.00     0.049 A 
ATOM     43  C   UNL A   1      43.371  28.548  32.984  1.00  0.00     0.074 A 
ATOM     44  C   UNL A   1      45.629  25.109  29.197  1.00  0.00     0.029 A 
ATOM     45  N   UNL A   1      44.161  24.249  30.628  1.00  0.00    -0.354 N 
ATOM     46  N   UNL A   1      43.764  27.486  32.331  1.00  0.00    -0.248 NA
ATOM     47  C   UNL A   1      43.556  28.400  34.427  1.00  0.00     0.031 C 
ATOM     48  C   UNL A   1      45.852  25.668  30.491  1.00  0.00     0.029 A 
ATOM     49  C   UNL A   1      44.911  25.147  31.364  1.00  0.00     0.049 A 
ATOM     50  H   UNL A   1      43.471  23.656  31.005  1.00  0.00     0.167 HD
ATOM     51  C   UNL A   1      44.221  26.536  33.206  1.00  0.00     0.074 A 
ATOM     52  C   UNL A   1      44.088  27.166  34.508  1.00  0.00     0.031 C 
ATOM     53  C   UNL A   1      44.661  25.309  32.795  1.00  0.00     0.031 A 
BRANCH  40  54
ATOM     54  C   UNL A   1      43.912  22.833  27.167  1.00  0.00    -0.014 A 
ATOM     55  C   UNL A   1      42.996  21.832  26.783  1.00  0.00     0.010 A 
ATOM     56  C   UNL A   1      45.174  22.782  26.535  1.00  0.00     0.010 A 
ATOM     57  C   UNL A   1      43.333  20.830  25.853  1.00  0.00     0.020 A 
ATOM     58  C   UNL A   1      45.518  21.806  25.592  1.00  0.00     0.020 A 
ATOM     59  C   UNL A   1      44.599  20.820  25.267  1.00  0.00     0.054 A 
BRANCH  59  60
ATOM     60  S   UNL A   1      45.050  19.505  24.106  1.00  0.00     0.124 S 
ATOM     61  O   UNL A   1      46.507  19.495  24.199  1.00  0.00    -0.237 OA
ATOM     62  O   UNL A   1      44.371  18.341  24.666  1.00  0.00    -0.237 OA
ATOM     63  O   UNL A   1      44.519  19.974  22.826  1.00  0.00    -0.744 OA
ENDBRANCH  59  60
ENDBRANCH  40  54
BRANCH  41  64
ATOM     64  C   UNL A   1      41.560  30.523  32.767  1.00  0.00    -0.014 A 
ATOM     65  C   UNL A   1      40.381  29.759  32.910  1.00  0.00     0.010 A 
ATOM     66  C   UNL A   1      41.659  31.746  33.450  1.00  0.00     0.010 A 
ATOM     67  C   UNL A   1      39.427  30.094  33.874  1.00  0.00     0.020 A 
ATOM     68  C   UNL A   1      40.693  32.093  34.411  1.00  0.00     0.020 A 
ATOM     69  C   UNL A   1      39.632  31.220  34.670  1.00  0.00     0.054 A 
BRANCH  69  70
ATOM     70  S   UNL A   1      38.621  31.388  36.175  1.00  0.00     0.124 S 
ATOM     71  O   UNL A   1      37.504  32.204  35.713  1.00  0.00    -0.237 OA
ATOM     72  O   UNL A   1      38.294  29.993  36.483  1.00  0.00    -0.237 OA
ATOM     73  O   UNL A   1      39.526  32.034  37.119  1.00  0.00    -0.744 OA
ENDBRANCH  69  70
ENDBRANCH  41  64
BRANCH  53  74
ATOM     74  C   UNL A   1      44.960  24.138  33.706  1.00  0.00    -0.014 A 
ATOM     75  C   UNL A   1      44.012  23.179  34.096  1.00  0.00     0.010 A 
ATOM     76  C   UNL A   1      46.301  23.903  34.095  1.00  0.00     0.010 A 
ATOM     77  C   UNL A   1      44.369  22.083  34.897  1.00  0.00     0.020 A 
ATOM     78  C   UNL A   1      46.677  22.787  34.849  1.00  0.00     0.020 A 
ATOM     79  C   UNL A   1      45.699  21.898  35.273  1.00  0.00     0.054 A 
BRANCH  79  80
ATOM     80  S   UNL A   1      46.159  20.454  36.263  1.00  0.00     0.124 S 
ATOM     81  O   UNL A   1      47.598  20.373  36.022  1.00  0.00    -0.237 OA
ATOM     82  O   UNL A   1      45.771  20.845  37.616  1.00  0.00    -0.237 OA
ATOM     83  O   UNL A   1      45.364  19.374  35.682  1.00  0.00    -0.744 OA
ENDBRANCH  79  80
ENDBRANCH  53  74
ENDBRANCH  27  28
ENDBRANCH  19  22
ENDBRANCH   1  18
TORSDOF 14
ENDMDL
MODEL 2
REMARK VINA RESULT:     -12.5      5.884     13.388
REMARK SMILES CC(=O)c1cccc(C(=O)NCCCNC(=O)c2ccc(-c3c4nc(c(-c5ccc(S(=O)(=O)[O-])cc5)c5ccc([nH]5)c(-c5ccc(S(=O)(=O)[O-])cc5)c5nc(c(-c6ccc(S(=O)(=O)[O-])cc6)c6ccc3[nH]6)C=C5)C=C4)cc2)c1C
REMARK SMILES IDX 14 1 13 2 12 3 11 4 9 5 10 6 8 8 4 9 5 10 78 11 6 12 79 13
REMARK SMILES IDX 7 14 2 15 1 16 3 17 15 18 16 19 17 21 18 22 19 23 77 24
REMARK SMILES IDX 20 25 76 26 21 27 22 28 23 29 70 30 24 31 75 32 69 33 71 34
REMARK SMILES IDX 25 35 74 36 68 37 67 38 26 40 56 41 37 42 55 43 38 44 41 45
REMARK SMILES IDX 54 46 72 47 39 48 40 49 53 51 73 52 42 53 27 54 28 55 36 56
REMARK SMILES IDX 29 57 35 58 30 59 31 60 32 61 33 62 34 63 57 64 58 65 66 66
REMARK SMILES IDX 59 67 65 68 60 69 61 70 62 71 63 72 64 73 43 74 44 75 52 76
REMARK SMILES IDX 45 77 51 78 46 79 47 80 48 81 49 82 50 83
REMARK H PARENT 11 7 15 20 71 39 41 50
REMARK Flexibility Score: inf
ROOT
ATOM      1  C   UNL A   1      38.099  23.476  26.489  1.00  0.00     0.118 C 
ENDROOT
BRANCH   1   2
ATOM      2  C   UNL A   1      37.836  22.327  25.526  1.00  0.00     0.042 C 
BRANCH   2   3
ATOM      3  C   UNL A   1      37.218  22.778  24.212  1.00  0.00     0.118 C 
BRANCH   3   4
ATOM      4  N   UNL A   1      35.950  23.492  24.340  1.00  0.00    -0.352 N 
ATOM      5  C   UNL A   1      34.601  23.294  24.337  1.00  0.00     0.251 C 
ATOM      6  O   UNL A   1      33.979  24.316  24.672  1.00  0.00    -0.269 OA
ATOM      7  H   UNL A   1      36.134  24.451  24.474  1.00  0.00     0.163 HD
BRANCH   5   8
ATOM      8  C   UNL A   1      33.768  22.096  23.938  1.00  0.00     0.043 A 
ATOM      9  C   UNL A   1      32.857  19.820  23.823  1.00  0.00     0.021 A 
ATOM     10  C   UNL A   1      32.030  20.174  22.749  1.00  0.00     0.012 A 
ATOM     11  C   UNL A   1      33.664  20.796  24.488  1.00  0.00    -0.028 A 
ATOM     12  C   UNL A   1      32.038  21.468  22.273  1.00  0.00     0.002 A 
ATOM     13  C   UNL A   1      34.261  20.413  25.800  1.00  0.00     0.046 C 
ATOM     14  C   UNL A   1      32.915  22.392  22.837  1.00  0.00     0.014 A 
BRANCH   9  15
ATOM     15  C   UNL A   1      32.771  18.378  24.217  1.00  0.00     0.160 C 
ATOM     16  C   UNL A   1      33.626  17.358  23.510  1.00  0.00     0.093 C 
ATOM     17  O   UNL A   1      31.958  18.034  25.074  1.00  0.00    -0.295 OA
ENDBRANCH   9  15
ENDBRANCH   5   8
ENDBRANCH   3   4
ENDBRANCH   2   3
ENDBRANCH   1   2
BRANCH   1  18
ATOM     18  N   UNL A   1      39.350  23.319  27.236  1.00  0.00    -0.352 N 
ATOM     19  C   UNL A   1      40.182  24.328  27.693  1.00  0.00     0.251 C 
ATOM     20  H   UNL A   1      39.631  22.396  27.434  1.00  0.00     0.163 HD
ATOM     21  O   UNL A   1      41.332  24.142  28.071  1.00  0.00    -0.269 OA
BRANCH  19  22
ATOM     22  C   UNL A   1      39.545  25.648  27.843  1.00  0.00     0.039 A 
ATOM     23  C   UNL A   1      40.029  26.655  26.998  1.00  0.00     0.014 A 
ATOM     24  C   UNL A   1      38.925  25.937  29.054  1.00  0.00     0.014 A 
ATOM     25  C   UNL A   1      40.102  27.955  27.474  1.00  0.00     0.010 A 
ATOM     26  C   UNL A   1      39.097  27.205  29.563  1.00  0.00     0.010 A 
ATOM     27  C   UNL A   1      39.739  28.192  28.796  1.00  0.00    -0.014 A 
BRANCH  27  28
ATOM     28  C   UNL A   1      40.016  29.435  29.497  1.00  0.00     0.031 A 
ATOM     29  C   UNL A   1      39.026  30.528  29.378  1.00  0.00     0.074 A 
ATOM     30  C   UNL A   1      41.113  29.569  30.278  1.00  0.00     0.049 A 
ATOM     31  N   UNL A   1      39.249  31.752  29.706  1.00  0.00    -0.248 NA
ATOM     32  C   UNL A   1      37.699  30.330  28.789  1.00  0.00     0.031 C 
ATOM     33  C   UNL A   1      41.371  30.614  31.269  1.00  0.00     0.029 A 
ATOM     34  N   UNL A   1      42.308  28.875  30.263  1.00  0.00    -0.354 N 
ATOM     35  C   UNL A   1      38.042  32.409  29.679  1.00  0.00     0.074 A 
ATOM     36  C   UNL A   1      37.144  31.527  28.983  1.00  0.00     0.031 C 
ATOM     37  C   UNL A   1      42.690  30.656  31.528  1.00  0.00     0.029 A 
ATOM     38  C   UNL A   1      43.342  29.753  30.595  1.00  0.00     0.049 A 
ATOM     39  H   UNL A   1      42.414  27.919  30.052  1.00  0.00     0.167 HD
ATOM     40  C   UNL A   1      37.910  33.561  30.391  1.00  0.00     0.031 A 
ATOM     41  C   UNL A   1      44.298  30.147  29.697  1.00  0.00     0.031 A 
ATOM     42  C   UNL A   1      39.222  34.087  30.770  1.00  0.00     0.049 A 
ATOM     43  C   UNL A   1      44.232  31.633  29.364  1.00  0.00     0.074 A 
ATOM     44  C   UNL A   1      39.939  34.109  31.953  1.00  0.00     0.029 A 
ATOM     45  N   UNL A   1      40.127  34.398  29.756  1.00  0.00    -0.354 N 
ATOM     46  N   UNL A   1      43.217  32.405  29.651  1.00  0.00    -0.248 NA
ATOM     47  C   UNL A   1      45.296  32.364  28.676  1.00  0.00     0.031 C 
ATOM     48  C   UNL A   1      41.315  34.291  31.620  1.00  0.00     0.029 A 
ATOM     49  C   UNL A   1      41.419  34.438  30.246  1.00  0.00     0.049 A 
ATOM     50  H   UNL A   1      39.879  34.568  28.819  1.00  0.00     0.167 HD
ATOM     51  C   UNL A   1      43.451  33.678  29.202  1.00  0.00     0.074 A 
ATOM     52  C   UNL A   1      44.778  33.604  28.615  1.00  0.00     0.031 C 
ATOM     53  C   UNL A   1      42.537  34.685  29.338  1.00  0.00     0.031 A 
BRANCH  40  54
ATOM     54  C   UNL A   1      36.588  34.056  30.943  1.00  0.00    -0.014 A 
ATOM     55  C   UNL A   1      35.445  34.066  30.118  1.00  0.00     0.010 A 
ATOM     56  C   UNL A   1      36.430  34.650  32.215  1.00  0.00     0.010 A 
ATOM     57  C   UNL A   1      34.236  34.660  30.527  1.00  0.00     0.020 A 
ATOM     58  C   UNL A   1      35.228  35.225  32.645  1.00  0.00     0.020 A 
ATOM     59  C   UNL A   1      34.137  35.243  31.789  1.00  0.00     0.054 A 
BRANCH  59  60
ATOM     60  S   UNL A   1      32.596  36.048  32.298  1.00  0.00     0.124 S 
ATOM     61  O   UNL A   1      32.206  36.766  31.088  1.00  0.00    -0.237 OA
ATOM     62  O   UNL A   1      31.752  34.915  32.663  1.00  0.00    -0.237 OA
ATOM     63  O   UNL A   1      33.002  36.900  33.415  1.00  0.00    -0.744 OA
ENDBRANCH  59  60
ENDBRANCH  40  54
BRANCH  41  64
ATOM     64  C   UNL A   1      44.733  29.059  28.772  1.00  0.00    -0.014 A 
ATOM     65  C   UNL A   1      44.183  29.076  27.471  1.00  0.00     0.010 A 
ATOM     66  C   UNL A   1      45.935  28.365  28.987  1.00  0.00     0.010 A 
ATOM     67  C   UNL A   1      44.920  28.609  26.379  1.00  0.00     0.020 A 
ATOM     68  C   UNL A   1      46.672  27.881  27.893  1.00  0.00     0.020 A 
ATOM     69  C   UNL A   1      46.194  28.083  26.594  1.00  0.00     0.054 A 
BRANCH  69  70
ATOM     70  S   UNL A   1      47.283  27.886  25.149  1.00  0.00     0.124 S 
ATOM     71  O   UNL A   1      48.535  28.468  25.620  1.00  0.00    -0.237 OA
ATOM     72  O   UNL A   1      47.296  26.433  24.968  1.00  0.00    -0.237 OA
ATOM     73  O   UNL A   1      46.595  28.634  24.103  1.00  0.00    -0.744 OA
ENDBRANCH  69  70
ENDBRANCH  41  64
BRANCH  53  74
ATOM     74  C   UNL A   1      42.626  36.042  28.672  1.00  0.00    -0.014 A 
ATOM     75  C   UNL A   1      41.971  36.379  27.477  1.00  0.00     0.010 A 
ATOM     76  C   UNL A   1      43.301  37.089  29.346  1.00  0.00     0.010 A 
ATOM     77  C   UNL A   1      42.048  37.674  26.942  1.00  0.00     0.020 A 
ATOM     78  C   UNL A   1      43.340  38.395  28.849  1.00  0.00     0.020 A 
ATOM     79  C   UNL A   1      42.737  38.673  27.630  1.00  0.00     0.054 A 
BRANCH  79  80
ATOM     80  S   UNL A   1      42.788  40.353  26.960  1.00  0.00     0.124 S 
ATOM     81  O   UNL A   1      41.375  40.612  26.695  1.00  0.00    -0.237 OA
ATOM     82  O   UNL A   1      43.372  41.126  28.053  1.00  0.00    -0.237 OA
ATOM     83  O   UNL A   1      43.636  40.224  25.777  1.00  0.00    -0.744 OA
ENDBRANCH  79  80
ENDBRANCH  53  74
ENDBRANCH  27  28
ENDBRANCH  19  22
ENDBRANCH   1  18
TORSDOF 14
ENDMDL
MODEL 3
REMARK VINA RESULT:     -12.4      5.721     12.949
REMARK SMILES CC(=O)c1cccc(C(=O)NCCCNC(=O)c2ccc(-c3c4nc(c(-c5ccc(S(=O)(=O)[O-])cc5)c5ccc([nH]5)c(-c5ccc(S(=O)(=O)[O-])cc5)c5nc(c(-c6ccc(S(=O)(=O)[O-])cc6)c6ccc3[nH]6)C=C5)C=C4)cc2)c1C
REMARK SMILES IDX 14 1 13 2 12 3 11 4 9 5 10 6 8 8 4 9 5 10 78 11 6 12 79 13
REMARK SMILES IDX 7 14 2 15 1 16 3 17 15 18 16 19 17 21 18 22 19 23 77 24
REMARK SMILES IDX 20 25 76 26 21 27 22 28 23 29 70 30 24 31 75 32 69 33 71 34
REMARK SMILES IDX 25 35 74 36 68 37 67 38 26 40 56 41 37 42 55 43 38 44 41 45
REMARK SMILES IDX 54 46 72 47 39 48 40 49 53 51 73 52 42 53 27 54 28 55 36 56
REMARK SMILES IDX 29 57 35 58 30 59 31 60 32 61 33 62 34 63 57 64 58 65 66 66
REMARK SMILES IDX 59 67 65 68 60 69 61 70 62 71 63 72 64 73 43 74 44 75 52 76
REMARK SMILES IDX 45 77 51 78 46 79 47 80 48 81 49 82 50 83
REMARK H PARENT 11 7 15 20 71 39 41 50
REMARK Flexibility Score: inf
ROOT
ATOM      1  C   UNL A   1      38.513  23.366  26.425  1.00  0.00     0.118 C 
ENDROOT
BRANCH   1   2
ATOM      2  C   UNL A   1      38.174  22.082  25.681  1.00  0.00     0.042 C 
BRANCH   2   3
ATOM      3  C   UNL A   1      36.943  22.208  24.798  1.00  0.00     0.118 C 
BRANCH   3   4
ATOM      4  N   UNL A   1      36.030  21.068  24.847  1.00  0.00    -0.352 N 
ATOM      5  C   UNL A   1      34.707  20.748  24.769  1.00  0.00     0.251 C 
ATOM      6  O   UNL A   1      34.527  19.520  24.716  1.00  0.00    -0.269 OA
ATOM      7  H   UNL A   1      36.553  20.244  24.985  1.00  0.00     0.163 HD
BRANCH   5   8
ATOM      8  C   UNL A   1      33.466  21.613  24.806  1.00  0.00     0.043 A 
ATOM      9  C   UNL A   1      31.548  22.910  25.619  1.00  0.00     0.021 A 
ATOM     10  C   UNL A   1      31.113  23.143  24.308  1.00  0.00     0.012 A 
ATOM     11  C   UNL A   1      32.776  22.225  25.879  1.00  0.00    -0.028 A 
ATOM     12  C   UNL A   1      31.837  22.647  23.245  1.00  0.00     0.002 A 
ATOM     13  C   UNL A   1      33.321  22.297  27.266  1.00  0.00     0.046 C 
ATOM     14  C   UNL A   1      32.967  21.872  23.498  1.00  0.00     0.014 A 
BRANCH   9  15
ATOM     15  C   UNL A   1      30.652  23.478  26.676  1.00  0.00     0.160 C 
ATOM     16  C   UNL A   1      29.479  22.672  27.172  1.00  0.00     0.093 C 
ATOM     17  O   UNL A   1      30.849  24.622  27.084  1.00  0.00    -0.295 OA
ENDBRANCH   9  15
ENDBRANCH   5   8
ENDBRANCH   3   4
ENDBRANCH   2   3
ENDBRANCH   1   2
BRANCH   1  18
ATOM     18  N   UNL A   1      39.688  23.232  27.289  1.00  0.00    -0.352 N 
ATOM     19  C   UNL A   1      40.434  24.256  27.849  1.00  0.00     0.251 C 
ATOM     20  H   UNL A   1      39.980  22.315  27.495  1.00  0.00     0.163 HD
ATOM     21  O   UNL A   1      41.547  24.100  28.336  1.00  0.00    -0.269 OA
BRANCH  19  22
ATOM     22  C   UNL A   1      39.740  25.551  27.962  1.00  0.00     0.039 A 
ATOM     23  C   UNL A   1      40.187  26.558  27.097  1.00  0.00     0.014 A 
ATOM     24  C   UNL A   1      39.097  25.841  29.160  1.00  0.00     0.014 A 
ATOM     25  C   UNL A   1      40.200  27.870  27.542  1.00  0.00     0.010 A 
ATOM     26  C   UNL A   1      39.210  27.127  29.640  1.00  0.00     0.010 A 
ATOM     27  C   UNL A   1      39.815  28.123  28.856  1.00  0.00    -0.014 A 
BRANCH  27  28
ATOM     28  C   UNL A   1      40.032  29.393  29.529  1.00  0.00     0.031 A 
ATOM     29  C   UNL A   1      39.030  30.461  29.322  1.00  0.00     0.074 A 
ATOM     30  C   UNL A   1      41.083  29.573  30.361  1.00  0.00     0.049 A 
ATOM     31  N   UNL A   1      39.213  31.699  29.621  1.00  0.00    -0.248 NA
ATOM     32  C   UNL A   1      37.741  30.218  28.671  1.00  0.00     0.031 C 
ATOM     33  C   UNL A   1      41.269  30.654  31.330  1.00  0.00     0.029 A 
ATOM     34  N   UNL A   1      42.290  28.902  30.432  1.00  0.00    -0.354 N 
ATOM     35  C   UNL A   1      37.998  32.331  29.509  1.00  0.00     0.074 A 
ATOM     36  C   UNL A   1      37.154  31.410  28.795  1.00  0.00     0.031 C 
ATOM     37  C   UNL A   1      42.572  30.730  31.657  1.00  0.00     0.029 A 
ATOM     38  C   UNL A   1      43.289  29.811  30.789  1.00  0.00     0.049 A 
ATOM     39  H   UNL A   1      42.424  27.942  30.259  1.00  0.00     0.167 HD
ATOM     40  C   UNL A   1      37.807  33.502  30.175  1.00  0.00     0.031 A 
ATOM     41  C   UNL A   1      44.284  30.195  29.930  1.00  0.00     0.031 A 
ATOM     42  C   UNL A   1      39.088  34.066  30.604  1.00  0.00     0.049 A 
ATOM     43  C   UNL A   1      44.209  31.668  29.546  1.00  0.00     0.074 A 
ATOM     44  C   UNL A   1      39.741  34.140  31.822  1.00  0.00     0.029 A 
ATOM     45  N   UNL A   1      40.040  34.363  29.630  1.00  0.00    -0.354 N 
ATOM     46  N   UNL A   1      43.167  32.429  29.753  1.00  0.00    -0.248 NA
ATOM     47  C   UNL A   1      45.295  32.397  28.891  1.00  0.00     0.031 C 
ATOM     48  C   UNL A   1      41.128  34.339  31.556  1.00  0.00     0.029 A 
ATOM     49  C   UNL A   1      41.303  34.444  30.185  1.00  0.00     0.049 A 
ATOM     50  H   UNL A   1      39.839  34.497  28.676  1.00  0.00     0.167 HD
ATOM     51  C   UNL A   1      43.402  33.691  29.276  1.00  0.00     0.074 A 
ATOM     52  C   UNL A   1      44.759  33.625  28.762  1.00  0.00     0.031 C 
ATOM     53  C   UNL A   1      42.463  34.684  29.330  1.00  0.00     0.031 A 
BRANCH  40  54
ATOM     54  C   UNL A   1      36.450  33.989  30.640  1.00  0.00    -0.014 A 
ATOM     55  C   UNL A   1      35.432  34.233  29.694  1.00  0.00     0.010 A 
ATOM     56  C   UNL A   1      36.149  34.356  31.970  1.00  0.00     0.010 A 
ATOM     57  C   UNL A   1      34.210  34.833  30.052  1.00  0.00     0.020 A 
ATOM     58  C   UNL A   1      34.930  34.933  32.346  1.00  0.00     0.020 A 
ATOM     59  C   UNL A   1      33.969  35.186  31.379  1.00  0.00     0.054 A 
BRANCH  59  60
ATOM     60  S   UNL A   1      32.416  36.001  31.833  1.00  0.00     0.124 S 
ATOM     61  O   UNL A   1      31.730  34.959  32.593  1.00  0.00    -0.237 OA
ATOM     62  O   UNL A   1      32.876  37.151  32.606  1.00  0.00    -0.237 OA
ATOM     63  O   UNL A   1      31.805  36.326  30.545  1.00  0.00    -0.744 OA
ENDBRANCH  59  60
ENDBRANCH  40  54
BRANCH  41  64
ATOM     64  C   UNL A   1      44.787  29.087  29.066  1.00  0.00    -0.014 A 
ATOM     65  C   UNL A   1      43.999  28.751  27.942  1.00  0.00     0.010 A 
ATOM     66  C   UNL A   1      46.145  28.729  29.068  1.00  0.00     0.010 A 
ATOM     67  C   UNL A   1      44.594  28.277  26.771  1.00  0.00     0.020 A 
ATOM     68  C   UNL A   1      46.744  28.237  27.895  1.00  0.00     0.020 A 
ATOM     69  C   UNL A   1      45.976  28.095  26.735  1.00  0.00     0.054 A 
BRANCH  69  70
ATOM     70  S   UNL A   1      46.761  27.897  25.104  1.00  0.00     0.124 S 
ATOM     71  O   UNL A   1      45.938  26.865  24.484  1.00  0.00    -0.237 OA
ATOM     72  O   UNL A   1      46.622  29.238  24.532  1.00  0.00    -0.237 OA
ATOM     73  O   UNL A   1      48.126  27.503  25.433  1.00  0.00    -0.744 OA
ENDBRANCH  69  70
ENDBRANCH  41  64
BRANCH  53  74
ATOM     74  C   UNL A   1      42.563  36.020  28.625  1.00  0.00    -0.014 A 
ATOM     75  C   UNL A   1      41.886  36.338  27.438  1.00  0.00     0.010 A 
ATOM     76  C   UNL A   1      43.275  37.070  29.254  1.00  0.00     0.010 A 
ATOM     77  C   UNL A   1      41.976  37.617  26.866  1.00  0.00     0.020 A 
ATOM     78  C   UNL A   1      43.328  38.362  28.722  1.00  0.00     0.020 A 
ATOM     79  C   UNL A   1      42.702  38.619  27.510  1.00  0.00     0.054 A 
BRANCH  79  80
ATOM     80  S   UNL A   1      42.770  40.280  26.793  1.00  0.00     0.124 S 
ATOM     81  O   UNL A   1      43.038  41.102  27.970  1.00  0.00    -0.237 OA
ATOM     82  O   UNL A   1      43.869  40.180  25.835  1.00  0.00    -0.237 OA
ATOM     83  O   UNL A   1      41.447  40.448  26.196  1.00  0.00    -0.744 OA
ENDBRANCH  79  80
ENDBRANCH  53  74
ENDBRANCH  27  28
ENDBRANCH  19  22
ENDBRANCH   1  18
TORSDOF 14
ENDMDL
