MODEL 1
REMARK VINA RESULT:     -10.4      0.000      0.000
REMARK SMILES O=C(C[C@@H]1C(=O)NC(=S)N1c1ccccc1)NCCCNC(=O)c1ccc(-c2c3nc(c(-c4ccc(S(=O)(=O)[O-])cc4)c4ccc([nH]4)c(-c4ccc(S(=O)(=O)[O-])cc4)c4nc(c(-c5ccc(S(=O)(=O)[O-])cc5)c5ccc2[nH]5)C=C4)C=C3)cc1
REMARK SMILES IDX 19 1 18 2 17 3 1 4 2 5 3 7 4 8 5 9 10 10 6 11 7 12 8 13 9 15
REMARK SMILES IDX 11 16 12 17 16 18 13 19 15 20 14 21 20 22 21 23 22 24 23 26
REMARK SMILES IDX 24 27 25 28 83 29 26 30 82 31 27 32 28 33 29 34 76 35 30 36
REMARK SMILES IDX 81 37 75 38 77 39 31 40 80 41 74 42 73 43 32 45 62 46 43 47
REMARK SMILES IDX 61 48 44 49 47 50 60 51 78 52 45 53 46 54 59 56 79 57 48 58
REMARK SMILES IDX 33 59 34 60 42 61 35 62 41 63 36 64 37 65 38 66 39 67 40 68
REMARK SMILES IDX 63 69 64 70 72 71 65 72 71 73 66 74 67 75 68 76 69 77 70 78
REMARK SMILES IDX 49 79 50 80 58 81 51 82 57 83 52 84 53 85 54 86 55 87 56 88
REMARK H PARENT 17 6 7 14 21 25 77 44 47 55
REMARK Flexibility Score: inf
ROOT
ATOM      1  C   UNL A   1      35.800  23.680  25.825  1.00  0.00     0.042 C 
ENDROOT
BRANCH   1   2
ATOM      2  C   UNL A   1      34.499  23.698  25.044  1.00  0.00     0.117 C 
BRANCH   2   3
ATOM      3  N   UNL A   1      33.606  24.747  25.490  1.00  0.00    -0.356 N 
ATOM      4  O   UNL A   1      31.680  23.582  25.114  1.00  0.00    -0.275 OA
ATOM      5  C   UNL A   1      32.256  24.555  25.595  1.00  0.00     0.222 C 
ATOM      6  H   UNL A   1      33.982  25.626  25.724  1.00  0.00     0.163 HD
BRANCH   5   7
ATOM      7  C   UNL A   1      31.477  25.611  26.345  1.00  0.00     0.135 C 
BRANCH   7   8
ATOM      8  C   UNL A   1      31.088  26.894  25.605  1.00  0.00     0.188 C 
ATOM      9  C   UNL A   1      30.449  26.498  24.271  1.00  0.00     0.249 C 
ATOM     10  N   UNL A   1      32.101  27.846  25.143  1.00  0.00    -0.306 N 
ATOM     11  O   UNL A   1      29.509  25.740  24.116  1.00  0.00    -0.272 OA
ATOM     12  N   UNL A   1      31.135  27.092  23.262  1.00  0.00    -0.301 N 
ATOM     13  C   UNL A   1      32.126  27.896  23.734  1.00  0.00     0.180 C 
ATOM     14  H   UNL A   1      30.940  26.957  22.306  1.00  0.00     0.172 HD
ATOM     15  S   UNL A   1      33.176  28.637  22.682  1.00  0.00    -0.040 S 
BRANCH  10  16
ATOM     16  C   UNL A   1      32.800  28.717  26.028  1.00  0.00     0.044 A 
ATOM     17  C   UNL A   1      32.231  29.934  26.429  1.00  0.00     0.026 A 
ATOM     18  C   UNL A   1      34.074  28.409  26.517  1.00  0.00     0.026 A 
ATOM     19  C   UNL A   1      32.937  30.844  27.223  1.00  0.00     0.002 A 
ATOM     20  C   UNL A   1      34.799  29.332  27.281  1.00  0.00     0.002 A 
ATOM     21  C   UNL A   1      34.234  30.553  27.627  1.00  0.00     0.000 A 
ENDBRANCH  10  16
ENDBRANCH   7   8
ENDBRANCH   5   7
ENDBRANCH   2   3
ENDBRANCH   1   2
BRANCH   1  22
ATOM     22  C   UNL A   1      37.042  23.652  24.943  1.00  0.00     0.118 C 
BRANCH  22  23
ATOM     23  N   UNL A   1      38.047  22.692  25.384  1.00  0.00    -0.352 N 
ATOM     24  C   UNL A   1      39.150  22.901  26.181  1.00  0.00     0.251 C 
ATOM     25  H   UNL A   1      37.919  21.768  25.069  1.00  0.00     0.163 HD
ATOM     26  O   UNL A   1      39.971  22.007  26.350  1.00  0.00    -0.269 OA
BRANCH  24  27
ATOM     27  C   UNL A   1      39.355  24.227  26.802  1.00  0.00     0.039 A 
ATOM     28  C   UNL A   1      38.882  24.453  28.096  1.00  0.00     0.014 A 
ATOM     29  C   UNL A   1      40.063  25.223  26.126  1.00  0.00     0.014 A 
ATOM     30  C   UNL A   1      39.200  25.646  28.749  1.00  0.00     0.010 A 
ATOM     31  C   UNL A   1      40.450  26.373  26.806  1.00  0.00     0.010 A 
ATOM     32  C   UNL A   1      40.031  26.594  28.128  1.00  0.00    -0.014 A 
BRANCH  32  33
ATOM     33  C   UNL A   1      40.498  27.814  28.835  1.00  0.00     0.031 A 
ATOM     34  C   UNL A   1      41.842  27.817  29.513  1.00  0.00     0.074 A 
ATOM     35  C   UNL A   1      39.678  28.878  28.956  1.00  0.00     0.049 A 
ATOM     36  N   UNL A   1      42.368  28.724  30.296  1.00  0.00    -0.248 NA
ATOM     37  C   UNL A   1      42.693  26.634  29.305  1.00  0.00     0.031 C 
ATOM     38  C   UNL A   1      38.341  28.991  28.368  1.00  0.00     0.029 A 
ATOM     39  N   UNL A   1      39.842  30.062  29.631  1.00  0.00    -0.354 N 
ATOM     40  C   UNL A   1      43.598  28.211  30.692  1.00  0.00     0.074 A 
ATOM     41  C   UNL A   1      43.719  26.896  30.101  1.00  0.00     0.031 C 
ATOM     42  C   UNL A   1      37.815  30.182  28.695  1.00  0.00     0.029 A 
ATOM     43  C   UNL A   1      38.749  30.897  29.559  1.00  0.00     0.049 A 
ATOM     44  H   UNL A   1      40.664  30.294  30.122  1.00  0.00     0.167 HD
ATOM     45  C   UNL A   1      44.547  28.788  31.467  1.00  0.00     0.031 A 
ATOM     46  C   UNL A   1      38.514  32.090  30.139  1.00  0.00     0.031 A 
ATOM     47  C   UNL A   1      44.424  30.099  32.047  1.00  0.00     0.049 A 
ATOM     48  C   UNL A   1      39.570  32.698  31.023  1.00  0.00     0.074 A 
ATOM     49  C   UNL A   1      45.351  30.791  32.806  1.00  0.00     0.029 A 
ATOM     50  N   UNL A   1      43.308  30.914  31.936  1.00  0.00    -0.354 N 
ATOM     51  N   UNL A   1      40.749  32.220  31.344  1.00  0.00    -0.248 NA
ATOM     52  C   UNL A   1      39.270  34.010  31.616  1.00  0.00     0.031 C 
ATOM     53  C   UNL A   1      44.773  31.998  33.206  1.00  0.00     0.029 A 
ATOM     54  C   UNL A   1      43.514  32.092  32.633  1.00  0.00     0.049 A 
ATOM     55  H   UNL A   1      42.491  30.688  31.436  1.00  0.00     0.167 HD
ATOM     56  C   UNL A   1      41.346  33.191  32.142  1.00  0.00     0.074 A 
ATOM     57  C   UNL A   1      40.401  34.282  32.253  1.00  0.00     0.031 C 
ATOM     58  C   UNL A   1      42.572  33.180  32.722  1.00  0.00     0.031 A 
BRANCH  45  59
ATOM     59  C   UNL A   1      45.800  27.998  31.743  1.00  0.00    -0.014 A 
ATOM     60  C   UNL A   1      46.912  28.070  30.885  1.00  0.00     0.010 A 
ATOM     61  C   UNL A   1      45.883  27.207  32.904  1.00  0.00     0.010 A 
ATOM     62  C   UNL A   1      48.067  27.331  31.159  1.00  0.00     0.020 A 
ATOM     63  C   UNL A   1      47.048  26.492  33.199  1.00  0.00     0.020 A 
ATOM     64  C   UNL A   1      48.126  26.546  32.315  1.00  0.00     0.054 A 
BRANCH  64  65
ATOM     65  S   UNL A   1      49.646  25.617  32.654  1.00  0.00     0.124 S 
ATOM     66  O   UNL A   1      50.405  26.568  33.462  1.00  0.00    -0.237 OA
ATOM     67  O   UNL A   1      49.151  24.443  33.367  1.00  0.00    -0.237 OA
ATOM     68  O   UNL A   1      50.195  25.351  31.327  1.00  0.00    -0.744 OA
ENDBRANCH  64  65
ENDBRANCH  45  59
BRANCH  46  69
ATOM     69  C   UNL A   1      37.223  32.795  29.898  1.00  0.00    -0.014 A 
ATOM     70  C   UNL A   1      36.174  32.700  30.828  1.00  0.00     0.010 A 
ATOM     71  C   UNL A   1      37.040  33.573  28.740  1.00  0.00     0.010 A 
ATOM     72  C   UNL A   1      34.958  33.353  30.597  1.00  0.00     0.020 A 
ATOM     73  C   UNL A   1      35.838  34.252  28.519  1.00  0.00     0.020 A 
ATOM     74  C   UNL A   1      34.800  34.128  29.444  1.00  0.00     0.054 A 
BRANCH  74  75
ATOM     75  S   UNL A   1      33.230  35.003  29.189  1.00  0.00     0.124 S 
ATOM     76  O   UNL A   1      32.588  34.183  28.168  1.00  0.00    -0.237 OA
ATOM     77  O   UNL A   1      32.625  34.952  30.518  1.00  0.00    -0.237 OA
ATOM     78  O   UNL A   1      33.647  36.334  28.753  1.00  0.00    -0.744 OA
ENDBRANCH  74  75
ENDBRANCH  46  69
BRANCH  58  79
ATOM     79  C   UNL A   1      43.005  34.407  33.482  1.00  0.00    -0.014 A 
ATOM     80  C   UNL A   1      42.731  34.560  34.851  1.00  0.00     0.010 A 
ATOM     81  C   UNL A   1      43.786  35.377  32.825  1.00  0.00     0.010 A 
ATOM     82  C   UNL A   1      43.221  35.669  35.547  1.00  0.00     0.020 A 
ATOM     83  C   UNL A   1      44.302  36.469  33.524  1.00  0.00     0.020 A 
ATOM     84  C   UNL A   1      44.011  36.612  34.881  1.00  0.00     0.054 A 
BRANCH  84  85
ATOM     85  S   UNL A   1      44.703  37.996  35.828  1.00  0.00     0.124 S 
ATOM     86  O   UNL A   1      46.117  37.935  35.468  1.00  0.00    -0.237 OA
ATOM     87  O   UNL A   1      43.969  39.143  35.300  1.00  0.00    -0.237 OA
ATOM     88  O   UNL A   1      44.399  37.655  37.216  1.00  0.00    -0.744 OA
ENDBRANCH  84  85
ENDBRANCH  58  79
ENDBRANCH  32  33
ENDBRANCH  24  27
ENDBRANCH  22  23
ENDBRANCH   1  22
TORSDOF 15
ENDMDL
MODEL 2
REMARK VINA RESULT:     -10.4      2.823      9.378
REMARK SMILES O=C(C[C@@H]1C(=O)NC(=S)N1c1ccccc1)NCCCNC(=O)c1ccc(-c2c3nc(c(-c4ccc(S(=O)(=O)[O-])cc4)c4ccc([nH]4)c(-c4ccc(S(=O)(=O)[O-])cc4)c4nc(c(-c5ccc(S(=O)(=O)[O-])cc5)c5ccc2[nH]5)C=C4)C=C3)cc1
REMARK SMILES IDX 19 1 18 2 17 3 1 4 2 5 3 7 4 8 5 9 10 10 6 11 7 12 8 13 9 15
REMARK SMILES IDX 11 16 12 17 16 18 13 19 15 20 14 21 20 22 21 23 22 24 23 26
REMARK SMILES IDX 24 27 25 28 83 29 26 30 82 31 27 32 28 33 29 34 76 35 30 36
REMARK SMILES IDX 81 37 75 38 77 39 31 40 80 41 74 42 73 43 32 45 62 46 43 47
REMARK SMILES IDX 61 48 44 49 47 50 60 51 78 52 45 53 46 54 59 56 79 57 48 58
REMARK SMILES IDX 33 59 34 60 42 61 35 62 41 63 36 64 37 65 38 66 39 67 40 68
REMARK SMILES IDX 63 69 64 70 72 71 65 72 71 73 66 74 67 75 68 76 69 77 70 78
REMARK SMILES IDX 49 79 50 80 58 81 51 82 57 83 52 84 53 85 54 86 55 87 56 88
REMARK H PARENT 17 6 7 14 21 25 77 44 47 55
REMARK Flexibility Score: inf
ROOT
ATOM      1  C   UNL A   1      33.378  28.800  25.434  1.00  0.00     0.042 C 
ENDROOT
BRANCH   1   2
ATOM      2  C   UNL A   1      32.521  27.641  24.957  1.00  0.00     0.117 C 
BRANCH   2   3
ATOM      3  N   UNL A   1      33.040  26.361  25.390  1.00  0.00    -0.356 N 
ATOM      4  O   UNL A   1      31.268  25.840  26.731  1.00  0.00    -0.275 OA
ATOM      5  C   UNL A   1      32.306  25.505  26.164  1.00  0.00     0.222 C 
ATOM      6  H   UNL A   1      33.949  26.098  25.120  1.00  0.00     0.163 HD
BRANCH   5   7
ATOM      7  C   UNL A   1      32.831  24.094  26.300  1.00  0.00     0.135 C 
BRANCH   7   8
ATOM      8  C   UNL A   1      33.243  23.344  25.030  1.00  0.00     0.188 C 
ATOM      9  C   UNL A   1      32.002  22.647  24.467  1.00  0.00     0.249 C 
ATOM     10  N   UNL A   1      34.182  22.219  25.079  1.00  0.00    -0.306 N 
ATOM     11  O   UNL A   1      30.936  23.172  24.198  1.00  0.00    -0.272 OA
ATOM     12  N   UNL A   1      32.256  21.318  24.357  1.00  0.00    -0.301 N 
ATOM     13  C   UNL A   1      33.535  21.021  24.714  1.00  0.00     0.180 C 
ATOM     14  H   UNL A   1      31.597  20.652  24.055  1.00  0.00     0.172 HD
ATOM     15  S   UNL A   1      34.042  19.440  24.772  1.00  0.00    -0.040 S 
BRANCH  10  16
ATOM     16  C   UNL A   1      35.581  22.392  25.281  1.00  0.00     0.044 A 
ATOM     17  C   UNL A   1      36.488  21.401  24.880  1.00  0.00     0.026 A 
ATOM     18  C   UNL A   1      36.105  23.536  25.892  1.00  0.00     0.026 A 
ATOM     19  C   UNL A   1      37.856  21.510  25.151  1.00  0.00     0.002 A 
ATOM     20  C   UNL A   1      37.468  23.633  26.198  1.00  0.00     0.002 A 
ATOM     21  C   UNL A   1      38.342  22.616  25.835  1.00  0.00     0.000 A 
ENDBRANCH  10  16
ENDBRANCH   7   8
ENDBRANCH   5   7
ENDBRANCH   2   3
ENDBRANCH   1   2
BRANCH   1  22
ATOM     22  C   UNL A   1      33.588  28.825  26.943  1.00  0.00     0.118 C 
BRANCH  22  23
ATOM     23  N   UNL A   1      33.550  30.166  27.513  1.00  0.00    -0.352 N 
ATOM     24  C   UNL A   1      34.513  30.818  28.251  1.00  0.00     0.251 C 
ATOM     25  H   UNL A   1      32.723  30.674  27.348  1.00  0.00     0.163 HD
ATOM     26  O   UNL A   1      34.268  31.902  28.769  1.00  0.00    -0.269 OA
BRANCH  24  27
ATOM     27  C   UNL A   1      35.834  30.183  28.442  1.00  0.00     0.039 A 
ATOM     28  C   UNL A   1      36.735  30.153  27.376  1.00  0.00     0.014 A 
ATOM     29  C   UNL A   1      36.198  29.670  29.689  1.00  0.00     0.014 A 
ATOM     30  C   UNL A   1      38.037  29.693  27.586  1.00  0.00     0.010 A 
ATOM     31  C   UNL A   1      37.517  29.292  29.917  1.00  0.00     0.010 A 
ATOM     32  C   UNL A   1      38.454  29.308  28.872  1.00  0.00    -0.014 A 
BRANCH  32  33
ATOM     33  C   UNL A   1      39.863  28.936  29.164  1.00  0.00     0.031 A 
ATOM     34  C   UNL A   1      40.810  29.969  29.713  1.00  0.00     0.074 A 
ATOM     35  C   UNL A   1      40.315  27.707  28.843  1.00  0.00     0.049 A 
ATOM     36  N   UNL A   1      42.102  29.886  29.900  1.00  0.00    -0.248 NA
ATOM     37  C   UNL A   1      40.233  31.275  30.072  1.00  0.00     0.031 C 
ATOM     38  C   UNL A   1      39.505  26.624  28.281  1.00  0.00     0.029 A 
ATOM     39  N   UNL A   1      41.576  27.168  28.925  1.00  0.00    -0.354 N 
ATOM     40  C   UNL A   1      42.495  31.132  30.374  1.00  0.00     0.074 A 
ATOM     41  C   UNL A   1      41.313  31.966  30.402  1.00  0.00     0.031 C 
ATOM     42  C   UNL A   1      40.284  25.547  28.084  1.00  0.00     0.029 A 
ATOM     43  C   UNL A   1      41.657  25.877  28.453  1.00  0.00     0.049 A 
ATOM     44  H   UNL A   1      42.349  27.658  29.287  1.00  0.00     0.167 HD
ATOM     45  C   UNL A   1      43.726  31.541  30.764  1.00  0.00     0.031 A 
ATOM     46  C   UNL A   1      42.718  25.058  28.310  1.00  0.00     0.031 A 
ATOM     47  C   UNL A   1      44.896  30.705  30.740  1.00  0.00     0.049 A 
ATOM     48  C   UNL A   1      44.082  25.545  28.720  1.00  0.00     0.074 A 
ATOM     49  C   UNL A   1      46.178  31.012  31.161  1.00  0.00     0.029 A 
ATOM     50  N   UNL A   1      44.931  29.401  30.268  1.00  0.00    -0.354 N 
ATOM     51  N   UNL A   1      44.425  26.711  29.215  1.00  0.00    -0.248 NA
ATOM     52  C   UNL A   1      45.202  24.606  28.560  1.00  0.00     0.031 C 
ATOM     53  C   UNL A   1      47.001  29.916  30.887  1.00  0.00     0.029 A 
ATOM     54  C   UNL A   1      46.217  28.899  30.366  1.00  0.00     0.049 A 
ATOM     55  H   UNL A   1      44.155  28.907  29.917  1.00  0.00     0.167 HD
ATOM     56  C   UNL A   1      45.791  26.628  29.464  1.00  0.00     0.074 A 
ATOM     57  C   UNL A   1      46.211  25.301  29.067  1.00  0.00     0.031 C 
ATOM     58  C   UNL A   1      46.619  27.568  29.984  1.00  0.00     0.031 A 
BRANCH  45  59
ATOM     59  C   UNL A   1      43.872  32.964  31.240  1.00  0.00    -0.014 A 
ATOM     60  C   UNL A   1      43.719  33.298  32.597  1.00  0.00     0.010 A 
ATOM     61  C   UNL A   1      44.213  33.973  30.321  1.00  0.00     0.010 A 
ATOM     62  C   UNL A   1      43.861  34.622  33.020  1.00  0.00     0.020 A 
ATOM     63  C   UNL A   1      44.388  35.294  30.745  1.00  0.00     0.020 A 
ATOM     64  C   UNL A   1      44.194  35.613  32.090  1.00  0.00     0.054 A 
BRANCH  64  65
ATOM     65  S   UNL A   1      44.393  37.318  32.674  1.00  0.00     0.124 S 
ATOM     66  O   UNL A   1      43.359  37.406  33.701  1.00  0.00    -0.237 OA
ATOM     67  O   UNL A   1      45.768  37.330  33.164  1.00  0.00    -0.237 OA
ATOM     68  O   UNL A   1      44.153  38.124  31.480  1.00  0.00    -0.744 OA
ENDBRANCH  64  65
ENDBRANCH  45  59
BRANCH  46  69
ATOM     69  C   UNL A   1      42.532  23.686  27.757  1.00  0.00    -0.014 A 
ATOM     70  C   UNL A   1      42.756  23.429  26.394  1.00  0.00     0.010 A 
ATOM     71  C   UNL A   1      42.138  22.627  28.596  1.00  0.00     0.010 A 
ATOM     72  C   UNL A   1      42.571  22.145  25.874  1.00  0.00     0.020 A 
ATOM     73  C   UNL A   1      41.982  21.334  28.086  1.00  0.00     0.020 A 
ATOM     74  C   UNL A   1      42.188  21.103  26.725  1.00  0.00     0.054 A 
BRANCH  74  75
ATOM     75  S   UNL A   1      42.000  19.436  26.035  1.00  0.00     0.124 S 
ATOM     76  O   UNL A   1      40.569  19.381  25.758  1.00  0.00    -0.237 OA
ATOM     77  O   UNL A   1      42.872  19.481  24.864  1.00  0.00    -0.237 OA
ATOM     78  O   UNL A   1      42.463  18.565  27.114  1.00  0.00    -0.744 OA
ENDBRANCH  74  75
ENDBRANCH  46  69
BRANCH  58  79
ATOM     79  C   UNL A   1      48.058  27.188  30.221  1.00  0.00    -0.014 A 
ATOM     80  C   UNL A   1      49.062  27.479  29.282  1.00  0.00     0.010 A 
ATOM     81  C   UNL A   1      48.419  26.615  31.456  1.00  0.00     0.010 A 
ATOM     82  C   UNL A   1      50.399  27.192  29.568  1.00  0.00     0.020 A 
ATOM     83  C   UNL A   1      49.757  26.355  31.757  1.00  0.00     0.020 A 
ATOM     84  C   UNL A   1      50.740  26.640  30.808  1.00  0.00     0.054 A 
BRANCH  84  85
ATOM     85  S   UNL A   1      52.491  26.355  31.187  1.00  0.00     0.124 S 
ATOM     86  O   UNL A   1      52.838  27.556  31.941  1.00  0.00    -0.237 OA
ATOM     87  O   UNL A   1      52.453  25.116  31.958  1.00  0.00    -0.237 OA
ATOM     88  O   UNL A   1      53.117  26.244  29.871  1.00  0.00    -0.744 OA
ENDBRANCH  84  85
ENDBRANCH  58  79
ENDBRANCH  32  33
ENDBRANCH  24  27
ENDBRANCH  22  23
ENDBRANCH   1  22
TORSDOF 15
ENDMDL
MODEL 3
REMARK VINA RESULT:     -10.3      3.680     10.485
REMARK SMILES O=C(C[C@@H]1C(=O)NC(=S)N1c1ccccc1)NCCCNC(=O)c1ccc(-c2c3nc(c(-c4ccc(S(=O)(=O)[O-])cc4)c4ccc([nH]4)c(-c4ccc(S(=O)(=O)[O-])cc4)c4nc(c(-c5ccc(S(=O)(=O)[O-])cc5)c5ccc2[nH]5)C=C4)C=C3)cc1
REMARK SMILES IDX 19 1 18 2 17 3 1 4 2 5 3 7 4 8 5 9 10 10 6 11 7 12 8 13 9 15
REMARK SMILES IDX 11 16 12 17 16 18 13 19 15 20 14 21 20 22 21 23 22 24 23 26
REMARK SMILES IDX 24 27 25 28 83 29 26 30 82 31 27 32 28 33 29 34 76 35 30 36
REMARK SMILES IDX 81 37 75 38 77 39 31 40 80 41 74 42 73 43 32 45 62 46 43 47
REMARK SMILES IDX 61 48 44 49 47 50 60 51 78 52 45 53 46 54 59 56 79 57 48 58
REMARK SMILES IDX 33 59 34 60 42 61 35 62 41 63 36 64 37 65 38 66 39 67 40 68
REMARK SMILES IDX 63 69 64 70 72 71 65 72 71 73 66 74 67 75 68 76 69 77 70 78
REMARK SMILES IDX 49 79 50 80 58 81 51 82 57 83 52 84 53 85 54 86 55 87 56 88
REMARK H PARENT 17 6 7 14 21 25 77 44 47 55
REMARK Flexibility Score: inf
ROOT
ATOM      1  C   UNL A   1      34.520  33.400  28.115  1.00  0.00     0.042 C 
ENDROOT
BRANCH   1   2
ATOM      2  C   UNL A   1      35.690  34.297  28.475  1.00  0.00     0.117 C 
BRANCH   2   3
ATOM      3  N   UNL A   1      36.127  34.107  29.843  1.00  0.00    -0.356 N 
ATOM      4  O   UNL A   1      37.984  32.888  29.322  1.00  0.00    -0.275 OA
ATOM      5  C   UNL A   1      37.316  33.506  30.148  1.00  0.00     0.222 C 
ATOM      6  H   UNL A   1      35.549  34.420  30.576  1.00  0.00     0.163 HD
BRANCH   5   7
ATOM      7  C   UNL A   1      37.793  33.632  31.577  1.00  0.00     0.135 C 
BRANCH   7   8
ATOM      8  C   UNL A   1      37.214  32.679  32.626  1.00  0.00     0.188 C 
ATOM      9  C   UNL A   1      36.021  33.370  33.291  1.00  0.00     0.249 C 
ATOM     10  N   UNL A   1      37.986  32.285  33.808  1.00  0.00    -0.306 N 
ATOM     11  O   UNL A   1      35.055  33.849  32.725  1.00  0.00    -0.272 OA
ATOM     12  N   UNL A   1      36.230  33.417  34.631  1.00  0.00    -0.301 N 
ATOM     13  C   UNL A   1      37.386  32.789  34.980  1.00  0.00     0.180 C 
ATOM     14  H   UNL A   1      35.621  33.850  35.271  1.00  0.00     0.172 HD
ATOM     15  S   UNL A   1      37.911  32.819  36.555  1.00  0.00    -0.040 S 
BRANCH  10  16
ATOM     16  C   UNL A   1      39.070  31.362  33.748  1.00  0.00     0.044 A 
ATOM     17  C   UNL A   1      40.373  31.770  34.065  1.00  0.00     0.026 A 
ATOM     18  C   UNL A   1      38.887  30.030  33.363  1.00  0.00     0.026 A 
ATOM     19  C   UNL A   1      41.464  30.906  33.925  1.00  0.00     0.002 A 
ATOM     20  C   UNL A   1      39.980  29.172  33.186  1.00  0.00     0.002 A 
ATOM     21  C   UNL A   1      41.269  29.612  33.459  1.00  0.00     0.000 A 
ENDBRANCH  10  16
ENDBRANCH   7   8
ENDBRANCH   5   7
ENDBRANCH   2   3
ENDBRANCH   1   2
BRANCH   1  22
ATOM     22  C   UNL A   1      34.399  32.167  29.003  1.00  0.00     0.118 C 
BRANCH  22  23
ATOM     23  N   UNL A   1      33.944  30.980  28.289  1.00  0.00    -0.352 N 
ATOM     24  C   UNL A   1      34.676  29.889  27.877  1.00  0.00     0.251 C 
ATOM     25  H   UNL A   1      32.984  30.954  28.074  1.00  0.00     0.163 HD
ATOM     26  O   UNL A   1      34.161  29.029  27.169  1.00  0.00    -0.269 OA
BRANCH  24  27
ATOM     27  C   UNL A   1      36.098  29.780  28.264  1.00  0.00     0.039 A 
ATOM     28  C   UNL A   1      36.421  29.381  29.563  1.00  0.00     0.014 A 
ATOM     29  C   UNL A   1      37.107  30.017  27.328  1.00  0.00     0.014 A 
ATOM     30  C   UNL A   1      37.754  29.129  29.896  1.00  0.00     0.010 A 
ATOM     31  C   UNL A   1      38.422  29.686  27.636  1.00  0.00     0.010 A 
ATOM     32  C   UNL A   1      38.759  29.229  28.920  1.00  0.00    -0.014 A 
BRANCH  32  33
ATOM     33  C   UNL A   1      40.168  28.846  29.199  1.00  0.00     0.031 A 
ATOM     34  C   UNL A   1      41.126  29.867  29.752  1.00  0.00     0.074 A 
ATOM     35  C   UNL A   1      40.610  27.617  28.864  1.00  0.00     0.049 A 
ATOM     36  N   UNL A   1      42.418  29.774  29.930  1.00  0.00    -0.248 NA
ATOM     37  C   UNL A   1      40.559  31.173  30.127  1.00  0.00     0.031 C 
ATOM     38  C   UNL A   1      39.789  26.544  28.297  1.00  0.00     0.029 A 
ATOM     39  N   UNL A   1      41.867  27.068  28.933  1.00  0.00    -0.354 N 
ATOM     40  C   UNL A   1      42.822  31.012  30.413  1.00  0.00     0.074 A 
ATOM     41  C   UNL A   1      41.646  31.855  30.456  1.00  0.00     0.031 C 
ATOM     42  C   UNL A   1      40.559  25.464  28.086  1.00  0.00     0.029 A 
ATOM     43  C   UNL A   1      41.937  25.782  28.449  1.00  0.00     0.049 A 
ATOM     44  H   UNL A   1      42.646  27.550  29.295  1.00  0.00     0.167 HD
ATOM     45  C   UNL A   1      44.058  31.410  30.799  1.00  0.00     0.031 A 
ATOM     46  C   UNL A   1      42.992  24.957  28.291  1.00  0.00     0.031 A 
ATOM     47  C   UNL A   1      45.223  30.567  30.759  1.00  0.00     0.049 A 
ATOM     48  C   UNL A   1      44.361  25.431  28.697  1.00  0.00     0.074 A 
ATOM     49  C   UNL A   1      46.510  30.861  31.174  1.00  0.00     0.029 A 
ATOM     50  N   UNL A   1      45.246  29.267  30.275  1.00  0.00    -0.354 N 
ATOM     51  N   UNL A   1      44.715  26.590  29.200  1.00  0.00    -0.248 NA
ATOM     52  C   UNL A   1      45.474  24.486  28.521  1.00  0.00     0.031 C 
ATOM     53  C   UNL A   1      47.323  29.762  30.885  1.00  0.00     0.029 A 
ATOM     54  C   UNL A   1      46.529  28.755  30.359  1.00  0.00     0.049 A 
ATOM     55  H   UNL A   1      44.465  28.781  29.925  1.00  0.00     0.167 HD
ATOM     56  C   UNL A   1      46.082  26.496  29.440  1.00  0.00     0.074 A 
ATOM     57  C   UNL A   1      46.491  25.169  29.028  1.00  0.00     0.031 C 
ATOM     58  C   UNL A   1      46.920  27.425  29.963  1.00  0.00     0.031 A 
BRANCH  45  59
ATOM     59  C   UNL A   1      44.217  32.827  31.286  1.00  0.00    -0.014 A 
ATOM     60  C   UNL A   1      44.532  33.872  30.399  1.00  0.00     0.010 A 
ATOM     61  C   UNL A   1      44.003  33.125  32.645  1.00  0.00     0.010 A 
ATOM     62  C   UNL A   1      44.673  35.181  30.868  1.00  0.00     0.020 A 
ATOM     63  C   UNL A   1      44.111  34.438  33.113  1.00  0.00     0.020 A 
ATOM     64  C   UNL A   1      44.462  35.455  32.224  1.00  0.00     0.054 A 
BRANCH  64  65
ATOM     65  S   UNL A   1      44.631  37.167  32.798  1.00  0.00     0.124 S 
ATOM     66  O   UNL A   1      46.071  37.268  33.020  1.00  0.00    -0.237 OA
ATOM     67  O   UNL A   1      44.114  37.935  31.669  1.00  0.00    -0.237 OA
ATOM     68  O   UNL A   1      43.812  37.211  34.006  1.00  0.00    -0.744 OA
ENDBRANCH  64  65
ENDBRANCH  45  59
BRANCH  46  69
ATOM     69  C   UNL A   1      42.793  23.592  27.727  1.00  0.00    -0.014 A 
ATOM     70  C   UNL A   1      42.992  23.349  26.358  1.00  0.00     0.010 A 
ATOM     71  C   UNL A   1      42.411  22.524  28.561  1.00  0.00     0.010 A 
ATOM     72  C   UNL A   1      42.795  22.070  25.827  1.00  0.00     0.020 A 
ATOM     73  C   UNL A   1      42.243  21.237  28.040  1.00  0.00     0.020 A 
ATOM     74  C   UNL A   1      42.425  21.021  26.673  1.00  0.00     0.054 A 
BRANCH  74  75
ATOM     75  S   UNL A   1      42.221  19.361  25.969  1.00  0.00     0.124 S 
ATOM     76  O   UNL A   1      43.040  19.439  24.764  1.00  0.00    -0.237 OA
ATOM     77  O   UNL A   1      42.738  18.504  27.033  1.00  0.00    -0.237 OA
ATOM     78  O   UNL A   1      40.781  19.260  25.742  1.00  0.00    -0.744 OA
ENDBRANCH  74  75
ENDBRANCH  46  69
BRANCH  58  79
ATOM     79  C   UNL A   1      48.358  27.034  30.187  1.00  0.00    -0.014 A 
ATOM     80  C   UNL A   1      49.369  27.390  29.279  1.00  0.00     0.010 A 
ATOM     81  C   UNL A   1      48.709  26.379  31.383  1.00  0.00     0.010 A 
ATOM     82  C   UNL A   1      50.705  27.088  29.558  1.00  0.00     0.020 A 
ATOM     83  C   UNL A   1      50.045  26.103  31.679  1.00  0.00     0.020 A 
ATOM     84  C   UNL A   1      51.036  26.454  30.761  1.00  0.00     0.054 A 
BRANCH  84  85
ATOM     85  S   UNL A   1      52.784  26.148  31.135  1.00  0.00     0.124 S 
ATOM     86  O   UNL A   1      52.714  24.947  31.961  1.00  0.00    -0.237 OA
ATOM     87  O   UNL A   1      53.368  25.967  29.809  1.00  0.00    -0.237 OA
ATOM     88  O   UNL A   1      53.207  27.360  31.834  1.00  0.00    -0.744 OA
ENDBRANCH  84  85
ENDBRANCH  58  79
ENDBRANCH  32  33
ENDBRANCH  24  27
ENDBRANCH  22  23
ENDBRANCH   1  22
TORSDOF 15
ENDMDL
