MODEL 1
REMARK VINA RESULT:     -11.5      0.000      0.000
REMARK SMILES Cc1ccc(F)c(C(=O)N[C@@H]2C=C[C@@H](C(=O)NCCCNC(=O)c3ccc(-c4c5nc(c(-c6ccc(S(=O)(=O)[O-])cc6)c6ccc([nH]6)c(-c6ccc(S(=O)(=O)[O-])cc6)c6nc(c(-c7ccc(S(=O)(=O)[O-])cc7)c7ccc4[nH]7)C=C6)C=C5)cc3)C2)c1
REMARK SMILES IDX 19 1 18 2 17 3 15 4 16 5 14 7 11 8 12 9 84 10 13 11 10 12
REMARK SMILES IDX 8 13 9 14 7 16 1 17 2 18 3 19 85 20 4 21 5 22 6 23 20 24
REMARK SMILES IDX 21 25 22 26 23 28 24 29 25 30 83 31 26 32 82 33 27 34 28 35
REMARK SMILES IDX 29 36 76 37 30 38 81 39 75 40 77 41 31 42 80 43 74 44 73 45
REMARK SMILES IDX 32 47 62 48 43 49 61 50 44 51 47 52 60 53 78 54 45 55 46 56
REMARK SMILES IDX 59 58 79 59 48 60 33 61 34 62 42 63 35 64 41 65 36 66 37 67
REMARK SMILES IDX 38 68 39 69 40 70 63 71 64 72 72 73 65 74 71 75 66 76 67 77
REMARK SMILES IDX 68 78 69 79 70 80 49 81 50 82 58 83 51 84 57 85 52 86 53 87
REMARK SMILES IDX 54 88 55 89 56 90
REMARK H PARENT 17 6 10 15 21 27 77 46 47 57
REMARK Flexibility Score: inf
ROOT
ATOM      1  C   UNL A   1      33.703  28.020  25.665  1.00  0.00     0.042 C 
ENDROOT
BRANCH   1   2
ATOM      2  C   UNL A   1      32.417  28.097  24.846  1.00  0.00     0.117 C 
BRANCH   2   3
ATOM      3  N   UNL A   1      31.285  27.451  25.485  1.00  0.00    -0.356 N 
ATOM      4  C   UNL A   1      31.061  26.167  25.869  1.00  0.00     0.227 C 
ATOM      5  O   UNL A   1      30.065  25.973  26.575  1.00  0.00    -0.274 OA
ATOM      6  H   UNL A   1      30.537  28.061  25.678  1.00  0.00     0.163 HD
BRANCH   4   7
ATOM      7  C   UNL A   1      31.902  24.968  25.407  1.00  0.00     0.103 C 
ATOM      8  C   UNL A   1      31.089  22.642  25.413  1.00  0.00     0.106 C 
ATOM      9  C   UNL A   1      31.311  23.163  24.026  1.00  0.00    -0.006 C 
ATOM     10  C   UNL A   1      31.698  23.739  26.294  1.00  0.00     0.047 C 
ATOM     11  C   UNL A   1      31.702  24.444  24.024  1.00  0.00    -0.016 C 
BRANCH   8  12
ATOM     12  N   UNL A   1      31.684  21.328  25.539  1.00  0.00    -0.346 N 
ATOM     13  C   UNL A   1      32.992  20.932  25.712  1.00  0.00     0.254 C 
ATOM     14  O   UNL A   1      33.212  19.749  25.958  1.00  0.00    -0.269 OA
ATOM     15  H   UNL A   1      31.038  20.586  25.494  1.00  0.00     0.164 HD
BRANCH  13  16
ATOM     16  C   UNL A   1      34.120  21.875  25.533  1.00  0.00     0.075 A 
ATOM     17  C   UNL A   1      36.631  22.920  22.876  1.00  0.00     0.044 C 
ATOM     18  C   UNL A   1      35.911  22.829  24.190  1.00  0.00    -0.050 A 
ATOM     19  C   UNL A   1      36.466  23.397  25.342  1.00  0.00     0.006 A 
ATOM     20  C   UNL A   1      34.685  22.152  24.283  1.00  0.00     0.020 A 
ATOM     21  C   UNL A   1      35.839  23.232  26.575  1.00  0.00     0.040 A 
ATOM     22  C   UNL A   1      34.688  22.453  26.670  1.00  0.00     0.135 A 
ATOM     23  F   UNL A   1      34.178  22.236  27.892  1.00  0.00    -0.206 F 
ENDBRANCH  13  16
ENDBRANCH   8  12
ENDBRANCH   4   7
ENDBRANCH   2   3
ENDBRANCH   1   2
BRANCH   1  24
ATOM     24  C   UNL A   1      33.541  28.318  27.155  1.00  0.00     0.118 C 
BRANCH  24  25
ATOM     25  N   UNL A   1      33.452  29.744  27.433  1.00  0.00    -0.352 N 
ATOM     26  C   UNL A   1      34.344  30.590  28.047  1.00  0.00     0.251 C 
ATOM     27  H   UNL A   1      32.618  30.172  27.131  1.00  0.00     0.163 HD
ATOM     28  O   UNL A   1      33.976  31.718  28.361  1.00  0.00    -0.269 OA
BRANCH  26  29
ATOM     29  C   UNL A   1      35.730  30.157  28.341  1.00  0.00     0.039 A 
ATOM     30  C   UNL A   1      36.684  30.214  27.320  1.00  0.00     0.014 A 
ATOM     31  C   UNL A   1      36.081  29.645  29.592  1.00  0.00     0.014 A 
ATOM     32  C   UNL A   1      37.999  29.809  27.569  1.00  0.00     0.010 A 
ATOM     33  C   UNL A   1      37.407  29.304  29.859  1.00  0.00     0.010 A 
ATOM     34  C   UNL A   1      38.379  29.376  28.849  1.00  0.00    -0.014 A 
BRANCH  34  35
ATOM     35  C   UNL A   1      39.781  28.987  29.152  1.00  0.00     0.031 A 
ATOM     36  C   UNL A   1      40.719  29.969  29.801  1.00  0.00     0.074 A 
ATOM     37  C   UNL A   1      40.234  27.772  28.783  1.00  0.00     0.049 A 
ATOM     38  N   UNL A   1      41.991  29.835  30.081  1.00  0.00    -0.248 NA
ATOM     39  C   UNL A   1      40.160  31.281  30.160  1.00  0.00     0.031 C 
ATOM     40  C   UNL A   1      39.435  26.736  28.126  1.00  0.00     0.029 A 
ATOM     41  N   UNL A   1      41.478  27.207  28.903  1.00  0.00    -0.354 N 
ATOM     42  C   UNL A   1      42.391  31.052  30.624  1.00  0.00     0.074 A 
ATOM     43  C   UNL A   1      41.235  31.923  30.593  1.00  0.00     0.031 C 
ATOM     44  C   UNL A   1      40.201  25.651  27.929  1.00  0.00     0.029 A 
ATOM     45  C   UNL A   1      41.553  25.928  28.405  1.00  0.00     0.049 A 
ATOM     46  H   UNL A   1      42.245  27.673  29.308  1.00  0.00     0.167 HD
ATOM     47  C   UNL A   1      43.602  31.408  31.117  1.00  0.00     0.031 A 
ATOM     48  C   UNL A   1      42.592  25.072  28.334  1.00  0.00     0.031 A 
ATOM     49  C   UNL A   1      44.748  30.538  31.153  1.00  0.00     0.049 A 
ATOM     50  C   UNL A   1      43.932  25.492  28.869  1.00  0.00     0.074 A 
ATOM     51  C   UNL A   1      46.002  30.786  31.684  1.00  0.00     0.029 A 
ATOM     52  N   UNL A   1      44.782  29.253  30.632  1.00  0.00    -0.354 N 
ATOM     53  N   UNL A   1      44.276  26.628  29.430  1.00  0.00    -0.248 NA
ATOM     54  C   UNL A   1      45.022  24.514  28.769  1.00  0.00     0.031 C 
ATOM     55  C   UNL A   1      46.810  29.671  31.437  1.00  0.00     0.029 A 
ATOM     56  C   UNL A   1      46.043  28.705  30.804  1.00  0.00     0.049 A 
ATOM     57  H   UNL A   1      44.023  28.797  30.203  1.00  0.00     0.167 HD
ATOM     58  C   UNL A   1      45.615  26.489  29.776  1.00  0.00     0.074 A 
ATOM     59  C   UNL A   1      46.016  25.158  29.367  1.00  0.00     0.031 C 
ATOM     60  C   UNL A   1      46.434  27.381  30.386  1.00  0.00     0.031 A 
BRANCH  47  61
ATOM     61  C   UNL A   1      43.747  32.817  31.632  1.00  0.00    -0.014 A 
ATOM     62  C   UNL A   1      43.479  33.135  32.976  1.00  0.00     0.010 A 
ATOM     63  C   UNL A   1      44.149  33.842  30.755  1.00  0.00     0.010 A 
ATOM     64  C   UNL A   1      43.541  34.461  33.416  1.00  0.00     0.020 A 
ATOM     65  C   UNL A   1      44.245  35.164  31.200  1.00  0.00     0.020 A 
ATOM     66  C   UNL A   1      43.911  35.468  32.521  1.00  0.00     0.054 A 
BRANCH  66  67
ATOM     67  S   UNL A   1      43.956  37.184  33.108  1.00  0.00     0.124 S 
ATOM     68  O   UNL A   1      42.783  37.232  33.979  1.00  0.00    -0.237 OA
ATOM     69  O   UNL A   1      45.245  37.259  33.789  1.00  0.00    -0.237 OA
ATOM     70  O   UNL A   1      43.855  37.973  31.883  1.00  0.00    -0.744 OA
ENDBRANCH  66  67
ENDBRANCH  47  61
BRANCH  48  71
ATOM     71  C   UNL A   1      42.385  23.714  27.767  1.00  0.00    -0.014 A 
ATOM     72  C   UNL A   1      42.716  23.452  26.426  1.00  0.00     0.010 A 
ATOM     73  C   UNL A   1      41.908  22.663  28.573  1.00  0.00     0.010 A 
ATOM     74  C   UNL A   1      42.578  22.165  25.901  1.00  0.00     0.020 A 
ATOM     75  C   UNL A   1      41.790  21.369  28.057  1.00  0.00     0.020 A 
ATOM     76  C   UNL A   1      42.123  21.129  26.723  1.00  0.00     0.054 A 
BRANCH  76  77
ATOM     77  S   UNL A   1      42.038  19.450  26.040  1.00  0.00     0.124 S 
ATOM     78  O   UNL A   1      42.892  19.557  24.862  1.00  0.00    -0.237 OA
ATOM     79  O   UNL A   1      42.565  18.639  27.134  1.00  0.00    -0.237 OA
ATOM     80  O   UNL A   1      40.614  19.265  25.768  1.00  0.00    -0.744 OA
ENDBRANCH  76  77
ENDBRANCH  48  71
BRANCH  60  81
ATOM     81  C   UNL A   1      47.844  26.941  30.679  1.00  0.00    -0.014 A 
ATOM     82  C   UNL A   1      48.918  27.341  29.865  1.00  0.00     0.010 A 
ATOM     83  C   UNL A   1      48.101  26.161  31.821  1.00  0.00     0.010 A 
ATOM     84  C   UNL A   1      50.223  26.945  30.175  1.00  0.00     0.020 A 
ATOM     85  C   UNL A   1      49.406  25.785  32.148  1.00  0.00     0.020 A 
ATOM     86  C   UNL A   1      50.459  26.170  31.315  1.00  0.00     0.054 A 
BRANCH  86  87
ATOM     87  S   UNL A   1      52.166  25.712  31.724  1.00  0.00     0.124 S 
ATOM     88  O   UNL A   1      52.499  26.678  32.766  1.00  0.00    -0.237 OA
ATOM     89  O   UNL A   1      52.028  24.328  32.169  1.00  0.00    -0.237 OA
ATOM     90  O   UNL A   1      52.882  25.885  30.462  1.00  0.00    -0.744 OA
ENDBRANCH  86  87
ENDBRANCH  60  81
ENDBRANCH  34  35
ENDBRANCH  26  29
ENDBRANCH  24  25
ENDBRANCH   1  24
TORSDOF 15
ENDMDL
MODEL 2
REMARK VINA RESULT:     -11.1      4.044      9.905
REMARK SMILES Cc1ccc(F)c(C(=O)N[C@@H]2C=C[C@@H](C(=O)NCCCNC(=O)c3ccc(-c4c5nc(c(-c6ccc(S(=O)(=O)[O-])cc6)c6ccc([nH]6)c(-c6ccc(S(=O)(=O)[O-])cc6)c6nc(c(-c7ccc(S(=O)(=O)[O-])cc7)c7ccc4[nH]7)C=C6)C=C5)cc3)C2)c1
REMARK SMILES IDX 19 1 18 2 17 3 15 4 16 5 14 7 11 8 12 9 84 10 13 11 10 12
REMARK SMILES IDX 8 13 9 14 7 16 1 17 2 18 3 19 85 20 4 21 5 22 6 23 20 24
REMARK SMILES IDX 21 25 22 26 23 28 24 29 25 30 83 31 26 32 82 33 27 34 28 35
REMARK SMILES IDX 29 36 76 37 30 38 81 39 75 40 77 41 31 42 80 43 74 44 73 45
REMARK SMILES IDX 32 47 62 48 43 49 61 50 44 51 47 52 60 53 78 54 45 55 46 56
REMARK SMILES IDX 59 58 79 59 48 60 33 61 34 62 42 63 35 64 41 65 36 66 37 67
REMARK SMILES IDX 38 68 39 69 40 70 63 71 64 72 72 73 65 74 71 75 66 76 67 77
REMARK SMILES IDX 68 78 69 79 70 80 49 81 50 82 58 83 51 84 57 85 52 86 53 87
REMARK SMILES IDX 54 88 55 89 56 90
REMARK H PARENT 17 6 10 15 21 27 77 46 47 57
REMARK Flexibility Score: inf
ROOT
ATOM      1  C   UNL A   1      41.471  21.249  26.210  1.00  0.00     0.042 C 
ENDROOT
BRANCH   1   2
ATOM      2  C   UNL A   1      42.533  20.695  27.156  1.00  0.00     0.117 C 
BRANCH   2   3
ATOM      3  N   UNL A   1      42.696  21.479  28.366  1.00  0.00    -0.356 N 
ATOM      4  C   UNL A   1      43.453  22.570  28.654  1.00  0.00     0.227 C 
ATOM      5  O   UNL A   1      43.217  23.131  29.730  1.00  0.00    -0.274 OA
ATOM      6  H   UNL A   1      42.153  21.159  29.122  1.00  0.00     0.163 HD
BRANCH   4   7
ATOM      7  C   UNL A   1      44.614  23.071  27.783  1.00  0.00     0.103 C 
ATOM      8  C   UNL A   1      44.702  25.317  26.774  1.00  0.00     0.106 C 
ATOM      9  C   UNL A   1      45.750  25.126  27.828  1.00  0.00    -0.006 C 
ATOM     10  C   UNL A   1      44.132  23.904  26.595  1.00  0.00     0.047 C 
ATOM     11  C   UNL A   1      45.666  23.923  28.411  1.00  0.00    -0.016 C 
BRANCH   8  12
ATOM     12  N   UNL A   1      45.300  25.911  25.598  1.00  0.00    -0.346 N 
ATOM     13  C   UNL A   1      45.468  27.227  25.227  1.00  0.00     0.254 C 
ATOM     14  O   UNL A   1      46.163  27.468  24.242  1.00  0.00    -0.269 OA
ATOM     15  H   UNL A   1      45.648  25.258  24.948  1.00  0.00     0.164 HD
BRANCH  13  16
ATOM     16  C   UNL A   1      44.777  28.330  25.934  1.00  0.00     0.075 A 
ATOM     17  C   UNL A   1      45.445  30.895  28.660  1.00  0.00     0.044 C 
ATOM     18  C   UNL A   1      44.730  30.090  27.613  1.00  0.00    -0.050 A 
ATOM     19  C   UNL A   1      43.338  30.158  27.497  1.00  0.00     0.006 A 
ATOM     20  C   UNL A   1      45.449  29.241  26.756  1.00  0.00     0.020 A 
ATOM     21  C   UNL A   1      42.671  29.341  26.585  1.00  0.00     0.040 A 
ATOM     22  C   UNL A   1      43.387  28.416  25.829  1.00  0.00     0.135 A 
ATOM     23  F   UNL A   1      42.693  27.580  25.042  1.00  0.00    -0.206 F 
ENDBRANCH  13  16
ENDBRANCH   8  12
ENDBRANCH   4   7
ENDBRANCH   2   3
ENDBRANCH   1   2
BRANCH   1  24
ATOM     24  C   UNL A   1      40.132  21.585  26.866  1.00  0.00     0.118 C 
BRANCH  24  25
ATOM     25  N   UNL A   1      39.153  22.086  25.913  1.00  0.00    -0.352 N 
ATOM     26  C   UNL A   1      38.539  23.312  25.827  1.00  0.00     0.251 C 
ATOM     27  H   UNL A   1      38.889  21.442  25.216  1.00  0.00     0.163 HD
ATOM     28  O   UNL A   1      37.588  23.450  25.063  1.00  0.00    -0.269 OA
BRANCH  26  29
ATOM     29  C   UNL A   1      38.998  24.456  26.648  1.00  0.00     0.039 A 
ATOM     30  C   UNL A   1      38.505  24.593  27.950  1.00  0.00     0.014 A 
ATOM     31  C   UNL A   1      39.862  25.422  26.127  1.00  0.00     0.014 A 
ATOM     32  C   UNL A   1      38.920  25.666  28.745  1.00  0.00     0.010 A 
ATOM     33  C   UNL A   1      40.327  26.454  26.943  1.00  0.00     0.010 A 
ATOM     34  C   UNL A   1      39.857  26.592  28.257  1.00  0.00    -0.014 A 
BRANCH  34  35
ATOM     35  C   UNL A   1      40.351  27.711  29.100  1.00  0.00     0.031 A 
ATOM     36  C   UNL A   1      39.498  28.932  29.319  1.00  0.00     0.074 A 
ATOM     37  C   UNL A   1      41.595  27.662  29.617  1.00  0.00     0.049 A 
ATOM     38  N   UNL A   1      39.784  30.034  29.966  1.00  0.00    -0.248 NA
ATOM     39  C   UNL A   1      38.159  28.923  28.710  1.00  0.00     0.031 C 
ATOM     40  C   UNL A   1      42.532  26.548  29.461  1.00  0.00     0.029 A 
ATOM     41  N   UNL A   1      42.287  28.576  30.372  1.00  0.00    -0.354 N 
ATOM     42  C   UNL A   1      38.672  30.858  29.821  1.00  0.00     0.074 A 
ATOM     43  C   UNL A   1      37.727  30.144  28.989  1.00  0.00     0.031 C 
ATOM     44  C   UNL A   1      43.663  26.830  30.127  1.00  0.00     0.029 A 
ATOM     45  C   UNL A   1      43.550  28.160  30.719  1.00  0.00     0.049 A 
ATOM     46  H   UNL A   1      41.913  29.446  30.641  1.00  0.00     0.167 HD
ATOM     47  C   UNL A   1      38.451  32.090  30.343  1.00  0.00     0.031 A 
ATOM     48  C   UNL A   1      44.513  28.778  31.430  1.00  0.00     0.031 A 
ATOM     49  C   UNL A   1      39.388  32.795  31.175  1.00  0.00     0.049 A 
ATOM     50  C   UNL A   1      44.256  30.151  31.986  1.00  0.00     0.074 A 
ATOM     51  C   UNL A   1      39.234  34.021  31.800  1.00  0.00     0.029 A 
ATOM     52  N   UNL A   1      40.659  32.341  31.497  1.00  0.00    -0.354 N 
ATOM     53  N   UNL A   1      43.177  30.891  31.884  1.00  0.00    -0.248 NA
ATOM     54  C   UNL A   1      45.342  30.768  32.757  1.00  0.00     0.031 C 
ATOM     55  C   UNL A   1      40.431  34.332  32.455  1.00  0.00     0.029 A 
ATOM     56  C   UNL A   1      41.310  33.274  32.287  1.00  0.00     0.049 A 
ATOM     57  H   UNL A   1      41.043  31.483  31.206  1.00  0.00     0.167 HD
ATOM     58  C   UNL A   1      43.444  32.049  32.604  1.00  0.00     0.074 A 
ATOM     59  C   UNL A   1      44.783  31.909  33.140  1.00  0.00     0.031 C 
ATOM     60  C   UNL A   1      42.647  33.128  32.809  1.00  0.00     0.031 A 
BRANCH  47  61
ATOM     61  C   UNL A   1      37.144  32.757  29.998  1.00  0.00    -0.014 A 
ATOM     62  C   UNL A   1      36.968  33.431  28.775  1.00  0.00     0.010 A 
ATOM     63  C   UNL A   1      36.077  32.716  30.914  1.00  0.00     0.010 A 
ATOM     64  C   UNL A   1      35.776  34.111  28.507  1.00  0.00     0.020 A 
ATOM     65  C   UNL A   1      34.872  33.366  30.635  1.00  0.00     0.020 A 
ATOM     66  C   UNL A   1      34.741  34.085  29.445  1.00  0.00     0.054 A 
BRANCH  66  67
ATOM     67  S   UNL A   1      33.215  35.000  29.087  1.00  0.00     0.124 S 
ATOM     68  O   UNL A   1      32.567  35.021  30.396  1.00  0.00    -0.237 OA
ATOM     69  O   UNL A   1      33.716  36.288  28.615  1.00  0.00    -0.237 OA
ATOM     70  O   UNL A   1      32.552  34.184  28.074  1.00  0.00    -0.744 OA
ENDBRANCH  66  67
ENDBRANCH  47  61
BRANCH  48  71
ATOM     71  C   UNL A   1      45.798  28.075  31.689  1.00  0.00    -0.014 A 
ATOM     72  C   UNL A   1      45.993  27.386  32.899  1.00  0.00     0.010 A 
ATOM     73  C   UNL A   1      46.810  28.045  30.712  1.00  0.00     0.010 A 
ATOM     74  C   UNL A   1      47.175  26.677  33.127  1.00  0.00     0.020 A 
ATOM     75  C   UNL A   1      47.984  27.317  30.927  1.00  0.00     0.020 A 
ATOM     76  C   UNL A   1      48.160  26.640  32.136  1.00  0.00     0.054 A 
BRANCH  76  77
ATOM     77  S   UNL A   1      49.646  25.638  32.422  1.00  0.00     0.124 S 
ATOM     78  O   UNL A   1      50.017  25.251  31.065  1.00  0.00    -0.237 OA
ATOM     79  O   UNL A   1      50.542  26.586  33.079  1.00  0.00    -0.237 OA
ATOM     80  O   UNL A   1      49.165  24.554  33.275  1.00  0.00    -0.744 OA
ENDBRANCH  76  77
ENDBRANCH  48  71
BRANCH  60  81
ATOM     81  C   UNL A   1      43.187  34.234  33.676  1.00  0.00    -0.014 A 
ATOM     82  C   UNL A   1      43.838  35.348  33.118  1.00  0.00     0.010 A 
ATOM     83  C   UNL A   1      42.987  34.183  35.068  1.00  0.00     0.010 A 
ATOM     84  C   UNL A   1      44.304  36.378  33.940  1.00  0.00     0.020 A 
ATOM     85  C   UNL A   1      43.427  35.223  35.890  1.00  0.00     0.020 A 
ATOM     86  C   UNL A   1      44.094  36.310  35.321  1.00  0.00     0.054 A 
BRANCH  86  87
ATOM     87  S   UNL A   1      44.663  37.683  36.361  1.00  0.00     0.124 S 
ATOM     88  O   UNL A   1      46.070  37.351  36.560  1.00  0.00    -0.237 OA
ATOM     89  O   UNL A   1      44.405  38.850  35.521  1.00  0.00    -0.237 OA
ATOM     90  O   UNL A   1      43.824  37.584  37.553  1.00  0.00    -0.744 OA
ENDBRANCH  86  87
ENDBRANCH  60  81
ENDBRANCH  34  35
ENDBRANCH  26  29
ENDBRANCH  24  25
ENDBRANCH   1  24
TORSDOF 15
ENDMDL
MODEL 3
REMARK VINA RESULT:     -11.1      2.491      9.190
REMARK SMILES Cc1ccc(F)c(C(=O)N[C@@H]2C=C[C@@H](C(=O)NCCCNC(=O)c3ccc(-c4c5nc(c(-c6ccc(S(=O)(=O)[O-])cc6)c6ccc([nH]6)c(-c6ccc(S(=O)(=O)[O-])cc6)c6nc(c(-c7ccc(S(=O)(=O)[O-])cc7)c7ccc4[nH]7)C=C6)C=C5)cc3)C2)c1
REMARK SMILES IDX 19 1 18 2 17 3 15 4 16 5 14 7 11 8 12 9 84 10 13 11 10 12
REMARK SMILES IDX 8 13 9 14 7 16 1 17 2 18 3 19 85 20 4 21 5 22 6 23 20 24
REMARK SMILES IDX 21 25 22 26 23 28 24 29 25 30 83 31 26 32 82 33 27 34 28 35
REMARK SMILES IDX 29 36 76 37 30 38 81 39 75 40 77 41 31 42 80 43 74 44 73 45
REMARK SMILES IDX 32 47 62 48 43 49 61 50 44 51 47 52 60 53 78 54 45 55 46 56
REMARK SMILES IDX 59 58 79 59 48 60 33 61 34 62 42 63 35 64 41 65 36 66 37 67
REMARK SMILES IDX 38 68 39 69 40 70 63 71 64 72 72 73 65 74 71 75 66 76 67 77
REMARK SMILES IDX 68 78 69 79 70 80 49 81 50 82 58 83 51 84 57 85 52 86 53 87
REMARK SMILES IDX 54 88 55 89 56 90
REMARK H PARENT 17 6 10 15 21 27 77 46 47 57
REMARK Flexibility Score: inf
ROOT
ATOM      1  C   UNL A   1      35.837  23.950  24.479  1.00  0.00     0.042 C 
ENDROOT
BRANCH   1   2
ATOM      2  C   UNL A   1      34.496  23.366  24.044  1.00  0.00     0.117 C 
BRANCH   2   3
ATOM      3  N   UNL A   1      34.232  22.050  24.596  1.00  0.00    -0.356 N 
ATOM      4  C   UNL A   1      33.193  21.552  25.317  1.00  0.00     0.227 C 
ATOM      5  O   UNL A   1      33.171  20.324  25.468  1.00  0.00    -0.274 OA
ATOM      6  H   UNL A   1      34.941  21.392  24.411  1.00  0.00     0.163 HD
BRANCH   4   7
ATOM      7  C   UNL A   1      32.131  22.415  26.012  1.00  0.00     0.103 C 
ATOM      8  C   UNL A   1      32.218  24.876  26.114  1.00  0.00     0.106 C 
ATOM      9  C   UNL A   1      31.077  24.381  25.278  1.00  0.00    -0.006 C 
ATOM     10  C   UNL A   1      32.746  23.593  26.770  1.00  0.00     0.047 C 
ATOM     11  C   UNL A   1      31.063  23.045  25.182  1.00  0.00    -0.016 C 
BRANCH   8  12
ATOM     12  N   UNL A   1      31.747  25.901  27.021  1.00  0.00    -0.346 N 
ATOM     13  C   UNL A   1      31.513  27.246  26.834  1.00  0.00     0.254 C 
ATOM     14  O   UNL A   1      30.951  27.867  27.733  1.00  0.00    -0.269 OA
ATOM     15  H   UNL A   1      31.559  25.579  27.933  1.00  0.00     0.164 HD
BRANCH  13  16
ATOM     16  C   UNL A   1      31.989  27.958  25.625  1.00  0.00     0.075 A 
ATOM     17  C   UNL A   1      30.663  29.210  22.289  1.00  0.00     0.044 C 
ATOM     18  C   UNL A   1      31.610  28.887  23.409  1.00  0.00    -0.050 A 
ATOM     19  C   UNL A   1      32.992  28.975  23.214  1.00  0.00     0.006 A 
ATOM     20  C   UNL A   1      31.119  28.467  24.655  1.00  0.00     0.020 A 
ATOM     21  C   UNL A   1      33.868  28.587  24.227  1.00  0.00     0.040 A 
ATOM     22  C   UNL A   1      33.365  28.058  25.413  1.00  0.00     0.135 A 
ATOM     23  F   UNL A   1      34.246  27.602  26.317  1.00  0.00    -0.206 F 
ENDBRANCH  13  16
ENDBRANCH   8  12
ENDBRANCH   4   7
ENDBRANCH   2   3
ENDBRANCH   1   2
BRANCH   1  24
ATOM     24  C   UNL A   1      36.283  23.566  25.889  1.00  0.00     0.118 C 
BRANCH  24  25
ATOM     25  N   UNL A   1      37.380  22.609  25.887  1.00  0.00    -0.352 N 
ATOM     26  C   UNL A   1      38.708  22.775  26.196  1.00  0.00     0.251 C 
ATOM     27  H   UNL A   1      37.128  21.695  25.622  1.00  0.00     0.163 HD
ATOM     28  O   UNL A   1      39.499  21.876  25.927  1.00  0.00    -0.269 OA
BRANCH  26  29
ATOM     29  C   UNL A   1      39.195  24.019  26.836  1.00  0.00     0.039 A 
ATOM     30  C   UNL A   1      39.971  24.905  26.081  1.00  0.00     0.014 A 
ATOM     31  C   UNL A   1      38.941  24.291  28.182  1.00  0.00     0.014 A 
ATOM     32  C   UNL A   1      40.447  26.085  26.661  1.00  0.00     0.010 A 
ATOM     33  C   UNL A   1      39.359  25.499  28.740  1.00  0.00     0.010 A 
ATOM     34  C   UNL A   1      40.121  26.407  27.989  1.00  0.00    -0.014 A 
BRANCH  34  35
ATOM     35  C   UNL A   1      40.572  27.678  28.611  1.00  0.00     0.031 A 
ATOM     36  C   UNL A   1      41.970  27.805  29.155  1.00  0.00     0.074 A 
ATOM     37  C   UNL A   1      39.705  28.701  28.750  1.00  0.00     0.049 A 
ATOM     38  N   UNL A   1      42.521  28.808  29.791  1.00  0.00    -0.248 NA
ATOM     39  C   UNL A   1      42.855  26.643  28.985  1.00  0.00     0.031 C 
ATOM     40  C   UNL A   1      38.316  28.700  28.287  1.00  0.00     0.029 A 
ATOM     41  N   UNL A   1      39.863  29.936  29.325  1.00  0.00    -0.354 N 
ATOM     42  C   UNL A   1      43.807  28.390  30.118  1.00  0.00     0.074 A 
ATOM     43  C   UNL A   1      43.936  27.027  29.648  1.00  0.00     0.031 C 
ATOM     44  C   UNL A   1      37.758  29.888  28.569  1.00  0.00     0.029 A 
ATOM     45  C   UNL A   1      38.734  30.719  29.270  1.00  0.00     0.049 A 
ATOM     46  H   UNL A   1      40.705  30.235  29.738  1.00  0.00     0.167 HD
ATOM     47  C   UNL A   1      44.795  29.080  30.738  1.00  0.00     0.031 A 
ATOM     48  C   UNL A   1      38.504  31.963  29.732  1.00  0.00     0.031 A 
ATOM     49  C   UNL A   1      44.668  30.437  31.198  1.00  0.00     0.049 A 
ATOM     50  C   UNL A   1      39.607  32.705  30.434  1.00  0.00     0.074 A 
ATOM     51  C   UNL A   1      45.628  31.242  31.786  1.00  0.00     0.029 A 
ATOM     52  N   UNL A   1      43.505  31.191  31.128  1.00  0.00    -0.354 N 
ATOM     53  N   UNL A   1      40.834  32.313  30.684  1.00  0.00    -0.248 NA
ATOM     54  C   UNL A   1      39.297  34.060  30.909  1.00  0.00     0.031 C 
ATOM     55  C   UNL A   1      45.033  32.463  32.120  1.00  0.00     0.029 A 
ATOM     56  C   UNL A   1      43.716  32.441  31.687  1.00  0.00     0.049 A 
ATOM     57  H   UNL A   1      42.655  30.883  30.739  1.00  0.00     0.167 HD
ATOM     58  C   UNL A   1      41.452  33.384  31.320  1.00  0.00     0.074 A 
ATOM     59  C   UNL A   1      40.465  34.441  31.410  1.00  0.00     0.031 C 
ATOM     60  C   UNL A   1      42.724  33.484  31.779  1.00  0.00     0.031 A 
BRANCH  47  61
ATOM     61  C   UNL A   1      46.095  28.354  30.975  1.00  0.00    -0.014 A 
ATOM     62  C   UNL A   1      47.136  28.390  30.029  1.00  0.00     0.010 A 
ATOM     63  C   UNL A   1      46.275  27.617  32.160  1.00  0.00     0.010 A 
ATOM     64  C   UNL A   1      48.302  27.646  30.230  1.00  0.00     0.020 A 
ATOM     65  C   UNL A   1      47.454  26.898  32.381  1.00  0.00     0.020 A 
ATOM     66  C   UNL A   1      48.447  26.894  31.399  1.00  0.00     0.054 A 
BRANCH  66  67
ATOM     67  S   UNL A   1      49.957  25.913  31.624  1.00  0.00     0.124 S 
ATOM     68  O   UNL A   1      50.943  26.949  31.925  1.00  0.00    -0.237 OA
ATOM     69  O   UNL A   1      49.609  25.036  32.738  1.00  0.00    -0.237 OA
ATOM     70  O   UNL A   1      50.129  25.243  30.338  1.00  0.00    -0.744 OA
ENDBRANCH  66  67
ENDBRANCH  47  61
BRANCH  48  71
ATOM     71  C   UNL A   1      37.179  32.597  29.504  1.00  0.00    -0.014 A 
ATOM     72  C   UNL A   1      36.179  32.515  30.489  1.00  0.00     0.010 A 
ATOM     73  C   UNL A   1      36.925  33.330  28.329  1.00  0.00     0.010 A 
ATOM     74  C   UNL A   1      34.951  33.155  30.306  1.00  0.00     0.020 A 
ATOM     75  C   UNL A   1      35.706  33.991  28.154  1.00  0.00     0.020 A 
ATOM     76  C   UNL A   1      34.725  33.896  29.142  1.00  0.00     0.054 A 
BRANCH  76  77
ATOM     77  S   UNL A   1      33.156  34.791  28.971  1.00  0.00     0.124 S 
ATOM     78  O   UNL A   1      33.602  36.101  28.509  1.00  0.00    -0.237 OA
ATOM     79  O   UNL A   1      32.438  33.983  27.989  1.00  0.00    -0.237 OA
ATOM     80  O   UNL A   1      32.597  34.758  30.321  1.00  0.00    -0.744 OA
ENDBRANCH  76  77
ENDBRANCH  48  71
BRANCH  60  81
ATOM     81  C   UNL A   1      43.138  34.793  32.395  1.00  0.00    -0.014 A 
ATOM     82  C   UNL A   1      43.029  35.017  33.779  1.00  0.00     0.010 A 
ATOM     83  C   UNL A   1      43.700  35.794  31.581  1.00  0.00     0.010 A 
ATOM     84  C   UNL A   1      43.448  36.230  34.333  1.00  0.00     0.020 A 
ATOM     85  C   UNL A   1      44.145  36.997  32.135  1.00  0.00     0.020 A 
ATOM     86  C   UNL A   1      44.005  37.212  33.508  1.00  0.00     0.054 A 
BRANCH  86  87
ATOM     87  S   UNL A   1      44.589  38.757  34.258  1.00  0.00     0.124 S 
ATOM     88  O   UNL A   1      46.037  38.576  34.237  1.00  0.00    -0.237 OA
ATOM     89  O   UNL A   1      44.069  39.773  33.346  1.00  0.00    -0.237 OA
ATOM     90  O   UNL A   1      43.978  38.750  35.586  1.00  0.00    -0.744 OA
ENDBRANCH  86  87
ENDBRANCH  60  81
ENDBRANCH  34  35
ENDBRANCH  26  29
ENDBRANCH  24  25
ENDBRANCH   1  24
TORSDOF 15
ENDMDL
