MODEL 1
REMARK VINA RESULT:     -11.8      0.000      0.000
REMARK SMILES O=C(CCOc1cc(-c2ccncc2)nc(-c2ccc(C(F)(F)F)cc2)n1)NCCCNC(=O)c1ccc(-c2c3nc(c(-c4ccc(S(=O)(=O)[O-])cc4)c4ccc([nH]4)c(-c4ccc(S(=O)(=O)[O-])cc4)c4nc(c(-c5ccc(S(=O)(=O)[O-])cc5)c5ccc2[nH]5)C=C4)C=C3)cc1
REMARK SMILES IDX 29 1 28 2 1 3 2 4 3 6 4 7 5 8 6 9 7 10 27 11 8 12 16 13
REMARK SMILES IDX 15 14 9 15 10 16 14 17 11 18 13 19 12 20 17 21 18 22 26 23
REMARK SMILES IDX 19 24 25 25 20 26 21 27 22 28 23 29 24 30 30 31 31 32 32 33
REMARK SMILES IDX 33 34 34 36 35 37 36 38 94 39 37 40 93 41 38 42 39 43 40 44
REMARK SMILES IDX 87 45 41 46 92 47 86 48 88 49 42 50 91 51 85 52 84 53 43 55
REMARK SMILES IDX 73 56 54 57 72 58 55 59 58 60 71 61 89 62 56 63 57 64 70 66
REMARK SMILES IDX 90 67 59 68 44 69 45 70 53 71 46 72 52 73 47 74 48 75 49 76
REMARK SMILES IDX 50 77 51 78 74 79 75 80 83 81 76 82 82 83 77 84 78 85 79 86
REMARK SMILES IDX 80 87 81 88 60 89 61 90 69 91 62 92 68 93 63 94 64 95 65 96
REMARK SMILES IDX 66 97 67 98
REMARK H PARENT 28 5 32 35 88 54 58 65
REMARK Flexibility Score: inf
ROOT
ATOM      1  C   UNL A   1      34.468  22.366  24.538  1.00  0.00     0.117 C 
ENDROOT
BRANCH   1   2
ATOM      2  N   UNL A   1      33.345  23.288  24.555  1.00  0.00    -0.356 N 
ATOM      3  O   UNL A   1      32.303  22.503  22.666  1.00  0.00    -0.275 OA
ATOM      4  C   UNL A   1      32.281  23.170  23.688  1.00  0.00     0.223 C 
ATOM      5  H   UNL A   1      33.345  24.024  25.209  1.00  0.00     0.163 HD
BRANCH   4   6
ATOM      6  C   UNL A   1      31.009  23.810  24.198  1.00  0.00     0.141 C 
BRANCH   6   7
ATOM      7  C   UNL A   1      30.488  24.810  23.158  1.00  0.00     0.241 C 
BRANCH   7   8
ATOM      8  O   UNL A   1      29.617  25.783  23.752  1.00  0.00    -0.477 OA
BRANCH   8   9
ATOM      9  C   UNL A   1      30.053  27.085  23.757  1.00  0.00     0.217 A 
ATOM     10  C   UNL A   1      29.452  28.072  23.018  1.00  0.00     0.097 A 
ATOM     11  N   UNL A   1      30.987  27.351  24.683  1.00  0.00    -0.193 NA
ATOM     12  C   UNL A   1      29.780  29.377  23.321  1.00  0.00     0.078 A 
ATOM     13  C   UNL A   1      31.304  28.649  24.861  1.00  0.00     0.163 A 
ATOM     14  N   UNL A   1      30.716  29.683  24.231  1.00  0.00    -0.228 NA
BRANCH  12  15
ATOM     15  C   UNL A   1      29.001  30.473  22.741  1.00  0.00     0.003 A 
ATOM     16  C   UNL A   1      28.579  30.418  21.407  1.00  0.00     0.030 A 
ATOM     17  C   UNL A   1      28.780  31.658  23.447  1.00  0.00     0.030 A 
ATOM     18  C   UNL A   1      28.018  31.544  20.828  1.00  0.00     0.111 A 
ATOM     19  C   UNL A   1      28.196  32.728  22.787  1.00  0.00     0.111 A 
ATOM     20  N   UNL A   1      27.826  32.703  21.491  1.00  0.00    -0.265 NA
ENDBRANCH  12  15
BRANCH  13  21
ATOM     21  C   UNL A   1      32.400  28.971  25.777  1.00  0.00     0.019 A 
ATOM     22  C   UNL A   1      33.490  28.100  25.927  1.00  0.00     0.012 A 
ATOM     23  C   UNL A   1      32.429  30.183  26.482  1.00  0.00     0.012 A 
ATOM     24  C   UNL A   1      34.593  28.456  26.713  1.00  0.00     0.014 A 
ATOM     25  C   UNL A   1      33.524  30.540  27.275  1.00  0.00     0.014 A 
ATOM     26  C   UNL A   1      34.629  29.690  27.380  1.00  0.00     0.056 A 
BRANCH  26  27
ATOM     27  C   UNL A   1      35.849  30.091  28.170  1.00  0.00     0.416 C 
ATOM     28  F   UNL A   1      37.011  29.836  27.506  1.00  0.00    -0.166 F 
ATOM     29  F   UNL A   1      35.871  31.425  28.450  1.00  0.00    -0.166 F 
ATOM     30  F   UNL A   1      35.961  29.460  29.372  1.00  0.00    -0.166 F 
ENDBRANCH  26  27
ENDBRANCH  13  21
ENDBRANCH   8   9
ENDBRANCH   7   8
ENDBRANCH   6   7
ENDBRANCH   4   6
ENDBRANCH   1   2
BRANCH   1  31
ATOM     31  C   UNL A   1      35.824  23.088  24.583  1.00  0.00     0.042 C 
BRANCH  31  32
ATOM     32  C   UNL A   1      36.573  22.986  25.918  1.00  0.00     0.118 C 
BRANCH  32  33
ATOM     33  N   UNL A   1      37.757  22.150  25.905  1.00  0.00    -0.352 N 
ATOM     34  C   UNL A   1      39.057  22.301  26.299  1.00  0.00     0.251 C 
ATOM     35  H   UNL A   1      37.583  21.261  25.519  1.00  0.00     0.163 HD
ATOM     36  O   UNL A   1      39.800  21.334  26.129  1.00  0.00    -0.269 OA
BRANCH  34  37
ATOM     37  C   UNL A   1      39.652  23.539  26.853  1.00  0.00     0.039 A 
ATOM     38  C   UNL A   1      40.552  23.377  27.924  1.00  0.00     0.014 A 
ATOM     39  C   UNL A   1      39.364  24.828  26.415  1.00  0.00     0.014 A 
ATOM     40  C   UNL A   1      41.184  24.475  28.506  1.00  0.00     0.010 A 
ATOM     41  C   UNL A   1      40.042  25.920  26.951  1.00  0.00     0.010 A 
ATOM     42  C   UNL A   1      40.965  25.754  27.990  1.00  0.00    -0.014 A 
BRANCH  42  43
ATOM     43  C   UNL A   1      41.719  26.935  28.466  1.00  0.00     0.031 A 
ATOM     44  C   UNL A   1      40.986  28.114  29.037  1.00  0.00     0.074 A 
ATOM     45  C   UNL A   1      43.048  26.987  28.248  1.00  0.00     0.049 A 
ATOM     46  N   UNL A   1      41.429  29.316  29.290  1.00  0.00    -0.248 NA
ATOM     47  C   UNL A   1      39.554  27.925  29.326  1.00  0.00     0.031 C 
ATOM     48  C   UNL A   1      43.856  25.909  27.672  1.00  0.00     0.029 A 
ATOM     49  N   UNL A   1      43.946  28.000  28.458  1.00  0.00    -0.354 N 
ATOM     50  C   UNL A   1      40.328  30.042  29.726  1.00  0.00     0.074 A 
ATOM     51  C   UNL A   1      39.189  29.149  29.681  1.00  0.00     0.031 C 
ATOM     52  C   UNL A   1      45.133  26.314  27.585  1.00  0.00     0.029 A 
ATOM     53  C   UNL A   1      45.220  27.696  28.042  1.00  0.00     0.049 A 
ATOM     54  H   UNL A   1      43.703  28.861  28.868  1.00  0.00     0.167 HD
ATOM     55  C   UNL A   1      40.275  31.334  30.129  1.00  0.00     0.031 A 
ATOM     56  C   UNL A   1      46.331  28.454  28.006  1.00  0.00     0.031 A 
ATOM     57  C   UNL A   1      41.423  32.199  30.191  1.00  0.00     0.049 A 
ATOM     58  C   UNL A   1      46.250  29.878  28.474  1.00  0.00     0.074 A 
ATOM     59  C   UNL A   1      41.494  33.508  30.635  1.00  0.00     0.029 A 
ATOM     60  N   UNL A   1      42.706  31.838  29.804  1.00  0.00    -0.354 N 
ATOM     61  N   UNL A   1      45.205  30.542  28.908  1.00  0.00    -0.248 NA
ATOM     62  C   UNL A   1      47.497  30.653  28.451  1.00  0.00     0.031 C 
ATOM     63  C   UNL A   1      42.814  33.949  30.485  1.00  0.00     0.029 A 
ATOM     64  C   UNL A   1      43.573  32.900  29.989  1.00  0.00     0.049 A 
ATOM     65  H   UNL A   1      42.963  30.955  29.451  1.00  0.00     0.167 HD
ATOM     66  C   UNL A   1      45.673  31.810  29.227  1.00  0.00     0.074 A 
ATOM     67  C   UNL A   1      47.096  31.814  28.951  1.00  0.00     0.031 C 
ATOM     68  C   UNL A   1      44.986  32.878  29.705  1.00  0.00     0.031 A 
BRANCH  55  69
ATOM     69  C   UNL A   1      38.930  31.888  30.518  1.00  0.00    -0.014 A 
ATOM     70  C   UNL A   1      38.255  31.427  31.662  1.00  0.00     0.010 A 
ATOM     71  C   UNL A   1      38.342  32.903  29.740  1.00  0.00     0.010 A 
ATOM     72  C   UNL A   1      36.995  31.933  31.993  1.00  0.00     0.020 A 
ATOM     73  C   UNL A   1      37.095  33.431  30.083  1.00  0.00     0.020 A 
ATOM     74  C   UNL A   1      36.419  32.928  31.197  1.00  0.00     0.054 A 
BRANCH  74  75
ATOM     75  S   UNL A   1      34.785  33.573  31.651  1.00  0.00     0.124 S 
ATOM     76  O   UNL A   1      34.199  33.853  30.342  1.00  0.00    -0.237 OA
ATOM     77  O   UNL A   1      34.189  32.457  32.380  1.00  0.00    -0.237 OA
ATOM     78  O   UNL A   1      35.091  34.749  32.461  1.00  0.00    -0.744 OA
ENDBRANCH  74  75
ENDBRANCH  55  69
BRANCH  56  79
ATOM     79  C   UNL A   1      47.606  27.873  27.511  1.00  0.00    -0.014 A 
ATOM     80  C   UNL A   1      47.971  28.019  26.162  1.00  0.00     0.010 A 
ATOM     81  C   UNL A   1      48.479  27.205  28.389  1.00  0.00     0.010 A 
ATOM     82  C   UNL A   1      49.179  27.496  25.695  1.00  0.00     0.020 A 
ATOM     83  C   UNL A   1      49.700  26.702  27.931  1.00  0.00     0.020 A 
ATOM     84  C   UNL A   1      50.037  26.842  26.584  1.00  0.00     0.054 A 
BRANCH  84  85
ATOM     85  S   UNL A   1      51.627  26.221  25.966  1.00  0.00     0.124 S 
ATOM     86  O   UNL A   1      51.471  26.375  24.524  1.00  0.00    -0.237 OA
ATOM     87  O   UNL A   1      52.587  27.121  26.599  1.00  0.00    -0.237 OA
ATOM     88  O   UNL A   1      51.665  24.843  26.450  1.00  0.00    -0.744 OA
ENDBRANCH  84  85
ENDBRANCH  56  79
BRANCH  68  89
ATOM     89  C   UNL A   1      45.773  34.126  29.983  1.00  0.00    -0.014 A 
ATOM     90  C   UNL A   1      45.927  35.120  29.002  1.00  0.00     0.010 A 
ATOM     91  C   UNL A   1      46.321  34.329  31.263  1.00  0.00     0.010 A 
ATOM     92  C   UNL A   1      46.639  36.287  29.288  1.00  0.00     0.020 A 
ATOM     93  C   UNL A   1      47.014  35.504  31.560  1.00  0.00     0.020 A 
ATOM     94  C   UNL A   1      47.178  36.471  30.566  1.00  0.00     0.054 A 
BRANCH  94  95
ATOM     95  S   UNL A   1      48.054  38.018  30.930  1.00  0.00     0.124 S 
ATOM     96  O   UNL A   1      48.998  38.100  29.818  1.00  0.00    -0.237 OA
ATOM     97  O   UNL A   1      46.978  39.007  30.917  1.00  0.00    -0.237 OA
ATOM     98  O   UNL A   1      48.652  37.775  32.240  1.00  0.00    -0.744 OA
ENDBRANCH  94  95
ENDBRANCH  68  89
ENDBRANCH  42  43
ENDBRANCH  34  37
ENDBRANCH  32  33
ENDBRANCH  31  32
ENDBRANCH   1  31
TORSDOF 19
ENDMDL
MODEL 2
REMARK VINA RESULT:     -11.7      0.968      7.916
REMARK SMILES O=C(CCOc1cc(-c2ccncc2)nc(-c2ccc(C(F)(F)F)cc2)n1)NCCCNC(=O)c1ccc(-c2c3nc(c(-c4ccc(S(=O)(=O)[O-])cc4)c4ccc([nH]4)c(-c4ccc(S(=O)(=O)[O-])cc4)c4nc(c(-c5ccc(S(=O)(=O)[O-])cc5)c5ccc2[nH]5)C=C4)C=C3)cc1
REMARK SMILES IDX 29 1 28 2 1 3 2 4 3 6 4 7 5 8 6 9 7 10 27 11 8 12 16 13
REMARK SMILES IDX 15 14 9 15 10 16 14 17 11 18 13 19 12 20 17 21 18 22 26 23
REMARK SMILES IDX 19 24 25 25 20 26 21 27 22 28 23 29 24 30 30 31 31 32 32 33
REMARK SMILES IDX 33 34 34 36 35 37 36 38 94 39 37 40 93 41 38 42 39 43 40 44
REMARK SMILES IDX 87 45 41 46 92 47 86 48 88 49 42 50 91 51 85 52 84 53 43 55
REMARK SMILES IDX 73 56 54 57 72 58 55 59 58 60 71 61 89 62 56 63 57 64 70 66
REMARK SMILES IDX 90 67 59 68 44 69 45 70 53 71 46 72 52 73 47 74 48 75 49 76
REMARK SMILES IDX 50 77 51 78 74 79 75 80 83 81 76 82 82 83 77 84 78 85 79 86
REMARK SMILES IDX 80 87 81 88 60 89 61 90 69 91 62 92 68 93 63 94 64 95 65 96
REMARK SMILES IDX 66 97 67 98
REMARK H PARENT 28 5 32 35 88 54 58 65
REMARK Flexibility Score: inf
ROOT
ATOM      1  C   UNL A   1      34.270  24.336  25.531  1.00  0.00     0.117 C 
ENDROOT
BRANCH   1   2
ATOM      2  N   UNL A   1      33.201  24.094  24.577  1.00  0.00    -0.356 N 
ATOM      3  O   UNL A   1      32.057  22.538  25.817  1.00  0.00    -0.275 OA
ATOM      4  C   UNL A   1      32.105  23.317  24.879  1.00  0.00     0.223 C 
ATOM      5  H   UNL A   1      33.261  24.501  23.683  1.00  0.00     0.163 HD
BRANCH   4   6
ATOM      6  C   UNL A   1      30.887  23.633  24.040  1.00  0.00     0.141 C 
BRANCH   6   7
ATOM      7  C   UNL A   1      31.116  24.947  23.281  1.00  0.00     0.241 C 
BRANCH   7   8
ATOM      8  O   UNL A   1      30.030  25.863  23.472  1.00  0.00    -0.477 OA
BRANCH   8   9
ATOM      9  C   UNL A   1      30.351  27.194  23.579  1.00  0.00     0.217 A 
ATOM     10  C   UNL A   1      29.713  28.172  22.860  1.00  0.00     0.097 A 
ATOM     11  N   UNL A   1      31.203  27.477  24.577  1.00  0.00    -0.193 NA
ATOM     12  C   UNL A   1      29.909  29.478  23.258  1.00  0.00     0.078 A 
ATOM     13  C   UNL A   1      31.396  28.783  24.848  1.00  0.00     0.163 A 
ATOM     14  N   UNL A   1      30.760  29.803  24.242  1.00  0.00    -0.228 NA
BRANCH  12  15
ATOM     15  C   UNL A   1      29.075  30.541  22.693  1.00  0.00     0.003 A 
ATOM     16  C   UNL A   1      28.603  30.452  21.377  1.00  0.00     0.030 A 
ATOM     17  C   UNL A   1      28.845  31.730  23.389  1.00  0.00     0.030 A 
ATOM     18  C   UNL A   1      27.985  31.550  20.804  1.00  0.00     0.111 A 
ATOM     19  C   UNL A   1      28.203  32.771  22.736  1.00  0.00     0.111 A 
ATOM     20  N   UNL A   1      27.784  32.713  21.456  1.00  0.00    -0.265 NA
ENDBRANCH  12  15
BRANCH  13  21
ATOM     21  C   UNL A   1      32.405  29.137  25.849  1.00  0.00     0.019 A 
ATOM     22  C   UNL A   1      33.480  28.276  26.120  1.00  0.00     0.012 A 
ATOM     23  C   UNL A   1      32.366  30.368  26.521  1.00  0.00     0.012 A 
ATOM     24  C   UNL A   1      34.507  28.660  26.992  1.00  0.00     0.014 A 
ATOM     25  C   UNL A   1      33.385  30.752  27.398  1.00  0.00     0.014 A 
ATOM     26  C   UNL A   1      34.479  29.912  27.624  1.00  0.00     0.056 A 
BRANCH  26  27
ATOM     27  C   UNL A   1      35.622  30.341  28.510  1.00  0.00     0.416 C 
ATOM     28  F   UNL A   1      35.233  31.216  29.479  1.00  0.00    -0.166 F 
ATOM     29  F   UNL A   1      36.191  29.291  29.168  1.00  0.00    -0.166 F 
ATOM     30  F   UNL A   1      36.639  30.953  27.842  1.00  0.00    -0.166 F 
ENDBRANCH  26  27
ENDBRANCH  13  21
ENDBRANCH   8   9
ENDBRANCH   7   8
ENDBRANCH   6   7
ENDBRANCH   4   6
ENDBRANCH   1   2
BRANCH   1  31
ATOM     31  C   UNL A   1      35.468  23.397  25.322  1.00  0.00     0.042 C 
BRANCH  31  32
ATOM     32  C   UNL A   1      36.776  23.853  25.982  1.00  0.00     0.118 C 
BRANCH  32  33
ATOM     33  N   UNL A   1      37.806  22.839  26.089  1.00  0.00    -0.352 N 
ATOM     34  C   UNL A   1      39.114  22.821  26.484  1.00  0.00     0.251 C 
ATOM     35  H   UNL A   1      37.487  21.951  25.808  1.00  0.00     0.163 HD
ATOM     36  O   UNL A   1      39.687  21.731  26.443  1.00  0.00    -0.269 OA
BRANCH  34  37
ATOM     37  C   UNL A   1      39.907  24.002  26.898  1.00  0.00     0.039 A 
ATOM     38  C   UNL A   1      40.087  25.007  25.928  1.00  0.00     0.014 A 
ATOM     39  C   UNL A   1      40.499  24.166  28.146  1.00  0.00     0.014 A 
ATOM     40  C   UNL A   1      40.800  26.169  26.220  1.00  0.00     0.010 A 
ATOM     41  C   UNL A   1      41.157  25.354  28.461  1.00  0.00     0.010 A 
ATOM     42  C   UNL A   1      41.302  26.368  27.508  1.00  0.00    -0.014 A 
BRANCH  42  43
ATOM     43  C   UNL A   1      41.935  27.642  27.917  1.00  0.00     0.031 A 
ATOM     44  C   UNL A   1      43.429  27.778  27.901  1.00  0.00     0.074 A 
ATOM     45  C   UNL A   1      41.158  28.615  28.434  1.00  0.00     0.049 A 
ATOM     46  N   UNL A   1      44.178  28.707  28.432  1.00  0.00    -0.248 NA
ATOM     47  C   UNL A   1      44.183  26.706  27.230  1.00  0.00     0.031 C 
ATOM     48  C   UNL A   1      39.696  28.575  28.526  1.00  0.00     0.029 A 
ATOM     49  N   UNL A   1      41.494  29.813  29.007  1.00  0.00    -0.354 N 
ATOM     50  C   UNL A   1      45.490  28.315  28.200  1.00  0.00     0.074 A 
ATOM     51  C   UNL A   1      45.435  27.049  27.499  1.00  0.00     0.031 C 
ATOM     52  C   UNL A   1      39.261  29.702  29.110  1.00  0.00     0.029 A 
ATOM     53  C   UNL A   1      40.412  30.513  29.485  1.00  0.00     0.049 A 
ATOM     54  H   UNL A   1      42.420  30.142  29.069  1.00  0.00     0.167 HD
ATOM     55  C   UNL A   1      46.635  28.955  28.540  1.00  0.00     0.031 A 
ATOM     56  C   UNL A   1      40.354  31.667  30.174  1.00  0.00     0.031 A 
ATOM     57  C   UNL A   1      46.670  30.225  29.214  1.00  0.00     0.049 A 
ATOM     58  C   UNL A   1      41.636  32.366  30.523  1.00  0.00     0.074 A 
ATOM     59  C   UNL A   1      47.771  30.989  29.558  1.00  0.00     0.029 A 
ATOM     60  N   UNL A   1      45.549  30.924  29.640  1.00  0.00    -0.354 N 
ATOM     61  N   UNL A   1      42.869  31.994  30.275  1.00  0.00    -0.248 NA
ATOM     62  C   UNL A   1      41.519  33.641  31.242  1.00  0.00     0.031 C 
ATOM     63  C   UNL A   1      47.317  32.134  30.222  1.00  0.00     0.029 A 
ATOM     64  C   UNL A   1      45.932  32.105  30.252  1.00  0.00     0.049 A 
ATOM     65  H   UNL A   1      44.618  30.625  29.523  1.00  0.00     0.167 HD
ATOM     66  C   UNL A   1      43.676  32.998  30.792  1.00  0.00     0.074 A 
ATOM     67  C   UNL A   1      42.791  34.000  31.352  1.00  0.00     0.031 C 
ATOM     68  C   UNL A   1      45.030  33.084  30.803  1.00  0.00     0.031 A 
BRANCH  55  69
ATOM     69  C   UNL A   1      47.937  28.280  28.199  1.00  0.00    -0.014 A 
ATOM     70  C   UNL A   1      48.489  27.295  29.038  1.00  0.00     0.010 A 
ATOM     71  C   UNL A   1      48.609  28.619  27.010  1.00  0.00     0.010 A 
ATOM     72  C   UNL A   1      49.711  26.697  28.720  1.00  0.00     0.020 A 
ATOM     73  C   UNL A   1      49.818  28.004  26.675  1.00  0.00     0.020 A 
ATOM     74  C   UNL A   1      50.373  27.061  27.543  1.00  0.00     0.054 A 
BRANCH  74  75
ATOM     75  S   UNL A   1      51.956  26.267  27.151  1.00  0.00     0.124 S 
ATOM     76  O   UNL A   1      52.698  26.447  28.397  1.00  0.00    -0.237 OA
ATOM     77  O   UNL A   1      51.562  24.893  26.849  1.00  0.00    -0.237 OA
ATOM     78  O   UNL A   1      52.455  27.033  26.013  1.00  0.00    -0.744 OA
ENDBRANCH  74  75
ENDBRANCH  55  69
BRANCH  56  79
ATOM     79  C   UNL A   1      39.035  32.225  30.570  1.00  0.00    -0.014 A 
ATOM     80  C   UNL A   1      38.391  33.165  29.747  1.00  0.00     0.010 A 
ATOM     81  C   UNL A   1      38.398  31.795  31.748  1.00  0.00     0.010 A 
ATOM     82  C   UNL A   1      37.140  33.676  30.100  1.00  0.00     0.020 A 
ATOM     83  C   UNL A   1      37.134  32.284  32.093  1.00  0.00     0.020 A 
ATOM     84  C   UNL A   1      36.519  33.230  31.271  1.00  0.00     0.054 A 
BRANCH  84  85
ATOM     85  S   UNL A   1      34.868  33.865  31.681  1.00  0.00     0.124 S 
ATOM     86  O   UNL A   1      34.414  34.377  30.392  1.00  0.00    -0.237 OA
ATOM     87  O   UNL A   1      34.180  32.671  32.165  1.00  0.00    -0.237 OA
ATOM     88  O   UNL A   1      35.136  34.876  32.700  1.00  0.00    -0.744 OA
ENDBRANCH  84  85
ENDBRANCH  56  79
BRANCH  68  89
ATOM     89  C   UNL A   1      45.629  34.317  31.418  1.00  0.00    -0.014 A 
ATOM     90  C   UNL A   1      45.972  34.354  32.780  1.00  0.00     0.010 A 
ATOM     91  C   UNL A   1      45.902  35.434  30.607  1.00  0.00     0.010 A 
ATOM     92  C   UNL A   1      46.555  35.498  33.328  1.00  0.00     0.020 A 
ATOM     93  C   UNL A   1      46.505  36.571  31.147  1.00  0.00     0.020 A 
ATOM     94  C   UNL A   1      46.817  36.600  32.507  1.00  0.00     0.054 A 
BRANCH  94  95
ATOM     95  S   UNL A   1      47.621  38.057  33.230  1.00  0.00     0.124 S 
ATOM     96  O   UNL A   1      48.017  38.806  32.042  1.00  0.00    -0.237 OA
ATOM     97  O   UNL A   1      46.549  38.655  34.024  1.00  0.00    -0.237 OA
ATOM     98  O   UNL A   1      48.722  37.492  34.008  1.00  0.00    -0.744 OA
ENDBRANCH  94  95
ENDBRANCH  68  89
ENDBRANCH  42  43
ENDBRANCH  34  37
ENDBRANCH  32  33
ENDBRANCH  31  32
ENDBRANCH   1  31
TORSDOF 19
ENDMDL
MODEL 3
REMARK VINA RESULT:     -11.4      5.771      8.597
REMARK SMILES O=C(CCOc1cc(-c2ccncc2)nc(-c2ccc(C(F)(F)F)cc2)n1)NCCCNC(=O)c1ccc(-c2c3nc(c(-c4ccc(S(=O)(=O)[O-])cc4)c4ccc([nH]4)c(-c4ccc(S(=O)(=O)[O-])cc4)c4nc(c(-c5ccc(S(=O)(=O)[O-])cc5)c5ccc2[nH]5)C=C4)C=C3)cc1
REMARK SMILES IDX 29 1 28 2 1 3 2 4 3 6 4 7 5 8 6 9 7 10 27 11 8 12 16 13
REMARK SMILES IDX 15 14 9 15 10 16 14 17 11 18 13 19 12 20 17 21 18 22 26 23
REMARK SMILES IDX 19 24 25 25 20 26 21 27 22 28 23 29 24 30 30 31 31 32 32 33
REMARK SMILES IDX 33 34 34 36 35 37 36 38 94 39 37 40 93 41 38 42 39 43 40 44
REMARK SMILES IDX 87 45 41 46 92 47 86 48 88 49 42 50 91 51 85 52 84 53 43 55
REMARK SMILES IDX 73 56 54 57 72 58 55 59 58 60 71 61 89 62 56 63 57 64 70 66
REMARK SMILES IDX 90 67 59 68 44 69 45 70 53 71 46 72 52 73 47 74 48 75 49 76
REMARK SMILES IDX 50 77 51 78 74 79 75 80 83 81 76 82 82 83 77 84 78 85 79 86
REMARK SMILES IDX 80 87 81 88 60 89 61 90 69 91 62 92 68 93 63 94 64 95 65 96
REMARK SMILES IDX 66 97 67 98
REMARK H PARENT 28 5 32 35 88 54 58 65
REMARK Flexibility Score: inf
ROOT
ATOM      1  C   UNL A   1      41.499  22.754  28.178  1.00  0.00     0.117 C 
ENDROOT
BRANCH   1   2
ATOM      2  N   UNL A   1      40.711  21.669  27.618  1.00  0.00    -0.356 N 
ATOM      3  O   UNL A   1      41.495  21.828  25.466  1.00  0.00    -0.275 OA
ATOM      4  C   UNL A   1      40.897  21.210  26.332  1.00  0.00     0.223 C 
ATOM      5  H   UNL A   1      40.021  21.246  28.177  1.00  0.00     0.163 HD
BRANCH   4   6
ATOM      6  C   UNL A   1      40.436  19.785  26.124  1.00  0.00     0.141 C 
BRANCH   6   7
ATOM      7  C   UNL A   1      39.095  19.786  25.378  1.00  0.00     0.241 C 
BRANCH   7   8
ATOM      8  O   UNL A   1      38.359  20.993  25.617  1.00  0.00    -0.477 OA
BRANCH   8   9
ATOM      9  C   UNL A   1      37.032  20.992  25.263  1.00  0.00     0.217 A 
ATOM     10  C   UNL A   1      36.368  19.856  24.874  1.00  0.00     0.097 A 
ATOM     11  N   UNL A   1      36.394  22.147  25.509  1.00  0.00    -0.193 NA
ATOM     12  C   UNL A   1      34.991  19.915  24.827  1.00  0.00     0.078 A 
ATOM     13  C   UNL A   1      35.054  22.135  25.364  1.00  0.00     0.163 A 
ATOM     14  N   UNL A   1      34.318  21.051  25.055  1.00  0.00    -0.228 NA
BRANCH  12  15
ATOM     15  C   UNL A   1      34.219  18.681  24.657  1.00  0.00     0.003 A 
ATOM     16  C   UNL A   1      33.034  18.479  25.376  1.00  0.00     0.030 A 
ATOM     17  C   UNL A   1      34.708  17.619  23.893  1.00  0.00     0.030 A 
ATOM     18  C   UNL A   1      32.430  17.233  25.348  1.00  0.00     0.111 A 
ATOM     19  C   UNL A   1      34.025  16.413  23.914  1.00  0.00     0.111 A 
ATOM     20  N   UNL A   1      32.908  16.192  24.637  1.00  0.00    -0.265 NA
ENDBRANCH  12  15
BRANCH  13  21
ATOM     21  C   UNL A   1      34.335  23.402  25.509  1.00  0.00     0.019 A 
ATOM     22  C   UNL A   1      33.054  23.439  26.081  1.00  0.00     0.012 A 
ATOM     23  C   UNL A   1      34.922  24.621  25.141  1.00  0.00     0.012 A 
ATOM     24  C   UNL A   1      32.410  24.657  26.326  1.00  0.00     0.014 A 
ATOM     25  C   UNL A   1      34.280  25.841  25.376  1.00  0.00     0.014 A 
ATOM     26  C   UNL A   1      33.026  25.874  25.993  1.00  0.00     0.056 A 
BRANCH  26  27
ATOM     27  C   UNL A   1      32.352  27.182  26.321  1.00  0.00     0.416 C 
ATOM     28  F   UNL A   1      31.128  27.011  26.895  1.00  0.00    -0.166 F 
ATOM     29  F   UNL A   1      33.072  27.929  27.205  1.00  0.00    -0.166 F 
ATOM     30  F   UNL A   1      32.147  27.984  25.239  1.00  0.00    -0.166 F 
ENDBRANCH  26  27
ENDBRANCH  13  21
ENDBRANCH   8   9
ENDBRANCH   7   8
ENDBRANCH   6   7
ENDBRANCH   4   6
ENDBRANCH   1   2
BRANCH   1  31
ATOM     31  C   UNL A   1      43.010  22.500  28.073  1.00  0.00     0.042 C 
BRANCH  31  32
ATOM     32  C   UNL A   1      43.815  23.622  27.403  1.00  0.00     0.118 C 
BRANCH  32  33
ATOM     33  N   UNL A   1      43.140  24.313  26.323  1.00  0.00    -0.352 N 
ATOM     34  C   UNL A   1      42.395  25.454  26.215  1.00  0.00     0.251 C 
ATOM     35  H   UNL A   1      43.241  23.849  25.461  1.00  0.00     0.163 HD
ATOM     36  O   UNL A   1      41.977  25.735  25.092  1.00  0.00    -0.269 OA
BRANCH  34  37
ATOM     37  C   UNL A   1      42.004  26.338  27.338  1.00  0.00     0.039 A 
ATOM     38  C   UNL A   1      40.874  25.945  28.081  1.00  0.00     0.014 A 
ATOM     39  C   UNL A   1      42.647  27.523  27.680  1.00  0.00     0.014 A 
ATOM     40  C   UNL A   1      40.432  26.696  29.171  1.00  0.00     0.010 A 
ATOM     41  C   UNL A   1      42.248  28.240  28.806  1.00  0.00     0.010 A 
ATOM     42  C   UNL A   1      41.148  27.828  29.567  1.00  0.00    -0.014 A 
BRANCH  42  43
ATOM     43  C   UNL A   1      40.817  28.576  30.800  1.00  0.00     0.031 A 
ATOM     44  C   UNL A   1      39.721  29.602  30.785  1.00  0.00     0.074 A 
ATOM     45  C   UNL A   1      41.603  28.421  31.883  1.00  0.00     0.049 A 
ATOM     46  N   UNL A   1      39.435  30.515  31.675  1.00  0.00    -0.248 NA
ATOM     47  C   UNL A   1      38.858  29.629  29.593  1.00  0.00     0.031 C 
ATOM     48  C   UNL A   1      42.716  27.473  31.996  1.00  0.00     0.029 A 
ATOM     49  N   UNL A   1      41.606  29.081  33.084  1.00  0.00    -0.354 N 
ATOM     50  C   UNL A   1      38.389  31.252  31.136  1.00  0.00     0.074 A 
ATOM     51  C   UNL A   1      38.106  30.695  29.830  1.00  0.00     0.031 C 
ATOM     52  C   UNL A   1      43.285  27.605  33.204  1.00  0.00     0.029 A 
ATOM     53  C   UNL A   1      42.618  28.683  33.924  1.00  0.00     0.049 A 
ATOM     54  H   UNL A   1      40.946  29.771  33.323  1.00  0.00     0.167 HD
ATOM     55  C   UNL A   1      37.724  32.298  31.684  1.00  0.00     0.031 A 
ATOM     56  C   UNL A   1      42.988  29.153  35.130  1.00  0.00     0.031 A 
ATOM     57  C   UNL A   1      38.002  32.823  32.995  1.00  0.00     0.049 A 
ATOM     58  C   UNL A   1      42.225  30.301  35.723  1.00  0.00     0.074 A 
ATOM     59  C   UNL A   1      37.356  33.843  33.670  1.00  0.00     0.029 A 
ATOM     60  N   UNL A   1      39.007  32.361  33.833  1.00  0.00    -0.354 N 
ATOM     61  N   UNL A   1      41.221  30.973  35.211  1.00  0.00    -0.248 NA
ATOM     62  C   UNL A   1      42.642  30.753  37.057  1.00  0.00     0.031 C 
ATOM     63  C   UNL A   1      37.992  34.020  34.904  1.00  0.00     0.029 A 
ATOM     64  C   UNL A   1      39.005  33.081  35.015  1.00  0.00     0.049 A 
ATOM     65  H   UNL A   1      39.629  31.628  33.620  1.00  0.00     0.167 HD
ATOM     66  C   UNL A   1      40.873  31.917  36.168  1.00  0.00     0.074 A 
ATOM     67  C   UNL A   1      41.764  31.718  37.295  1.00  0.00     0.031 C 
ATOM     68  C   UNL A   1      39.904  32.864  36.120  1.00  0.00     0.031 A 
BRANCH  55  69
ATOM     69  C   UNL A   1      36.646  32.948  30.858  1.00  0.00    -0.014 A 
ATOM     70  C   UNL A   1      36.957  33.905  29.876  1.00  0.00     0.010 A 
ATOM     71  C   UNL A   1      35.302  32.579  31.050  1.00  0.00     0.010 A 
ATOM     72  C   UNL A   1      35.942  34.518  29.136  1.00  0.00     0.020 A 
ATOM     73  C   UNL A   1      34.285  33.169  30.294  1.00  0.00     0.020 A 
ATOM     74  C   UNL A   1      34.610  34.151  29.355  1.00  0.00     0.054 A 
BRANCH  74  75
ATOM     75  S   UNL A   1      33.312  34.957  28.378  1.00  0.00     0.124 S 
ATOM     76  O   UNL A   1      34.093  35.653  27.358  1.00  0.00    -0.237 OA
ATOM     77  O   UNL A   1      32.520  33.827  27.899  1.00  0.00    -0.237 OA
ATOM     78  O   UNL A   1      32.639  35.821  29.343  1.00  0.00    -0.744 OA
ENDBRANCH  74  75
ENDBRANCH  55  69
BRANCH  56  79
ATOM     79  C   UNL A   1      44.132  28.530  35.846  1.00  0.00    -0.014 A 
ATOM     80  C   UNL A   1      45.425  29.062  35.706  1.00  0.00     0.010 A 
ATOM     81  C   UNL A   1      43.932  27.430  36.699  1.00  0.00     0.010 A 
ATOM     82  C   UNL A   1      46.501  28.497  36.395  1.00  0.00     0.020 A 
ATOM     83  C   UNL A   1      45.001  26.877  37.409  1.00  0.00     0.020 A 
ATOM     84  C   UNL A   1      46.281  27.408  37.244  1.00  0.00     0.054 A 
BRANCH  84  85
ATOM     85  S   UNL A   1      47.684  26.727  38.173  1.00  0.00     0.124 S 
ATOM     86  O   UNL A   1      48.078  27.863  39.000  1.00  0.00    -0.237 OA
ATOM     87  O   UNL A   1      47.079  25.605  38.885  1.00  0.00    -0.237 OA
ATOM     88  O   UNL A   1      48.633  26.353  37.128  1.00  0.00    -0.744 OA
ENDBRANCH  84  85
ENDBRANCH  56  79
BRANCH  68  89
ATOM     89  C   UNL A   1      39.743  33.737  37.332  1.00  0.00    -0.014 A 
ATOM     90  C   UNL A   1      40.408  34.972  37.429  1.00  0.00     0.010 A 
ATOM     91  C   UNL A   1      38.873  33.338  38.363  1.00  0.00     0.010 A 
ATOM     92  C   UNL A   1      40.223  35.783  38.551  1.00  0.00     0.020 A 
ATOM     93  C   UNL A   1      38.669  34.158  39.475  1.00  0.00     0.020 A 
ATOM     94  C   UNL A   1      39.356  35.370  39.567  1.00  0.00     0.054 A 
BRANCH  94  95
ATOM     95  S   UNL A   1      39.093  36.464  40.990  1.00  0.00     0.124 S 
ATOM     96  O   UNL A   1      40.447  36.608  41.516  1.00  0.00    -0.237 OA
ATOM     97  O   UNL A   1      38.527  37.662  40.374  1.00  0.00    -0.237 OA
ATOM     98  O   UNL A   1      38.171  35.712  41.838  1.00  0.00    -0.744 OA
ENDBRANCH  94  95
ENDBRANCH  68  89
ENDBRANCH  42  43
ENDBRANCH  34  37
ENDBRANCH  32  33
ENDBRANCH  31  32
ENDBRANCH   1  31
TORSDOF 19
ENDMDL
