MODEL 1
REMARK VINA RESULT:      -8.7      0.000      0.000
REMARK SMILES C=CC[N@@H+](CC(=O)NCCCNC(=O)c1ccc(-c2c3nc(c(-c4ccc(S(=O)(=O)[O-])cc4)c4ccc([nH]4)c(-c4ccc(S(=O)(=O)[O-])cc4)c4nc(c(-c5ccc(S(=O)(=O)[O-])cc5)c5ccc2[nH]5)C=C4)C=C3)cc1)C(C)C
REMARK SMILES IDX 10 1 9 2 8 3 6 4 7 5 5 7 4 8 3 10 2 11 1 12 75 13 76 14
REMARK SMILES IDX 77 15 11 16 12 17 13 18 14 20 15 21 16 22 74 23 17 24 73 25
REMARK SMILES IDX 18 26 19 27 20 28 67 29 21 30 72 31 66 32 68 33 22 34 71 35
REMARK SMILES IDX 65 36 64 37 23 39 53 40 34 41 52 42 35 43 38 44 51 45 69 46
REMARK SMILES IDX 36 47 37 48 50 50 70 51 39 52 24 53 25 54 33 55 26 56 32 57
REMARK SMILES IDX 27 58 28 59 29 60 30 61 31 62 54 63 55 64 63 65 56 66 62 67
REMARK SMILES IDX 57 68 58 69 59 70 60 71 61 72 40 73 41 74 49 75 42 76 48 77
REMARK SMILES IDX 43 78 44 79 45 80 46 81 47 82
REMARK H PARENT 8 6 4 9 12 19 68 38 38 49
REMARK Flexibility Score: inf
ROOT
ATOM      1  C   UNL A   1      33.590  34.219  28.305  1.00  0.00     0.042 C 
ENDROOT
BRANCH   1   2
ATOM      2  C   UNL A   1      33.777  35.026  29.595  1.00  0.00     0.118 C 
BRANCH   2   3
ATOM      3  N   UNL A   1      33.557  34.224  30.788  1.00  0.00    -0.351 N 
ATOM      4  C   UNL A   1      34.133  34.252  32.024  1.00  0.00     0.275 C 
ATOM      5  O   UNL A   1      33.651  33.490  32.872  1.00  0.00    -0.269 OA
ATOM      6  H   UNL A   1      32.864  33.532  30.683  1.00  0.00     0.163 HD
BRANCH   4   7
ATOM      7  C   UNL A   1      35.280  35.200  32.402  1.00  0.00     0.363 C 
BRANCH   7   8
ATOM      8  N   UNL A   1      36.656  34.632  32.449  1.00  0.00    -0.322 N 
ATOM      9  H   UNL A   1      37.331  35.371  32.256  1.00  0.00     0.349 HD
BRANCH   8  10
ATOM     10  C   UNL A   1      36.883  33.711  31.345  1.00  0.00     0.291 C 
BRANCH  10  11
ATOM     11  C   UNL A   1      37.842  34.093  30.264  1.00  0.00     0.025 C 
ATOM     12  C   UNL A   1      38.059  33.335  29.178  1.00  0.00     0.010 C 
ENDBRANCH  10  11
ENDBRANCH   8  10
BRANCH   8  13
ATOM     13  C   UNL A   1      37.138  34.290  33.804  1.00  0.00     0.178 C 
ATOM     14  C   UNL A   1      36.857  32.868  34.311  1.00  0.00     0.075 C 
ATOM     15  C   UNL A   1      38.640  34.576  33.990  1.00  0.00     0.075 C 
ENDBRANCH   8  13
ENDBRANCH   7   8
ENDBRANCH   4   7
ENDBRANCH   2   3
ENDBRANCH   1   2
BRANCH   1  16
ATOM     16  C   UNL A   1      34.596  33.101  28.086  1.00  0.00     0.118 C 
BRANCH  16  17
ATOM     17  N   UNL A   1      33.981  31.882  27.593  1.00  0.00    -0.352 N 
ATOM     18  C   UNL A   1      34.461  30.598  27.486  1.00  0.00     0.251 C 
ATOM     19  H   UNL A   1      33.056  31.996  27.280  1.00  0.00     0.163 HD
ATOM     20  O   UNL A   1      33.791  29.786  26.847  1.00  0.00    -0.269 OA
BRANCH  18  21
ATOM     21  C   UNL A   1      35.753  30.162  28.084  1.00  0.00     0.039 A 
ATOM     22  C   UNL A   1      35.749  29.710  29.411  1.00  0.00     0.014 A 
ATOM     23  C   UNL A   1      36.975  30.271  27.417  1.00  0.00     0.014 A 
ATOM     24  C   UNL A   1      36.943  29.336  30.041  1.00  0.00     0.010 A 
ATOM     25  C   UNL A   1      38.153  29.807  28.012  1.00  0.00     0.010 A 
ATOM     26  C   UNL A   1      38.158  29.358  29.341  1.00  0.00    -0.014 A 
BRANCH  26  27
ATOM     27  C   UNL A   1      39.441  28.970  29.993  1.00  0.00     0.031 A 
ATOM     28  C   UNL A   1      39.892  29.662  31.256  1.00  0.00     0.074 A 
ATOM     29  C   UNL A   1      40.224  28.022  29.441  1.00  0.00     0.049 A 
ATOM     30  N   UNL A   1      40.996  29.496  31.943  1.00  0.00    -0.248 NA
ATOM     31  C   UNL A   1      38.996  30.691  31.807  1.00  0.00     0.031 C 
ATOM     32  C   UNL A   1      39.923  27.282  28.213  1.00  0.00     0.029 A 
ATOM     33  N   UNL A   1      41.434  27.513  29.845  1.00  0.00    -0.354 N 
ATOM     34  C   UNL A   1      40.936  30.411  32.989  1.00  0.00     0.074 A 
ATOM     35  C   UNL A   1      39.713  31.165  32.815  1.00  0.00     0.031 C 
ATOM     36  C   UNL A   1      40.900  26.388  27.988  1.00  0.00     0.029 A 
ATOM     37  C   UNL A   1      41.917  26.518  29.028  1.00  0.00     0.049 A 
ATOM     38  H   UNL A   1      41.911  27.832  30.646  1.00  0.00     0.167 HD
ATOM     39  C   UNL A   1      41.800  30.597  34.016  1.00  0.00     0.031 A 
ATOM     40  C   UNL A   1      43.047  25.789  29.104  1.00  0.00     0.031 A 
ATOM     41  C   UNL A   1      43.010  29.840  34.203  1.00  0.00     0.049 A 
ATOM     42  C   UNL A   1      44.006  26.025  30.239  1.00  0.00     0.074 A 
ATOM     43  C   UNL A   1      43.931  29.928  35.232  1.00  0.00     0.029 A 
ATOM     44  N   UNL A   1      43.465  28.853  33.343  1.00  0.00    -0.354 N 
ATOM     45  N   UNL A   1      43.911  26.871  31.235  1.00  0.00    -0.248 NA
ATOM     46  C   UNL A   1      45.221  25.198  30.261  1.00  0.00     0.031 C 
ATOM     47  C   UNL A   1      44.965  29.021  34.972  1.00  0.00     0.029 A 
ATOM     48  C   UNL A   1      44.662  28.334  33.808  1.00  0.00     0.049 A 
ATOM     49  H   UNL A   1      43.005  28.563  32.521  1.00  0.00     0.167 HD
ATOM     50  C   UNL A   1      45.040  26.659  32.021  1.00  0.00     0.074 A 
ATOM     51  C   UNL A   1      45.798  25.600  31.386  1.00  0.00     0.031 C 
ATOM     52  C   UNL A   1      45.409  27.282  33.167  1.00  0.00     0.031 A 
BRANCH  39  53
ATOM     53  C   UNL A   1      41.461  31.676  35.011  1.00  0.00    -0.014 A 
ATOM     54  C   UNL A   1      40.575  31.428  36.077  1.00  0.00     0.010 A 
ATOM     55  C   UNL A   1      42.028  32.957  34.879  1.00  0.00     0.010 A 
ATOM     56  C   UNL A   1      40.210  32.458  36.948  1.00  0.00     0.020 A 
ATOM     57  C   UNL A   1      41.688  33.982  35.767  1.00  0.00     0.020 A 
ATOM     58  C   UNL A   1      40.758  33.733  36.779  1.00  0.00     0.054 A 
BRANCH  58  59
ATOM     59  S   UNL A   1      40.250  35.060  37.906  1.00  0.00     0.124 S 
ATOM     60  O   UNL A   1      40.280  36.227  37.024  1.00  0.00    -0.237 OA
ATOM     61  O   UNL A   1      38.917  34.632  38.330  1.00  0.00    -0.237 OA
ATOM     62  O   UNL A   1      41.268  35.040  38.949  1.00  0.00    -0.744 OA
ENDBRANCH  58  59
ENDBRANCH  39  53
BRANCH  40  63
ATOM     63  C   UNL A   1      43.314  24.732  28.091  1.00  0.00    -0.014 A 
ATOM     64  C   UNL A   1      44.068  25.032  26.941  1.00  0.00     0.010 A 
ATOM     65  C   UNL A   1      42.847  23.420  28.280  1.00  0.00     0.010 A 
ATOM     66  C   UNL A   1      44.343  24.041  25.996  1.00  0.00     0.020 A 
ATOM     67  C   UNL A   1      43.141  22.419  27.348  1.00  0.00     0.020 A 
ATOM     68  C   UNL A   1      43.881  22.738  26.209  1.00  0.00     0.054 A 
BRANCH  68  69
ATOM     69  S   UNL A   1      44.312  21.451  25.004  1.00  0.00     0.124 S 
ATOM     70  O   UNL A   1      45.684  21.130  25.379  1.00  0.00    -0.237 OA
ATOM     71  O   UNL A   1      43.320  20.414  25.280  1.00  0.00    -0.237 OA
ATOM     72  O   UNL A   1      44.153  22.123  23.716  1.00  0.00    -0.744 OA
ENDBRANCH  68  69
ENDBRANCH  40  63
BRANCH  52  73
ATOM     73  C   UNL A   1      46.675  26.813  33.833  1.00  0.00    -0.014 A 
ATOM     74  C   UNL A   1      46.665  25.742  34.745  1.00  0.00     0.010 A 
ATOM     75  C   UNL A   1      47.899  27.420  33.501  1.00  0.00     0.010 A 
ATOM     76  C   UNL A   1      47.855  25.308  35.336  1.00  0.00     0.020 A 
ATOM     77  C   UNL A   1      49.093  26.972  34.070  1.00  0.00     0.020 A 
ATOM     78  C   UNL A   1      49.062  25.927  34.996  1.00  0.00     0.054 A 
BRANCH  78  79
ATOM     79  S   UNL A   1      50.600  25.317  35.741  1.00  0.00     0.124 S 
ATOM     80  O   UNL A   1      51.518  26.423  35.488  1.00  0.00    -0.237 OA
ATOM     81  O   UNL A   1      50.224  25.118  37.138  1.00  0.00    -0.237 OA
ATOM     82  O   UNL A   1      50.881  24.090  34.997  1.00  0.00    -0.744 OA
ENDBRANCH  78  79
ENDBRANCH  52  73
ENDBRANCH  26  27
ENDBRANCH  18  21
ENDBRANCH  16  17
ENDBRANCH   1  16
TORSDOF 17
ENDMDL
MODEL 2
REMARK VINA RESULT:      -8.3      3.490      5.790
REMARK SMILES C=CC[N@@H+](CC(=O)NCCCNC(=O)c1ccc(-c2c3nc(c(-c4ccc(S(=O)(=O)[O-])cc4)c4ccc([nH]4)c(-c4ccc(S(=O)(=O)[O-])cc4)c4nc(c(-c5ccc(S(=O)(=O)[O-])cc5)c5ccc2[nH]5)C=C4)C=C3)cc1)C(C)C
REMARK SMILES IDX 10 1 9 2 8 3 6 4 7 5 5 7 4 8 3 10 2 11 1 12 75 13 76 14
REMARK SMILES IDX 77 15 11 16 12 17 13 18 14 20 15 21 16 22 74 23 17 24 73 25
REMARK SMILES IDX 18 26 19 27 20 28 67 29 21 30 72 31 66 32 68 33 22 34 71 35
REMARK SMILES IDX 65 36 64 37 23 39 53 40 34 41 52 42 35 43 38 44 51 45 69 46
REMARK SMILES IDX 36 47 37 48 50 50 70 51 39 52 24 53 25 54 33 55 26 56 32 57
REMARK SMILES IDX 27 58 28 59 29 60 30 61 31 62 54 63 55 64 63 65 56 66 62 67
REMARK SMILES IDX 57 68 58 69 59 70 60 71 61 72 40 73 41 74 49 75 42 76 48 77
REMARK SMILES IDX 43 78 44 79 45 80 46 81 47 82
REMARK H PARENT 8 6 4 9 12 19 68 38 38 49
REMARK Flexibility Score: inf
ROOT
ATOM      1  C   UNL A   1      33.936  27.617  25.581  1.00  0.00     0.042 C 
ENDROOT
BRANCH   1   2
ATOM      2  C   UNL A   1      33.010  27.984  24.416  1.00  0.00     0.118 C 
BRANCH   2   3
ATOM      3  N   UNL A   1      33.478  27.451  23.147  1.00  0.00    -0.351 N 
ATOM      4  C   UNL A   1      33.056  26.396  22.391  1.00  0.00     0.275 C 
ATOM      5  O   UNL A   1      33.606  26.255  21.291  1.00  0.00    -0.269 OA
ATOM      6  H   UNL A   1      34.239  27.942  22.762  1.00  0.00     0.163 HD
BRANCH   4   7
ATOM      7  C   UNL A   1      31.929  25.446  22.819  1.00  0.00     0.363 C 
BRANCH   7   8
ATOM      8  N   UNL A   1      32.206  24.511  23.945  1.00  0.00    -0.322 N 
ATOM      9  H   UNL A   1      33.003  24.855  24.479  1.00  0.00     0.349 HD
BRANCH   8  10
ATOM     10  C   UNL A   1      32.693  23.229  23.457  1.00  0.00     0.291 C 
BRANCH  10  11
ATOM     11  C   UNL A   1      34.083  22.800  23.800  1.00  0.00     0.025 C 
ATOM     12  C   UNL A   1      35.106  23.660  23.918  1.00  0.00     0.010 C 
ENDBRANCH  10  11
ENDBRANCH   8  10
BRANCH   8  13
ATOM     13  C   UNL A   1      31.215  24.553  25.041  1.00  0.00     0.178 C 
ATOM     14  C   UNL A   1      31.759  24.609  26.476  1.00  0.00     0.075 C 
ATOM     15  C   UNL A   1      30.190  25.689  24.873  1.00  0.00     0.075 C 
ENDBRANCH   8  13
ENDBRANCH   7   8
ENDBRANCH   4   7
ENDBRANCH   2   3
ENDBRANCH   1   2
BRANCH   1  16
ATOM     16  C   UNL A   1      33.462  28.068  26.954  1.00  0.00     0.118 C 
BRANCH  16  17
ATOM     17  N   UNL A   1      33.384  29.512  27.074  1.00  0.00    -0.352 N 
ATOM     18  C   UNL A   1      34.241  30.427  27.638  1.00  0.00     0.251 C 
ATOM     19  H   UNL A   1      32.572  29.906  26.683  1.00  0.00     0.163 HD
ATOM     20  O   UNL A   1      33.837  31.582  27.777  1.00  0.00    -0.269 OA
BRANCH  18  21
ATOM     21  C   UNL A   1      35.611  30.077  28.103  1.00  0.00     0.039 A 
ATOM     22  C   UNL A   1      36.668  30.185  27.188  1.00  0.00     0.014 A 
ATOM     23  C   UNL A   1      35.875  29.559  29.373  1.00  0.00     0.014 A 
ATOM     24  C   UNL A   1      37.969  29.819  27.555  1.00  0.00     0.010 A 
ATOM     25  C   UNL A   1      37.187  29.286  29.771  1.00  0.00     0.010 A 
ATOM     26  C   UNL A   1      38.249  29.387  28.861  1.00  0.00    -0.014 A 
BRANCH  26  27
ATOM     27  C   UNL A   1      39.625  28.987  29.271  1.00  0.00     0.031 A 
ATOM     28  C   UNL A   1      40.480  29.928  30.084  1.00  0.00     0.074 A 
ATOM     29  C   UNL A   1      40.128  27.796  28.890  1.00  0.00     0.049 A 
ATOM     30  N   UNL A   1      41.716  29.778  30.496  1.00  0.00    -0.248 NA
ATOM     31  C   UNL A   1      39.877  31.214  30.464  1.00  0.00     0.031 C 
ATOM     32  C   UNL A   1      39.423  26.793  28.089  1.00  0.00     0.029 A 
ATOM     33  N   UNL A   1      41.353  27.223  29.132  1.00  0.00    -0.354 N 
ATOM     34  C   UNL A   1      42.041  30.955  31.162  1.00  0.00     0.074 A 
ATOM     35  C   UNL A   1      40.893  31.829  31.052  1.00  0.00     0.031 C 
ATOM     36  C   UNL A   1      40.209  25.716  27.941  1.00  0.00     0.029 A 
ATOM     37  C   UNL A   1      41.490  25.963  28.598  1.00  0.00     0.049 A 
ATOM     38  H   UNL A   1      42.067  27.673  29.640  1.00  0.00     0.167 HD
ATOM     39  C   UNL A   1      43.177  31.279  31.826  1.00  0.00     0.031 A 
ATOM     40  C   UNL A   1      42.524  25.100  28.633  1.00  0.00     0.031 A 
ATOM     41  C   UNL A   1      44.317  30.409  31.952  1.00  0.00     0.049 A 
ATOM     42  C   UNL A   1      43.785  25.485  29.357  1.00  0.00     0.074 A 
ATOM     43  C   UNL A   1      45.499  30.631  32.637  1.00  0.00     0.029 A 
ATOM     44  N   UNL A   1      44.416  29.149  31.384  1.00  0.00    -0.354 N 
ATOM     45  N   UNL A   1      44.057  26.590  30.008  1.00  0.00    -0.248 NA
ATOM     46  C   UNL A   1      44.877  24.500  29.354  1.00  0.00     0.031 C 
ATOM     47  C   UNL A   1      46.329  29.520  32.448  1.00  0.00     0.029 A 
ATOM     48  C   UNL A   1      45.644  28.587  31.687  1.00  0.00     0.049 A 
ATOM     49  H   UNL A   1      43.714  28.717  30.842  1.00  0.00     0.167 HD
ATOM     50  C   UNL A   1      45.340  26.422  30.519  1.00  0.00     0.074 A 
ATOM     51  C   UNL A   1      45.786  25.106  30.106  1.00  0.00     0.031 C 
ATOM     52  C   UNL A   1      46.078  27.278  31.268  1.00  0.00     0.031 A 
BRANCH  39  53
ATOM     53  C   UNL A   1      43.237  32.645  32.460  1.00  0.00    -0.014 A 
ATOM     54  C   UNL A   1      42.688  32.878  33.735  1.00  0.00     0.010 A 
ATOM     55  C   UNL A   1      43.842  33.713  31.772  1.00  0.00     0.010 A 
ATOM     56  C   UNL A   1      42.681  34.165  34.279  1.00  0.00     0.020 A 
ATOM     57  C   UNL A   1      43.864  34.996  32.326  1.00  0.00     0.020 A 
ATOM     58  C   UNL A   1      43.257  35.220  33.564  1.00  0.00     0.054 A 
BRANCH  58  59
ATOM     59  S   UNL A   1      43.215  36.887  34.278  1.00  0.00     0.124 S 
ATOM     60  O   UNL A   1      44.381  36.862  35.161  1.00  0.00    -0.237 OA
ATOM     61  O   UNL A   1      43.342  37.745  33.100  1.00  0.00    -0.237 OA
ATOM     62  O   UNL A   1      41.923  36.944  34.950  1.00  0.00    -0.744 OA
ENDBRANCH  58  59
ENDBRANCH  39  53
BRANCH  40  63
ATOM     63  C   UNL A   1      42.393  23.763  27.993  1.00  0.00    -0.014 A 
ATOM     64  C   UNL A   1      42.894  23.550  26.696  1.00  0.00     0.010 A 
ATOM     65  C   UNL A   1      41.797  22.692  28.682  1.00  0.00     0.010 A 
ATOM     66  C   UNL A   1      42.796  22.292  26.097  1.00  0.00     0.020 A 
ATOM     67  C   UNL A   1      41.719  21.425  28.095  1.00  0.00     0.020 A 
ATOM     68  C   UNL A   1      42.212  21.235  26.803  1.00  0.00     0.054 A 
BRANCH  68  69
ATOM     69  S   UNL A   1      42.161  19.593  26.032  1.00  0.00     0.124 S 
ATOM     70  O   UNL A   1      43.088  19.751  24.918  1.00  0.00    -0.237 OA
ATOM     71  O   UNL A   1      42.613  18.721  27.115  1.00  0.00    -0.237 OA
ATOM     72  O   UNL A   1      40.756  19.433  25.663  1.00  0.00    -0.744 OA
ENDBRANCH  68  69
ENDBRANCH  40  63
BRANCH  52  73
ATOM     73  C   UNL A   1      47.434  26.808  31.722  1.00  0.00    -0.014 A 
ATOM     74  C   UNL A   1      47.588  26.050  32.896  1.00  0.00     0.010 A 
ATOM     75  C   UNL A   1      48.564  27.089  30.933  1.00  0.00     0.010 A 
ATOM     76  C   UNL A   1      48.854  25.606  33.288  1.00  0.00     0.020 A 
ATOM     77  C   UNL A   1      49.827  26.625  31.309  1.00  0.00     0.020 A 
ATOM     78  C   UNL A   1      49.966  25.898  32.493  1.00  0.00     0.054 A 
BRANCH  78  79
ATOM     79  S   UNL A   1      51.593  25.272  32.997  1.00  0.00     0.124 S 
ATOM     80  O   UNL A   1      51.238  24.052  33.716  1.00  0.00    -0.237 OA
ATOM     81  O   UNL A   1      52.273  25.075  31.720  1.00  0.00    -0.237 OA
ATOM     82  O   UNL A   1      52.135  26.348  33.825  1.00  0.00    -0.744 OA
ENDBRANCH  78  79
ENDBRANCH  52  73
ENDBRANCH  26  27
ENDBRANCH  18  21
ENDBRANCH  16  17
ENDBRANCH   1  16
TORSDOF 17
ENDMDL
MODEL 3
REMARK VINA RESULT:      -8.3      2.089      2.757
REMARK SMILES C=CC[N@@H+](CC(=O)NCCCNC(=O)c1ccc(-c2c3nc(c(-c4ccc(S(=O)(=O)[O-])cc4)c4ccc([nH]4)c(-c4ccc(S(=O)(=O)[O-])cc4)c4nc(c(-c5ccc(S(=O)(=O)[O-])cc5)c5ccc2[nH]5)C=C4)C=C3)cc1)C(C)C
REMARK SMILES IDX 10 1 9 2 8 3 6 4 7 5 5 7 4 8 3 10 2 11 1 12 75 13 76 14
REMARK SMILES IDX 77 15 11 16 12 17 13 18 14 20 15 21 16 22 74 23 17 24 73 25
REMARK SMILES IDX 18 26 19 27 20 28 67 29 21 30 72 31 66 32 68 33 22 34 71 35
REMARK SMILES IDX 65 36 64 37 23 39 53 40 34 41 52 42 35 43 38 44 51 45 69 46
REMARK SMILES IDX 36 47 37 48 50 50 70 51 39 52 24 53 25 54 33 55 26 56 32 57
REMARK SMILES IDX 27 58 28 59 29 60 30 61 31 62 54 63 55 64 63 65 56 66 62 67
REMARK SMILES IDX 57 68 58 69 59 70 60 71 61 72 40 73 41 74 49 75 42 76 48 77
REMARK SMILES IDX 43 78 44 79 45 80 46 81 47 82
REMARK H PARENT 8 6 4 9 12 19 68 38 38 49
REMARK Flexibility Score: inf
ROOT
ATOM      1  C   UNL A   1      34.027  33.718  29.111  1.00  0.00     0.042 C 
ENDROOT
BRANCH   1   2
ATOM      2  C   UNL A   1      34.556  33.488  30.531  1.00  0.00     0.118 C 
BRANCH   2   3
ATOM      3  N   UNL A   1      34.593  34.712  31.314  1.00  0.00    -0.351 N 
ATOM      4  C   UNL A   1      35.091  34.985  32.555  1.00  0.00     0.275 C 
ATOM      5  O   UNL A   1      35.058  36.170  32.911  1.00  0.00    -0.269 OA
ATOM      6  H   UNL A   1      34.184  35.487  30.867  1.00  0.00     0.163 HD
BRANCH   4   7
ATOM      7  C   UNL A   1      35.716  33.921  33.469  1.00  0.00     0.363 C 
BRANCH   7   8
ATOM      8  N   UNL A   1      37.193  33.740  33.406  1.00  0.00    -0.322 N 
ATOM      9  H   UNL A   1      37.616  34.140  34.244  1.00  0.00     0.349 HD
BRANCH   8  10
ATOM     10  C   UNL A   1      37.778  34.552  32.349  1.00  0.00     0.291 C 
BRANCH  10  11
ATOM     11  C   UNL A   1      39.237  34.423  32.054  1.00  0.00     0.025 C 
ATOM     12  C   UNL A   1      40.189  34.588  32.985  1.00  0.00     0.010 C 
ENDBRANCH  10  11
ENDBRANCH   8  10
BRANCH   8  13
ATOM     13  C   UNL A   1      37.655  32.351  33.610  1.00  0.00     0.178 C 
ATOM     14  C   UNL A   1      37.794  31.862  35.059  1.00  0.00     0.075 C 
ATOM     15  C   UNL A   1      36.808  31.324  32.837  1.00  0.00     0.075 C 
ENDBRANCH   8  13
ENDBRANCH   7   8
ENDBRANCH   4   7
ENDBRANCH   2   3
ENDBRANCH   1   2
BRANCH   1  16
ATOM     16  C   UNL A   1      34.732  32.929  28.019  1.00  0.00     0.118 C 
BRANCH  16  17
ATOM     17  N   UNL A   1      34.063  31.679  27.710  1.00  0.00    -0.352 N 
ATOM     18  C   UNL A   1      34.529  30.386  27.652  1.00  0.00     0.251 C 
ATOM     19  H   UNL A   1      33.106  31.773  27.504  1.00  0.00     0.163 HD
ATOM     20  O   UNL A   1      33.786  29.530  27.171  1.00  0.00    -0.269 OA
BRANCH  18  21
ATOM     21  C   UNL A   1      35.885  29.991  28.120  1.00  0.00     0.039 A 
ATOM     22  C   UNL A   1      36.952  30.086  27.216  1.00  0.00     0.014 A 
ATOM     23  C   UNL A   1      36.125  29.446  29.384  1.00  0.00     0.014 A 
ATOM     24  C   UNL A   1      38.240  29.678  27.586  1.00  0.00     0.010 A 
ATOM     25  C   UNL A   1      37.427  29.130  29.786  1.00  0.00     0.010 A 
ATOM     26  C   UNL A   1      38.498  29.217  28.885  1.00  0.00    -0.014 A 
BRANCH  26  27
ATOM     27  C   UNL A   1      39.860  28.774  29.299  1.00  0.00     0.031 A 
ATOM     28  C   UNL A   1      40.736  29.679  30.129  1.00  0.00     0.074 A 
ATOM     29  C   UNL A   1      40.332  27.574  28.905  1.00  0.00     0.049 A 
ATOM     30  N   UNL A   1      41.963  29.489  30.547  1.00  0.00    -0.248 NA
ATOM     31  C   UNL A   1      40.166  30.977  30.523  1.00  0.00     0.031 C 
ATOM     32  C   UNL A   1      39.603  26.602  28.086  1.00  0.00     0.029 A 
ATOM     33  N   UNL A   1      41.538  26.963  29.146  1.00  0.00    -0.354 N 
ATOM     34  C   UNL A   1      42.317  30.648  31.231  1.00  0.00     0.074 A 
ATOM     35  C   UNL A   1      41.195  31.555  31.126  1.00  0.00     0.031 C 
ATOM     36  C   UNL A   1      40.360  25.505  27.928  1.00  0.00     0.029 A 
ATOM     37  C   UNL A   1      41.643  25.707  28.596  1.00  0.00     0.049 A 
ATOM     38  H   UNL A   1      42.261  27.386  29.665  1.00  0.00     0.167 HD
ATOM     39  C   UNL A   1      43.457  30.930  31.907  1.00  0.00     0.031 A 
ATOM     40  C   UNL A   1      42.652  24.815  28.626  1.00  0.00     0.031 A 
ATOM     41  C   UNL A   1      44.572  30.027  32.028  1.00  0.00     0.049 A 
ATOM     42  C   UNL A   1      43.919  25.155  29.363  1.00  0.00     0.074 A 
ATOM     43  C   UNL A   1      45.755  30.207  32.722  1.00  0.00     0.029 A 
ATOM     44  N   UNL A   1      44.639  28.772  31.443  1.00  0.00    -0.354 N 
ATOM     45  N   UNL A   1      44.218  26.243  30.031  1.00  0.00    -0.248 NA
ATOM     46  C   UNL A   1      44.982  24.140  29.353  1.00  0.00     0.031 C 
ATOM     47  C   UNL A   1      46.555  29.075  32.524  1.00  0.00     0.029 A 
ATOM     48  C   UNL A   1      45.848  28.172  31.746  1.00  0.00     0.049 A 
ATOM     49  H   UNL A   1      43.929  28.368  30.891  1.00  0.00     0.167 HD
ATOM     50  C   UNL A   1      45.492  26.032  30.547  1.00  0.00     0.074 A 
ATOM     51  C   UNL A   1      45.904  24.710  30.119  1.00  0.00     0.031 C 
ATOM     52  C   UNL A   1      46.249  26.857  31.312  1.00  0.00     0.031 A 
BRANCH  39  53
ATOM     53  C   UNL A   1      43.551  32.285  32.559  1.00  0.00    -0.014 A 
ATOM     54  C   UNL A   1      44.074  33.391  31.861  1.00  0.00     0.010 A 
ATOM     55  C   UNL A   1      43.120  32.459  33.886  1.00  0.00     0.010 A 
ATOM     56  C   UNL A   1      44.228  34.624  32.500  1.00  0.00     0.020 A 
ATOM     57  C   UNL A   1      43.244  33.698  34.520  1.00  0.00     0.020 A 
ATOM     58  C   UNL A   1      43.824  34.767  33.831  1.00  0.00     0.054 A 
BRANCH  58  59
ATOM     59  S   UNL A   1      44.056  36.369  34.649  1.00  0.00     0.124 S 
ATOM     60  O   UNL A   1      44.220  35.968  36.046  1.00  0.00    -0.237 OA
ATOM     61  O   UNL A   1      45.261  36.890  34.003  1.00  0.00    -0.237 OA
ATOM     62  O   UNL A   1      42.828  37.094  34.347  1.00  0.00    -0.744 OA
ENDBRANCH  58  59
ENDBRANCH  39  53
BRANCH  40  63
ATOM     63  C   UNL A   1      42.488  23.491  27.968  1.00  0.00    -0.014 A 
ATOM     64  C   UNL A   1      42.859  23.323  26.621  1.00  0.00     0.010 A 
ATOM     65  C   UNL A   1      41.991  22.388  28.684  1.00  0.00     0.010 A 
ATOM     66  C   UNL A   1      42.730  22.077  26.002  1.00  0.00     0.020 A 
ATOM     67  C   UNL A   1      41.883  21.134  28.075  1.00  0.00     0.020 A 
ATOM     68  C   UNL A   1      42.246  20.989  26.735  1.00  0.00     0.054 A 
BRANCH  68  69
ATOM     69  S   UNL A   1      42.155  19.365  25.930  1.00  0.00     0.124 S 
ATOM     70  O   UNL A   1      42.678  18.482  26.967  1.00  0.00    -0.237 OA
ATOM     71  O   UNL A   1      40.727  19.233  25.645  1.00  0.00    -0.237 OA
ATOM     72  O   UNL A   1      43.003  19.521  24.751  1.00  0.00    -0.744 OA
ENDBRANCH  68  69
ENDBRANCH  40  63
BRANCH  52  73
ATOM     73  C   UNL A   1      47.588  26.344  31.768  1.00  0.00    -0.014 A 
ATOM     74  C   UNL A   1      48.731  26.468  30.958  1.00  0.00     0.010 A 
ATOM     75  C   UNL A   1      47.713  25.773  33.048  1.00  0.00     0.010 A 
ATOM     76  C   UNL A   1      49.970  26.004  31.410  1.00  0.00     0.020 A 
ATOM     77  C   UNL A   1      48.954  25.331  33.512  1.00  0.00     0.020 A 
ATOM     78  C   UNL A   1      50.073  25.436  32.683  1.00  0.00     0.054 A 
BRANCH  78  79
ATOM     79  S   UNL A   1      51.699  24.882  33.266  1.00  0.00     0.124 S 
ATOM     80  O   UNL A   1      52.418  26.145  33.405  1.00  0.00    -0.237 OA
ATOM     81  O   UNL A   1      51.378  24.200  34.517  1.00  0.00    -0.237 OA
ATOM     82  O   UNL A   1      52.173  24.010  32.192  1.00  0.00    -0.744 OA
ENDBRANCH  78  79
ENDBRANCH  52  73
ENDBRANCH  26  27
ENDBRANCH  18  21
ENDBRANCH  16  17
ENDBRANCH   1  16
TORSDOF 17
ENDMDL
