MODEL 1
REMARK VINA RESULT:     -12.2      0.000      0.000
REMARK SMILES Cc1ccccc1OCCC(=O)N[C@@](C)(C(=O)NCCCNC(=O)c1ccc(-c2c3nc(c(-c4ccc(S(=O)(=O)[O-])cc4)c4ccc([nH]4)c(-c4ccc(S(=O)(=O)[O-])cc4)c4nc(c(-c5ccc(S(=O)(=O)[O-])cc5)c5ccc2[nH]5)C=C4)C=C3)cc1)C1CC1
REMARK SMILES IDX 19 1 18 2 16 3 17 4 14 6 15 7 13 8 11 9 12 10 10 12 9 13
REMARK SMILES IDX 8 14 7 15 1 16 2 17 3 18 4 19 6 20 5 21 85 22 86 23 87 24
REMARK SMILES IDX 20 25 21 26 22 27 23 28 24 30 25 31 26 32 84 33 27 34 83 35
REMARK SMILES IDX 28 36 29 37 30 38 77 39 31 40 82 41 76 42 78 43 32 44 81 45
REMARK SMILES IDX 75 46 74 47 33 49 63 50 44 51 62 52 45 53 48 54 61 55 79 56
REMARK SMILES IDX 46 57 47 58 60 60 80 61 49 62 34 63 35 64 43 65 36 66 42 67
REMARK SMILES IDX 37 68 38 69 39 70 40 71 41 72 64 73 65 74 73 75 66 76 72 77
REMARK SMILES IDX 67 78 68 79 69 80 70 81 71 82 50 83 51 84 59 85 52 86 58 87
REMARK SMILES IDX 53 88 54 89 55 90 56 91 57 92
REMARK H PARENT 18 5 13 11 22 29 78 48 48 59
REMARK Flexibility Score: inf
ROOT
ATOM      1  C   UNL A   1      32.304  28.928  26.152  1.00  0.00     0.117 C 
ENDROOT
BRANCH   1   2
ATOM      2  N   UNL A   1      31.397  27.873  26.610  1.00  0.00    -0.354 N 
ATOM      3  C   UNL A   1      30.747  26.864  25.931  1.00  0.00     0.245 C 
ATOM      4  O   UNL A   1      30.222  25.975  26.608  1.00  0.00    -0.272 OA
ATOM      5  H   UNL A   1      31.220  27.885  27.579  1.00  0.00     0.163 HD
BRANCH   3   6
ATOM      6  C   UNL A   1      30.639  26.873  24.346  1.00  0.00     0.119 C 
ATOM      7  C   UNL A   1      29.253  26.325  23.982  1.00  0.00     0.046 C 
BRANCH   6   8
ATOM      8  N   UNL A   1      31.775  25.983  23.984  1.00  0.00    -0.342 N 
ATOM      9  C   UNL A   1      32.033  24.665  23.868  1.00  0.00     0.224 C 
ATOM     10  O   UNL A   1      33.164  24.356  23.478  1.00  0.00    -0.275 OA
ATOM     11  H   UNL A   1      32.575  26.514  23.764  1.00  0.00     0.164 HD
BRANCH   9  12
ATOM     12  C   UNL A   1      31.009  23.591  24.097  1.00  0.00     0.141 C 
BRANCH  12  13
ATOM     13  C   UNL A   1      31.024  22.902  25.454  1.00  0.00     0.239 C 
BRANCH  13  14
ATOM     14  O   UNL A   1      31.367  21.529  25.451  1.00  0.00    -0.493 OA
BRANCH  14  15
ATOM     15  C   UNL A   1      32.647  21.060  25.403  1.00  0.00     0.122 A 
ATOM     16  C   UNL A   1      32.522  18.812  24.073  1.00  0.00     0.048 C 
ATOM     17  C   UNL A   1      33.218  19.970  24.732  1.00  0.00    -0.009 A 
ATOM     18  C   UNL A   1      34.631  19.847  24.740  1.00  0.00     0.007 A 
ATOM     19  C   UNL A   1      35.454  20.741  25.422  1.00  0.00     0.001 A 
ATOM     20  C   UNL A   1      33.492  21.904  26.157  1.00  0.00     0.047 A 
ATOM     21  C   UNL A   1      34.879  21.759  26.160  1.00  0.00     0.004 A 
ENDBRANCH  14  15
ENDBRANCH  13  14
ENDBRANCH  12  13
ENDBRANCH   9  12
ENDBRANCH   6   8
BRANCH   6  22
ATOM     22  C   UNL A   1      30.871  28.288  23.810  1.00  0.00     0.024 C 
ATOM     23  C   UNL A   1      30.652  28.707  22.359  1.00  0.00     0.007 C 
ATOM     24  C   UNL A   1      29.715  29.191  23.421  1.00  0.00     0.007 C 
ENDBRANCH   6  22
ENDBRANCH   3   6
ENDBRANCH   1   2
BRANCH   1  25
ATOM     25  C   UNL A   1      33.139  29.560  27.256  1.00  0.00     0.042 C 
BRANCH  25  26
ATOM     26  C   UNL A   1      34.618  29.623  26.913  1.00  0.00     0.118 C 
BRANCH  26  27
ATOM     27  N   UNL A   1      35.294  30.838  27.369  1.00  0.00    -0.352 N 
ATOM     28  C   UNL A   1      36.524  30.940  28.001  1.00  0.00     0.251 C 
ATOM     29  H   UNL A   1      34.819  31.684  27.206  1.00  0.00     0.163 HD
ATOM     30  O   UNL A   1      36.931  32.012  28.435  1.00  0.00    -0.269 OA
BRANCH  28  31
ATOM     31  C   UNL A   1      37.358  29.721  28.079  1.00  0.00     0.039 A 
ATOM     32  C   UNL A   1      37.322  28.957  29.250  1.00  0.00     0.014 A 
ATOM     33  C   UNL A   1      38.360  29.533  27.136  1.00  0.00     0.014 A 
ATOM     34  C   UNL A   1      38.418  28.159  29.576  1.00  0.00     0.010 A 
ATOM     35  C   UNL A   1      39.501  28.870  27.530  1.00  0.00     0.010 A 
ATOM     36  C   UNL A   1      39.550  28.209  28.767  1.00  0.00    -0.014 A 
BRANCH  36  37
ATOM     37  C   UNL A   1      40.857  27.661  29.116  1.00  0.00     0.031 A 
ATOM     38  C   UNL A   1      41.167  26.250  28.765  1.00  0.00     0.074 A 
ATOM     39  C   UNL A   1      41.838  28.469  29.581  1.00  0.00     0.049 A 
ATOM     40  N   UNL A   1      42.202  25.598  29.176  1.00  0.00    -0.248 NA
ATOM     41  C   UNL A   1      40.269  25.427  27.956  1.00  0.00     0.031 C 
ATOM     42  C   UNL A   1      43.275  28.200  29.551  1.00  0.00     0.029 A 
ATOM     43  N   UNL A   1      41.735  29.614  30.376  1.00  0.00    -0.354 N 
ATOM     44  C   UNL A   1      42.277  24.435  28.440  1.00  0.00     0.074 A 
ATOM     45  C   UNL A   1      40.998  24.323  27.788  1.00  0.00     0.031 C 
ATOM     46  C   UNL A   1      43.871  28.928  30.506  1.00  0.00     0.029 A 
ATOM     47  C   UNL A   1      42.815  29.560  31.275  1.00  0.00     0.049 A 
ATOM     48  H   UNL A   1      41.047  30.315  30.318  1.00  0.00     0.167 HD
ATOM     49  C   UNL A   1      43.469  23.779  28.354  1.00  0.00     0.031 A 
ATOM     50  C   UNL A   1      42.687  29.481  32.633  1.00  0.00     0.031 A 
ATOM     51  C   UNL A   1      44.428  24.290  29.333  1.00  0.00     0.049 A 
ATOM     52  C   UNL A   1      43.367  28.265  33.227  1.00  0.00     0.074 A 
ATOM     53  C   UNL A   1      45.545  25.103  29.247  1.00  0.00     0.029 A 
ATOM     54  N   UNL A   1      44.118  24.186  30.686  1.00  0.00    -0.354 N 
ATOM     55  N   UNL A   1      43.778  27.245  32.527  1.00  0.00    -0.248 NA
ATOM     56  C   UNL A   1      43.596  28.079  34.658  1.00  0.00     0.031 C 
ATOM     57  C   UNL A   1      45.844  25.571  30.558  1.00  0.00     0.029 A 
ATOM     58  C   UNL A   1      44.933  25.010  31.437  1.00  0.00     0.049 A 
ATOM     59  H   UNL A   1      43.414  23.606  31.056  1.00  0.00     0.167 HD
ATOM     60  C   UNL A   1      44.291  26.285  33.358  1.00  0.00     0.074 A 
ATOM     61  C   UNL A   1      44.170  26.863  34.684  1.00  0.00     0.031 C 
ATOM     62  C   UNL A   1      44.753  25.090  32.883  1.00  0.00     0.031 A 
BRANCH  49  63
ATOM     63  C   UNL A   1      43.848  22.840  27.221  1.00  0.00    -0.014 A 
ATOM     64  C   UNL A   1      42.969  21.797  26.857  1.00  0.00     0.010 A 
ATOM     65  C   UNL A   1      45.085  22.852  26.547  1.00  0.00     0.010 A 
ATOM     66  C   UNL A   1      43.328  20.801  25.931  1.00  0.00     0.020 A 
ATOM     67  C   UNL A   1      45.459  21.869  25.619  1.00  0.00     0.020 A 
ATOM     68  C   UNL A   1      44.583  20.836  25.328  1.00  0.00     0.054 A 
BRANCH  68  69
ATOM     69  S   UNL A   1      45.071  19.520  24.182  1.00  0.00     0.124 S 
ATOM     70  O   UNL A   1      44.507  19.981  22.917  1.00  0.00    -0.237 OA
ATOM     71  O   UNL A   1      46.528  19.545  24.272  1.00  0.00    -0.237 OA
ATOM     72  O   UNL A   1      44.439  18.323  24.738  1.00  0.00    -0.744 OA
ENDBRANCH  68  69
ENDBRANCH  49  63
BRANCH  50  73
ATOM     73  C   UNL A   1      41.458  30.125  33.171  1.00  0.00    -0.014 A 
ATOM     74  C   UNL A   1      41.465  31.533  33.263  1.00  0.00     0.010 A 
ATOM     75  C   UNL A   1      40.226  29.449  33.113  1.00  0.00     0.010 A 
ATOM     76  C   UNL A   1      40.286  32.257  33.080  1.00  0.00     0.020 A 
ATOM     77  C   UNL A   1      39.041  30.175  32.941  1.00  0.00     0.020 A 
ATOM     78  C   UNL A   1      39.097  31.569  32.841  1.00  0.00     0.054 A 
BRANCH  78  79
ATOM     79  S   UNL A   1      37.702  32.508  32.147  1.00  0.00     0.124 S 
ATOM     80  O   UNL A   1      36.803  31.451  31.695  1.00  0.00    -0.237 OA
ATOM     81  O   UNL A   1      37.253  33.264  33.314  1.00  0.00    -0.237 OA
ATOM     82  O   UNL A   1      38.324  33.301  31.091  1.00  0.00    -0.744 OA
ENDBRANCH  78  79
ENDBRANCH  50  73
BRANCH  62  83
ATOM     83  C   UNL A   1      45.137  23.890  33.718  1.00  0.00    -0.014 A 
ATOM     84  C   UNL A   1      44.254  22.859  34.075  1.00  0.00     0.010 A 
ATOM     85  C   UNL A   1      46.499  23.712  34.066  1.00  0.00     0.010 A 
ATOM     86  C   UNL A   1      44.693  21.740  34.800  1.00  0.00     0.020 A 
ATOM     87  C   UNL A   1      46.956  22.580  34.748  1.00  0.00     0.020 A 
ATOM     88  C   UNL A   1      46.041  21.610  35.137  1.00  0.00     0.054 A 
BRANCH  88  89
ATOM     89  S   UNL A   1      46.612  20.135  36.019  1.00  0.00     0.124 S 
ATOM     90  O   UNL A   1      47.901  20.580  36.544  1.00  0.00    -0.237 OA
ATOM     91  O   UNL A   1      45.569  19.924  37.020  1.00  0.00    -0.237 OA
ATOM     92  O   UNL A   1      46.676  19.117  34.973  1.00  0.00    -0.744 OA
ENDBRANCH  88  89
ENDBRANCH  62  83
ENDBRANCH  36  37
ENDBRANCH  28  31
ENDBRANCH  26  27
ENDBRANCH  25  26
ENDBRANCH   1  25
TORSDOF 19
ENDMDL
MODEL 2
REMARK VINA RESULT:     -12.1      4.055     10.664
REMARK SMILES Cc1ccccc1OCCC(=O)N[C@@](C)(C(=O)NCCCNC(=O)c1ccc(-c2c3nc(c(-c4ccc(S(=O)(=O)[O-])cc4)c4ccc([nH]4)c(-c4ccc(S(=O)(=O)[O-])cc4)c4nc(c(-c5ccc(S(=O)(=O)[O-])cc5)c5ccc2[nH]5)C=C4)C=C3)cc1)C1CC1
REMARK SMILES IDX 19 1 18 2 16 3 17 4 14 6 15 7 13 8 11 9 12 10 10 12 9 13
REMARK SMILES IDX 8 14 7 15 1 16 2 17 3 18 4 19 6 20 5 21 85 22 86 23 87 24
REMARK SMILES IDX 20 25 21 26 22 27 23 28 24 30 25 31 26 32 84 33 27 34 83 35
REMARK SMILES IDX 28 36 29 37 30 38 77 39 31 40 82 41 76 42 78 43 32 44 81 45
REMARK SMILES IDX 75 46 74 47 33 49 63 50 44 51 62 52 45 53 48 54 61 55 79 56
REMARK SMILES IDX 46 57 47 58 60 60 80 61 49 62 34 63 35 64 43 65 36 66 42 67
REMARK SMILES IDX 37 68 38 69 39 70 40 71 41 72 64 73 65 74 73 75 66 76 72 77
REMARK SMILES IDX 67 78 68 79 69 80 70 81 71 82 50 83 51 84 59 85 52 86 58 87
REMARK SMILES IDX 53 88 54 89 55 90 56 91 57 92
REMARK H PARENT 18 5 13 11 22 29 78 48 48 59
REMARK Flexibility Score: inf
ROOT
ATOM      1  C   UNL A   1      35.549  21.615  26.209  1.00  0.00     0.117 C 
ENDROOT
BRANCH   1   2
ATOM      2  N   UNL A   1      34.417  20.687  26.151  1.00  0.00    -0.354 N 
ATOM      3  C   UNL A   1      33.148  20.823  25.630  1.00  0.00     0.245 C 
ATOM      4  O   UNL A   1      32.472  19.795  25.517  1.00  0.00    -0.272 OA
ATOM      5  H   UNL A   1      34.594  19.808  26.558  1.00  0.00     0.163 HD
BRANCH   3   6
ATOM      6  C   UNL A   1      32.564  22.246  25.234  1.00  0.00     0.119 C 
ATOM      7  C   UNL A   1      33.686  23.271  25.444  1.00  0.00     0.046 C 
BRANCH   6   8
ATOM      8  N   UNL A   1      31.431  22.359  26.192  1.00  0.00    -0.342 N 
ATOM      9  C   UNL A   1      30.739  23.321  26.834  1.00  0.00     0.224 C 
ATOM     10  O   UNL A   1      29.796  22.946  27.540  1.00  0.00    -0.275 OA
ATOM     11  H   UNL A   1      31.084  21.467  26.425  1.00  0.00     0.164 HD
BRANCH   9  12
ATOM     12  C   UNL A   1      30.996  24.790  26.663  1.00  0.00     0.141 C 
BRANCH  12  13
ATOM     13  C   UNL A   1      29.971  25.581  25.861  1.00  0.00     0.239 C 
BRANCH  13  14
ATOM     14  O   UNL A   1      30.431  26.788  25.283  1.00  0.00    -0.493 OA
BRANCH  14  15
ATOM     15  C   UNL A   1      31.412  26.859  24.339  1.00  0.00     0.122 A 
ATOM     16  C   UNL A   1      33.643  27.169  25.668  1.00  0.00     0.048 C 
ATOM     17  C   UNL A   1      32.809  26.905  24.446  1.00  0.00    -0.009 A 
ATOM     18  C   UNL A   1      33.572  26.796  23.255  1.00  0.00     0.007 A 
ATOM     19  C   UNL A   1      32.983  26.691  21.997  1.00  0.00     0.001 A 
ATOM     20  C   UNL A   1      30.836  26.838  23.050  1.00  0.00     0.047 A 
ATOM     21  C   UNL A   1      31.606  26.742  21.891  1.00  0.00     0.004 A 
ENDBRANCH  14  15
ENDBRANCH  13  14
ENDBRANCH  12  13
ENDBRANCH   9  12
ENDBRANCH   6   8
BRANCH   6  22
ATOM     22  C   UNL A   1      32.052  22.223  23.793  1.00  0.00     0.024 C 
ATOM     23  C   UNL A   1      31.121  23.273  23.192  1.00  0.00     0.007 C 
ATOM     24  C   UNL A   1      32.551  23.210  22.754  1.00  0.00     0.007 C 
ENDBRANCH   6  22
ENDBRANCH   3   6
ENDBRANCH   1   2
BRANCH   1  25
ATOM     25  C   UNL A   1      36.636  21.343  25.178  1.00  0.00     0.042 C 
BRANCH  25  26
ATOM     26  C   UNL A   1      37.826  22.277  25.315  1.00  0.00     0.118 C 
BRANCH  26  27
ATOM     27  N   UNL A   1      38.963  21.707  26.037  1.00  0.00    -0.352 N 
ATOM     28  C   UNL A   1      39.982  22.386  26.690  1.00  0.00     0.251 C 
ATOM     29  H   UNL A   1      39.012  20.725  26.061  1.00  0.00     0.163 HD
ATOM     30  O   UNL A   1      40.943  21.790  27.163  1.00  0.00    -0.269 OA
BRANCH  28  31
ATOM     31  C   UNL A   1      39.838  23.848  26.851  1.00  0.00     0.039 A 
ATOM     32  C   UNL A   1      40.581  24.691  26.019  1.00  0.00     0.014 A 
ATOM     33  C   UNL A   1      39.219  24.338  27.994  1.00  0.00     0.014 A 
ATOM     34  C   UNL A   1      40.886  25.981  26.454  1.00  0.00     0.010 A 
ATOM     35  C   UNL A   1      39.647  25.550  28.490  1.00  0.00     0.010 A 
ATOM     36  C   UNL A   1      40.511  26.362  27.740  1.00  0.00    -0.014 A 
BRANCH  36  37
ATOM     37  C   UNL A   1      40.990  27.553  28.436  1.00  0.00     0.031 A 
ATOM     38  C   UNL A   1      40.061  28.697  28.634  1.00  0.00     0.074 A 
ATOM     39  C   UNL A   1      42.193  27.549  29.056  1.00  0.00     0.049 A 
ATOM     40  N   UNL A   1      40.408  29.863  29.063  1.00  0.00    -0.248 NA
ATOM     41  C   UNL A   1      38.643  28.627  28.285  1.00  0.00     0.031 C 
ATOM     42  C   UNL A   1      42.619  28.440  30.135  1.00  0.00     0.029 A 
ATOM     43  N   UNL A   1      43.366  26.879  28.700  1.00  0.00    -0.354 N 
ATOM     44  C   UNL A   1      39.255  30.556  29.359  1.00  0.00     0.074 A 
ATOM     45  C   UNL A   1      38.196  29.794  28.749  1.00  0.00     0.031 C 
ATOM     46  C   UNL A   1      43.958  28.495  30.144  1.00  0.00     0.029 A 
ATOM     47  C   UNL A   1      44.420  27.768  28.975  1.00  0.00     0.049 A 
ATOM     48  H   UNL A   1      43.440  25.969  28.331  1.00  0.00     0.167 HD
ATOM     49  C   UNL A   1      39.317  31.617  30.212  1.00  0.00     0.031 A 
ATOM     50  C   UNL A   1      45.274  28.270  28.034  1.00  0.00     0.031 A 
ATOM     51  C   UNL A   1      40.700  32.029  30.448  1.00  0.00     0.049 A 
ATOM     52  C   UNL A   1      45.277  29.783  27.975  1.00  0.00     0.074 A 
ATOM     53  C   UNL A   1      41.577  31.883  31.509  1.00  0.00     0.029 A 
ATOM     54  N   UNL A   1      41.461  32.461  29.365  1.00  0.00    -0.354 N 
ATOM     55  N   UNL A   1      44.370  30.536  28.534  1.00  0.00    -0.248 NA
ATOM     56  C   UNL A   1      46.270  30.567  27.246  1.00  0.00     0.031 C 
ATOM     57  C   UNL A   1      42.891  32.135  31.025  1.00  0.00     0.029 A 
ATOM     58  C   UNL A   1      42.804  32.470  29.684  1.00  0.00     0.049 A 
ATOM     59  H   UNL A   1      41.092  32.723  28.491  1.00  0.00     0.167 HD
ATOM     60  C   UNL A   1      44.616  31.853  28.249  1.00  0.00     0.074 A 
ATOM     61  C   UNL A   1      45.830  31.821  27.453  1.00  0.00     0.031 C 
ATOM     62  C   UNL A   1      43.790  32.851  28.679  1.00  0.00     0.031 A 
BRANCH  49  63
ATOM     63  C   UNL A   1      38.140  32.131  31.025  1.00  0.00    -0.014 A 
ATOM     64  C   UNL A   1      37.794  33.498  30.962  1.00  0.00     0.010 A 
ATOM     65  C   UNL A   1      37.403  31.361  31.946  1.00  0.00     0.010 A 
ATOM     66  C   UNL A   1      36.823  34.066  31.808  1.00  0.00     0.020 A 
ATOM     67  C   UNL A   1      36.429  31.910  32.793  1.00  0.00     0.020 A 
ATOM     68  C   UNL A   1      36.156  33.267  32.732  1.00  0.00     0.054 A 
BRANCH  68  69
ATOM     69  S   UNL A   1      34.950  34.008  33.862  1.00  0.00     0.124 S 
ATOM     70  O   UNL A   1      35.464  33.615  35.171  1.00  0.00    -0.237 OA
ATOM     71  O   UNL A   1      35.050  35.430  33.545  1.00  0.00    -0.237 OA
ATOM     72  O   UNL A   1      33.685  33.379  33.483  1.00  0.00    -0.744 OA
ENDBRANCH  68  69
ENDBRANCH  49  63
BRANCH  50  73
ATOM     73  C   UNL A   1      45.506  27.366  26.874  1.00  0.00    -0.014 A 
ATOM     74  C   UNL A   1      46.556  26.432  26.996  1.00  0.00     0.010 A 
ATOM     75  C   UNL A   1      44.468  27.115  25.958  1.00  0.00     0.010 A 
ATOM     76  C   UNL A   1      46.460  25.181  26.385  1.00  0.00     0.020 A 
ATOM     77  C   UNL A   1      44.378  25.864  25.335  1.00  0.00     0.020 A 
ATOM     78  C   UNL A   1      45.330  24.881  25.624  1.00  0.00     0.054 A 
BRANCH  78  79
ATOM     79  S   UNL A   1      45.006  23.133  25.243  1.00  0.00     0.124 S 
ATOM     80  O   UNL A   1      43.667  22.933  25.788  1.00  0.00    -0.237 OA
ATOM     81  O   UNL A   1      45.102  23.131  23.785  1.00  0.00    -0.237 OA
ATOM     82  O   UNL A   1      46.082  22.433  25.939  1.00  0.00    -0.744 OA
ENDBRANCH  78  79
ENDBRANCH  50  73
BRANCH  62  83
ATOM     83  C   UNL A   1      43.847  34.300  28.248  1.00  0.00    -0.014 A 
ATOM     84  C   UNL A   1      43.353  34.782  27.026  1.00  0.00     0.010 A 
ATOM     85  C   UNL A   1      44.310  35.266  29.174  1.00  0.00     0.010 A 
ATOM     86  C   UNL A   1      43.381  36.151  26.717  1.00  0.00     0.020 A 
ATOM     87  C   UNL A   1      44.300  36.636  28.896  1.00  0.00     0.020 A 
ATOM     88  C   UNL A   1      43.859  37.069  27.651  1.00  0.00     0.054 A 
BRANCH  88  89
ATOM     89  S   UNL A   1      43.836  38.840  27.270  1.00  0.00     0.124 S 
ATOM     90  O   UNL A   1      45.037  38.986  26.452  1.00  0.00    -0.237 OA
ATOM     91  O   UNL A   1      42.571  39.007  26.558  1.00  0.00    -0.237 OA
ATOM     92  O   UNL A   1      43.889  39.472  28.585  1.00  0.00    -0.744 OA
ENDBRANCH  88  89
ENDBRANCH  62  83
ENDBRANCH  36  37
ENDBRANCH  28  31
ENDBRANCH  26  27
ENDBRANCH  25  26
ENDBRANCH   1  25
TORSDOF 19
ENDMDL
MODEL 3
REMARK VINA RESULT:     -12.0      4.211     10.926
REMARK SMILES Cc1ccccc1OCCC(=O)N[C@@](C)(C(=O)NCCCNC(=O)c1ccc(-c2c3nc(c(-c4ccc(S(=O)(=O)[O-])cc4)c4ccc([nH]4)c(-c4ccc(S(=O)(=O)[O-])cc4)c4nc(c(-c5ccc(S(=O)(=O)[O-])cc5)c5ccc2[nH]5)C=C4)C=C3)cc1)C1CC1
REMARK SMILES IDX 19 1 18 2 16 3 17 4 14 6 15 7 13 8 11 9 12 10 10 12 9 13
REMARK SMILES IDX 8 14 7 15 1 16 2 17 3 18 4 19 6 20 5 21 85 22 86 23 87 24
REMARK SMILES IDX 20 25 21 26 22 27 23 28 24 30 25 31 26 32 84 33 27 34 83 35
REMARK SMILES IDX 28 36 29 37 30 38 77 39 31 40 82 41 76 42 78 43 32 44 81 45
REMARK SMILES IDX 75 46 74 47 33 49 63 50 44 51 62 52 45 53 48 54 61 55 79 56
REMARK SMILES IDX 46 57 47 58 60 60 80 61 49 62 34 63 35 64 43 65 36 66 42 67
REMARK SMILES IDX 37 68 38 69 39 70 40 71 41 72 64 73 65 74 73 75 66 76 72 77
REMARK SMILES IDX 67 78 68 79 69 80 70 81 71 82 50 83 51 84 59 85 52 86 58 87
REMARK SMILES IDX 53 88 54 89 55 90 56 91 57 92
REMARK H PARENT 18 5 13 11 22 29 78 48 48 59
REMARK Flexibility Score: inf
ROOT
ATOM      1  C   UNL A   1      36.005  20.916  25.283  1.00  0.00     0.117 C 
ENDROOT
BRANCH   1   2
ATOM      2  N   UNL A   1      35.520  21.671  26.442  1.00  0.00    -0.354 N 
ATOM      3  C   UNL A   1      34.282  22.201  26.736  1.00  0.00     0.245 C 
ATOM      4  O   UNL A   1      34.097  22.592  27.893  1.00  0.00    -0.272 OA
ATOM      5  H   UNL A   1      36.201  21.826  27.136  1.00  0.00     0.163 HD
BRANCH   3   6
ATOM      6  C   UNL A   1      33.159  22.344  25.623  1.00  0.00     0.119 C 
ATOM      7  C   UNL A   1      32.561  20.949  25.397  1.00  0.00     0.046 C 
BRANCH   6   8
ATOM      8  N   UNL A   1      33.960  22.870  24.484  1.00  0.00    -0.342 N 
ATOM      9  C   UNL A   1      34.471  24.044  24.062  1.00  0.00     0.224 C 
ATOM     10  O   UNL A   1      35.143  24.013  23.026  1.00  0.00    -0.275 OA
ATOM     11  H   UNL A   1      34.182  22.148  23.853  1.00  0.00     0.164 HD
BRANCH   9  12
ATOM     12  C   UNL A   1      34.342  25.333  24.822  1.00  0.00     0.141 C 
BRANCH  12  13
ATOM     13  C   UNL A   1      33.424  26.393  24.230  1.00  0.00     0.239 C 
BRANCH  13  14
ATOM     14  O   UNL A   1      33.856  27.734  24.365  1.00  0.00    -0.493 OA
BRANCH  14  15
ATOM     15  C   UNL A   1      33.223  28.668  25.131  1.00  0.00     0.122 A 
ATOM     16  C   UNL A   1      34.706  28.944  27.268  1.00  0.00     0.048 C 
ATOM     17  C   UNL A   1      33.597  29.308  26.321  1.00  0.00    -0.009 A 
ATOM     18  C   UNL A   1      32.788  30.378  26.784  1.00  0.00     0.007 A 
ATOM     19  C   UNL A   1      31.628  30.777  26.125  1.00  0.00     0.001 A 
ATOM     20  C   UNL A   1      32.000  29.032  24.527  1.00  0.00     0.047 A 
ATOM     21  C   UNL A   1      31.214  30.080  25.005  1.00  0.00     0.004 A 
ENDBRANCH  14  15
ENDBRANCH  13  14
ENDBRANCH  12  13
ENDBRANCH   9  12
ENDBRANCH   6   8
BRANCH   6  22
ATOM     22  C   UNL A   1      32.110  23.368  26.062  1.00  0.00     0.024 C 
ATOM     23  C   UNL A   1      30.904  23.783  25.222  1.00  0.00     0.007 C 
ATOM     24  C   UNL A   1      30.703  22.952  26.451  1.00  0.00     0.007 C 
ENDBRANCH   6  22
ENDBRANCH   3   6
ENDBRANCH   1   2
BRANCH   1  25
ATOM     25  C   UNL A   1      37.326  21.418  24.716  1.00  0.00     0.042 C 
BRANCH  25  26
ATOM     26  C   UNL A   1      38.049  22.365  25.658  1.00  0.00     0.118 C 
BRANCH  26  27
ATOM     27  N   UNL A   1      39.404  21.944  26.017  1.00  0.00    -0.352 N 
ATOM     28  C   UNL A   1      40.450  22.737  26.464  1.00  0.00     0.251 C 
ATOM     29  H   UNL A   1      39.595  20.982  25.931  1.00  0.00     0.163 HD
ATOM     30  O   UNL A   1      41.575  22.277  26.624  1.00  0.00    -0.269 OA
BRANCH  28  31
ATOM     31  C   UNL A   1      40.147  24.145  26.800  1.00  0.00     0.039 A 
ATOM     32  C   UNL A   1      40.569  25.150  25.925  1.00  0.00     0.014 A 
ATOM     33  C   UNL A   1      39.732  24.450  28.090  1.00  0.00     0.014 A 
ATOM     34  C   UNL A   1      40.784  26.436  26.418  1.00  0.00     0.010 A 
ATOM     35  C   UNL A   1      40.089  25.675  28.610  1.00  0.00     0.010 A 
ATOM     36  C   UNL A   1      40.651  26.662  27.786  1.00  0.00    -0.014 A 
BRANCH  36  37
ATOM     37  C   UNL A   1      41.103  27.860  28.488  1.00  0.00     0.031 A 
ATOM     38  C   UNL A   1      40.137  28.963  28.733  1.00  0.00     0.074 A 
ATOM     39  C   UNL A   1      42.324  27.894  29.070  1.00  0.00     0.049 A 
ATOM     40  N   UNL A   1      40.451  30.135  29.172  1.00  0.00    -0.248 NA
ATOM     41  C   UNL A   1      38.712  28.841  28.427  1.00  0.00     0.031 C 
ATOM     42  C   UNL A   1      42.749  28.784  30.150  1.00  0.00     0.029 A 
ATOM     43  N   UNL A   1      43.511  27.278  28.666  1.00  0.00    -0.354 N 
ATOM     44  C   UNL A   1      39.281  30.776  29.515  1.00  0.00     0.074 A 
ATOM     45  C   UNL A   1      38.234  29.983  28.925  1.00  0.00     0.031 C 
ATOM     46  C   UNL A   1      44.085  28.893  30.120  1.00  0.00     0.029 A 
ATOM     47  C   UNL A   1      44.537  28.205  28.924  1.00  0.00     0.049 A 
ATOM     48  H   UNL A   1      43.610  26.377  28.280  1.00  0.00     0.167 HD
ATOM     49  C   UNL A   1      39.327  31.825  30.384  1.00  0.00     0.031 A 
ATOM     50  C   UNL A   1      45.341  28.755  27.966  1.00  0.00     0.031 A 
ATOM     51  C   UNL A   1      40.700  32.288  30.584  1.00  0.00     0.049 A 
ATOM     52  C   UNL A   1      45.282  30.268  27.934  1.00  0.00     0.074 A 
ATOM     53  C   UNL A   1      41.615  32.161  31.615  1.00  0.00     0.029 A 
ATOM     54  N   UNL A   1      41.409  32.768  29.486  1.00  0.00    -0.354 N 
ATOM     55  N   UNL A   1      44.365  30.975  28.533  1.00  0.00    -0.248 NA
ATOM     56  C   UNL A   1      46.220  31.103  27.188  1.00  0.00     0.031 C 
ATOM     57  C   UNL A   1      42.902  32.473  31.096  1.00  0.00     0.029 A 
ATOM     58  C   UNL A   1      42.760  32.826  29.764  1.00  0.00     0.049 A 
ATOM     59  H   UNL A   1      41.002  33.029  28.629  1.00  0.00     0.167 HD
ATOM     60  C   UNL A   1      44.549  32.305  28.264  1.00  0.00     0.074 A 
ATOM     61  C   UNL A   1      45.737  32.334  27.430  1.00  0.00     0.031 C 
ATOM     62  C   UNL A   1      43.697  33.262  28.736  1.00  0.00     0.031 A 
BRANCH  49  63
ATOM     63  C   UNL A   1      38.157  32.278  31.241  1.00  0.00    -0.014 A 
ATOM     64  C   UNL A   1      37.106  33.014  30.653  1.00  0.00     0.010 A 
ATOM     65  C   UNL A   1      38.074  32.115  32.638  1.00  0.00     0.010 A 
ATOM     66  C   UNL A   1      36.079  33.598  31.417  1.00  0.00     0.020 A 
ATOM     67  C   UNL A   1      37.056  32.687  33.415  1.00  0.00     0.020 A 
ATOM     68  C   UNL A   1      36.070  33.442  32.801  1.00  0.00     0.054 A 
BRANCH  68  69
ATOM     69  S   UNL A   1      34.784  34.245  33.791  1.00  0.00     0.124 S 
ATOM     70  O   UNL A   1      33.564  33.619  33.288  1.00  0.00    -0.237 OA
ATOM     71  O   UNL A   1      35.163  33.886  35.155  1.00  0.00    -0.237 OA
ATOM     72  O   UNL A   1      34.928  35.664  33.464  1.00  0.00    -0.744 OA
ENDBRANCH  68  69
ENDBRANCH  49  63
BRANCH  50  73
ATOM     73  C   UNL A   1      45.572  27.880  26.784  1.00  0.00    -0.014 A 
ATOM     74  C   UNL A   1      46.572  26.893  26.910  1.00  0.00     0.010 A 
ATOM     75  C   UNL A   1      44.557  27.710  25.825  1.00  0.00     0.010 A 
ATOM     76  C   UNL A   1      46.440  25.669  26.252  1.00  0.00     0.020 A 
ATOM     77  C   UNL A   1      44.431  26.485  25.156  1.00  0.00     0.020 A 
ATOM     78  C   UNL A   1      45.325  25.449  25.443  1.00  0.00     0.054 A 
BRANCH  78  79
ATOM     79  S   UNL A   1      44.933  23.732  24.990  1.00  0.00     0.124 S 
ATOM     80  O   UNL A   1      43.518  23.811  24.645  1.00  0.00    -0.237 OA
ATOM     81  O   UNL A   1      45.846  23.511  23.871  1.00  0.00    -0.237 OA
ATOM     82  O   UNL A   1      45.245  22.985  26.206  1.00  0.00    -0.744 OA
ENDBRANCH  78  79
ENDBRANCH  50  73
BRANCH  62  83
ATOM     83  C   UNL A   1      43.684  34.719  28.329  1.00  0.00    -0.014 A 
ATOM     84  C   UNL A   1      43.824  35.172  27.008  1.00  0.00     0.010 A 
ATOM     85  C   UNL A   1      43.385  35.695  29.309  1.00  0.00     0.010 A 
ATOM     86  C   UNL A   1      43.739  36.537  26.692  1.00  0.00     0.020 A 
ATOM     87  C   UNL A   1      43.252  37.052  29.000  1.00  0.00     0.020 A 
ATOM     88  C   UNL A   1      43.458  37.469  27.691  1.00  0.00     0.054 A 
BRANCH  88  89
ATOM     89  S   UNL A   1      43.287  39.222  27.266  1.00  0.00     0.124 S 
ATOM     90  O   UNL A   1      42.051  39.223  26.488  1.00  0.00    -0.237 OA
ATOM     91  O   UNL A   1      43.203  39.871  28.573  1.00  0.00    -0.237 OA
ATOM     92  O   UNL A   1      44.506  39.510  26.514  1.00  0.00    -0.744 OA
ENDBRANCH  88  89
ENDBRANCH  62  83
ENDBRANCH  36  37
ENDBRANCH  28  31
ENDBRANCH  26  27
ENDBRANCH  25  26
ENDBRANCH   1  25
TORSDOF 19
ENDMDL
