MODEL 1
REMARK VINA RESULT:     -10.8      0.000      0.000
REMARK SMILES O=C(NCCCNC(=O)c1ccc(-c2c(F)cccc2F)cn1)c1ccc(-c2c3nc(c(-c4ccc(S(=O)(=O)[O-])cc4)c4ccc([nH]4)c(-c4ccc(S(=O)(=O)[O-])cc4)c4nc(c(-c5ccc(S(=O)(=O)[O-])cc5)c5ccc2[nH]5)C=C4)C=C3)cc1
REMARK SMILES IDX 4 1 3 2 1 3 2 4 24 6 25 7 83 8 26 9 82 10 27 11 28 12 29 13
REMARK SMILES IDX 76 14 30 15 81 16 75 17 77 18 31 19 80 20 74 21 73 22 32 24
REMARK SMILES IDX 62 25 43 26 61 27 44 28 47 29 60 30 78 31 45 32 46 33 59 35
REMARK SMILES IDX 79 36 48 37 33 38 34 39 42 40 35 41 41 42 36 43 37 44 38 45
REMARK SMILES IDX 39 46 40 47 63 48 64 49 72 50 65 51 71 52 66 53 67 54 68 55
REMARK SMILES IDX 69 56 70 57 49 58 50 59 58 60 51 61 57 62 52 63 53 64 54 65
REMARK SMILES IDX 55 66 56 67 5 68 6 69 7 70 8 71 9 73 10 74 11 75 23 76 12 77
REMARK SMILES IDX 22 78 13 79 14 80 15 81 20 82 16 83 17 84 19 85 21 86 18 87
REMARK H PARENT 3 5 77 23 47 34 7 72
REMARK Flexibility Score: inf
ROOT
ATOM      1  C   UNL A   1      34.413  32.679  28.689  1.00  0.00     0.118 C 
ENDROOT
BRANCH   1   2
ATOM      2  N   UNL A   1      33.782  31.460  28.196  1.00  0.00    -0.352 N 
ATOM      3  O   UNL A   1      33.638  29.409  27.287  1.00  0.00    -0.269 OA
ATOM      4  C   UNL A   1      34.327  30.241  27.877  1.00  0.00     0.251 C 
ATOM      5  H   UNL A   1      32.807  31.521  28.073  1.00  0.00     0.163 HD
BRANCH   4   6
ATOM      6  C   UNL A   1      35.731  29.929  28.221  1.00  0.00     0.039 A 
ATOM      7  C   UNL A   1      36.757  30.141  27.300  1.00  0.00     0.014 A 
ATOM      8  C   UNL A   1      36.034  29.451  29.501  1.00  0.00     0.014 A 
ATOM      9  C   UNL A   1      38.049  29.725  27.592  1.00  0.00     0.010 A 
ATOM     10  C   UNL A   1      37.355  29.130  29.831  1.00  0.00     0.010 A 
ATOM     11  C   UNL A   1      38.370  29.237  28.869  1.00  0.00    -0.014 A 
BRANCH  11  12
ATOM     12  C   UNL A   1      39.788  28.929  29.187  1.00  0.00     0.031 A 
ATOM     13  C   UNL A   1      40.414  27.620  28.787  1.00  0.00     0.074 A 
ATOM     14  C   UNL A   1      40.523  29.869  29.815  1.00  0.00     0.049 A 
ATOM     15  N   UNL A   1      41.645  27.213  28.965  1.00  0.00    -0.248 NA
ATOM     16  C   UNL A   1      39.553  26.639  28.106  1.00  0.00     0.031 C 
ATOM     17  C   UNL A   1      40.021  31.173  30.262  1.00  0.00     0.029 A 
ATOM     18  N   UNL A   1      41.847  29.888  30.170  1.00  0.00    -0.354 N 
ATOM     19  C   UNL A   1      41.703  25.927  28.443  1.00  0.00     0.074 A 
ATOM     20  C   UNL A   1      40.378  25.611  27.955  1.00  0.00     0.031 C 
ATOM     21  C   UNL A   1      41.033  31.883  30.778  1.00  0.00     0.029 A 
ATOM     22  C   UNL A   1      42.239  31.064  30.768  1.00  0.00     0.049 A 
ATOM     23  H   UNL A   1      42.459  29.133  30.013  1.00  0.00     0.167 HD
ATOM     24  C   UNL A   1      42.767  25.090  28.373  1.00  0.00     0.031 A 
ATOM     25  C   UNL A   1      43.429  31.439  31.270  1.00  0.00     0.031 A 
ATOM     26  C   UNL A   1      44.086  25.416  28.853  1.00  0.00     0.049 A 
ATOM     27  C   UNL A   1      44.582  30.482  31.197  1.00  0.00     0.074 A 
ATOM     28  C   UNL A   1      45.236  24.645  28.796  1.00  0.00     0.029 A 
ATOM     29  N   UNL A   1      44.433  26.603  29.480  1.00  0.00    -0.354 N 
ATOM     30  N   UNL A   1      44.622  29.282  30.668  1.00  0.00    -0.248 NA
ATOM     31  C   UNL A   1      45.850  30.927  31.790  1.00  0.00     0.031 C 
ATOM     32  C   UNL A   1      46.265  25.348  29.432  1.00  0.00     0.029 A 
ATOM     33  C   UNL A   1      45.771  26.577  29.836  1.00  0.00     0.049 A 
ATOM     34  H   UNL A   1      43.819  27.355  29.645  1.00  0.00     0.167 HD
ATOM     35  C   UNL A   1      45.923  28.834  30.851  1.00  0.00     0.074 A 
ATOM     36  C   UNL A   1      46.644  29.901  31.518  1.00  0.00     0.031 C 
ATOM     37  C   UNL A   1      46.472  27.645  30.502  1.00  0.00     0.031 A 
BRANCH  24  38
ATOM     38  C   UNL A   1      42.553  23.724  27.776  1.00  0.00    -0.014 A 
ATOM     39  C   UNL A   1      42.834  23.467  26.422  1.00  0.00     0.010 A 
ATOM     40  C   UNL A   1      42.142  22.661  28.602  1.00  0.00     0.010 A 
ATOM     41  C   UNL A   1      42.685  22.177  25.900  1.00  0.00     0.020 A 
ATOM     42  C   UNL A   1      42.014  21.365  28.090  1.00  0.00     0.020 A 
ATOM     43  C   UNL A   1      42.275  21.135  26.738  1.00  0.00     0.054 A 
BRANCH  43  44
ATOM     44  S   UNL A   1      42.132  19.465  26.043  1.00  0.00     0.124 S 
ATOM     45  O   UNL A   1      42.676  18.643  27.122  1.00  0.00    -0.237 OA
ATOM     46  O   UNL A   1      40.695  19.332  25.819  1.00  0.00    -0.237 OA
ATOM     47  O   UNL A   1      42.946  19.520  24.831  1.00  0.00    -0.744 OA
ENDBRANCH  43  44
ENDBRANCH  24  38
BRANCH  25  48
ATOM     48  C   UNL A   1      43.575  32.774  31.910  1.00  0.00    -0.014 A 
ATOM     49  C   UNL A   1      43.956  33.897  31.157  1.00  0.00     0.010 A 
ATOM     50  C   UNL A   1      43.317  32.927  33.286  1.00  0.00     0.010 A 
ATOM     51  C   UNL A   1      44.101  35.144  31.773  1.00  0.00     0.020 A 
ATOM     52  C   UNL A   1      43.429  34.176  33.897  1.00  0.00     0.020 A 
ATOM     53  C   UNL A   1      43.837  35.275  33.140  1.00  0.00     0.054 A 
BRANCH  53  54
ATOM     54  S   UNL A   1      43.994  36.908  33.913  1.00  0.00     0.124 S 
ATOM     55  O   UNL A   1      45.398  36.918  34.314  1.00  0.00    -0.237 OA
ATOM     56  O   UNL A   1      43.641  37.812  32.822  1.00  0.00    -0.237 OA
ATOM     57  O   UNL A   1      43.029  36.860  35.008  1.00  0.00    -0.744 OA
ENDBRANCH  53  54
ENDBRANCH  25  48
BRANCH  37  58
ATOM     58  C   UNL A   1      47.930  27.447  30.811  1.00  0.00    -0.014 A 
ATOM     59  C   UNL A   1      48.341  26.756  31.964  1.00  0.00     0.010 A 
ATOM     60  C   UNL A   1      48.901  27.928  29.913  1.00  0.00     0.010 A 
ATOM     61  C   UNL A   1      49.701  26.579  32.232  1.00  0.00     0.020 A 
ATOM     62  C   UNL A   1      50.261  27.730  30.166  1.00  0.00     0.020 A 
ATOM     63  C   UNL A   1      50.652  27.069  31.332  1.00  0.00     0.054 A 
BRANCH  63  64
ATOM     64  S   UNL A   1      52.410  26.796  31.683  1.00  0.00     0.124 S 
ATOM     65  O   UNL A   1      52.366  26.216  33.021  1.00  0.00    -0.237 OA
ATOM     66  O   UNL A   1      52.812  25.883  30.614  1.00  0.00    -0.237 OA
ATOM     67  O   UNL A   1      52.992  28.134  31.601  1.00  0.00    -0.744 OA
ENDBRANCH  63  64
ENDBRANCH  37  58
ENDBRANCH  11  12
ENDBRANCH   4   6
ENDBRANCH   1   2
BRANCH   1  68
ATOM     68  C   UNL A   1      33.557  33.916  28.456  1.00  0.00     0.042 C 
BRANCH  68  69
ATOM     69  C   UNL A   1      34.130  35.181  29.075  1.00  0.00     0.118 C 
BRANCH  69  70
ATOM     70  N   UNL A   1      33.159  35.893  29.894  1.00  0.00    -0.351 N 
ATOM     71  C   UNL A   1      32.957  35.821  31.256  1.00  0.00     0.269 C 
ATOM     72  H   UNL A   1      32.564  36.509  29.408  1.00  0.00     0.163 HD
ATOM     73  O   UNL A   1      32.017  36.420  31.769  1.00  0.00    -0.268 OA
BRANCH  71  74
ATOM     74  C   UNL A   1      33.917  35.047  32.085  1.00  0.00     0.128 A 
ATOM     75  C   UNL A   1      35.042  35.684  32.589  1.00  0.00     0.035 A 
ATOM     76  N   UNL A   1      33.663  33.727  32.240  1.00  0.00    -0.250 NA
ATOM     77  C   UNL A   1      36.002  34.907  33.229  1.00  0.00     0.013 A 
ATOM     78  C   UNL A   1      34.610  33.008  32.890  1.00  0.00     0.120 A 
ATOM     79  C   UNL A   1      35.811  33.527  33.387  1.00  0.00     0.006 A 
BRANCH  79  80
ATOM     80  C   UNL A   1      36.841  32.676  34.002  1.00  0.00     0.055 A 
ATOM     81  C   UNL A   1      37.537  31.704  33.267  1.00  0.00     0.134 A 
ATOM     82  C   UNL A   1      37.148  32.764  35.368  1.00  0.00     0.134 A 
ATOM     83  F   UNL A   1      37.309  31.559  31.952  1.00  0.00    -0.206 F 
ATOM     84  C   UNL A   1      38.478  30.858  33.858  1.00  0.00     0.040 A 
ATOM     85  C   UNL A   1      38.085  31.926  35.975  1.00  0.00     0.040 A 
ATOM     86  F   UNL A   1      36.516  33.660  36.144  1.00  0.00    -0.206 F 
ATOM     87  C   UNL A   1      38.751  30.967  35.219  1.00  0.00     0.006 A 
ENDBRANCH  79  80
ENDBRANCH  71  74
ENDBRANCH  69  70
ENDBRANCH  68  69
ENDBRANCH   1  68
TORSDOF 14
ENDMDL
MODEL 2
REMARK VINA RESULT:     -10.8      0.396      8.351
REMARK SMILES O=C(NCCCNC(=O)c1ccc(-c2c(F)cccc2F)cn1)c1ccc(-c2c3nc(c(-c4ccc(S(=O)(=O)[O-])cc4)c4ccc([nH]4)c(-c4ccc(S(=O)(=O)[O-])cc4)c4nc(c(-c5ccc(S(=O)(=O)[O-])cc5)c5ccc2[nH]5)C=C4)C=C3)cc1
REMARK SMILES IDX 4 1 3 2 1 3 2 4 24 6 25 7 83 8 26 9 82 10 27 11 28 12 29 13
REMARK SMILES IDX 76 14 30 15 81 16 75 17 77 18 31 19 80 20 74 21 73 22 32 24
REMARK SMILES IDX 62 25 43 26 61 27 44 28 47 29 60 30 78 31 45 32 46 33 59 35
REMARK SMILES IDX 79 36 48 37 33 38 34 39 42 40 35 41 41 42 36 43 37 44 38 45
REMARK SMILES IDX 39 46 40 47 63 48 64 49 72 50 65 51 71 52 66 53 67 54 68 55
REMARK SMILES IDX 69 56 70 57 49 58 50 59 58 60 51 61 57 62 52 63 53 64 54 65
REMARK SMILES IDX 55 66 56 67 5 68 6 69 7 70 8 71 9 73 10 74 11 75 23 76 12 77
REMARK SMILES IDX 22 78 13 79 14 80 15 81 20 82 16 83 17 84 19 85 21 86 18 87
REMARK H PARENT 3 5 77 23 47 34 7 72
REMARK Flexibility Score: inf
ROOT
ATOM      1  C   UNL A   1      34.505  32.669  28.214  1.00  0.00     0.118 C 
ENDROOT
BRANCH   1   2
ATOM      2  N   UNL A   1      33.827  31.404  27.956  1.00  0.00    -0.352 N 
ATOM      3  O   UNL A   1      33.598  29.237  27.403  1.00  0.00    -0.269 OA
ATOM      4  C   UNL A   1      34.331  30.134  27.818  1.00  0.00     0.251 C 
ATOM      5  H   UNL A   1      32.848  31.471  27.868  1.00  0.00     0.163 HD
BRANCH   4   6
ATOM      6  C   UNL A   1      35.743  29.844  28.147  1.00  0.00     0.039 A 
ATOM      7  C   UNL A   1      36.756  30.071  27.215  1.00  0.00     0.014 A 
ATOM      8  C   UNL A   1      36.067  29.370  29.424  1.00  0.00     0.014 A 
ATOM      9  C   UNL A   1      38.058  29.674  27.494  1.00  0.00     0.010 A 
ATOM     10  C   UNL A   1      37.396  29.070  29.740  1.00  0.00     0.010 A 
ATOM     11  C   UNL A   1      38.400  29.192  28.767  1.00  0.00    -0.014 A 
BRANCH  11  12
ATOM     12  C   UNL A   1      39.825  28.905  29.070  1.00  0.00     0.031 A 
ATOM     13  C   UNL A   1      40.697  29.917  29.765  1.00  0.00     0.074 A 
ATOM     14  C   UNL A   1      40.320  27.695  28.740  1.00  0.00     0.049 A 
ATOM     15  N   UNL A   1      41.950  29.806  30.125  1.00  0.00    -0.248 NA
ATOM     16  C   UNL A   1      40.093  31.218  30.093  1.00  0.00     0.031 C 
ATOM     17  C   UNL A   1      39.571  26.636  28.054  1.00  0.00     0.029 A 
ATOM     18  N   UNL A   1      41.555  27.139  28.952  1.00  0.00    -0.354 N 
ATOM     19  C   UNL A   1      42.292  31.024  30.700  1.00  0.00     0.074 A 
ATOM     20  C   UNL A   1      41.120  31.868  30.626  1.00  0.00     0.031 C 
ATOM     21  C   UNL A   1      40.342  25.545  27.952  1.00  0.00     0.029 A 
ATOM     22  C   UNL A   1      41.660  25.845  28.498  1.00  0.00     0.049 A 
ATOM     23  H   UNL A   1      42.295  27.619  29.388  1.00  0.00     0.167 HD
ATOM     24  C   UNL A   1      43.476  31.400  31.243  1.00  0.00     0.031 A 
ATOM     25  C   UNL A   1      42.703  24.995  28.501  1.00  0.00     0.031 A 
ATOM     26  C   UNL A   1      44.637  30.550  31.321  1.00  0.00     0.049 A 
ATOM     27  C   UNL A   1      44.006  25.449  29.091  1.00  0.00     0.074 A 
ATOM     28  C   UNL A   1      45.871  30.831  31.884  1.00  0.00     0.029 A 
ATOM     29  N   UNL A   1      44.712  29.259  30.822  1.00  0.00    -0.354 N 
ATOM     30  N   UNL A   1      44.297  26.594  29.658  1.00  0.00    -0.248 NA
ATOM     31  C   UNL A   1      45.123  24.495  29.038  1.00  0.00     0.031 C 
ATOM     32  C   UNL A   1      46.706  29.727  31.681  1.00  0.00     0.029 A 
ATOM     33  C   UNL A   1      45.976  28.739  31.041  1.00  0.00     0.049 A 
ATOM     34  H   UNL A   1      43.973  28.781  30.378  1.00  0.00     0.167 HD
ATOM     35  C   UNL A   1      45.626  26.495  30.046  1.00  0.00     0.074 A 
ATOM     36  C   UNL A   1      46.076  25.169  29.668  1.00  0.00     0.031 C 
ATOM     37  C   UNL A   1      46.407  27.420  30.656  1.00  0.00     0.031 A 
BRANCH  24  38
ATOM     38  C   UNL A   1      43.593  32.803  31.781  1.00  0.00    -0.014 A 
ATOM     39  C   UNL A   1      43.947  33.877  30.945  1.00  0.00     0.010 A 
ATOM     40  C   UNL A   1      43.263  33.061  33.124  1.00  0.00     0.010 A 
ATOM     41  C   UNL A   1      43.992  35.181  31.450  1.00  0.00     0.020 A 
ATOM     42  C   UNL A   1      43.285  34.366  33.628  1.00  0.00     0.020 A 
ATOM     43  C   UNL A   1      43.661  35.417  32.789  1.00  0.00     0.054 A 
BRANCH  43  44
ATOM     44  S   UNL A   1      43.687  37.123  33.405  1.00  0.00     0.124 S 
ATOM     45  O   UNL A   1      43.733  37.891  32.163  1.00  0.00    -0.237 OA
ATOM     46  O   UNL A   1      42.434  37.214  34.152  1.00  0.00    -0.237 OA
ATOM     47  O   UNL A   1      44.899  37.182  34.219  1.00  0.00    -0.744 OA
ENDBRANCH  43  44
ENDBRANCH  24  38
BRANCH  25  48
ATOM     48  C   UNL A   1      42.558  23.643  27.898  1.00  0.00    -0.014 A 
ATOM     49  C   UNL A   1      42.094  22.559  28.662  1.00  0.00     0.010 A 
ATOM     50  C   UNL A   1      42.876  23.439  26.541  1.00  0.00     0.010 A 
ATOM     51  C   UNL A   1      41.974  21.290  28.088  1.00  0.00     0.020 A 
ATOM     52  C   UNL A   1      42.727  22.180  25.957  1.00  0.00     0.020 A 
ATOM     53  C   UNL A   1      42.292  21.109  26.738  1.00  0.00     0.054 A 
BRANCH  53  54
ATOM     54  S   UNL A   1      42.093  19.464  26.001  1.00  0.00     0.124 S 
ATOM     55  O   UNL A   1      42.595  18.596  27.062  1.00  0.00    -0.237 OA
ATOM     56  O   UNL A   1      40.655  19.398  25.754  1.00  0.00    -0.237 OA
ATOM     57  O   UNL A   1      42.920  19.528  24.798  1.00  0.00    -0.744 OA
ENDBRANCH  53  54
ENDBRANCH  25  48
BRANCH  37  58
ATOM     58  C   UNL A   1      47.820  27.017  30.977  1.00  0.00    -0.014 A 
ATOM     59  C   UNL A   1      48.873  27.282  30.082  1.00  0.00     0.010 A 
ATOM     60  C   UNL A   1      48.103  26.400  32.209  1.00  0.00     0.010 A 
ATOM     61  C   UNL A   1      50.179  26.904  30.400  1.00  0.00     0.020 A 
ATOM     62  C   UNL A   1      49.413  26.044  32.540  1.00  0.00     0.020 A 
ATOM     63  C   UNL A   1      50.441  26.285  31.626  1.00  0.00     0.054 A 
BRANCH  63  64
ATOM     64  S   UNL A   1      52.150  25.836  32.032  1.00  0.00     0.124 S 
ATOM     65  O   UNL A   1      52.387  26.611  33.246  1.00  0.00    -0.237 OA
ATOM     66  O   UNL A   1      52.067  24.389  32.216  1.00  0.00    -0.237 OA
ATOM     67  O   UNL A   1      52.909  26.265  30.859  1.00  0.00    -0.744 OA
ENDBRANCH  63  64
ENDBRANCH  37  58
ENDBRANCH  11  12
ENDBRANCH   4   6
ENDBRANCH   1   2
BRANCH   1  68
ATOM     68  C   UNL A   1      33.534  33.826  28.405  1.00  0.00     0.042 C 
BRANCH  68  69
ATOM     69  C   UNL A   1      34.164  35.053  29.044  1.00  0.00     0.118 C 
BRANCH  69  70
ATOM     70  N   UNL A   1      33.216  35.815  29.845  1.00  0.00    -0.351 N 
ATOM     71  C   UNL A   1      33.020  35.791  31.209  1.00  0.00     0.269 C 
ATOM     72  H   UNL A   1      32.636  36.431  29.342  1.00  0.00     0.163 HD
ATOM     73  O   UNL A   1      32.099  36.430  31.708  1.00  0.00    -0.268 OA
BRANCH  71  74
ATOM     74  C   UNL A   1      33.963  35.017  32.058  1.00  0.00     0.128 A 
ATOM     75  C   UNL A   1      35.118  35.633  32.519  1.00  0.00     0.035 A 
ATOM     76  N   UNL A   1      33.664  33.716  32.273  1.00  0.00    -0.250 NA
ATOM     77  C   UNL A   1      36.059  34.848  33.179  1.00  0.00     0.013 A 
ATOM     78  C   UNL A   1      34.593  32.990  32.940  1.00  0.00     0.120 A 
ATOM     79  C   UNL A   1      35.820  33.484  33.398  1.00  0.00     0.006 A 
BRANCH  79  80
ATOM     80  C   UNL A   1      36.828  32.623  34.035  1.00  0.00     0.055 A 
ATOM     81  C   UNL A   1      37.494  31.612  33.326  1.00  0.00     0.134 A 
ATOM     82  C   UNL A   1      37.141  32.741  35.397  1.00  0.00     0.134 A 
ATOM     83  F   UNL A   1      37.259  31.436  32.016  1.00  0.00    -0.206 F 
ATOM     84  C   UNL A   1      38.413  30.756  33.939  1.00  0.00     0.040 A 
ATOM     85  C   UNL A   1      38.056  31.894  36.026  1.00  0.00     0.040 A 
ATOM     86  F   UNL A   1      36.537  33.675  36.148  1.00  0.00    -0.206 F 
ATOM     87  C   UNL A   1      38.693  30.896  35.296  1.00  0.00     0.006 A 
ENDBRANCH  79  80
ENDBRANCH  71  74
ENDBRANCH  69  70
ENDBRANCH  68  69
ENDBRANCH   1  68
TORSDOF 14
ENDMDL
MODEL 3
REMARK VINA RESULT:     -10.6      4.473      7.140
REMARK SMILES O=C(NCCCNC(=O)c1ccc(-c2c(F)cccc2F)cn1)c1ccc(-c2c3nc(c(-c4ccc(S(=O)(=O)[O-])cc4)c4ccc([nH]4)c(-c4ccc(S(=O)(=O)[O-])cc4)c4nc(c(-c5ccc(S(=O)(=O)[O-])cc5)c5ccc2[nH]5)C=C4)C=C3)cc1
REMARK SMILES IDX 4 1 3 2 1 3 2 4 24 6 25 7 83 8 26 9 82 10 27 11 28 12 29 13
REMARK SMILES IDX 76 14 30 15 81 16 75 17 77 18 31 19 80 20 74 21 73 22 32 24
REMARK SMILES IDX 62 25 43 26 61 27 44 28 47 29 60 30 78 31 45 32 46 33 59 35
REMARK SMILES IDX 79 36 48 37 33 38 34 39 42 40 35 41 41 42 36 43 37 44 38 45
REMARK SMILES IDX 39 46 40 47 63 48 64 49 72 50 65 51 71 52 66 53 67 54 68 55
REMARK SMILES IDX 69 56 70 57 49 58 50 59 58 60 51 61 57 62 52 63 53 64 54 65
REMARK SMILES IDX 55 66 56 67 5 68 6 69 7 70 8 71 9 73 10 74 11 75 23 76 12 77
REMARK SMILES IDX 22 78 13 79 14 80 15 81 20 82 16 83 17 84 19 85 21 86 18 87
REMARK H PARENT 3 5 77 23 47 34 7 72
REMARK Flexibility Score: inf
ROOT
ATOM      1  C   UNL A   1      33.491  27.918  27.072  1.00  0.00     0.118 C 
ENDROOT
BRANCH   1   2
ATOM      2  N   UNL A   1      33.272  29.349  27.255  1.00  0.00    -0.352 N 
ATOM      3  O   UNL A   1      33.618  31.425  28.042  1.00  0.00    -0.269 OA
ATOM      4  C   UNL A   1      34.083  30.311  27.804  1.00  0.00     0.251 C 
ATOM      5  H   UNL A   1      32.402  29.677  26.932  1.00  0.00     0.163 HD
BRANCH   4   6
ATOM      6  C   UNL A   1      35.496  30.015  28.122  1.00  0.00     0.039 A 
ATOM      7  C   UNL A   1      36.493  30.163  27.156  1.00  0.00     0.014 A 
ATOM      8  C   UNL A   1      35.840  29.617  29.419  1.00  0.00     0.014 A 
ATOM      9  C   UNL A   1      37.793  29.759  27.433  1.00  0.00     0.010 A 
ATOM     10  C   UNL A   1      37.169  29.312  29.726  1.00  0.00     0.010 A 
ATOM     11  C   UNL A   1      38.153  29.352  28.728  1.00  0.00    -0.014 A 
BRANCH  11  12
ATOM     12  C   UNL A   1      39.580  29.058  29.019  1.00  0.00     0.031 A 
ATOM     13  C   UNL A   1      40.198  27.736  28.650  1.00  0.00     0.074 A 
ATOM     14  C   UNL A   1      40.329  30.021  29.594  1.00  0.00     0.049 A 
ATOM     15  N   UNL A   1      41.435  27.338  28.810  1.00  0.00    -0.248 NA
ATOM     16  C   UNL A   1      39.322  26.730  28.028  1.00  0.00     0.031 C 
ATOM     17  C   UNL A   1      39.836  31.340  30.006  1.00  0.00     0.029 A 
ATOM     18  N   UNL A   1      41.662  30.055  29.913  1.00  0.00    -0.354 N 
ATOM     19  C   UNL A   1      41.482  26.034  28.333  1.00  0.00     0.074 A 
ATOM     20  C   UNL A   1      40.146  25.699  27.892  1.00  0.00     0.031 C 
ATOM     21  C   UNL A   1      40.859  32.069  30.470  1.00  0.00     0.029 A 
ATOM     22  C   UNL A   1      42.066  31.252  30.457  1.00  0.00     0.049 A 
ATOM     23  H   UNL A   1      42.271  29.296  29.766  1.00  0.00     0.167 HD
ATOM     24  C   UNL A   1      42.546  25.196  28.265  1.00  0.00     0.031 A 
ATOM     25  C   UNL A   1      43.268  31.647  30.914  1.00  0.00     0.031 A 
ATOM     26  C   UNL A   1      43.876  25.542  28.698  1.00  0.00     0.049 A 
ATOM     27  C   UNL A   1      44.421  30.689  30.845  1.00  0.00     0.074 A 
ATOM     28  C   UNL A   1      45.026  24.771  28.638  1.00  0.00     0.029 A 
ATOM     29  N   UNL A   1      44.237  26.751  29.272  1.00  0.00    -0.354 N 
ATOM     30  N   UNL A   1      44.450  29.471  30.359  1.00  0.00    -0.248 NA
ATOM     31  C   UNL A   1      45.703  31.157  31.387  1.00  0.00     0.031 C 
ATOM     32  C   UNL A   1      46.070  25.497  29.222  1.00  0.00     0.029 A 
ATOM     33  C   UNL A   1      45.584  26.740  29.593  1.00  0.00     0.049 A 
ATOM     34  H   UNL A   1      43.625  27.508  29.427  1.00  0.00     0.167 HD
ATOM     35  C   UNL A   1      45.757  29.032  30.523  1.00  0.00     0.074 A 
ATOM     36  C   UNL A   1      46.492  30.123  31.132  1.00  0.00     0.031 C 
ATOM     37  C   UNL A   1      46.299  27.832  30.202  1.00  0.00     0.031 A 
BRANCH  24  38
ATOM     38  C   UNL A   1      42.319  23.809  27.723  1.00  0.00    -0.014 A 
ATOM     39  C   UNL A   1      42.334  23.555  26.340  1.00  0.00     0.010 A 
ATOM     40  C   UNL A   1      42.172  22.730  28.615  1.00  0.00     0.010 A 
ATOM     41  C   UNL A   1      42.181  22.250  25.858  1.00  0.00     0.020 A 
ATOM     42  C   UNL A   1      42.040  21.422  28.138  1.00  0.00     0.020 A 
ATOM     43  C   UNL A   1      42.034  21.192  26.761  1.00  0.00     0.054 A 
BRANCH  43  44
ATOM     44  S   UNL A   1      41.881  19.506  26.109  1.00  0.00     0.124 S 
ATOM     45  O   UNL A   1      40.448  19.418  25.838  1.00  0.00    -0.237 OA
ATOM     46  O   UNL A   1      42.741  19.539  24.928  1.00  0.00    -0.237 OA
ATOM     47  O   UNL A   1      42.361  18.664  27.203  1.00  0.00    -0.744 OA
ENDBRANCH  43  44
ENDBRANCH  24  38
BRANCH  25  48
ATOM     48  C   UNL A   1      43.427  33.004  31.502  1.00  0.00    -0.014 A 
ATOM     49  C   UNL A   1      43.889  34.077  30.722  1.00  0.00     0.010 A 
ATOM     50  C   UNL A   1      43.102  33.228  32.853  1.00  0.00     0.010 A 
ATOM     51  C   UNL A   1      44.045  35.346  31.289  1.00  0.00     0.020 A 
ATOM     52  C   UNL A   1      43.227  34.500  33.414  1.00  0.00     0.020 A 
ATOM     53  C   UNL A   1      43.714  35.549  32.632  1.00  0.00     0.054 A 
BRANCH  53  54
ATOM     54  S   UNL A   1      43.888  37.209  33.340  1.00  0.00     0.124 S 
ATOM     55  O   UNL A   1      45.188  37.121  33.998  1.00  0.00    -0.237 OA
ATOM     56  O   UNL A   1      43.831  38.066  32.159  1.00  0.00    -0.237 OA
ATOM     57  O   UNL A   1      42.738  37.320  34.235  1.00  0.00    -0.744 OA
ENDBRANCH  53  54
ENDBRANCH  25  48
BRANCH  37  58
ATOM     58  C   UNL A   1      47.765  27.648  30.479  1.00  0.00    -0.014 A 
ATOM     59  C   UNL A   1      48.212  27.099  31.695  1.00  0.00     0.010 A 
ATOM     60  C   UNL A   1      48.707  27.995  29.493  1.00  0.00     0.010 A 
ATOM     61  C   UNL A   1      49.578  26.932  31.932  1.00  0.00     0.020 A 
ATOM     62  C   UNL A   1      50.072  27.805  29.718  1.00  0.00     0.020 A 
ATOM     63  C   UNL A   1      50.500  27.288  30.943  1.00  0.00     0.054 A 
BRANCH  63  64
ATOM     64  S   UNL A   1      52.267  27.028  31.260  1.00  0.00     0.124 S 
ATOM     65  O   UNL A   1      52.258  25.788  32.030  1.00  0.00    -0.237 OA
ATOM     66  O   UNL A   1      52.823  26.928  29.912  1.00  0.00    -0.237 OA
ATOM     67  O   UNL A   1      52.664  28.222  32.003  1.00  0.00    -0.744 OA
ENDBRANCH  63  64
ENDBRANCH  37  58
ENDBRANCH  11  12
ENDBRANCH   4   6
ENDBRANCH   1   2
BRANCH   1  68
ATOM     68  C   UNL A   1      33.857  27.560  25.638  1.00  0.00     0.042 C 
BRANCH  68  69
ATOM     69  C   UNL A   1      32.659  27.221  24.767  1.00  0.00     0.118 C 
BRANCH  69  70
ATOM     70  N   UNL A   1      32.973  27.257  23.346  1.00  0.00    -0.351 N 
ATOM     71  C   UNL A   1      33.292  26.212  22.504  1.00  0.00     0.269 C 
ATOM     72  H   UNL A   1      32.956  28.149  22.930  1.00  0.00     0.163 HD
ATOM     73  O   UNL A   1      33.631  26.440  21.346  1.00  0.00    -0.268 OA
BRANCH  71  74
ATOM     74  C   UNL A   1      33.176  24.820  23.009  1.00  0.00     0.128 A 
ATOM     75  C   UNL A   1      34.330  24.120  23.331  1.00  0.00     0.035 A 
ATOM     76  N   UNL A   1      31.933  24.290  23.058  1.00  0.00    -0.250 NA
ATOM     77  C   UNL A   1      34.209  22.772  23.653  1.00  0.00     0.013 A 
ATOM     78  C   UNL A   1      31.853  22.981  23.399  1.00  0.00     0.120 A 
ATOM     79  C   UNL A   1      32.949  22.158  23.684  1.00  0.00     0.006 A 
BRANCH  79  80
ATOM     80  C   UNL A   1      32.803  20.720  23.958  1.00  0.00     0.055 A 
ATOM     81  C   UNL A   1      32.371  19.818  22.974  1.00  0.00     0.134 A 
ATOM     82  C   UNL A   1      33.047  20.186  25.231  1.00  0.00     0.134 A 
ATOM     83  F   UNL A   1      32.124  20.245  21.725  1.00  0.00    -0.206 F 
ATOM     84  C   UNL A   1      32.181  18.460  23.243  1.00  0.00     0.040 A 
ATOM     85  C   UNL A   1      32.861  18.832  25.518  1.00  0.00     0.040 A 
ATOM     86  F   UNL A   1      33.449  20.986  26.231  1.00  0.00    -0.206 F 
ATOM     87  C   UNL A   1      32.423  17.966  24.522  1.00  0.00     0.006 A 
ENDBRANCH  79  80
ENDBRANCH  71  74
ENDBRANCH  69  70
ENDBRANCH  68  69
ENDBRANCH   1  68
TORSDOF 14
ENDMDL
