MODEL 1
REMARK VINA RESULT:     -10.4      0.000      0.000
REMARK SMILES COc1ccc(Cl)c(C[C@H]([NH3+])C(=O)NCCCNC(=O)c2ccc(-c3c4nc(c(-c5ccc(S(=O)(=O)[O-])cc5)c5ccc([nH]5)c(-c5ccc(S(=O)(=O)[O-])cc5)c5nc(c(-c6ccc(S(=O)(=O)[O-])cc6)c6ccc3[nH]6)C=C5)C=C4)cc2)c1F
REMARK SMILES IDX 16 1 15 2 14 3 12 4 13 5 10 7 9 8 8 9 3 10 4 11 81 12 5 13
REMARK SMILES IDX 82 14 6 15 7 16 2 17 1 18 11 19 17 23 18 24 19 25 20 27
REMARK SMILES IDX 21 28 22 29 80 30 23 31 79 32 24 33 25 34 26 35 73 36 27 37
REMARK SMILES IDX 78 38 72 39 74 40 28 41 77 42 71 43 70 44 29 46 59 47 40 48
REMARK SMILES IDX 58 49 41 50 44 51 57 52 75 53 42 54 43 55 56 57 76 58 45 59
REMARK SMILES IDX 30 60 31 61 39 62 32 63 38 64 33 65 34 66 35 67 36 68 37 69
REMARK SMILES IDX 60 70 61 71 69 72 62 73 68 74 63 75 64 76 65 77 66 78 67 79
REMARK SMILES IDX 46 80 47 81 55 82 48 83 54 84 49 85 50 86 51 87 52 88 53 89
REMARK H PARENT 14 6 11 20 11 21 11 22 18 26 74 45 44 56
REMARK Flexibility Score: inf
ROOT
ATOM      1  C   UNL A   1      32.493  27.706  26.634  1.00  0.00     0.042 C 
ENDROOT
BRANCH   1   2
ATOM      2  C   UNL A   1      32.644  26.258  26.192  1.00  0.00     0.118 C 
BRANCH   2   3
ATOM      3  N   UNL A   1      31.541  25.443  26.668  1.00  0.00    -0.351 N 
ATOM      4  C   UNL A   1      31.459  24.104  26.904  1.00  0.00     0.278 C 
ATOM      5  O   UNL A   1      30.343  23.635  27.139  1.00  0.00    -0.268 OA
ATOM      6  H   UNL A   1      30.712  25.942  26.850  1.00  0.00     0.163 HD
BRANCH   4   7
ATOM      7  C   UNL A   1      32.708  23.199  26.849  1.00  0.00     0.275 C 
BRANCH   7   8
ATOM      8  C   UNL A   1      32.784  22.412  25.520  1.00  0.00     0.115 C 
BRANCH   8   9
ATOM      9  C   UNL A   1      34.117  22.510  24.813  1.00  0.00     0.017 A 
ATOM     10  C   UNL A   1      36.433  21.743  24.628  1.00  0.00     0.154 A 
ATOM     11  C   UNL A   1      36.643  22.618  23.566  1.00  0.00     0.051 A 
ATOM     12  C   UNL A   1      35.186  21.718  25.261  1.00  0.00     0.169 A 
ATOM     13  C   UNL A   1      35.594  23.405  23.095  1.00  0.00     0.025 A 
ATOM     14  F   UNL A   1      34.992  20.918  26.321  1.00  0.00    -0.203 F 
ATOM     15  C   UNL A   1      34.335  23.337  23.699  1.00  0.00     0.047 A 
ATOM     16  Cl  UNL A   1      33.071  24.272  22.988  1.00  0.00    -0.084 Cl
BRANCH  10  17
ATOM     17  O   UNL A   1      37.514  20.985  24.992  1.00  0.00    -0.494 OA
ATOM     18  C   UNL A   1      38.524  21.717  25.684  1.00  0.00     0.278 C 
ENDBRANCH  10  17
ENDBRANCH   8   9
ENDBRANCH   7   8
BRANCH   7  19
ATOM     19  N   UNL A   1      32.752  22.332  28.048  1.00  0.00    -0.347 N 
ATOM     20  H   UNL A   1      31.803  22.164  28.382  1.00  0.00     0.345 HD
ATOM     21  H   UNL A   1      33.294  22.792  28.780  1.00  0.00     0.345 HD
ATOM     22  H   UNL A   1      33.191  21.443  27.808  1.00  0.00     0.345 HD
ENDBRANCH   7  19
ENDBRANCH   4   7
ENDBRANCH   2   3
ENDBRANCH   1   2
BRANCH   1  23
ATOM     23  C   UNL A   1      33.756  28.535  26.436  1.00  0.00     0.118 C 
BRANCH  23  24
ATOM     24  N   UNL A   1      33.651  29.862  27.030  1.00  0.00    -0.352 N 
ATOM     25  C   UNL A   1      34.506  30.511  27.887  1.00  0.00     0.251 C 
ATOM     26  H   UNL A   1      32.846  30.370  26.780  1.00  0.00     0.163 HD
ATOM     27  O   UNL A   1      34.141  31.544  28.444  1.00  0.00    -0.269 OA
BRANCH  25  28
ATOM     28  C   UNL A   1      35.847  29.953  28.156  1.00  0.00     0.039 A 
ATOM     29  C   UNL A   1      36.810  29.984  27.144  1.00  0.00     0.014 A 
ATOM     30  C   UNL A   1      36.157  29.410  29.405  1.00  0.00     0.014 A 
ATOM     31  C   UNL A   1      38.108  29.549  27.415  1.00  0.00     0.010 A 
ATOM     32  C   UNL A   1      37.471  29.057  29.698  1.00  0.00     0.010 A 
ATOM     33  C   UNL A   1      38.461  29.129  28.708  1.00  0.00    -0.014 A 
BRANCH  33  34
ATOM     34  C   UNL A   1      39.864  28.786  29.055  1.00  0.00     0.031 A 
ATOM     35  C   UNL A   1      40.765  29.815  29.680  1.00  0.00     0.074 A 
ATOM     36  C   UNL A   1      40.347  27.569  28.732  1.00  0.00     0.049 A 
ATOM     37  N   UNL A   1      42.036  29.723  29.980  1.00  0.00    -0.248 NA
ATOM     38  C   UNL A   1      40.168  31.124  29.989  1.00  0.00     0.031 C 
ATOM     39  C   UNL A   1      39.585  26.497  28.085  1.00  0.00     0.029 A 
ATOM     40  N   UNL A   1      41.600  27.031  28.893  1.00  0.00    -0.354 N 
ATOM     41  C   UNL A   1      42.393  30.963  30.496  1.00  0.00     0.074 A 
ATOM     42  C   UNL A   1      41.218  31.805  30.424  1.00  0.00     0.031 C 
ATOM     43  C   UNL A   1      40.377  25.425  27.930  1.00  0.00     0.029 A 
ATOM     44  C   UNL A   1      41.714  25.746  28.417  1.00  0.00     0.049 A 
ATOM     45  H   UNL A   1      42.346  27.519  29.311  1.00  0.00     0.167 HD
ATOM     46  C   UNL A   1      43.585  31.360  31.001  1.00  0.00     0.031 A 
ATOM     47  C   UNL A   1      42.779  24.922  28.364  1.00  0.00     0.031 A 
ATOM     48  C   UNL A   1      44.750  30.518  31.073  1.00  0.00     0.049 A 
ATOM     49  C   UNL A   1      44.100  25.396  28.904  1.00  0.00     0.074 A 
ATOM     50  C   UNL A   1      45.988  30.810  31.618  1.00  0.00     0.029 A 
ATOM     51  N   UNL A   1      44.825  29.224  30.579  1.00  0.00    -0.354 N 
ATOM     52  N   UNL A   1      44.399  26.548  29.453  1.00  0.00    -0.248 NA
ATOM     53  C   UNL A   1      45.226  24.455  28.820  1.00  0.00     0.031 C 
ATOM     54  C   UNL A   1      46.831  29.714  31.400  1.00  0.00     0.029 A 
ATOM     55  C   UNL A   1      46.099  28.716  30.776  1.00  0.00     0.049 A 
ATOM     56  H   UNL A   1      44.083  28.738  30.151  1.00  0.00     0.167 HD
ATOM     57  C   UNL A   1      45.743  26.464  29.800  1.00  0.00     0.074 A 
ATOM     58  C   UNL A   1      46.191  25.141  29.418  1.00  0.00     0.031 C 
ATOM     59  C   UNL A   1      46.534  27.399  30.383  1.00  0.00     0.031 A 
BRANCH  46  60
ATOM     60  C   UNL A   1      43.692  32.775  31.507  1.00  0.00    -0.014 A 
ATOM     61  C   UNL A   1      43.411  33.091  32.849  1.00  0.00     0.010 A 
ATOM     62  C   UNL A   1      44.121  33.797  30.640  1.00  0.00     0.010 A 
ATOM     63  C   UNL A   1      43.515  34.408  33.303  1.00  0.00     0.020 A 
ATOM     64  C   UNL A   1      44.256  35.112  31.099  1.00  0.00     0.020 A 
ATOM     65  C   UNL A   1      43.936  35.411  32.424  1.00  0.00     0.054 A 
BRANCH  65  66
ATOM     66  S   UNL A   1      44.083  37.107  33.049  1.00  0.00     0.124 S 
ATOM     67  O   UNL A   1      44.014  37.889  31.817  1.00  0.00    -0.237 OA
ATOM     68  O   UNL A   1      42.927  37.224  33.932  1.00  0.00    -0.237 OA
ATOM     69  O   UNL A   1      45.380  37.119  33.721  1.00  0.00    -0.744 OA
ENDBRANCH  65  66
ENDBRANCH  46  60
BRANCH  47  70
ATOM     70  C   UNL A   1      42.636  23.559  27.777  1.00  0.00    -0.014 A 
ATOM     71  C   UNL A   1      43.080  23.294  26.470  1.00  0.00     0.010 A 
ATOM     72  C   UNL A   1      42.065  22.517  28.531  1.00  0.00     0.010 A 
ATOM     73  C   UNL A   1      42.941  22.016  25.921  1.00  0.00     0.020 A 
ATOM     74  C   UNL A   1      41.952  21.230  27.995  1.00  0.00     0.020 A 
ATOM     75  C   UNL A   1      42.380  20.991  26.689  1.00  0.00     0.054 A 
BRANCH  75  76
ATOM     76  S   UNL A   1      42.261  19.329  25.973  1.00  0.00     0.124 S 
ATOM     77  O   UNL A   1      42.836  18.502  27.029  1.00  0.00    -0.237 OA
ATOM     78  O   UNL A   1      40.823  19.179  25.762  1.00  0.00    -0.237 OA
ATOM     79  O   UNL A   1      43.055  19.425  24.750  1.00  0.00    -0.744 OA
ENDBRANCH  75  76
ENDBRANCH  47  70
BRANCH  59  80
ATOM     80  C   UNL A   1      47.965  27.020  30.660  1.00  0.00    -0.014 A 
ATOM     81  C   UNL A   1      48.997  27.375  29.774  1.00  0.00     0.010 A 
ATOM     82  C   UNL A   1      48.287  26.347  31.853  1.00  0.00     0.010 A 
ATOM     83  C   UNL A   1      50.322  27.039  30.063  1.00  0.00     0.020 A 
ATOM     84  C   UNL A   1      49.614  26.036  32.160  1.00  0.00     0.020 A 
ATOM     85  C   UNL A   1      50.622  26.373  31.256  1.00  0.00     0.054 A 
BRANCH  85  86
ATOM     86  S   UNL A   1      52.356  25.992  31.629  1.00  0.00     0.124 S 
ATOM     87  O   UNL A   1      52.259  24.643  32.180  1.00  0.00    -0.237 OA
ATOM     88  O   UNL A   1      52.994  26.092  30.318  1.00  0.00    -0.237 OA
ATOM     89  O   UNL A   1      52.741  27.029  32.583  1.00  0.00    -0.744 OA
ENDBRANCH  85  86
ENDBRANCH  59  80
ENDBRANCH  33  34
ENDBRANCH  25  28
ENDBRANCH  23  24
ENDBRANCH   1  23
TORSDOF 17
ENDMDL
MODEL 2
REMARK VINA RESULT:     -10.3      1.952      3.031
REMARK SMILES COc1ccc(Cl)c(C[C@H]([NH3+])C(=O)NCCCNC(=O)c2ccc(-c3c4nc(c(-c5ccc(S(=O)(=O)[O-])cc5)c5ccc([nH]5)c(-c5ccc(S(=O)(=O)[O-])cc5)c5nc(c(-c6ccc(S(=O)(=O)[O-])cc6)c6ccc3[nH]6)C=C5)C=C4)cc2)c1F
REMARK SMILES IDX 16 1 15 2 14 3 12 4 13 5 10 7 9 8 8 9 3 10 4 11 81 12 5 13
REMARK SMILES IDX 82 14 6 15 7 16 2 17 1 18 11 19 17 23 18 24 19 25 20 27
REMARK SMILES IDX 21 28 22 29 80 30 23 31 79 32 24 33 25 34 26 35 73 36 27 37
REMARK SMILES IDX 78 38 72 39 74 40 28 41 77 42 71 43 70 44 29 46 59 47 40 48
REMARK SMILES IDX 58 49 41 50 44 51 57 52 75 53 42 54 43 55 56 57 76 58 45 59
REMARK SMILES IDX 30 60 31 61 39 62 32 63 38 64 33 65 34 66 35 67 36 68 37 69
REMARK SMILES IDX 60 70 61 71 69 72 62 73 68 74 63 75 64 76 65 77 66 78 67 79
REMARK SMILES IDX 46 80 47 81 55 82 48 83 54 84 49 85 50 86 51 87 52 88 53 89
REMARK H PARENT 14 6 11 20 11 21 11 22 18 26 74 45 44 56
REMARK Flexibility Score: inf
ROOT
ATOM      1  C   UNL A   1      32.667  28.265  26.320  1.00  0.00     0.042 C 
ENDROOT
BRANCH   1   2
ATOM      2  C   UNL A   1      32.414  29.446  25.392  1.00  0.00     0.118 C 
BRANCH   2   3
ATOM      3  N   UNL A   1      33.091  29.271  24.119  1.00  0.00    -0.351 N 
ATOM      4  C   UNL A   1      32.605  28.942  22.890  1.00  0.00     0.278 C 
ATOM      5  O   UNL A   1      33.425  28.685  22.005  1.00  0.00    -0.268 OA
ATOM      6  H   UNL A   1      34.065  29.413  24.150  1.00  0.00     0.163 HD
BRANCH   4   7
ATOM      7  C   UNL A   1      31.089  28.863  22.618  1.00  0.00     0.275 C 
BRANCH   7   8
ATOM      8  C   UNL A   1      30.658  27.442  22.190  1.00  0.00     0.115 C 
BRANCH   8   9
ATOM      9  C   UNL A   1      31.146  26.340  23.104  1.00  0.00     0.017 A 
ATOM     10  C   UNL A   1      30.926  25.159  25.235  1.00  0.00     0.154 A 
ATOM     11  C   UNL A   1      31.980  24.319  24.883  1.00  0.00     0.051 A 
ATOM     12  C   UNL A   1      30.539  26.178  24.359  1.00  0.00     0.169 A 
ATOM     13  C   UNL A   1      32.590  24.452  23.637  1.00  0.00     0.025 A 
ATOM     14  F   UNL A   1      29.562  27.027  24.714  1.00  0.00    -0.203 F 
ATOM     15  C   UNL A   1      32.163  25.440  22.746  1.00  0.00     0.047 A 
ATOM     16  Cl  UNL A   1      32.907  25.467  21.189  1.00  0.00    -0.084 Cl
BRANCH  10  17
ATOM     17  O   UNL A   1      30.369  24.925  26.463  1.00  0.00    -0.494 OA
ATOM     18  C   UNL A   1      30.278  23.541  26.801  1.00  0.00     0.278 C 
ENDBRANCH  10  17
ENDBRANCH   8   9
ENDBRANCH   7   8
BRANCH   7  19
ATOM     19  N   UNL A   1      30.698  29.912  21.649  1.00  0.00    -0.347 N 
ATOM     20  H   UNL A   1      31.487  30.536  21.487  1.00  0.00     0.345 HD
ATOM     21  H   UNL A   1      29.913  30.445  22.023  1.00  0.00     0.345 HD
ATOM     22  H   UNL A   1      30.423  29.475  20.769  1.00  0.00     0.345 HD
ENDBRANCH   7  19
ENDBRANCH   4   7
ENDBRANCH   2   3
ENDBRANCH   1   2
BRANCH   1  23
ATOM     23  C   UNL A   1      33.639  28.582  27.450  1.00  0.00     0.118 C 
BRANCH  23  24
ATOM     24  N   UNL A   1      33.646  29.997  27.799  1.00  0.00    -0.352 N 
ATOM     25  C   UNL A   1      34.631  30.753  28.386  1.00  0.00     0.251 C 
ATOM     26  H   UNL A   1      32.819  30.486  27.581  1.00  0.00     0.163 HD
ATOM     27  O   UNL A   1      34.371  31.884  28.791  1.00  0.00    -0.269 OA
BRANCH  25  28
ATOM     28  C   UNL A   1      35.989  30.196  28.550  1.00  0.00     0.039 A 
ATOM     29  C   UNL A   1      36.851  30.174  27.452  1.00  0.00     0.014 A 
ATOM     30  C   UNL A   1      36.415  29.707  29.788  1.00  0.00     0.014 A 
ATOM     31  C   UNL A   1      38.168  29.740  27.617  1.00  0.00     0.010 A 
ATOM     32  C   UNL A   1      37.748  29.356  29.971  1.00  0.00     0.010 A 
ATOM     33  C   UNL A   1      38.641  29.375  28.889  1.00  0.00    -0.014 A 
BRANCH  33  34
ATOM     34  C   UNL A   1      40.069  29.036  29.116  1.00  0.00     0.031 A 
ATOM     35  C   UNL A   1      41.022  30.075  29.639  1.00  0.00     0.074 A 
ATOM     36  C   UNL A   1      40.521  27.812  28.776  1.00  0.00     0.049 A 
ATOM     37  N   UNL A   1      42.314  29.986  29.826  1.00  0.00    -0.248 NA
ATOM     38  C   UNL A   1      40.455  31.392  29.973  1.00  0.00     0.031 C 
ATOM     39  C   UNL A   1      39.703  26.729  28.221  1.00  0.00     0.029 A 
ATOM     40  N   UNL A   1      41.782  27.275  28.836  1.00  0.00    -0.354 N 
ATOM     41  C   UNL A   1      42.717  31.235  30.284  1.00  0.00     0.074 A 
ATOM     42  C   UNL A   1      41.540  32.079  30.300  1.00  0.00     0.031 C 
ATOM     43  C   UNL A   1      40.478  25.653  28.017  1.00  0.00     0.029 A 
ATOM     44  C   UNL A   1      41.853  25.980  28.377  1.00  0.00     0.049 A 
ATOM     45  H   UNL A   1      42.563  27.769  29.175  1.00  0.00     0.167 HD
ATOM     46  C   UNL A   1      43.949  31.639  30.672  1.00  0.00     0.031 A 
ATOM     47  C   UNL A   1      42.908  25.152  28.246  1.00  0.00     0.031 A 
ATOM     48  C   UNL A   1      45.116  30.796  30.657  1.00  0.00     0.049 A 
ATOM     49  C   UNL A   1      44.273  25.634  28.656  1.00  0.00     0.074 A 
ATOM     50  C   UNL A   1      46.398  31.096  31.084  1.00  0.00     0.029 A 
ATOM     51  N   UNL A   1      45.146  29.493  30.184  1.00  0.00    -0.354 N 
ATOM     52  N   UNL A   1      44.620  26.796  29.154  1.00  0.00    -0.248 NA
ATOM     53  C   UNL A   1      45.387  24.690  28.491  1.00  0.00     0.031 C 
ATOM     54  C   UNL A   1      47.217  29.994  30.813  1.00  0.00     0.029 A 
ATOM     55  C   UNL A   1      46.432  28.986  30.277  1.00  0.00     0.049 A 
ATOM     56  H   UNL A   1      44.369  29.001  29.834  1.00  0.00     0.167 HD
ATOM     57  C   UNL A   1      45.989  26.716  29.382  1.00  0.00     0.074 A 
ATOM     58  C   UNL A   1      46.401  25.385  28.987  1.00  0.00     0.031 C 
ATOM     59  C   UNL A   1      46.830  27.661  29.872  1.00  0.00     0.031 A 
BRANCH  46  60
ATOM     60  C   UNL A   1      44.102  33.064  31.139  1.00  0.00    -0.014 A 
ATOM     61  C   UNL A   1      43.950  33.406  32.495  1.00  0.00     0.010 A 
ATOM     62  C   UNL A   1      44.443  34.069  30.215  1.00  0.00     0.010 A 
ATOM     63  C   UNL A   1      44.095  34.731  32.912  1.00  0.00     0.020 A 
ATOM     64  C   UNL A   1      44.618  35.392  30.634  1.00  0.00     0.020 A 
ATOM     65  C   UNL A   1      44.427  35.717  31.978  1.00  0.00     0.054 A 
BRANCH  65  66
ATOM     66  S   UNL A   1      44.630  37.425  32.553  1.00  0.00     0.124 S 
ATOM     67  O   UNL A   1      44.902  38.133  31.305  1.00  0.00    -0.237 OA
ATOM     68  O   UNL A   1      43.337  37.711  33.168  1.00  0.00    -0.237 OA
ATOM     69  O   UNL A   1      45.755  37.347  33.481  1.00  0.00    -0.744 OA
ENDBRANCH  65  66
ENDBRANCH  46  60
BRANCH  47  70
ATOM     70  C   UNL A   1      42.713  23.779  27.701  1.00  0.00    -0.014 A 
ATOM     71  C   UNL A   1      42.873  23.526  26.328  1.00  0.00     0.010 A 
ATOM     72  C   UNL A   1      42.378  22.715  28.559  1.00  0.00     0.010 A 
ATOM     73  C   UNL A   1      42.685  22.237  25.819  1.00  0.00     0.020 A 
ATOM     74  C   UNL A   1      42.219  21.419  28.058  1.00  0.00     0.020 A 
ATOM     75  C   UNL A   1      42.363  21.191  26.689  1.00  0.00     0.054 A 
BRANCH  75  76
ATOM     76  S   UNL A   1      42.178  19.518  26.012  1.00  0.00     0.124 S 
ATOM     77  O   UNL A   1      42.651  18.691  27.117  1.00  0.00    -0.237 OA
ATOM     78  O   UNL A   1      40.746  19.446  25.735  1.00  0.00    -0.237 OA
ATOM     79  O   UNL A   1      43.034  19.532  24.828  1.00  0.00    -0.744 OA
ENDBRANCH  75  76
ENDBRANCH  47  70
BRANCH  59  80
ATOM     80  C   UNL A   1      48.280  27.284  30.029  1.00  0.00    -0.014 A 
ATOM     81  C   UNL A   1      49.215  27.556  29.017  1.00  0.00     0.010 A 
ATOM     82  C   UNL A   1      48.720  26.700  31.231  1.00  0.00     0.010 A 
ATOM     83  C   UNL A   1      50.562  27.224  29.192  1.00  0.00     0.020 A 
ATOM     84  C   UNL A   1      50.069  26.394  31.422  1.00  0.00     0.020 A 
ATOM     85  C   UNL A   1      50.980  26.647  30.395  1.00  0.00     0.054 A 
BRANCH  85  86
ATOM     86  S   UNL A   1      52.742  26.272  30.615  1.00  0.00     0.124 S 
ATOM     87  O   UNL A   1      53.252  27.525  31.165  1.00  0.00    -0.237 OA
ATOM     88  O   UNL A   1      52.714  25.143  31.542  1.00  0.00    -0.237 OA
ATOM     89  O   UNL A   1      53.199  25.951  29.265  1.00  0.00    -0.744 OA
ENDBRANCH  85  86
ENDBRANCH  59  80
ENDBRANCH  33  34
ENDBRANCH  25  28
ENDBRANCH  23  24
ENDBRANCH   1  23
TORSDOF 17
ENDMDL
MODEL 3
REMARK VINA RESULT:     -10.3      2.795      9.351
REMARK SMILES COc1ccc(Cl)c(C[C@H]([NH3+])C(=O)NCCCNC(=O)c2ccc(-c3c4nc(c(-c5ccc(S(=O)(=O)[O-])cc5)c5ccc([nH]5)c(-c5ccc(S(=O)(=O)[O-])cc5)c5nc(c(-c6ccc(S(=O)(=O)[O-])cc6)c6ccc3[nH]6)C=C5)C=C4)cc2)c1F
REMARK SMILES IDX 16 1 15 2 14 3 12 4 13 5 10 7 9 8 8 9 3 10 4 11 81 12 5 13
REMARK SMILES IDX 82 14 6 15 7 16 2 17 1 18 11 19 17 23 18 24 19 25 20 27
REMARK SMILES IDX 21 28 22 29 80 30 23 31 79 32 24 33 25 34 26 35 73 36 27 37
REMARK SMILES IDX 78 38 72 39 74 40 28 41 77 42 71 43 70 44 29 46 59 47 40 48
REMARK SMILES IDX 58 49 41 50 44 51 57 52 75 53 42 54 43 55 56 57 76 58 45 59
REMARK SMILES IDX 30 60 31 61 39 62 32 63 38 64 33 65 34 66 35 67 36 68 37 69
REMARK SMILES IDX 60 70 61 71 69 72 62 73 68 74 63 75 64 76 65 77 66 78 67 79
REMARK SMILES IDX 46 80 47 81 55 82 48 83 54 84 49 85 50 86 51 87 52 88 53 89
REMARK H PARENT 14 6 11 20 11 21 11 22 18 26 74 45 44 56
REMARK Flexibility Score: inf
ROOT
ATOM      1  C   UNL A   1      35.822  23.856  25.984  1.00  0.00     0.042 C 
ENDROOT
BRANCH   1   2
ATOM      2  C   UNL A   1      34.471  24.154  25.349  1.00  0.00     0.118 C 
BRANCH   2   3
ATOM      3  N   UNL A   1      33.398  24.062  26.323  1.00  0.00    -0.351 N 
ATOM      4  C   UNL A   1      32.073  24.359  26.220  1.00  0.00     0.278 C 
ATOM      5  O   UNL A   1      31.408  24.357  27.259  1.00  0.00    -0.268 OA
ATOM      6  H   UNL A   1      33.676  23.729  27.208  1.00  0.00     0.163 HD
BRANCH   4   7
ATOM      7  C   UNL A   1      31.432  24.718  24.864  1.00  0.00     0.275 C 
BRANCH   7   8
ATOM      8  C   UNL A   1      30.614  26.027  24.946  1.00  0.00     0.115 C 
BRANCH   8   9
ATOM      9  C   UNL A   1      31.452  27.286  24.970  1.00  0.00     0.017 A 
ATOM     10  C   UNL A   1      32.378  29.142  26.267  1.00  0.00     0.154 A 
ATOM     11  C   UNL A   1      32.989  29.643  25.121  1.00  0.00     0.051 A 
ATOM     12  C   UNL A   1      31.592  27.989  26.177  1.00  0.00     0.169 A 
ATOM     13  C   UNL A   1      32.875  28.957  23.913  1.00  0.00     0.025 A 
ATOM     14  F   UNL A   1      30.954  27.529  27.264  1.00  0.00    -0.203 F 
ATOM     15  C   UNL A   1      32.131  27.776  23.842  1.00  0.00     0.047 A 
ATOM     16  Cl  UNL A   1      32.127  26.941  22.332  1.00  0.00    -0.084 Cl
BRANCH  10  17
ATOM     17  O   UNL A   1      32.580  29.867  27.410  1.00  0.00    -0.494 OA
ATOM     18  C   UNL A   1      33.768  30.658  27.389  1.00  0.00     0.278 C 
ENDBRANCH  10  17
ENDBRANCH   8   9
ENDBRANCH   7   8
BRANCH   7  19
ATOM     19  N   UNL A   1      30.648  23.567  24.361  1.00  0.00    -0.347 N 
ATOM     20  H   UNL A   1      30.227  23.072  25.147  1.00  0.00     0.345 HD
ATOM     21  H   UNL A   1      31.263  22.934  23.850  1.00  0.00     0.345 HD
ATOM     22  H   UNL A   1      29.914  23.903  23.737  1.00  0.00     0.345 HD
ENDBRANCH   7  19
ENDBRANCH   4   7
ENDBRANCH   2   3
ENDBRANCH   1   2
BRANCH   1  23
ATOM     23  C   UNL A   1      36.951  23.724  24.970  1.00  0.00     0.118 C 
BRANCH  23  24
ATOM     24  N   UNL A   1      37.956  22.749  25.377  1.00  0.00    -0.352 N 
ATOM     25  C   UNL A   1      39.120  22.929  26.084  1.00  0.00     0.251 C 
ATOM     26  H   UNL A   1      37.773  21.821  25.104  1.00  0.00     0.163 HD
ATOM     27  O   UNL A   1      39.940  22.016  26.148  1.00  0.00    -0.269 OA
BRANCH  25  28
ATOM     28  C   UNL A   1      39.391  24.224  26.742  1.00  0.00     0.039 A 
ATOM     29  C   UNL A   1      38.913  24.441  28.036  1.00  0.00     0.014 A 
ATOM     30  C   UNL A   1      40.126  25.216  26.087  1.00  0.00     0.014 A 
ATOM     31  C   UNL A   1      39.245  25.621  28.704  1.00  0.00     0.010 A 
ATOM     32  C   UNL A   1      40.526  26.352  26.784  1.00  0.00     0.010 A 
ATOM     33  C   UNL A   1      40.095  26.563  28.102  1.00  0.00    -0.014 A 
BRANCH  33  34
ATOM     34  C   UNL A   1      40.569  27.762  28.839  1.00  0.00     0.031 A 
ATOM     35  C   UNL A   1      41.919  27.762  29.503  1.00  0.00     0.074 A 
ATOM     36  C   UNL A   1      39.747  28.822  28.977  1.00  0.00     0.049 A 
ATOM     37  N   UNL A   1      42.468  28.683  30.253  1.00  0.00    -0.248 NA
ATOM     38  C   UNL A   1      42.751  26.562  29.319  1.00  0.00     0.031 C 
ATOM     39  C   UNL A   1      38.398  28.929  28.415  1.00  0.00     0.029 A 
ATOM     40  N   UNL A   1      39.921  30.010  29.643  1.00  0.00    -0.354 N 
ATOM     41  C   UNL A   1      43.699  28.170  30.642  1.00  0.00     0.074 A 
ATOM     42  C   UNL A   1      43.797  26.837  30.086  1.00  0.00     0.031 C 
ATOM     43  C   UNL A   1      37.879  30.123  28.738  1.00  0.00     0.029 A 
ATOM     44  C   UNL A   1      38.834  30.849  29.568  1.00  0.00     0.049 A 
ATOM     45  H   UNL A   1      40.747  30.240  30.127  1.00  0.00     0.167 HD
ATOM     46  C   UNL A   1      44.669  28.761  31.380  1.00  0.00     0.031 A 
ATOM     47  C   UNL A   1      38.621  32.060  30.119  1.00  0.00     0.031 A 
ATOM     48  C   UNL A   1      44.569  30.087  31.929  1.00  0.00     0.049 A 
ATOM     49  C   UNL A   1      39.701  32.682  30.960  1.00  0.00     0.074 A 
ATOM     50  C   UNL A   1      45.520  30.795  32.643  1.00  0.00     0.029 A 
ATOM     51  N   UNL A   1      43.451  30.902  31.833  1.00  0.00    -0.354 N 
ATOM     52  N   UNL A   1      40.888  32.210  31.257  1.00  0.00    -0.248 NA
ATOM     53  C   UNL A   1      39.415  34.004  31.536  1.00  0.00     0.031 C 
ATOM     54  C   UNL A   1      44.955  32.015  33.031  1.00  0.00     0.029 A 
ATOM     55  C   UNL A   1      43.676  32.094  32.503  1.00  0.00     0.049 A 
ATOM     56  H   UNL A   1      42.621  30.670  31.358  1.00  0.00     0.167 HD
ATOM     57  C   UNL A   1      41.499  33.185  32.037  1.00  0.00     0.074 A 
ATOM     58  C   UNL A   1      40.559  34.282  32.148  1.00  0.00     0.031 C 
ATOM     59  C   UNL A   1      42.727  33.174  32.612  1.00  0.00     0.031 A 
BRANCH  46  60
ATOM     60  C   UNL A   1      45.923  27.968  31.646  1.00  0.00    -0.014 A 
ATOM     61  C   UNL A   1      46.025  27.122  32.765  1.00  0.00     0.010 A 
ATOM     62  C   UNL A   1      46.999  28.038  30.742  1.00  0.00     0.010 A 
ATOM     63  C   UNL A   1      47.194  26.394  32.999  1.00  0.00     0.020 A 
ATOM     64  C   UNL A   1      48.160  27.287  30.956  1.00  0.00     0.020 A 
ATOM     65  C   UNL A   1      48.255  26.482  32.092  1.00  0.00     0.054 A 
BRANCH  65  66
ATOM     66  S   UNL A   1      49.751  25.507  32.409  1.00  0.00     0.124 S 
ATOM     67  O   UNL A   1      49.289  24.571  33.431  1.00  0.00    -0.237 OA
ATOM     68  O   UNL A   1      50.033  24.921  31.102  1.00  0.00    -0.237 OA
ATOM     69  O   UNL A   1      50.722  26.498  32.867  1.00  0.00    -0.744 OA
ENDBRANCH  65  66
ENDBRANCH  46  60
BRANCH  47  70
ATOM     70  C   UNL A   1      37.329  32.765  29.890  1.00  0.00    -0.014 A 
ATOM     71  C   UNL A   1      37.120  33.510  28.716  1.00  0.00     0.010 A 
ATOM     72  C   UNL A   1      36.295  32.683  30.841  1.00  0.00     0.010 A 
ATOM     73  C   UNL A   1      35.908  34.174  28.505  1.00  0.00     0.020 A 
ATOM     74  C   UNL A   1      35.071  33.321  30.620  1.00  0.00     0.020 A 
ATOM     75  C   UNL A   1      34.889  34.072  29.458  1.00  0.00     0.054 A 
BRANCH  75  76
ATOM     76  S   UNL A   1      33.306  34.898  29.136  1.00  0.00     0.124 S 
ATOM     77  O   UNL A   1      32.685  34.885  30.456  1.00  0.00    -0.237 OA
ATOM     78  O   UNL A   1      33.728  36.207  28.646  1.00  0.00    -0.237 OA
ATOM     79  O   UNL A   1      32.672  34.042  28.136  1.00  0.00    -0.744 OA
ENDBRANCH  75  76
ENDBRANCH  47  70
BRANCH  59  80
ATOM     80  C   UNL A   1      43.136  34.392  33.398  1.00  0.00    -0.014 A 
ATOM     81  C   UNL A   1      42.940  34.460  34.788  1.00  0.00     0.010 A 
ATOM     82  C   UNL A   1      43.777  35.459  32.743  1.00  0.00     0.010 A 
ATOM     83  C   UNL A   1      43.351  35.587  35.504  1.00  0.00     0.020 A 
ATOM     84  C   UNL A   1      44.217  36.574  33.460  1.00  0.00     0.020 A 
ATOM     85  C   UNL A   1      43.990  36.636  34.835  1.00  0.00     0.054 A 
BRANCH  85  86
ATOM     86  S   UNL A   1      44.558  38.066  35.798  1.00  0.00     0.124 S 
ATOM     87  O   UNL A   1      43.924  37.831  37.092  1.00  0.00    -0.237 OA
ATOM     88  O   UNL A   1      46.011  37.911  35.771  1.00  0.00    -0.237 OA
ATOM     89  O   UNL A   1      44.045  39.212  35.051  1.00  0.00    -0.744 OA
ENDBRANCH  85  86
ENDBRANCH  59  80
ENDBRANCH  33  34
ENDBRANCH  25  28
ENDBRANCH  23  24
ENDBRANCH   1  23
TORSDOF 17
ENDMDL
