MODEL 1
REMARK VINA RESULT:     -12.8      0.000      0.000
REMARK SMILES Cc1cccc(NC(=O)COc2ccc(N3C[C@@H](C(=O)NCCCNC(=O)c4ccc(-c5c6nc(c(-c7ccc(S(=O)(=O)[O-])cc7)c7ccc([nH]7)c(-c7ccc(S(=O)(=O)[O-])cc7)c7nc(c(-c8ccc(S(=O)(=O)[O-])cc8)c8ccc5[nH]8)C=C7)C=C6)cc4)CC3=O)cc2)c1
REMARK SMILES IDX 22 1 21 2 19 3 20 4 18 6 16 7 17 8 89 9 88 10 90 11 15 12
REMARK SMILES IDX 12 13 13 14 92 15 14 16 91 17 11 18 10 19 8 20 7 21 9 23
REMARK SMILES IDX 6 24 1 25 2 26 3 27 93 28 4 29 5 30 23 31 24 32 25 33 26 34
REMARK SMILES IDX 27 36 28 37 29 38 87 39 30 40 86 41 31 42 32 43 33 44 80 45
REMARK SMILES IDX 34 46 85 47 79 48 81 49 35 50 84 51 78 52 77 53 36 55 66 56
REMARK SMILES IDX 47 57 65 58 48 59 51 60 64 61 82 62 49 63 50 64 63 66 83 67
REMARK SMILES IDX 52 68 37 69 38 70 46 71 39 72 45 73 40 74 41 75 42 76 43 77
REMARK SMILES IDX 44 78 67 79 68 80 76 81 69 82 75 83 70 84 71 85 72 86 73 87
REMARK SMILES IDX 74 88 53 89 54 90 62 91 55 92 61 93 56 94 57 95 58 96 59 97
REMARK SMILES IDX 60 98
REMARK H PARENT 21 5 7 22 25 35 81 54 51 65
REMARK Flexibility Score: inf
ROOT
ATOM      1  C   UNL A   1      34.994  31.384  27.712  1.00  0.00     0.117 C 
ENDROOT
BRANCH   1   2
ATOM      2  N   UNL A   1      33.703  31.417  27.031  1.00  0.00    -0.356 N 
ATOM      3  C   UNL A   1      32.755  30.478  26.808  1.00  0.00     0.225 C 
ATOM      4  O   UNL A   1      31.785  30.791  26.115  1.00  0.00    -0.275 OA
ATOM      5  H   UNL A   1      33.477  32.300  26.659  1.00  0.00     0.163 HD
BRANCH   3   6
ATOM      6  C   UNL A   1      32.829  29.099  27.409  1.00  0.00     0.107 C 
ATOM      7  N   UNL A   1      32.947  27.008  26.333  1.00  0.00    -0.312 N 
ATOM      8  C   UNL A   1      33.725  28.192  26.598  1.00  0.00     0.139 C 
ATOM      9  C   UNL A   1      31.640  27.101  26.805  1.00  0.00     0.227 C 
ATOM     10  C   UNL A   1      31.497  28.394  27.567  1.00  0.00     0.116 C 
ATOM     11  O   UNL A   1      30.735  26.285  26.704  1.00  0.00    -0.274 OA
BRANCH   7  12
ATOM     12  C   UNL A   1      33.475  25.955  25.554  1.00  0.00     0.044 A 
ATOM     13  C   UNL A   1      34.610  23.864  24.055  1.00  0.00     0.120 A 
ATOM     14  C   UNL A   1      34.325  23.687  25.406  1.00  0.00     0.048 A 
ATOM     15  C   UNL A   1      34.307  25.078  23.445  1.00  0.00     0.048 A 
ATOM     16  C   UNL A   1      33.791  24.732  26.155  1.00  0.00     0.030 A 
ATOM     17  C   UNL A   1      33.721  26.111  24.187  1.00  0.00     0.030 A 
BRANCH  13  18
ATOM     18  O   UNL A   1      35.108  22.761  23.431  1.00  0.00    -0.484 OA
BRANCH  18  19
ATOM     19  C   UNL A   1      36.438  22.388  23.735  1.00  0.00     0.329 C 
BRANCH  19  20
ATOM     20  C   UNL A   1      36.733  21.563  24.986  1.00  0.00     0.262 C 
ATOM     21  N   UNL A   1      36.015  20.469  25.360  1.00  0.00    -0.323 N 
ATOM     22  H   UNL A   1      36.417  19.999  26.126  1.00  0.00     0.170 HD
ATOM     23  O   UNL A   1      37.681  21.881  25.716  1.00  0.00    -0.271 OA
BRANCH  21  24
ATOM     24  C   UNL A   1      34.836  19.856  24.909  1.00  0.00     0.041 A 
ATOM     25  C   UNL A   1      34.032  16.415  23.450  1.00  0.00     0.044 C 
ATOM     26  C   UNL A   1      33.872  17.819  23.950  1.00  0.00    -0.049 A 
ATOM     27  C   UNL A   1      32.611  18.416  23.968  1.00  0.00     0.003 A 
ATOM     28  C   UNL A   1      34.976  18.549  24.416  1.00  0.00     0.029 A 
ATOM     29  C   UNL A   1      32.457  19.706  24.468  1.00  0.00     0.002 A 
ATOM     30  C   UNL A   1      33.562  20.414  24.952  1.00  0.00     0.026 A 
ENDBRANCH  21  24
ENDBRANCH  19  20
ENDBRANCH  18  19
ENDBRANCH  13  18
ENDBRANCH   7  12
ENDBRANCH   3   6
ENDBRANCH   1   2
BRANCH   1  31
ATOM     31  C   UNL A   1      34.958  32.029  29.096  1.00  0.00     0.042 C 
BRANCH  31  32
ATOM     32  C   UNL A   1      36.089  31.565  29.992  1.00  0.00     0.118 C 
BRANCH  32  33
ATOM     33  N   UNL A   1      37.312  31.537  29.237  1.00  0.00    -0.352 N 
ATOM     34  C   UNL A   1      38.277  30.562  29.329  1.00  0.00     0.251 C 
ATOM     35  H   UNL A   1      37.471  32.275  28.605  1.00  0.00     0.163 HD
ATOM     36  O   UNL A   1      39.411  30.984  29.467  1.00  0.00    -0.269 OA
BRANCH  34  37
ATOM     37  C   UNL A   1      37.900  29.125  28.968  1.00  0.00     0.039 A 
ATOM     38  C   UNL A   1      38.242  28.279  30.029  1.00  0.00     0.014 A 
ATOM     39  C   UNL A   1      38.347  28.747  27.704  1.00  0.00     0.014 A 
ATOM     40  C   UNL A   1      39.464  27.637  29.980  1.00  0.00     0.010 A 
ATOM     41  C   UNL A   1      39.627  28.280  27.646  1.00  0.00     0.010 A 
ATOM     42  C   UNL A   1      40.203  27.812  28.827  1.00  0.00    -0.014 A 
BRANCH  42  43
ATOM     43  C   UNL A   1      41.613  27.558  28.724  1.00  0.00     0.031 A 
ATOM     44  C   UNL A   1      41.978  26.143  28.706  1.00  0.00     0.074 A 
ATOM     45  C   UNL A   1      42.356  28.646  28.421  1.00  0.00     0.049 A 
ATOM     46  N   UNL A   1      43.148  25.682  28.934  1.00  0.00    -0.248 NA
ATOM     47  C   UNL A   1      40.985  25.085  28.482  1.00  0.00     0.031 C 
ATOM     48  C   UNL A   1      43.706  28.784  27.893  1.00  0.00     0.029 A 
ATOM     49  N   UNL A   1      42.016  29.950  28.803  1.00  0.00    -0.354 N 
ATOM     50  C   UNL A   1      43.142  24.396  28.437  1.00  0.00     0.074 A 
ATOM     51  C   UNL A   1      41.760  24.009  28.351  1.00  0.00     0.031 C 
ATOM     52  C   UNL A   1      44.186  29.993  28.262  1.00  0.00     0.029 A 
ATOM     53  C   UNL A   1      43.208  30.574  29.181  1.00  0.00     0.049 A 
ATOM     54  H   UNL A   1      41.116  30.348  28.805  1.00  0.00     0.167 HD
ATOM     55  C   UNL A   1      44.300  23.917  27.912  1.00  0.00     0.031 A 
ATOM     56  C   UNL A   1      43.426  30.750  30.523  1.00  0.00     0.031 A 
ATOM     57  C   UNL A   1      45.370  24.900  28.107  1.00  0.00     0.049 A 
ATOM     58  C   UNL A   1      44.569  29.862  31.015  1.00  0.00     0.074 A 
ATOM     59  C   UNL A   1      45.956  25.839  27.275  1.00  0.00     0.029 A 
ATOM     60  N   UNL A   1      45.648  25.311  29.405  1.00  0.00    -0.354 N 
ATOM     61  N   UNL A   1      44.920  28.711  30.494  1.00  0.00    -0.248 NA
ATOM     62  C   UNL A   1      45.455  30.270  32.094  1.00  0.00     0.031 C 
ATOM     63  C   UNL A   1      46.550  26.845  28.097  1.00  0.00     0.029 A 
ATOM     64  C   UNL A   1      46.321  26.518  29.424  1.00  0.00     0.049 A 
ATOM     65  H   UNL A   1      45.397  24.805  30.212  1.00  0.00     0.167 HD
ATOM     66  C   UNL A   1      46.070  28.250  31.095  1.00  0.00     0.074 A 
ATOM     67  C   UNL A   1      46.342  29.259  32.108  1.00  0.00     0.031 C 
ATOM     68  C   UNL A   1      46.711  27.094  30.711  1.00  0.00     0.031 A 
BRANCH  55  69
ATOM     69  C   UNL A   1      44.371  22.748  26.961  1.00  0.00    -0.014 A 
ATOM     70  C   UNL A   1      45.594  22.472  26.321  1.00  0.00     0.010 A 
ATOM     71  C   UNL A   1      43.292  21.898  26.634  1.00  0.00     0.010 A 
ATOM     72  C   UNL A   1      45.732  21.437  25.386  1.00  0.00     0.020 A 
ATOM     73  C   UNL A   1      43.408  20.873  25.681  1.00  0.00     0.020 A 
ATOM     74  C   UNL A   1      44.633  20.645  25.068  1.00  0.00     0.054 A 
BRANCH  74  75
ATOM     75  S   UNL A   1      44.852  19.292  23.883  1.00  0.00     0.124 S 
ATOM     76  O   UNL A   1      44.018  18.236  24.453  1.00  0.00    -0.237 OA
ATOM     77  O   UNL A   1      44.357  19.883  22.643  1.00  0.00    -0.237 OA
ATOM     78  O   UNL A   1      46.289  19.030  23.915  1.00  0.00    -0.744 OA
ENDBRANCH  74  75
ENDBRANCH  55  69
BRANCH  56  79
ATOM     79  C   UNL A   1      42.179  31.108  31.305  1.00  0.00    -0.014 A 
ATOM     80  C   UNL A   1      41.497  30.091  32.026  1.00  0.00     0.010 A 
ATOM     81  C   UNL A   1      41.830  32.436  31.599  1.00  0.00     0.010 A 
ATOM     82  C   UNL A   1      40.596  30.389  33.070  1.00  0.00     0.020 A 
ATOM     83  C   UNL A   1      40.916  32.738  32.639  1.00  0.00     0.020 A 
ATOM     84  C   UNL A   1      40.342  31.716  33.407  1.00  0.00     0.054 A 
BRANCH  84  85
ATOM     85  S   UNL A   1      39.197  32.115  34.790  1.00  0.00     0.124 S 
ATOM     86  O   UNL A   1      39.395  30.995  35.710  1.00  0.00    -0.237 OA
ATOM     87  O   UNL A   1      39.635  33.412  35.292  1.00  0.00    -0.237 OA
ATOM     88  O   UNL A   1      37.892  32.144  34.131  1.00  0.00    -0.744 OA
ENDBRANCH  84  85
ENDBRANCH  56  79
BRANCH  68  89
ATOM     89  C   UNL A   1      47.782  26.331  31.493  1.00  0.00    -0.014 A 
ATOM     90  C   UNL A   1      47.664  25.885  32.812  1.00  0.00     0.010 A 
ATOM     91  C   UNL A   1      48.993  25.973  30.835  1.00  0.00     0.010 A 
ATOM     92  C   UNL A   1      48.656  25.097  33.417  1.00  0.00     0.020 A 
ATOM     93  C   UNL A   1      49.973  25.162  31.408  1.00  0.00     0.020 A 
ATOM     94  C   UNL A   1      49.796  24.726  32.707  1.00  0.00     0.054 A 
BRANCH  94  95
ATOM     95  S   UNL A   1      51.028  23.681  33.507  1.00  0.00     0.124 S 
ATOM     96  O   UNL A   1      51.454  22.820  32.406  1.00  0.00    -0.237 OA
ATOM     97  O   UNL A   1      52.017  24.657  33.959  1.00  0.00    -0.237 OA
ATOM     98  O   UNL A   1      50.286  23.011  34.571  1.00  0.00    -0.744 OA
ENDBRANCH  94  95
ENDBRANCH  68  89
ENDBRANCH  42  43
ENDBRANCH  34  37
ENDBRANCH  32  33
ENDBRANCH  31  32
ENDBRANCH   1  31
TORSDOF 18
ENDMDL
MODEL 2
REMARK VINA RESULT:     -11.8      2.860      4.158
REMARK SMILES Cc1cccc(NC(=O)COc2ccc(N3C[C@@H](C(=O)NCCCNC(=O)c4ccc(-c5c6nc(c(-c7ccc(S(=O)(=O)[O-])cc7)c7ccc([nH]7)c(-c7ccc(S(=O)(=O)[O-])cc7)c7nc(c(-c8ccc(S(=O)(=O)[O-])cc8)c8ccc5[nH]8)C=C7)C=C6)cc4)CC3=O)cc2)c1
REMARK SMILES IDX 22 1 21 2 19 3 20 4 18 6 16 7 17 8 89 9 88 10 90 11 15 12
REMARK SMILES IDX 12 13 13 14 92 15 14 16 91 17 11 18 10 19 8 20 7 21 9 23
REMARK SMILES IDX 6 24 1 25 2 26 3 27 93 28 4 29 5 30 23 31 24 32 25 33 26 34
REMARK SMILES IDX 27 36 28 37 29 38 87 39 30 40 86 41 31 42 32 43 33 44 80 45
REMARK SMILES IDX 34 46 85 47 79 48 81 49 35 50 84 51 78 52 77 53 36 55 66 56
REMARK SMILES IDX 47 57 65 58 48 59 51 60 64 61 82 62 49 63 50 64 63 66 83 67
REMARK SMILES IDX 52 68 37 69 38 70 46 71 39 72 45 73 40 74 41 75 42 76 43 77
REMARK SMILES IDX 44 78 67 79 68 80 76 81 69 82 75 83 70 84 71 85 72 86 73 87
REMARK SMILES IDX 74 88 53 89 54 90 62 91 55 92 61 93 56 94 57 95 58 96 59 97
REMARK SMILES IDX 60 98
REMARK H PARENT 21 5 7 22 25 35 81 54 51 65
REMARK Flexibility Score: inf
ROOT
ATOM      1  C   UNL A   1      34.979  32.121  31.229  1.00  0.00     0.117 C 
ENDROOT
BRANCH   1   2
ATOM      2  N   UNL A   1      34.491  33.476  30.985  1.00  0.00    -0.356 N 
ATOM      3  C   UNL A   1      34.384  34.230  29.868  1.00  0.00     0.225 C 
ATOM      4  O   UNL A   1      34.000  35.394  29.991  1.00  0.00    -0.275 OA
ATOM      5  H   UNL A   1      34.175  33.931  31.799  1.00  0.00     0.163 HD
BRANCH   3   6
ATOM      6  C   UNL A   1      34.676  33.682  28.495  1.00  0.00     0.107 C 
ATOM      7  N   UNL A   1      34.245  31.538  27.622  1.00  0.00    -0.312 N 
ATOM      8  C   UNL A   1      33.581  32.751  28.029  1.00  0.00     0.139 C 
ATOM      9  C   UNL A   1      35.616  31.565  27.861  1.00  0.00     0.227 C 
ATOM     10  C   UNL A   1      35.988  32.935  28.366  1.00  0.00     0.116 C 
ATOM     11  O   UNL A   1      36.439  30.683  27.661  1.00  0.00    -0.274 OA
BRANCH   7  12
ATOM     12  C   UNL A   1      33.503  30.428  27.163  1.00  0.00     0.044 A 
ATOM     13  C   UNL A   1      32.100  28.195  26.186  1.00  0.00     0.120 A 
ATOM     14  C   UNL A   1      33.287  28.026  26.892  1.00  0.00     0.048 A 
ATOM     15  C   UNL A   1      31.599  29.479  25.986  1.00  0.00     0.048 A 
ATOM     16  C   UNL A   1      33.998  29.133  27.350  1.00  0.00     0.030 A 
ATOM     17  C   UNL A   1      32.287  30.589  26.492  1.00  0.00     0.030 A 
BRANCH  13  18
ATOM     18  O   UNL A   1      31.491  27.035  25.813  1.00  0.00    -0.484 OA
BRANCH  18  19
ATOM     19  C   UNL A   1      30.980  26.965  24.496  1.00  0.00     0.329 C 
BRANCH  19  20
ATOM     20  C   UNL A   1      29.918  25.928  24.143  1.00  0.00     0.262 C 
ATOM     21  N   UNL A   1      30.130  24.584  24.171  1.00  0.00    -0.323 N 
ATOM     22  H   UNL A   1      29.304  24.068  24.025  1.00  0.00     0.170 HD
ATOM     23  O   UNL A   1      28.783  26.303  23.817  1.00  0.00    -0.271 OA
BRANCH  21  24
ATOM     24  C   UNL A   1      31.253  23.762  24.358  1.00  0.00     0.041 A 
ATOM     25  C   UNL A   1      33.075  22.433  27.445  1.00  0.00     0.044 C 
ATOM     26  C   UNL A   1      32.711  22.702  26.016  1.00  0.00    -0.049 A 
ATOM     27  C   UNL A   1      33.455  22.129  24.984  1.00  0.00     0.003 A 
ATOM     28  C   UNL A   1      31.618  23.520  25.691  1.00  0.00     0.029 A 
ATOM     29  C   UNL A   1      33.093  22.350  23.658  1.00  0.00     0.002 A 
ATOM     30  C   UNL A   1      31.987  23.148  23.349  1.00  0.00     0.026 A 
ENDBRANCH  21  24
ENDBRANCH  19  20
ENDBRANCH  18  19
ENDBRANCH  13  18
ENDBRANCH   7  12
ENDBRANCH   3   6
ENDBRANCH   1   2
BRANCH   1  31
ATOM     31  C   UNL A   1      36.351  32.089  31.897  1.00  0.00     0.042 C 
BRANCH  31  32
ATOM     32  C   UNL A   1      36.966  30.703  31.914  1.00  0.00     0.118 C 
BRANCH  32  33
ATOM     33  N   UNL A   1      37.489  30.399  30.609  1.00  0.00    -0.352 N 
ATOM     34  C   UNL A   1      38.714  29.826  30.363  1.00  0.00     0.251 C 
ATOM     35  H   UNL A   1      36.925  30.620  29.833  1.00  0.00     0.163 HD
ATOM     36  O   UNL A   1      39.381  30.402  29.521  1.00  0.00    -0.269 OA
BRANCH  34  37
ATOM     37  C   UNL A   1      38.991  28.427  30.914  1.00  0.00     0.039 A 
ATOM     38  C   UNL A   1      40.145  28.465  31.706  1.00  0.00     0.014 A 
ATOM     39  C   UNL A   1      38.942  27.438  29.935  1.00  0.00     0.014 A 
ATOM     40  C   UNL A   1      41.348  28.128  31.116  1.00  0.00     0.010 A 
ATOM     41  C   UNL A   1      40.096  27.241  29.236  1.00  0.00     0.010 A 
ATOM     42  C   UNL A   1      41.287  27.683  29.810  1.00  0.00    -0.014 A 
BRANCH  42  43
ATOM     43  C   UNL A   1      42.411  27.646  28.916  1.00  0.00     0.031 A 
ATOM     44  C   UNL A   1      43.082  26.350  28.832  1.00  0.00     0.074 A 
ATOM     45  C   UNL A   1      42.527  28.731  28.119  1.00  0.00     0.049 A 
ATOM     46  N   UNL A   1      44.256  26.158  28.367  1.00  0.00    -0.248 NA
ATOM     47  C   UNL A   1      42.470  25.121  29.355  1.00  0.00     0.031 C 
ATOM     48  C   UNL A   1      43.260  28.953  26.880  1.00  0.00     0.029 A 
ATOM     49  N   UNL A   1      42.108  30.015  28.489  1.00  0.00    -0.354 N 
ATOM     50  C   UNL A   1      44.334  24.805  28.109  1.00  0.00     0.074 A 
ATOM     51  C   UNL A   1      43.308  24.188  28.902  1.00  0.00     0.031 C 
ATOM     52  C   UNL A   1      43.506  30.278  26.763  1.00  0.00     0.029 A 
ATOM     53  C   UNL A   1      43.081  30.900  28.016  1.00  0.00     0.049 A 
ATOM     54  H   UNL A   1      41.290  30.249  28.984  1.00  0.00     0.167 HD
ATOM     55  C   UNL A   1      45.090  24.407  27.051  1.00  0.00     0.031 A 
ATOM     56  C   UNL A   1      43.943  31.435  28.937  1.00  0.00     0.031 A 
ATOM     57  C   UNL A   1      45.767  25.570  26.468  1.00  0.00     0.049 A 
ATOM     58  C   UNL A   1      45.360  30.896  28.743  1.00  0.00     0.074 A 
ATOM     59  C   UNL A   1      45.509  26.357  25.357  1.00  0.00     0.029 A 
ATOM     60  N   UNL A   1      46.586  26.329  27.294  1.00  0.00    -0.354 N 
ATOM     61  N   UNL A   1      45.669  29.726  28.239  1.00  0.00    -0.248 NA
ATOM     62  C   UNL A   1      46.538  31.699  29.034  1.00  0.00     0.031 C 
ATOM     63  C   UNL A   1      46.150  27.617  25.554  1.00  0.00     0.029 A 
ATOM     64  C   UNL A   1      46.791  27.596  26.783  1.00  0.00     0.049 A 
ATOM     65  H   UNL A   1      46.974  26.004  28.139  1.00  0.00     0.167 HD
ATOM     66  C   UNL A   1      47.034  29.623  28.083  1.00  0.00     0.074 A 
ATOM     67  C   UNL A   1      47.525  30.882  28.623  1.00  0.00     0.031 C 
ATOM     68  C   UNL A   1      47.648  28.529  27.516  1.00  0.00     0.031 A 
BRANCH  55  69
ATOM     69  C   UNL A   1      44.947  23.067  26.373  1.00  0.00    -0.014 A 
ATOM     70  C   UNL A   1      46.038  22.560  25.643  1.00  0.00     0.010 A 
ATOM     71  C   UNL A   1      43.784  22.267  26.391  1.00  0.00     0.010 A 
ATOM     72  C   UNL A   1      45.970  21.349  24.942  1.00  0.00     0.020 A 
ATOM     73  C   UNL A   1      43.693  21.062  25.673  1.00  0.00     0.020 A 
ATOM     74  C   UNL A   1      44.793  20.607  24.958  1.00  0.00     0.054 A 
BRANCH  74  75
ATOM     75  S   UNL A   1      44.749  19.028  24.073  1.00  0.00     0.124 S 
ATOM     76  O   UNL A   1      43.646  18.329  24.730  1.00  0.00    -0.237 OA
ATOM     77  O   UNL A   1      44.495  19.450  22.698  1.00  0.00    -0.237 OA
ATOM     78  O   UNL A   1      46.072  18.457  24.313  1.00  0.00    -0.744 OA
ENDBRANCH  74  75
ENDBRANCH  55  69
BRANCH  56  79
ATOM     79  C   UNL A   1      43.293  31.767  30.266  1.00  0.00    -0.014 A 
ATOM     80  C   UNL A   1      42.134  32.589  30.284  1.00  0.00     0.010 A 
ATOM     81  C   UNL A   1      43.596  31.071  31.447  1.00  0.00     0.010 A 
ATOM     82  C   UNL A   1      41.257  32.622  31.388  1.00  0.00     0.020 A 
ATOM     83  C   UNL A   1      42.723  31.112  32.562  1.00  0.00     0.020 A 
ATOM     84  C   UNL A   1      41.529  31.844  32.512  1.00  0.00     0.054 A 
BRANCH  84  85
ATOM     85  S   UNL A   1      40.373  31.851  33.942  1.00  0.00     0.124 S 
ATOM     86  O   UNL A   1      39.409  32.888  33.577  1.00  0.00    -0.237 OA
ATOM     87  O   UNL A   1      39.831  30.499  34.007  1.00  0.00    -0.237 OA
ATOM     88  O   UNL A   1      41.248  32.193  35.062  1.00  0.00    -0.744 OA
ENDBRANCH  84  85
ENDBRANCH  56  79
BRANCH  68  89
ATOM     89  C   UNL A   1      49.132  28.169  27.582  1.00  0.00    -0.014 A 
ATOM     90  C   UNL A   1      49.993  28.060  26.486  1.00  0.00     0.010 A 
ATOM     91  C   UNL A   1      49.741  27.980  28.855  1.00  0.00     0.010 A 
ATOM     92  C   UNL A   1      51.369  27.829  26.647  1.00  0.00     0.020 A 
ATOM     93  C   UNL A   1      51.111  27.785  29.035  1.00  0.00     0.020 A 
ATOM     94  C   UNL A   1      51.922  27.711  27.920  1.00  0.00     0.054 A 
BRANCH  94  95
ATOM     95  S   UNL A   1      53.699  27.454  28.085  1.00  0.00     0.124 S 
ATOM     96  O   UNL A   1      53.755  26.218  28.862  1.00  0.00    -0.237 OA
ATOM     97  O   UNL A   1      54.127  27.340  26.693  1.00  0.00    -0.237 OA
ATOM     98  O   UNL A   1      54.165  28.650  28.782  1.00  0.00    -0.744 OA
ENDBRANCH  94  95
ENDBRANCH  68  89
ENDBRANCH  42  43
ENDBRANCH  34  37
ENDBRANCH  32  33
ENDBRANCH  31  32
ENDBRANCH   1  31
TORSDOF 18
ENDMDL
MODEL 3
REMARK VINA RESULT:     -11.8      3.961     10.708
REMARK SMILES Cc1cccc(NC(=O)COc2ccc(N3C[C@@H](C(=O)NCCCNC(=O)c4ccc(-c5c6nc(c(-c7ccc(S(=O)(=O)[O-])cc7)c7ccc([nH]7)c(-c7ccc(S(=O)(=O)[O-])cc7)c7nc(c(-c8ccc(S(=O)(=O)[O-])cc8)c8ccc5[nH]8)C=C7)C=C6)cc4)CC3=O)cc2)c1
REMARK SMILES IDX 22 1 21 2 19 3 20 4 18 6 16 7 17 8 89 9 88 10 90 11 15 12
REMARK SMILES IDX 12 13 13 14 92 15 14 16 91 17 11 18 10 19 8 20 7 21 9 23
REMARK SMILES IDX 6 24 1 25 2 26 3 27 93 28 4 29 5 30 23 31 24 32 25 33 26 34
REMARK SMILES IDX 27 36 28 37 29 38 87 39 30 40 86 41 31 42 32 43 33 44 80 45
REMARK SMILES IDX 34 46 85 47 79 48 81 49 35 50 84 51 78 52 77 53 36 55 66 56
REMARK SMILES IDX 47 57 65 58 48 59 51 60 64 61 82 62 49 63 50 64 63 66 83 67
REMARK SMILES IDX 52 68 37 69 38 70 46 71 39 72 45 73 40 74 41 75 42 76 43 77
REMARK SMILES IDX 44 78 67 79 68 80 76 81 69 82 75 83 70 84 71 85 72 86 73 87
REMARK SMILES IDX 74 88 53 89 54 90 62 91 55 92 61 93 56 94 57 95 58 96 59 97
REMARK SMILES IDX 60 98
REMARK H PARENT 21 5 7 22 25 35 81 54 51 65
REMARK Flexibility Score: inf
ROOT
ATOM      1  C   UNL A   1      43.305  24.095  24.656  1.00  0.00     0.117 C 
ENDROOT
BRANCH   1   2
ATOM      2  N   UNL A   1      44.412  23.187  24.944  1.00  0.00    -0.356 N 
ATOM      3  C   UNL A   1      44.602  22.237  25.888  1.00  0.00     0.225 C 
ATOM      4  O   UNL A   1      45.698  21.676  25.930  1.00  0.00    -0.275 OA
ATOM      5  H   UNL A   1      45.172  23.286  24.327  1.00  0.00     0.163 HD
BRANCH   3   6
ATOM      6  C   UNL A   1      43.515  21.823  26.845  1.00  0.00     0.107 C 
ATOM      7  N   UNL A   1      41.250  22.463  26.898  1.00  0.00    -0.312 N 
ATOM      8  C   UNL A   1      42.187  21.672  26.140  1.00  0.00     0.139 C 
ATOM      9  C   UNL A   1      41.851  23.162  27.942  1.00  0.00     0.227 C 
ATOM     10  C   UNL A   1      43.300  22.758  28.018  1.00  0.00     0.116 C 
ATOM     11  O   UNL A   1      41.334  23.938  28.733  1.00  0.00    -0.274 OA
BRANCH   7  12
ATOM     12  C   UNL A   1      39.904  22.578  26.487  1.00  0.00     0.044 A 
ATOM     13  C   UNL A   1      37.252  22.788  25.576  1.00  0.00     0.120 A 
ATOM     14  C   UNL A   1      37.922  21.569  25.515  1.00  0.00     0.048 A 
ATOM     15  C   UNL A   1      37.897  23.898  26.114  1.00  0.00     0.048 A 
ATOM     16  C   UNL A   1      39.245  21.472  25.938  1.00  0.00     0.030 A 
ATOM     17  C   UNL A   1      39.210  23.787  26.588  1.00  0.00     0.030 A 
BRANCH  13  18
ATOM     18  O   UNL A   1      35.958  22.745  25.153  1.00  0.00    -0.484 OA
BRANCH  18  19
ATOM     19  C   UNL A   1      35.271  21.516  25.289  1.00  0.00     0.329 C 
BRANCH  19  20
ATOM     20  C   UNL A   1      33.774  21.506  25.584  1.00  0.00     0.262 C 
ATOM     21  N   UNL A   1      32.941  20.485  25.245  1.00  0.00    -0.323 N 
ATOM     22  H   UNL A   1      32.035  20.598  25.614  1.00  0.00     0.170 HD
ATOM     23  O   UNL A   1      33.262  22.467  26.174  1.00  0.00    -0.271 OA
BRANCH  21  24
ATOM     24  C   UNL A   1      33.072  19.308  24.492  1.00  0.00     0.041 A 
ATOM     25  C   UNL A   1      34.927  16.009  25.036  1.00  0.00     0.044 C 
ATOM     26  C   UNL A   1      34.080  17.077  24.411  1.00  0.00    -0.049 A 
ATOM     27  C   UNL A   1      33.468  16.853  23.177  1.00  0.00     0.003 A 
ATOM     28  C   UNL A   1      33.880  18.308  25.055  1.00  0.00     0.029 A 
ATOM     29  C   UNL A   1      32.651  17.831  22.616  1.00  0.00     0.002 A 
ATOM     30  C   UNL A   1      32.441  19.045  23.280  1.00  0.00     0.026 A 
ENDBRANCH  21  24
ENDBRANCH  19  20
ENDBRANCH  18  19
ENDBRANCH  13  18
ENDBRANCH   7  12
ENDBRANCH   3   6
ENDBRANCH   1   2
BRANCH   1  31
ATOM     31  C   UNL A   1      43.331  25.362  25.507  1.00  0.00     0.042 C 
BRANCH  31  32
ATOM     32  C   UNL A   1      41.997  26.082  25.533  1.00  0.00     0.118 C 
BRANCH  32  33
ATOM     33  N   UNL A   1      41.625  26.342  26.898  1.00  0.00    -0.352 N 
ATOM     34  C   UNL A   1      42.109  27.374  27.666  1.00  0.00     0.251 C 
ATOM     35  H   UNL A   1      40.973  25.733  27.313  1.00  0.00     0.163 HD
ATOM     36  O   UNL A   1      42.503  27.041  28.770  1.00  0.00    -0.269 OA
BRANCH  34  37
ATOM     37  C   UNL A   1      41.846  28.810  27.211  1.00  0.00     0.039 A 
ATOM     38  C   UNL A   1      42.766  29.665  27.830  1.00  0.00     0.014 A 
ATOM     39  C   UNL A   1      40.505  29.172  27.299  1.00  0.00     0.014 A 
ATOM     40  C   UNL A   1      42.379  30.299  28.996  1.00  0.00     0.010 A 
ATOM     41  C   UNL A   1      40.096  29.630  28.517  1.00  0.00     0.010 A 
ATOM     42  C   UNL A   1      41.070  30.106  29.393  1.00  0.00    -0.014 A 
BRANCH  42  43
ATOM     43  C   UNL A   1      40.586  30.349  30.724  1.00  0.00     0.031 A 
ATOM     44  C   UNL A   1      39.924  31.640  30.905  1.00  0.00     0.074 A 
ATOM     45  C   UNL A   1      40.602  29.266  31.531  1.00  0.00     0.049 A 
ATOM     46  N   UNL A   1      39.700  32.200  32.032  1.00  0.00    -0.248 NA
ATOM     47  C   UNL A   1      39.501  32.465  29.766  1.00  0.00     0.031 C 
ATOM     48  C   UNL A   1      39.909  28.973  32.778  1.00  0.00     0.029 A 
ATOM     49  N   UNL A   1      41.540  28.231  31.423  1.00  0.00    -0.354 N 
ATOM     50  C   UNL A   1      38.739  33.157  31.784  1.00  0.00     0.074 A 
ATOM     51  C   UNL A   1      38.790  33.417  30.371  1.00  0.00     0.031 C 
ATOM     52  C   UNL A   1      40.629  28.051  33.458  1.00  0.00     0.029 A 
ATOM     53  C   UNL A   1      41.884  27.871  32.730  1.00  0.00     0.049 A 
ATOM     54  H   UNL A   1      41.888  27.834  30.592  1.00  0.00     0.167 HD
ATOM     55  C   UNL A   1      37.838  33.417  32.769  1.00  0.00     0.031 A 
ATOM     56  C   UNL A   1      43.105  28.284  33.193  1.00  0.00     0.031 A 
ATOM     57  C   UNL A   1      38.190  32.650  33.968  1.00  0.00     0.049 A 
ATOM     58  C   UNL A   1      42.950  29.341  34.285  1.00  0.00     0.074 A 
ATOM     59  C   UNL A   1      37.707  31.472  34.514  1.00  0.00     0.029 A 
ATOM     60  N   UNL A   1      39.456  32.834  34.511  1.00  0.00    -0.354 N 
ATOM     61  N   UNL A   1      41.949  30.180  34.400  1.00  0.00    -0.248 NA
ATOM     62  C   UNL A   1      43.895  29.459  35.386  1.00  0.00     0.031 C 
ATOM     63  C   UNL A   1      38.723  30.930  35.358  1.00  0.00     0.029 A 
ATOM     64  C   UNL A   1      39.821  31.775  35.319  1.00  0.00     0.049 A 
ATOM     65  H   UNL A   1      40.022  33.622  34.341  1.00  0.00     0.167 HD
ATOM     66  C   UNL A   1      42.062  30.896  35.571  1.00  0.00     0.074 A 
ATOM     67  C   UNL A   1      43.317  30.417  36.132  1.00  0.00     0.031 C 
ATOM     68  C   UNL A   1      41.121  31.809  35.991  1.00  0.00     0.031 A 
BRANCH  55  69
ATOM     69  C   UNL A   1      36.504  34.080  32.533  1.00  0.00    -0.014 A 
ATOM     70  C   UNL A   1      36.012  34.970  33.506  1.00  0.00     0.010 A 
ATOM     71  C   UNL A   1      35.679  33.870  31.408  1.00  0.00     0.010 A 
ATOM     72  C   UNL A   1      34.760  35.588  33.389  1.00  0.00     0.020 A 
ATOM     73  C   UNL A   1      34.411  34.463  31.288  1.00  0.00     0.020 A 
ATOM     74  C   UNL A   1      33.963  35.327  32.279  1.00  0.00     0.054 A 
BRANCH  74  75
ATOM     75  S   UNL A   1      32.366  36.169  32.139  1.00  0.00     0.124 S 
ATOM     76  O   UNL A   1      31.420  35.111  32.488  1.00  0.00    -0.237 OA
ATOM     77  O   UNL A   1      32.495  37.245  33.117  1.00  0.00    -0.237 OA
ATOM     78  O   UNL A   1      32.321  36.600  30.743  1.00  0.00    -0.744 OA
ENDBRANCH  74  75
ENDBRANCH  55  69
BRANCH  56  79
ATOM     79  C   UNL A   1      44.205  28.238  32.151  1.00  0.00    -0.014 A 
ATOM     80  C   UNL A   1      44.562  26.989  31.576  1.00  0.00     0.010 A 
ATOM     81  C   UNL A   1      44.683  29.392  31.510  1.00  0.00     0.010 A 
ATOM     82  C   UNL A   1      45.264  26.901  30.355  1.00  0.00     0.020 A 
ATOM     83  C   UNL A   1      45.399  29.305  30.290  1.00  0.00     0.020 A 
ATOM     84  C   UNL A   1      45.642  28.064  29.688  1.00  0.00     0.054 A 
BRANCH  84  85
ATOM     85  S   UNL A   1      46.525  27.959  28.078  1.00  0.00     0.124 S 
ATOM     86  O   UNL A   1      46.476  29.336  27.589  1.00  0.00    -0.237 OA
ATOM     87  O   UNL A   1      47.859  27.465  28.401  1.00  0.00    -0.237 OA
ATOM     88  O   UNL A   1      45.708  27.011  27.323  1.00  0.00    -0.744 OA
ENDBRANCH  84  85
ENDBRANCH  56  79
BRANCH  68  89
ATOM     89  C   UNL A   1      41.289  32.871  37.078  1.00  0.00    -0.014 A 
ATOM     90  C   UNL A   1      42.466  33.572  37.357  1.00  0.00     0.010 A 
ATOM     91  C   UNL A   1      40.156  33.251  37.853  1.00  0.00     0.010 A 
ATOM     92  C   UNL A   1      42.502  34.609  38.303  1.00  0.00     0.020 A 
ATOM     93  C   UNL A   1      40.166  34.302  38.771  1.00  0.00     0.020 A 
ATOM     94  C   UNL A   1      41.349  34.978  38.991  1.00  0.00     0.054 A 
BRANCH  94  95
ATOM     95  S   UNL A   1      41.429  36.341  40.170  1.00  0.00     0.124 S 
ATOM     96  O   UNL A   1      40.509  35.892  41.212  1.00  0.00    -0.237 OA
ATOM     97  O   UNL A   1      42.842  36.349  40.540  1.00  0.00    -0.237 OA
ATOM     98  O   UNL A   1      40.982  37.499  39.401  1.00  0.00    -0.744 OA
ENDBRANCH  94  95
ENDBRANCH  68  89
ENDBRANCH  42  43
ENDBRANCH  34  37
ENDBRANCH  32  33
ENDBRANCH  31  32
ENDBRANCH   1  31
TORSDOF 18
ENDMDL
