MODEL 1
REMARK VINA RESULT:      -9.0      0.000      0.000
REMARK SMILES C[C@@H](C(=O)NCCCNC(=O)c1ccc(-c2c3nc(c(-c4ccc(S(=O)(=O)[O-])cc4)c4ccc([nH]4)c(-c4ccc(S(=O)(=O)[O-])cc4)c4nc(c(-c5ccc(S(=O)(=O)[O-])cc5)c5ccc2[nH]5)C=C4)C=C3)cc1)c1ccc(OC2CCCC2)cc1F
REMARK SMILES IDX 7 1 6 2 5 3 3 4 4 5 2 7 1 8 72 9 73 10 83 11 74 12 82 13
REMARK SMILES IDX 84 14 75 15 76 16 77 17 78 18 81 19 79 20 80 21 8 22 9 23
REMARK SMILES IDX 10 24 11 26 12 27 13 28 71 29 14 30 70 31 15 32 16 33 17 34
REMARK SMILES IDX 64 35 18 36 69 37 63 38 65 39 19 40 68 41 62 42 61 43 20 45
REMARK SMILES IDX 50 46 31 47 49 48 32 49 35 50 48 51 66 52 33 53 34 54 47 56
REMARK SMILES IDX 67 57 36 58 21 59 22 60 30 61 23 62 29 63 24 64 25 65 26 66
REMARK SMILES IDX 27 67 28 68 51 69 52 70 60 71 53 72 59 73 54 74 55 75 56 76
REMARK SMILES IDX 57 77 58 78 37 79 38 80 46 81 39 82 45 83 40 84 41 85 42 86
REMARK SMILES IDX 43 87 44 88
REMARK H PARENT 5 6 9 25 65 44 35 55
REMARK Flexibility Score: inf
ROOT
ATOM      1  C   UNL A   1      41.312  20.495  26.153  1.00  0.00     0.042 C 
ENDROOT
BRANCH   1   2
ATOM      2  C   UNL A   1      42.824  20.652  26.297  1.00  0.00     0.117 C 
BRANCH   2   3
ATOM      3  N   UNL A   1      43.152  21.646  27.299  1.00  0.00    -0.356 N 
ATOM      4  C   UNL A   1      44.059  22.661  27.264  1.00  0.00     0.227 C 
ATOM      5  O   UNL A   1      44.293  23.239  28.329  1.00  0.00    -0.274 OA
ATOM      6  H   UNL A   1      42.638  21.576  28.137  1.00  0.00     0.163 HD
BRANCH   4   7
ATOM      7  C   UNL A   1      44.720  23.062  25.934  1.00  0.00     0.108 C 
ATOM      8  C   UNL A   1      46.059  22.346  25.744  1.00  0.00     0.023 C 
BRANCH   7   9
ATOM      9  C   UNL A   1      44.816  24.578  25.829  1.00  0.00     0.000 A 
ATOM     10  C   UNL A   1      45.915  25.320  26.276  1.00  0.00     0.011 A 
ATOM     11  C   UNL A   1      43.721  25.283  25.318  1.00  0.00     0.130 A 
ATOM     12  C   UNL A   1      45.911  26.715  26.180  1.00  0.00     0.047 A 
ATOM     13  C   UNL A   1      43.706  26.673  25.243  1.00  0.00     0.086 A 
ATOM     14  F   UNL A   1      42.644  24.610  24.886  1.00  0.00    -0.207 F 
ATOM     15  C   UNL A   1      44.814  27.403  25.654  1.00  0.00     0.122 A 
BRANCH  15  16
ATOM     16  O   UNL A   1      44.972  28.755  25.620  1.00  0.00    -0.490 OA
BRANCH  16  17
ATOM     17  C   UNL A   1      45.085  29.552  26.789  1.00  0.00     0.173 C 
ATOM     18  C   UNL A   1      46.394  30.309  26.990  1.00  0.00     0.045 C 
ATOM     19  C   UNL A   1      43.957  30.554  27.018  1.00  0.00     0.045 C 
ATOM     20  C   UNL A   1      46.050  31.337  28.055  1.00  0.00     0.004 C 
ATOM     21  C   UNL A   1      44.568  31.665  27.871  1.00  0.00     0.004 C 
ENDBRANCH  16  17
ENDBRANCH  15  16
ENDBRANCH   7   9
ENDBRANCH   4   7
ENDBRANCH   2   3
ENDBRANCH   1   2
BRANCH   1  22
ATOM     22  C   UNL A   1      40.509  21.627  26.786  1.00  0.00     0.118 C 
BRANCH  22  23
ATOM     23  N   UNL A   1      39.336  21.980  26.002  1.00  0.00    -0.352 N 
ATOM     24  C   UNL A   1      38.619  23.148  25.981  1.00  0.00     0.251 C 
ATOM     25  H   UNL A   1      39.010  21.276  25.397  1.00  0.00     0.163 HD
ATOM     26  O   UNL A   1      37.534  23.175  25.398  1.00  0.00    -0.269 OA
BRANCH  24  27
ATOM     27  C   UNL A   1      39.126  24.361  26.658  1.00  0.00     0.039 A 
ATOM     28  C   UNL A   1      38.805  24.567  28.003  1.00  0.00     0.014 A 
ATOM     29  C   UNL A   1      39.877  25.318  25.969  1.00  0.00     0.014 A 
ATOM     30  C   UNL A   1      39.264  25.709  28.663  1.00  0.00     0.010 A 
ATOM     31  C   UNL A   1      40.400  26.416  26.648  1.00  0.00     0.010 A 
ATOM     32  C   UNL A   1      40.083  26.635  27.996  1.00  0.00    -0.014 A 
BRANCH  32  33
ATOM     33  C   UNL A   1      40.577  27.859  28.678  1.00  0.00     0.031 A 
ATOM     34  C   UNL A   1      41.990  27.913  29.196  1.00  0.00     0.074 A 
ATOM     35  C   UNL A   1      39.746  28.901  28.876  1.00  0.00     0.049 A 
ATOM     36  N   UNL A   1      42.592  28.869  29.858  1.00  0.00    -0.248 NA
ATOM     37  C   UNL A   1      42.831  26.727  28.964  1.00  0.00     0.031 C 
ATOM     38  C   UNL A   1      38.344  28.961  28.453  1.00  0.00     0.029 A 
ATOM     39  N   UNL A   1      39.959  30.111  29.487  1.00  0.00    -0.354 N 
ATOM     40  C   UNL A   1      43.866  28.389  30.143  1.00  0.00     0.074 A 
ATOM     41  C   UNL A   1      43.936  27.042  29.623  1.00  0.00     0.031 C 
ATOM     42  C   UNL A   1      37.835  30.157  28.791  1.00  0.00     0.029 A 
ATOM     43  C   UNL A   1      38.856  30.933  29.487  1.00  0.00     0.049 A 
ATOM     44  H   UNL A   1      40.821  30.368  29.889  1.00  0.00     0.167 HD
ATOM     45  C   UNL A   1      44.893  29.019  30.764  1.00  0.00     0.031 A 
ATOM     46  C   UNL A   1      38.687  32.172  29.988  1.00  0.00     0.031 A 
ATOM     47  C   UNL A   1      44.829  30.367  31.259  1.00  0.00     0.049 A 
ATOM     48  C   UNL A   1      39.845  32.856  30.663  1.00  0.00     0.074 A 
ATOM     49  C   UNL A   1      45.831  31.116  31.850  1.00  0.00     0.029 A 
ATOM     50  N   UNL A   1      43.699  31.172  31.220  1.00  0.00    -0.354 N 
ATOM     51  N   UNL A   1      41.061  32.407  30.870  1.00  0.00    -0.248 NA
ATOM     52  C   UNL A   1      39.613  34.221  31.155  1.00  0.00     0.031 C 
ATOM     53  C   UNL A   1      45.295  32.357  32.209  1.00  0.00     0.029 A 
ATOM     54  C   UNL A   1      43.975  32.403  31.790  1.00  0.00     0.049 A 
ATOM     55  H   UNL A   1      42.830  30.906  30.842  1.00  0.00     0.167 HD
ATOM     56  C   UNL A   1      41.749  33.450  31.481  1.00  0.00     0.074 A 
ATOM     57  C   UNL A   1      40.816  34.552  31.604  1.00  0.00     0.031 C 
ATOM     58  C   UNL A   1      43.039  33.493  31.897  1.00  0.00     0.031 A 
BRANCH  45  59
ATOM     59  C   UNL A   1      46.173  28.246  30.947  1.00  0.00    -0.014 A 
ATOM     60  C   UNL A   1      46.456  27.577  32.153  1.00  0.00     0.010 A 
ATOM     61  C   UNL A   1      47.095  28.163  29.889  1.00  0.00     0.010 A 
ATOM     62  C   UNL A   1      47.658  26.882  32.313  1.00  0.00     0.020 A 
ATOM     63  C   UNL A   1      48.285  27.443  30.034  1.00  0.00     0.020 A 
ATOM     64  C   UNL A   1      48.568  26.825  31.254  1.00  0.00     0.054 A 
BRANCH  64  65
ATOM     65  S   UNL A   1      50.115  25.906  31.484  1.00  0.00     0.124 S 
ATOM     66  O   UNL A   1      49.660  24.737  32.233  1.00  0.00    -0.237 OA
ATOM     67  O   UNL A   1      50.540  25.644  30.112  1.00  0.00    -0.237 OA
ATOM     68  O   UNL A   1      50.962  26.834  32.230  1.00  0.00    -0.744 OA
ENDBRANCH  64  65
ENDBRANCH  45  59
BRANCH  46  69
ATOM     69  C   UNL A   1      37.376  32.861  29.841  1.00  0.00    -0.014 A 
ATOM     70  C   UNL A   1      36.971  33.359  28.588  1.00  0.00     0.010 A 
ATOM     71  C   UNL A   1      36.519  33.013  30.945  1.00  0.00     0.010 A 
ATOM     72  C   UNL A   1      35.744  34.014  28.449  1.00  0.00     0.020 A 
ATOM     73  C   UNL A   1      35.279  33.643  30.804  1.00  0.00     0.020 A 
ATOM     74  C   UNL A   1      34.905  34.151  29.559  1.00  0.00     0.054 A 
BRANCH  74  75
ATOM     75  S   UNL A   1      33.295  34.960  29.344  1.00  0.00     0.124 S 
ATOM     76  O   UNL A   1      32.723  34.859  30.682  1.00  0.00    -0.237 OA
ATOM     77  O   UNL A   1      33.674  36.305  28.916  1.00  0.00    -0.237 OA
ATOM     78  O   UNL A   1      32.641  34.151  28.319  1.00  0.00    -0.744 OA
ENDBRANCH  74  75
ENDBRANCH  46  69
BRANCH  58  79
ATOM     79  C   UNL A   1      43.539  34.791  32.472  1.00  0.00    -0.014 A 
ATOM     80  C   UNL A   1      43.507  35.045  33.854  1.00  0.00     0.010 A 
ATOM     81  C   UNL A   1      44.093  35.756  31.610  1.00  0.00     0.010 A 
ATOM     82  C   UNL A   1      43.985  36.257  34.360  1.00  0.00     0.020 A 
ATOM     83  C   UNL A   1      44.597  36.957  32.114  1.00  0.00     0.020 A 
ATOM     84  C   UNL A   1      44.524  37.207  33.486  1.00  0.00     0.054 A 
BRANCH  84  85
ATOM     85  S   UNL A   1      45.167  38.759  34.168  1.00  0.00     0.124 S 
ATOM     86  O   UNL A   1      46.074  39.201  33.112  1.00  0.00    -0.237 OA
ATOM     87  O   UNL A   1      43.960  39.562  34.338  1.00  0.00    -0.237 OA
ATOM     88  O   UNL A   1      45.815  38.348  35.413  1.00  0.00    -0.744 OA
ENDBRANCH  84  85
ENDBRANCH  58  79
ENDBRANCH  32  33
ENDBRANCH  24  27
ENDBRANCH  22  23
ENDBRANCH   1  22
TORSDOF 16
ENDMDL
MODEL 2
REMARK VINA RESULT:      -8.9      3.875     10.696
REMARK SMILES C[C@@H](C(=O)NCCCNC(=O)c1ccc(-c2c3nc(c(-c4ccc(S(=O)(=O)[O-])cc4)c4ccc([nH]4)c(-c4ccc(S(=O)(=O)[O-])cc4)c4nc(c(-c5ccc(S(=O)(=O)[O-])cc5)c5ccc2[nH]5)C=C4)C=C3)cc1)c1ccc(OC2CCCC2)cc1F
REMARK SMILES IDX 7 1 6 2 5 3 3 4 4 5 2 7 1 8 72 9 73 10 83 11 74 12 82 13
REMARK SMILES IDX 84 14 75 15 76 16 77 17 78 18 81 19 79 20 80 21 8 22 9 23
REMARK SMILES IDX 10 24 11 26 12 27 13 28 71 29 14 30 70 31 15 32 16 33 17 34
REMARK SMILES IDX 64 35 18 36 69 37 63 38 65 39 19 40 68 41 62 42 61 43 20 45
REMARK SMILES IDX 50 46 31 47 49 48 32 49 35 50 48 51 66 52 33 53 34 54 47 56
REMARK SMILES IDX 67 57 36 58 21 59 22 60 30 61 23 62 29 63 24 64 25 65 26 66
REMARK SMILES IDX 27 67 28 68 51 69 52 70 60 71 53 72 59 73 54 74 55 75 56 76
REMARK SMILES IDX 57 77 58 78 37 79 38 80 46 81 39 82 45 83 40 84 41 85 42 86
REMARK SMILES IDX 43 87 44 88
REMARK H PARENT 5 6 9 25 65 44 35 55
REMARK Flexibility Score: inf
ROOT
ATOM      1  C   UNL A   1      33.287  27.527  26.631  1.00  0.00     0.042 C 
ENDROOT
BRANCH   1   2
ATOM      2  C   UNL A   1      31.793  27.822  26.531  1.00  0.00     0.117 C 
BRANCH   2   3
ATOM      3  N   UNL A   1      31.008  26.634  26.800  1.00  0.00    -0.356 N 
ATOM      4  C   UNL A   1      30.498  25.706  25.943  1.00  0.00     0.227 C 
ATOM      5  O   UNL A   1      29.687  24.902  26.408  1.00  0.00    -0.274 OA
ATOM      6  H   UNL A   1      30.813  26.472  27.752  1.00  0.00     0.163 HD
BRANCH   4   7
ATOM      7  C   UNL A   1      30.958  25.674  24.476  1.00  0.00     0.108 C 
ATOM      8  C   UNL A   1      29.801  25.315  23.541  1.00  0.00     0.023 C 
BRANCH   7   9
ATOM      9  C   UNL A   1      32.172  24.767  24.323  1.00  0.00     0.000 A 
ATOM     10  C   UNL A   1      32.414  23.650  25.130  1.00  0.00     0.011 A 
ATOM     11  C   UNL A   1      33.140  25.102  23.370  1.00  0.00     0.130 A 
ATOM     12  C   UNL A   1      33.573  22.888  24.953  1.00  0.00     0.047 A 
ATOM     13  C   UNL A   1      34.306  24.358  23.208  1.00  0.00     0.086 A 
ATOM     14  F   UNL A   1      32.952  26.170  22.581  1.00  0.00    -0.207 F 
ATOM     15  C   UNL A   1      34.523  23.228  23.986  1.00  0.00     0.122 A 
BRANCH  15  16
ATOM     16  O   UNL A   1      35.588  22.381  23.934  1.00  0.00    -0.490 OA
BRANCH  16  17
ATOM     17  C   UNL A   1      36.861  22.701  24.476  1.00  0.00     0.173 C 
ATOM     18  C   UNL A   1      36.903  23.764  25.569  1.00  0.00     0.045 C 
ATOM     19  C   UNL A   1      37.682  21.519  24.980  1.00  0.00     0.045 C 
ATOM     20  C   UNL A   1      38.276  23.578  26.192  1.00  0.00     0.004 C 
ATOM     21  C   UNL A   1      38.620  22.097  26.039  1.00  0.00     0.004 C 
ENDBRANCH  16  17
ENDBRANCH  15  16
ENDBRANCH   7   9
ENDBRANCH   4   7
ENDBRANCH   2   3
ENDBRANCH   1   2
BRANCH   1  22
ATOM     22  C   UNL A   1      34.178  28.692  26.212  1.00  0.00     0.118 C 
BRANCH  22  23
ATOM     23  N   UNL A   1      33.881  29.910  26.950  1.00  0.00    -0.352 N 
ATOM     24  C   UNL A   1      34.612  30.542  27.923  1.00  0.00     0.251 C 
ATOM     25  H   UNL A   1      33.030  30.344  26.716  1.00  0.00     0.163 HD
ATOM     26  O   UNL A   1      34.090  31.451  28.570  1.00  0.00    -0.269 OA
BRANCH  24  27
ATOM     27  C   UNL A   1      36.006  30.135  28.209  1.00  0.00     0.039 A 
ATOM     28  C   UNL A   1      36.306  29.592  29.461  1.00  0.00     0.014 A 
ATOM     29  C   UNL A   1      37.025  30.325  27.271  1.00  0.00     0.014 A 
ATOM     30  C   UNL A   1      37.615  29.209  29.759  1.00  0.00     0.010 A 
ATOM     31  C   UNL A   1      38.314  29.870  27.540  1.00  0.00     0.010 A 
ATOM     32  C   UNL A   1      38.628  29.326  28.793  1.00  0.00    -0.014 A 
BRANCH  32  33
ATOM     33  C   UNL A   1      40.028  28.929  29.092  1.00  0.00     0.031 A 
ATOM     34  C   UNL A   1      40.966  29.911  29.746  1.00  0.00     0.074 A 
ATOM     35  C   UNL A   1      40.473  27.708  28.734  1.00  0.00     0.049 A 
ATOM     36  N   UNL A   1      42.233  29.771  30.043  1.00  0.00    -0.248 NA
ATOM     37  C   UNL A   1      40.415  31.234  30.085  1.00  0.00     0.031 C 
ATOM     38  C   UNL A   1      39.675  26.677  28.066  1.00  0.00     0.029 A 
ATOM     39  N   UNL A   1      41.707  27.127  28.883  1.00  0.00    -0.354 N 
ATOM     40  C   UNL A   1      42.634  30.991  30.577  1.00  0.00     0.074 A 
ATOM     41  C   UNL A   1      41.490  31.874  30.520  1.00  0.00     0.031 C 
ATOM     42  C   UNL A   1      40.432  25.583  27.889  1.00  0.00     0.029 A 
ATOM     43  C   UNL A   1      41.776  25.843  28.394  1.00  0.00     0.049 A 
ATOM     44  H   UNL A   1      42.472  27.586  29.298  1.00  0.00     0.167 HD
ATOM     45  C   UNL A   1      43.840  31.341  31.087  1.00  0.00     0.031 A 
ATOM     46  C   UNL A   1      42.804  24.974  28.360  1.00  0.00     0.031 A 
ATOM     47  C   UNL A   1      44.970  30.455  31.163  1.00  0.00     0.049 A 
ATOM     48  C   UNL A   1      44.131  25.381  28.942  1.00  0.00     0.074 A 
ATOM     49  C   UNL A   1      46.216  30.694  31.715  1.00  0.00     0.029 A 
ATOM     50  N   UNL A   1      44.990  29.156  30.677  1.00  0.00    -0.354 N 
ATOM     51  N   UNL A   1      44.473  26.520  29.496  1.00  0.00    -0.248 NA
ATOM     52  C   UNL A   1      45.204  24.377  28.911  1.00  0.00     0.031 C 
ATOM     53  C   UNL A   1      47.005  29.556  31.521  1.00  0.00     0.029 A 
ATOM     54  C   UNL A   1      46.232  28.587  30.901  1.00  0.00     0.049 A 
ATOM     55  H   UNL A   1      44.234  28.705  30.237  1.00  0.00     0.167 HD
ATOM     56  C   UNL A   1      45.790  26.355  29.915  1.00  0.00     0.074 A 
ATOM     57  C   UNL A   1      46.177  25.006  29.556  1.00  0.00     0.031 C 
ATOM     58  C   UNL A   1      46.601  27.240  30.546  1.00  0.00     0.031 A 
BRANCH  45  59
ATOM     59  C   UNL A   1      43.997  32.752  31.593  1.00  0.00    -0.014 A 
ATOM     60  C   UNL A   1      44.370  33.800  30.732  1.00  0.00     0.010 A 
ATOM     61  C   UNL A   1      43.741  33.039  32.946  1.00  0.00     0.010 A 
ATOM     62  C   UNL A   1      44.531  35.098  31.224  1.00  0.00     0.020 A 
ATOM     63  C   UNL A   1      43.871  34.342  33.436  1.00  0.00     0.020 A 
ATOM     64  C   UNL A   1      44.287  35.359  32.575  1.00  0.00     0.054 A 
BRANCH  64  65
ATOM     65  S   UNL A   1      44.492  37.055  33.185  1.00  0.00     0.124 S 
ATOM     66  O   UNL A   1      43.162  37.345  33.717  1.00  0.00    -0.237 OA
ATOM     67  O   UNL A   1      45.549  36.913  34.182  1.00  0.00    -0.237 OA
ATOM     68  O   UNL A   1      44.863  37.811  31.991  1.00  0.00    -0.744 OA
ENDBRANCH  64  65
ENDBRANCH  45  59
BRANCH  46  69
ATOM     69  C   UNL A   1      42.611  23.616  27.780  1.00  0.00    -0.014 A 
ATOM     70  C   UNL A   1      42.346  22.517  28.617  1.00  0.00     0.010 A 
ATOM     71  C   UNL A   1      42.677  23.416  26.389  1.00  0.00     0.010 A 
ATOM     72  C   UNL A   1      42.173  21.240  28.077  1.00  0.00     0.020 A 
ATOM     73  C   UNL A   1      42.476  22.145  25.842  1.00  0.00     0.020 A 
ATOM     74  C   UNL A   1      42.238  21.062  26.691  1.00  0.00     0.054 A 
BRANCH  74  75
ATOM     75  S   UNL A   1      41.961  19.404  26.008  1.00  0.00     0.124 S 
ATOM     76  O   UNL A   1      40.524  19.417  25.755  1.00  0.00    -0.237 OA
ATOM     77  O   UNL A   1      42.813  19.406  24.821  1.00  0.00    -0.237 OA
ATOM     78  O   UNL A   1      42.402  18.516  27.079  1.00  0.00    -0.744 OA
ENDBRANCH  74  75
ENDBRANCH  46  69
BRANCH  58  79
ATOM     79  C   UNL A   1      47.972  26.762  30.942  1.00  0.00    -0.014 A 
ATOM     80  C   UNL A   1      49.082  26.923  30.095  1.00  0.00     0.010 A 
ATOM     81  C   UNL A   1      48.156  26.178  32.210  1.00  0.00     0.010 A 
ATOM     82  C   UNL A   1      50.345  26.476  30.493  1.00  0.00     0.020 A 
ATOM     83  C   UNL A   1      49.421  25.754  32.623  1.00  0.00     0.020 A 
ATOM     84  C   UNL A   1      50.505  25.891  31.754  1.00  0.00     0.054 A 
BRANCH  84  85
ATOM     85  S   UNL A   1      52.158  25.347  32.262  1.00  0.00     0.124 S 
ATOM     86  O   UNL A   1      51.981  23.901  32.371  1.00  0.00    -0.237 OA
ATOM     87  O   UNL A   1      53.000  25.795  31.156  1.00  0.00    -0.237 OA
ATOM     88  O   UNL A   1      52.379  26.044  33.528  1.00  0.00    -0.744 OA
ENDBRANCH  84  85
ENDBRANCH  58  79
ENDBRANCH  32  33
ENDBRANCH  24  27
ENDBRANCH  22  23
ENDBRANCH   1  22
TORSDOF 16
ENDMDL
MODEL 3
REMARK VINA RESULT:      -8.9      4.764      7.751
REMARK SMILES C[C@@H](C(=O)NCCCNC(=O)c1ccc(-c2c3nc(c(-c4ccc(S(=O)(=O)[O-])cc4)c4ccc([nH]4)c(-c4ccc(S(=O)(=O)[O-])cc4)c4nc(c(-c5ccc(S(=O)(=O)[O-])cc5)c5ccc2[nH]5)C=C4)C=C3)cc1)c1ccc(OC2CCCC2)cc1F
REMARK SMILES IDX 7 1 6 2 5 3 3 4 4 5 2 7 1 8 72 9 73 10 83 11 74 12 82 13
REMARK SMILES IDX 84 14 75 15 76 16 77 17 78 18 81 19 79 20 80 21 8 22 9 23
REMARK SMILES IDX 10 24 11 26 12 27 13 28 71 29 14 30 70 31 15 32 16 33 17 34
REMARK SMILES IDX 64 35 18 36 69 37 63 38 65 39 19 40 68 41 62 42 61 43 20 45
REMARK SMILES IDX 50 46 31 47 49 48 32 49 35 50 48 51 66 52 33 53 34 54 47 56
REMARK SMILES IDX 67 57 36 58 21 59 22 60 30 61 23 62 29 63 24 64 25 65 26 66
REMARK SMILES IDX 27 67 28 68 51 69 52 70 60 71 53 72 59 73 54 74 55 75 56 76
REMARK SMILES IDX 57 77 58 78 37 79 38 80 46 81 39 82 45 83 40 84 41 85 42 86
REMARK SMILES IDX 43 87 44 88
REMARK H PARENT 5 6 9 25 65 44 35 55
REMARK Flexibility Score: inf
ROOT
ATOM      1  C   UNL A   1      38.943  22.542  26.360  1.00  0.00     0.042 C 
ENDROOT
BRANCH   1   2
ATOM      2  C   UNL A   1      37.523  22.831  25.879  1.00  0.00     0.117 C 
BRANCH   2   3
ATOM      3  N   UNL A   1      37.486  23.009  24.442  1.00  0.00    -0.356 N 
ATOM      4  C   UNL A   1      36.428  23.223  23.611  1.00  0.00     0.227 C 
ATOM      5  O   UNL A   1      36.641  23.132  22.399  1.00  0.00    -0.274 OA
ATOM      6  H   UNL A   1      38.364  22.969  23.995  1.00  0.00     0.163 HD
BRANCH   4   7
ATOM      7  C   UNL A   1      35.051  23.588  24.191  1.00  0.00     0.108 C 
ATOM      8  C   UNL A   1      35.192  24.412  25.472  1.00  0.00     0.023 C 
BRANCH   7   9
ATOM      9  C   UNL A   1      34.200  22.337  24.358  1.00  0.00     0.000 A 
ATOM     10  C   UNL A   1      34.374  21.411  25.392  1.00  0.00     0.011 A 
ATOM     11  C   UNL A   1      33.230  22.054  23.389  1.00  0.00     0.130 A 
ATOM     12  C   UNL A   1      33.576  20.264  25.456  1.00  0.00     0.047 A 
ATOM     13  C   UNL A   1      32.451  20.901  23.438  1.00  0.00     0.086 A 
ATOM     14  F   UNL A   1      33.036  22.912  22.376  1.00  0.00    -0.207 F 
ATOM     15  C   UNL A   1      32.602  20.004  24.487  1.00  0.00     0.122 A 
BRANCH  15  16
ATOM     16  O   UNL A   1      31.905  18.854  24.698  1.00  0.00    -0.490 OA
BRANCH  16  17
ATOM     17  C   UNL A   1      32.473  17.562  24.535  1.00  0.00     0.173 C 
ATOM     18  C   UNL A   1      33.473  17.382  23.398  1.00  0.00     0.045 C 
ATOM     19  C   UNL A   1      33.110  16.957  25.782  1.00  0.00     0.045 C 
ATOM     20  C   UNL A   1      34.169  16.075  23.741  1.00  0.00     0.004 C 
ATOM     21  C   UNL A   1      34.156  15.970  25.266  1.00  0.00     0.004 C 
ENDBRANCH  16  17
ENDBRANCH  15  16
ENDBRANCH   7   9
ENDBRANCH   4   7
ENDBRANCH   2   3
ENDBRANCH   1   2
BRANCH   1  22
ATOM     22  C   UNL A   1      39.655  23.754  26.951  1.00  0.00     0.118 C 
BRANCH  22  23
ATOM     23  N   UNL A   1      40.600  24.350  26.019  1.00  0.00    -0.352 N 
ATOM     24  C   UNL A   1      41.150  25.605  26.016  1.00  0.00     0.251 C 
ATOM     25  H   UNL A   1      40.888  23.764  25.283  1.00  0.00     0.163 HD
ATOM     26  O   UNL A   1      41.773  25.985  25.024  1.00  0.00    -0.269 OA
BRANCH  24  27
ATOM     27  C   UNL A   1      40.992  26.505  27.180  1.00  0.00     0.039 A 
ATOM     28  C   UNL A   1      40.088  26.152  28.187  1.00  0.00     0.014 A 
ATOM     29  C   UNL A   1      41.692  27.712  27.266  1.00  0.00     0.014 A 
ATOM     30  C   UNL A   1      39.914  26.989  29.291  1.00  0.00     0.010 A 
ATOM     31  C   UNL A   1      41.577  28.506  28.405  1.00  0.00     0.010 A 
ATOM     32  C   UNL A   1      40.671  28.164  29.420  1.00  0.00    -0.014 A 
BRANCH  32  33
ATOM     33  C   UNL A   1      40.497  29.070  30.585  1.00  0.00     0.031 A 
ATOM     34  C   UNL A   1      41.361  28.901  31.807  1.00  0.00     0.074 A 
ATOM     35  C   UNL A   1      39.532  30.012  30.567  1.00  0.00     0.049 A 
ATOM     36  N   UNL A   1      41.330  29.557  32.938  1.00  0.00    -0.248 NA
ATOM     37  C   UNL A   1      42.376  27.834  31.762  1.00  0.00     0.031 C 
ATOM     38  C   UNL A   1      38.607  30.257  29.458  1.00  0.00     0.029 A 
ATOM     39  N   UNL A   1      39.169  30.938  31.511  1.00  0.00    -0.354 N 
ATOM     40  C   UNL A   1      42.298  28.968  33.746  1.00  0.00     0.074 A 
ATOM     41  C   UNL A   1      42.866  27.873  32.992  1.00  0.00     0.031 C 
ATOM     42  C   UNL A   1      37.803  31.285  29.775  1.00  0.00     0.029 A 
ATOM     43  C   UNL A   1      38.128  31.748  31.121  1.00  0.00     0.049 A 
ATOM     44  H   UNL A   1      39.611  31.016  32.388  1.00  0.00     0.167 HD
ATOM     45  C   UNL A   1      42.693  29.318  34.994  1.00  0.00     0.031 A 
ATOM     46  C   UNL A   1      37.507  32.750  31.772  1.00  0.00     0.031 A 
ATOM     47  C   UNL A   1      42.142  30.422  35.732  1.00  0.00     0.049 A 
ATOM     48  C   UNL A   1      37.971  33.129  33.153  1.00  0.00     0.074 A 
ATOM     49  C   UNL A   1      42.514  30.895  36.979  1.00  0.00     0.029 A 
ATOM     50  N   UNL A   1      41.104  31.230  35.291  1.00  0.00    -0.354 N 
ATOM     51  N   UNL A   1      38.927  32.597  33.875  1.00  0.00    -0.248 NA
ATOM     52  C   UNL A   1      37.281  34.255  33.797  1.00  0.00     0.031 C 
ATOM     53  C   UNL A   1      41.670  31.959  37.311  1.00  0.00     0.029 A 
ATOM     54  C   UNL A   1      40.811  32.187  36.247  1.00  0.00     0.049 A 
ATOM     55  H   UNL A   1      40.643  31.135  34.427  1.00  0.00     0.167 HD
ATOM     56  C   UNL A   1      38.981  33.350  35.044  1.00  0.00     0.074 A 
ATOM     57  C   UNL A   1      37.965  34.376  34.927  1.00  0.00     0.031 C 
ATOM     58  C   UNL A   1      39.802  33.208  36.113  1.00  0.00     0.031 A 
BRANCH  45  59
ATOM     59  C   UNL A   1      43.770  28.486  35.640  1.00  0.00    -0.014 A 
ATOM     60  C   UNL A   1      45.128  28.673  35.322  1.00  0.00     0.010 A 
ATOM     61  C   UNL A   1      43.422  27.520  36.602  1.00  0.00     0.010 A 
ATOM     62  C   UNL A   1      46.112  27.878  35.916  1.00  0.00     0.020 A 
ATOM     63  C   UNL A   1      44.406  26.743  37.221  1.00  0.00     0.020 A 
ATOM     64  C   UNL A   1      45.743  26.913  36.857  1.00  0.00     0.054 A 
BRANCH  64  65
ATOM     65  S   UNL A   1      47.041  25.903  37.622  1.00  0.00     0.124 S 
ATOM     66  O   UNL A   1      48.241  26.397  36.950  1.00  0.00    -0.237 OA
ATOM     67  O   UNL A   1      46.927  26.249  39.036  1.00  0.00    -0.237 OA
ATOM     68  O   UNL A   1      46.658  24.534  37.286  1.00  0.00    -0.744 OA
ENDBRANCH  64  65
ENDBRANCH  45  59
BRANCH  46  69
ATOM     69  C   UNL A   1      36.398  33.491  31.110  1.00  0.00    -0.014 A 
ATOM     70  C   UNL A   1      36.515  33.896  29.768  1.00  0.00     0.010 A 
ATOM     71  C   UNL A   1      35.216  33.786  31.812  1.00  0.00     0.010 A 
ATOM     72  C   UNL A   1      35.480  34.600  29.147  1.00  0.00     0.020 A 
ATOM     73  C   UNL A   1      34.166  34.465  31.186  1.00  0.00     0.020 A 
ATOM     74  C   UNL A   1      34.310  34.879  29.861  1.00  0.00     0.054 A 
BRANCH  74  75
ATOM     75  S   UNL A   1      32.958  35.749  29.019  1.00  0.00     0.124 S 
ATOM     76  O   UNL A   1      32.129  36.178  30.140  1.00  0.00    -0.237 OA
ATOM     77  O   UNL A   1      33.663  36.814  28.308  1.00  0.00    -0.237 OA
ATOM     78  O   UNL A   1      32.373  34.722  28.162  1.00  0.00    -0.744 OA
ENDBRANCH  74  75
ENDBRANCH  46  69
BRANCH  58  79
ATOM     79  C   UNL A   1      39.679  34.219  37.221  1.00  0.00    -0.014 A 
ATOM     80  C   UNL A   1      38.858  33.991  38.338  1.00  0.00     0.010 A 
ATOM     81  C   UNL A   1      40.438  35.403  37.158  1.00  0.00     0.010 A 
ATOM     82  C   UNL A   1      38.768  34.946  39.356  1.00  0.00     0.020 A 
ATOM     83  C   UNL A   1      40.373  36.347  38.185  1.00  0.00     0.020 A 
ATOM     84  C   UNL A   1      39.524  36.120  39.271  1.00  0.00     0.054 A 
BRANCH  84  85
ATOM     85  S   UNL A   1      39.417  37.329  40.617  1.00  0.00     0.124 S 
ATOM     86  O   UNL A   1      38.448  38.286  40.088  1.00  0.00    -0.237 OA
ATOM     87  O   UNL A   1      38.953  36.521  41.741  1.00  0.00    -0.237 OA
ATOM     88  O   UNL A   1      40.784  37.832  40.741  1.00  0.00    -0.744 OA
ENDBRANCH  84  85
ENDBRANCH  58  79
ENDBRANCH  32  33
ENDBRANCH  24  27
ENDBRANCH  22  23
ENDBRANCH   1  22
TORSDOF 16
ENDMDL
