MODEL 1
REMARK VINA RESULT:     -11.3      0.000      0.000
REMARK SMILES C/C=C(\C)[C@H]1C(C)=C[C@H]2CC[C@@H](OS(=O)(=O)[O-])[C@@H](C)[C@H]2[C@H]1/C=C/C=C/C(=O)NCCCNC(=O)c1ccc(-c2c3nc(c(-c4ccc(S(=O)(=O)[O-])cc4)c4ccc([nH]4)c(-c4ccc(S(=O)(=O)[O-])cc4)c4nc(c(-c5ccc(S(=O)(=O)[O-])cc5)c5ccc2[nH]5)C=C4)C=C3)cc1
REMARK SMILES IDX 29 1 28 2 26 3 27 4 25 6 24 7 23 8 22 9 21 10 5 11 6 12 7 13
REMARK SMILES IDX 8 14 20 15 9 16 18 17 10 18 12 19 19 20 11 21 3 22 1 23 2 24
REMARK SMILES IDX 4 25 13 26 14 27 15 28 16 29 17 30 30 31 31 32 32 33 33 34
REMARK SMILES IDX 34 36 35 37 36 38 94 39 37 40 93 41 38 42 39 43 40 44 87 45
REMARK SMILES IDX 41 46 92 47 86 48 88 49 42 50 91 51 85 52 84 53 43 55 73 56
REMARK SMILES IDX 54 57 72 58 55 59 58 60 71 61 89 62 56 63 57 64 70 66 90 67
REMARK SMILES IDX 59 68 44 69 45 70 53 71 46 72 52 73 47 74 48 75 49 76 50 77
REMARK SMILES IDX 51 78 74 79 75 80 83 81 76 82 82 83 77 84 78 85 79 86 80 87
REMARK SMILES IDX 81 88 60 89 61 90 69 91 62 92 68 93 63 94 64 95 65 96 66 97
REMARK SMILES IDX 67 98
REMARK H PARENT 28 5 32 35 88 54 58 65
REMARK Flexibility Score: inf
ROOT
ATOM      1  C   UNL A   1      38.231  23.139  26.567  1.00  0.00     0.118 C 
ENDROOT
BRANCH   1   2
ATOM      2  N   UNL A   1      38.011  21.822  25.981  1.00  0.00    -0.352 N 
ATOM      3  C   UNL A   1      37.354  21.419  24.859  1.00  0.00     0.243 C 
ATOM      4  O   UNL A   1      37.407  20.237  24.525  1.00  0.00    -0.270 OA
ATOM      5  H   UNL A   1      38.414  21.085  26.493  1.00  0.00     0.163 HD
BRANCH   3   6
ATOM      6  C   UNL A   1      36.656  22.382  23.974  1.00  0.00     0.071 C 
ATOM      7  C   UNL A   1      35.406  22.803  24.182  1.00  0.00     0.005 C 
BRANCH   7   8
ATOM      8  C   UNL A   1      34.712  23.805  23.409  1.00  0.00    -0.004 C 
ATOM      9  C   UNL A   1      34.105  24.794  24.083  1.00  0.00    -0.022 C 
BRANCH   9  10
ATOM     10  C   UNL A   1      33.158  25.844  23.551  1.00  0.00     0.027 C 
ATOM     11  C   UNL A   1      31.628  25.390  23.577  1.00  0.00     0.047 C 
ATOM     12  C   UNL A   1      30.639  26.506  23.925  1.00  0.00    -0.069 C 
ATOM     13  C   UNL A   1      29.187  26.152  24.129  1.00  0.00     0.040 C 
ATOM     14  C   UNL A   1      31.004  27.802  23.951  1.00  0.00    -0.024 C 
ATOM     15  C   UNL A   1      33.463  27.256  24.153  1.00  0.00     0.009 C 
ATOM     16  C   UNL A   1      32.403  28.273  23.673  1.00  0.00     0.016 C 
ATOM     17  C   UNL A   1      33.790  27.349  25.685  1.00  0.00     0.021 C 
ATOM     18  C   UNL A   1      32.662  29.687  24.216  1.00  0.00     0.011 C 
ATOM     19  C   UNL A   1      34.085  28.816  26.089  1.00  0.00     0.141 C 
ATOM     20  C   UNL A   1      32.768  26.716  26.633  1.00  0.00     0.011 C 
ATOM     21  C   UNL A   1      32.921  29.732  25.715  1.00  0.00     0.034 C 
BRANCH  11  22
ATOM     22  C   UNL A   1      31.370  24.028  24.275  1.00  0.00    -0.070 C 
ATOM     23  C   UNL A   1      31.120  22.639  26.425  1.00  0.00     0.035 C 
ATOM     24  C   UNL A   1      31.264  23.887  25.614  1.00  0.00    -0.031 C 
ATOM     25  C   UNL A   1      31.254  22.864  23.313  1.00  0.00     0.040 C 
ENDBRANCH  11  22
BRANCH  19  26
ATOM     26  O   UNL A   1      34.337  28.873  27.489  1.00  0.00    -0.276 OA
BRANCH  26  27
ATOM     27  S   UNL A   1      35.557  29.780  28.051  1.00  0.00     0.217 S 
ATOM     28  O   UNL A   1      35.775  29.478  29.449  1.00  0.00    -0.213 OA
ATOM     29  O   UNL A   1      36.636  29.755  27.092  1.00  0.00    -0.213 OA
ATOM     30  O   UNL A   1      34.962  31.273  27.974  1.00  0.00    -0.726 OA
ENDBRANCH  26  27
ENDBRANCH  19  26
ENDBRANCH   9  10
ENDBRANCH   7   8
ENDBRANCH   3   6
ENDBRANCH   1   2
BRANCH   1  31
ATOM     31  C   UNL A   1      39.714  23.391  26.841  1.00  0.00     0.042 C 
BRANCH  31  32
ATOM     32  C   UNL A   1      39.999  24.805  27.339  1.00  0.00     0.118 C 
BRANCH  32  33
ATOM     33  N   UNL A   1      40.740  25.592  26.361  1.00  0.00    -0.352 N 
ATOM     34  C   UNL A   1      41.104  26.915  26.390  1.00  0.00     0.251 C 
ATOM     35  H   UNL A   1      41.025  25.098  25.557  1.00  0.00     0.163 HD
ATOM     36  O   UNL A   1      41.537  27.448  25.372  1.00  0.00    -0.269 OA
BRANCH  34  37
ATOM     37  C   UNL A   1      40.961  27.698  27.636  1.00  0.00     0.039 A 
ATOM     38  C   UNL A   1      40.236  27.158  28.701  1.00  0.00     0.014 A 
ATOM     39  C   UNL A   1      41.523  28.972  27.744  1.00  0.00     0.014 A 
ATOM     40  C   UNL A   1      40.125  27.872  29.897  1.00  0.00     0.010 A 
ATOM     41  C   UNL A   1      41.479  29.647  28.960  1.00  0.00     0.010 A 
ATOM     42  C   UNL A   1      40.775  29.109  30.047  1.00  0.00    -0.014 A 
BRANCH  42  43
ATOM     43  C   UNL A   1      40.718  29.875  31.319  1.00  0.00     0.031 A 
ATOM     44  C   UNL A   1      41.771  29.647  32.372  1.00  0.00     0.074 A 
ATOM     45  C   UNL A   1      39.690  30.714  31.556  1.00  0.00     0.049 A 
ATOM     46  N   UNL A   1      41.829  30.110  33.593  1.00  0.00    -0.248 NA
ATOM     47  C   UNL A   1      42.894  28.764  32.011  1.00  0.00     0.031 C 
ATOM     48  C   UNL A   1      38.599  31.008  30.623  1.00  0.00     0.029 A 
ATOM     49  N   UNL A   1      39.386  31.466  32.663  1.00  0.00    -0.354 N 
ATOM     50  C   UNL A   1      42.983  29.567  34.148  1.00  0.00     0.074 A 
ATOM     51  C   UNL A   1      43.562  28.694  33.152  1.00  0.00     0.031 C 
ATOM     52  C   UNL A   1      37.761  31.892  31.187  1.00  0.00     0.029 A 
ATOM     53  C   UNL A   1      38.221  32.188  32.541  1.00  0.00     0.049 A 
ATOM     54  H   UNL A   1      39.950  31.488  33.470  1.00  0.00     0.167 HD
ATOM     55  C   UNL A   1      43.526  29.795  35.367  1.00  0.00     0.031 A 
ATOM     56  C   UNL A   1      37.587  32.983  33.425  1.00  0.00     0.031 A 
ATOM     57  C   UNL A   1      42.953  30.674  36.351  1.00  0.00     0.049 A 
ATOM     58  C   UNL A   1      38.186  33.176  34.794  1.00  0.00     0.074 A 
ATOM     59  C   UNL A   1      43.437  30.988  37.609  1.00  0.00     0.029 A 
ATOM     60  N   UNL A   1      41.776  31.387  36.184  1.00  0.00    -0.354 N 
ATOM     61  N   UNL A   1      39.295  32.678  35.288  1.00  0.00    -0.248 NA
ATOM     62  C   UNL A   1      37.454  34.048  35.724  1.00  0.00     0.031 C 
ATOM     63  C   UNL A   1      42.528  31.855  38.221  1.00  0.00     0.029 A 
ATOM     64  C   UNL A   1      41.514  32.134  37.320  1.00  0.00     0.049 A 
ATOM     65  H   UNL A   1      41.211  31.365  35.378  1.00  0.00     0.167 HD
ATOM     66  C   UNL A   1      39.416  33.217  36.565  1.00  0.00     0.074 A 
ATOM     67  C   UNL A   1      38.274  34.082  36.765  1.00  0.00     0.031 C 
ATOM     68  C   UNL A   1      40.388  33.016  37.487  1.00  0.00     0.031 A 
BRANCH  55  69
ATOM     69  C   UNL A   1      44.820  29.100  35.701  1.00  0.00    -0.014 A 
ATOM     70  C   UNL A   1      46.057  29.712  35.425  1.00  0.00     0.010 A 
ATOM     71  C   UNL A   1      44.803  27.856  36.358  1.00  0.00     0.010 A 
ATOM     72  C   UNL A   1      47.252  29.082  35.778  1.00  0.00     0.020 A 
ATOM     73  C   UNL A   1      45.997  27.237  36.742  1.00  0.00     0.020 A 
ATOM     74  C   UNL A   1      47.215  27.851  36.440  1.00  0.00     0.054 A 
BRANCH  74  75
ATOM     75  S   UNL A   1      48.784  27.088  36.934  1.00  0.00     0.124 S 
ATOM     76  O   UNL A   1      49.753  27.864  36.164  1.00  0.00    -0.237 OA
ATOM     77  O   UNL A   1      48.806  27.312  38.378  1.00  0.00    -0.237 OA
ATOM     78  O   UNL A   1      48.638  25.694  36.524  1.00  0.00    -0.744 OA
ENDBRANCH  74  75
ENDBRANCH  55  69
BRANCH  56  79
ATOM     79  C   UNL A   1      36.311  33.662  33.059  1.00  0.00    -0.014 A 
ATOM     80  C   UNL A   1      36.320  34.977  32.559  1.00  0.00     0.010 A 
ATOM     81  C   UNL A   1      35.076  33.017  33.252  1.00  0.00     0.010 A 
ATOM     82  C   UNL A   1      35.120  35.652  32.311  1.00  0.00     0.020 A 
ATOM     83  C   UNL A   1      33.875  33.675  32.970  1.00  0.00     0.020 A 
ATOM     84  C   UNL A   1      33.905  34.997  32.525  1.00  0.00     0.054 A 
BRANCH  84  85
ATOM     85  S   UNL A   1      32.361  35.894  32.206  1.00  0.00     0.124 S 
ATOM     86  O   UNL A   1      31.359  34.964  32.716  1.00  0.00    -0.237 OA
ATOM     87  O   UNL A   1      32.542  37.119  32.981  1.00  0.00    -0.237 OA
ATOM     88  O   UNL A   1      32.365  36.077  30.756  1.00  0.00    -0.744 OA
ENDBRANCH  84  85
ENDBRANCH  56  79
BRANCH  68  89
ATOM     89  C   UNL A   1      40.310  33.802  38.770  1.00  0.00    -0.014 A 
ATOM     90  C   UNL A   1      40.928  35.057  38.905  1.00  0.00     0.010 A 
ATOM     91  C   UNL A   1      39.535  33.301  39.833  1.00  0.00     0.010 A 
ATOM     92  C   UNL A   1      40.792  35.785  40.091  1.00  0.00     0.020 A 
ATOM     93  C   UNL A   1      39.370  34.039  41.006  1.00  0.00     0.020 A 
ATOM     94  C   UNL A   1      40.009  35.274  41.132  1.00  0.00     0.054 A 
BRANCH  94  95
ATOM     95  S   UNL A   1      39.797  36.269  42.633  1.00  0.00     0.124 S 
ATOM     96  O   UNL A   1      41.047  36.017  43.345  1.00  0.00    -0.237 OA
ATOM     97  O   UNL A   1      39.637  37.619  42.099  1.00  0.00    -0.237 OA
ATOM     98  O   UNL A   1      38.601  35.705  43.257  1.00  0.00    -0.744 OA
ENDBRANCH  94  95
ENDBRANCH  68  89
ENDBRANCH  42  43
ENDBRANCH  34  37
ENDBRANCH  32  33
ENDBRANCH  31  32
ENDBRANCH   1  31
TORSDOF 18
ENDMDL
MODEL 2
REMARK VINA RESULT:     -11.0      6.660      9.148
REMARK SMILES C/C=C(\C)[C@H]1C(C)=C[C@H]2CC[C@@H](OS(=O)(=O)[O-])[C@@H](C)[C@H]2[C@H]1/C=C/C=C/C(=O)NCCCNC(=O)c1ccc(-c2c3nc(c(-c4ccc(S(=O)(=O)[O-])cc4)c4ccc([nH]4)c(-c4ccc(S(=O)(=O)[O-])cc4)c4nc(c(-c5ccc(S(=O)(=O)[O-])cc5)c5ccc2[nH]5)C=C4)C=C3)cc1
REMARK SMILES IDX 29 1 28 2 26 3 27 4 25 6 24 7 23 8 22 9 21 10 5 11 6 12 7 13
REMARK SMILES IDX 8 14 20 15 9 16 18 17 10 18 12 19 19 20 11 21 3 22 1 23 2 24
REMARK SMILES IDX 4 25 13 26 14 27 15 28 16 29 17 30 30 31 31 32 32 33 33 34
REMARK SMILES IDX 34 36 35 37 36 38 94 39 37 40 93 41 38 42 39 43 40 44 87 45
REMARK SMILES IDX 41 46 92 47 86 48 88 49 42 50 91 51 85 52 84 53 43 55 73 56
REMARK SMILES IDX 54 57 72 58 55 59 58 60 71 61 89 62 56 63 57 64 70 66 90 67
REMARK SMILES IDX 59 68 44 69 45 70 53 71 46 72 52 73 47 74 48 75 49 76 50 77
REMARK SMILES IDX 51 78 74 79 75 80 83 81 76 82 82 83 77 84 78 85 79 86 80 87
REMARK SMILES IDX 81 88 60 89 61 90 69 91 62 92 68 93 63 94 64 95 65 96 66 97
REMARK SMILES IDX 67 98
REMARK H PARENT 28 5 32 35 88 54 58 65
REMARK Flexibility Score: inf
ROOT
ATOM      1  C   UNL A   1      40.796  20.380  27.302  1.00  0.00     0.118 C 
ENDROOT
BRANCH   1   2
ATOM      2  N   UNL A   1      40.679  21.748  27.793  1.00  0.00    -0.352 N 
ATOM      3  C   UNL A   1      40.024  22.840  27.310  1.00  0.00     0.243 C 
ATOM      4  O   UNL A   1      39.996  23.868  27.983  1.00  0.00    -0.270 OA
ATOM      5  H   UNL A   1      41.165  21.914  28.632  1.00  0.00     0.163 HD
BRANCH   3   6
ATOM      6  C   UNL A   1      39.261  22.794  26.040  1.00  0.00     0.071 C 
ATOM      7  C   UNL A   1      38.062  23.360  25.879  1.00  0.00     0.005 C 
BRANCH   7   8
ATOM      8  C   UNL A   1      37.317  23.427  24.645  1.00  0.00    -0.004 C 
ATOM      9  C   UNL A   1      35.987  23.585  24.734  1.00  0.00    -0.022 C 
BRANCH   9  10
ATOM     10  C   UNL A   1      34.959  23.489  23.631  1.00  0.00     0.027 C 
ATOM     11  C   UNL A   1      33.990  22.229  23.775  1.00  0.00     0.047 C 
ATOM     12  C   UNL A   1      32.539  22.492  23.361  1.00  0.00    -0.069 C 
ATOM     13  C   UNL A   1      31.508  21.417  23.604  1.00  0.00     0.040 C 
ATOM     14  C   UNL A   1      32.176  23.604  22.695  1.00  0.00    -0.024 C 
ATOM     15  C   UNL A   1      34.259  24.865  23.373  1.00  0.00     0.009 C 
ATOM     16  C   UNL A   1      33.139  24.696  22.323  1.00  0.00     0.016 C 
ATOM     17  C   UNL A   1      33.843  25.725  24.617  1.00  0.00     0.021 C 
ATOM     18  C   UNL A   1      32.426  26.021  22.010  1.00  0.00     0.011 C 
ATOM     19  C   UNL A   1      33.189  27.056  24.163  1.00  0.00     0.141 C 
ATOM     20  C   UNL A   1      32.979  25.021  25.667  1.00  0.00     0.011 C 
ATOM     21  C   UNL A   1      31.995  26.794  23.248  1.00  0.00     0.034 C 
BRANCH  11  22
ATOM     22  C   UNL A   1      34.173  21.419  25.087  1.00  0.00    -0.070 C 
ATOM     23  C   UNL A   1      33.922  21.226  27.639  1.00  0.00     0.035 C 
ATOM     24  C   UNL A   1      33.730  21.843  26.290  1.00  0.00    -0.031 C 
ATOM     25  C   UNL A   1      34.904  20.107  24.893  1.00  0.00     0.040 C 
ENDBRANCH  11  22
BRANCH  19  26
ATOM     26  O   UNL A   1      32.787  27.794  25.313  1.00  0.00    -0.276 OA
BRANCH  26  27
ATOM     27  S   UNL A   1      32.634  29.405  25.221  1.00  0.00     0.217 S 
ATOM     28  O   UNL A   1      31.246  29.743  24.991  1.00  0.00    -0.213 OA
ATOM     29  O   UNL A   1      33.394  30.007  26.291  1.00  0.00    -0.213 OA
ATOM     30  O   UNL A   1      33.440  29.768  23.877  1.00  0.00    -0.726 OA
ENDBRANCH  26  27
ENDBRANCH  19  26
ENDBRANCH   9  10
ENDBRANCH   7   8
ENDBRANCH   3   6
ENDBRANCH   1   2
BRANCH   1  31
ATOM     31  C   UNL A   1      41.827  20.276  26.177  1.00  0.00     0.042 C 
BRANCH  31  32
ATOM     32  C   UNL A   1      42.962  19.304  26.494  1.00  0.00     0.118 C 
BRANCH  32  33
ATOM     33  N   UNL A   1      43.721  18.942  25.303  1.00  0.00    -0.352 N 
ATOM     34  C   UNL A   1      44.436  19.736  24.441  1.00  0.00     0.251 C 
ATOM     35  H   UNL A   1      43.721  17.982  25.083  1.00  0.00     0.163 HD
ATOM     36  O   UNL A   1      44.827  19.274  23.373  1.00  0.00    -0.269 OA
BRANCH  34  37
ATOM     37  C   UNL A   1      44.723  21.143  24.791  1.00  0.00     0.039 A 
ATOM     38  C   UNL A   1      44.358  22.156  23.900  1.00  0.00     0.014 A 
ATOM     39  C   UNL A   1      45.372  21.461  25.987  1.00  0.00     0.014 A 
ATOM     40  C   UNL A   1      44.590  23.492  24.236  1.00  0.00     0.010 A 
ATOM     41  C   UNL A   1      45.531  22.793  26.354  1.00  0.00     0.010 A 
ATOM     42  C   UNL A   1      45.149  23.823  25.482  1.00  0.00    -0.014 A 
BRANCH  42  43
ATOM     43  C   UNL A   1      45.368  25.234  25.892  1.00  0.00     0.031 A 
ATOM     44  C   UNL A   1      46.752  25.824  25.810  1.00  0.00     0.074 A 
ATOM     45  C   UNL A   1      44.350  25.955  26.403  1.00  0.00     0.049 A 
ATOM     46  N   UNL A   1      47.181  26.982  26.240  1.00  0.00    -0.248 NA
ATOM     47  C   UNL A   1      47.795  24.994  25.184  1.00  0.00     0.031 C 
ATOM     48  C   UNL A   1      42.968  25.491  26.548  1.00  0.00     0.029 A 
ATOM     49  N   UNL A   1      44.323  27.231  26.906  1.00  0.00    -0.354 N 
ATOM     50  C   UNL A   1      48.540  27.014  25.948  1.00  0.00     0.074 A 
ATOM     51  C   UNL A   1      48.877  25.738  25.359  1.00  0.00     0.031 C 
ATOM     52  C   UNL A   1      42.226  26.475  27.082  1.00  0.00     0.029 A 
ATOM     53  C   UNL A   1      43.086  27.620  27.367  1.00  0.00     0.049 A 
ATOM     54  H   UNL A   1      45.115  27.816  26.934  1.00  0.00     0.167 HD
ATOM     55  C   UNL A   1      49.423  28.024  26.128  1.00  0.00     0.031 A 
ATOM     56  C   UNL A   1      42.693  28.761  27.967  1.00  0.00     0.031 A 
ATOM     57  C   UNL A   1      49.082  29.297  26.703  1.00  0.00     0.049 A 
ATOM     58  C   UNL A   1      43.710  29.848  28.205  1.00  0.00     0.074 A 
ATOM     59  C   UNL A   1      49.899  30.395  26.911  1.00  0.00     0.029 A 
ATOM     60  N   UNL A   1      47.817  29.648  27.153  1.00  0.00    -0.354 N 
ATOM     61  N   UNL A   1      44.984  29.869  27.892  1.00  0.00    -0.248 NA
ATOM     62  C   UNL A   1      43.234  31.069  28.869  1.00  0.00     0.031 C 
ATOM     63  C   UNL A   1      49.142  31.392  27.529  1.00  0.00     0.029 A 
ATOM     64  C   UNL A   1      47.836  30.942  27.644  1.00  0.00     0.049 A 
ATOM     65  H   UNL A   1      47.026  29.064  27.126  1.00  0.00     0.167 HD
ATOM     66  C   UNL A   1      45.446  31.125  28.274  1.00  0.00     0.074 A 
ATOM     67  C   UNL A   1      44.317  31.834  28.835  1.00  0.00     0.031 C 
ATOM     68  C   UNL A   1      46.693  31.644  28.168  1.00  0.00     0.031 A 
BRANCH  55  69
ATOM     69  C   UNL A   1      50.844  27.804  25.679  1.00  0.00    -0.014 A 
ATOM     70  C   UNL A   1      51.807  27.289  26.565  1.00  0.00     0.010 A 
ATOM     71  C   UNL A   1      51.205  28.048  24.341  1.00  0.00     0.010 A 
ATOM     72  C   UNL A   1      53.111  27.045  26.129  1.00  0.00     0.020 A 
ATOM     73  C   UNL A   1      52.502  27.775  23.893  1.00  0.00     0.020 A 
ATOM     74  C   UNL A   1      53.449  27.284  24.793  1.00  0.00     0.054 A 
BRANCH  74  75
ATOM     75  S   UNL A   1      55.136  26.902  24.248  1.00  0.00     0.124 S 
ATOM     76  O   UNL A   1      55.338  25.566  24.804  1.00  0.00    -0.237 OA
ATOM     77  O   UNL A   1      55.021  26.965  22.793  1.00  0.00    -0.237 OA
ATOM     78  O   UNL A   1      55.944  27.956  24.854  1.00  0.00    -0.744 OA
ENDBRANCH  74  75
ENDBRANCH  55  69
BRANCH  56  79
ATOM     79  C   UNL A   1      41.277  28.948  28.393  1.00  0.00    -0.014 A 
ATOM     80  C   UNL A   1      40.263  29.136  27.437  1.00  0.00     0.010 A 
ATOM     81  C   UNL A   1      40.939  28.987  29.759  1.00  0.00     0.010 A 
ATOM     82  C   UNL A   1      38.951  29.413  27.836  1.00  0.00     0.020 A 
ATOM     83  C   UNL A   1      39.622  29.227  30.162  1.00  0.00     0.020 A 
ATOM     84  C   UNL A   1      38.642  29.464  29.197  1.00  0.00     0.054 A 
BRANCH  84  85
ATOM     85  S   UNL A   1      36.936  29.834  29.692  1.00  0.00     0.124 S 
ATOM     86  O   UNL A   1      36.184  29.439  28.506  1.00  0.00    -0.237 OA
ATOM     87  O   UNL A   1      36.759  28.985  30.868  1.00  0.00    -0.237 OA
ATOM     88  O   UNL A   1      36.965  31.269  29.968  1.00  0.00    -0.744 OA
ENDBRANCH  84  85
ENDBRANCH  56  79
BRANCH  68  89
ATOM     89  C   UNL A   1      46.894  33.076  28.591  1.00  0.00    -0.014 A 
ATOM     90  C   UNL A   1      46.671  34.145  27.707  1.00  0.00     0.010 A 
ATOM     91  C   UNL A   1      47.240  33.352  29.928  1.00  0.00     0.010 A 
ATOM     92  C   UNL A   1      46.815  35.465  28.147  1.00  0.00     0.020 A 
ATOM     93  C   UNL A   1      47.354  34.667  30.379  1.00  0.00     0.020 A 
ATOM     94  C   UNL A   1      47.150  35.717  29.481  1.00  0.00     0.054 A 
BRANCH  94  95
ATOM     95  S   UNL A   1      47.267  37.438  30.040  1.00  0.00     0.124 S 
ATOM     96  O   UNL A   1      47.014  37.312  31.473  1.00  0.00    -0.237 OA
ATOM     97  O   UNL A   1      48.633  37.800  29.671  1.00  0.00    -0.237 OA
ATOM     98  O   UNL A   1      46.221  38.121  29.281  1.00  0.00    -0.744 OA
ENDBRANCH  94  95
ENDBRANCH  68  89
ENDBRANCH  42  43
ENDBRANCH  34  37
ENDBRANCH  32  33
ENDBRANCH  31  32
ENDBRANCH   1  31
TORSDOF 18
ENDMDL
MODEL 3
REMARK VINA RESULT:     -10.8      5.905     13.131
REMARK SMILES C/C=C(\C)[C@H]1C(C)=C[C@H]2CC[C@@H](OS(=O)(=O)[O-])[C@@H](C)[C@H]2[C@H]1/C=C/C=C/C(=O)NCCCNC(=O)c1ccc(-c2c3nc(c(-c4ccc(S(=O)(=O)[O-])cc4)c4ccc([nH]4)c(-c4ccc(S(=O)(=O)[O-])cc4)c4nc(c(-c5ccc(S(=O)(=O)[O-])cc5)c5ccc2[nH]5)C=C4)C=C3)cc1
REMARK SMILES IDX 29 1 28 2 26 3 27 4 25 6 24 7 23 8 22 9 21 10 5 11 6 12 7 13
REMARK SMILES IDX 8 14 20 15 9 16 18 17 10 18 12 19 19 20 11 21 3 22 1 23 2 24
REMARK SMILES IDX 4 25 13 26 14 27 15 28 16 29 17 30 30 31 31 32 32 33 33 34
REMARK SMILES IDX 34 36 35 37 36 38 94 39 37 40 93 41 38 42 39 43 40 44 87 45
REMARK SMILES IDX 41 46 92 47 86 48 88 49 42 50 91 51 85 52 84 53 43 55 73 56
REMARK SMILES IDX 54 57 72 58 55 59 58 60 71 61 89 62 56 63 57 64 70 66 90 67
REMARK SMILES IDX 59 68 44 69 45 70 53 71 46 72 52 73 47 74 48 75 49 76 50 77
REMARK SMILES IDX 51 78 74 79 75 80 83 81 76 82 82 83 77 84 78 85 79 86 80 87
REMARK SMILES IDX 81 88 60 89 61 90 69 91 62 92 68 93 63 94 64 95 65 96 66 97
REMARK SMILES IDX 67 98
REMARK H PARENT 28 5 32 35 88 54 58 65
REMARK Flexibility Score: inf
ROOT
ATOM      1  C   UNL A   1      38.498  33.173  40.107  1.00  0.00     0.118 C 
ENDROOT
BRANCH   1   2
ATOM      2  N   UNL A   1      37.720  32.005  39.712  1.00  0.00    -0.352 N 
ATOM      3  C   UNL A   1      37.417  31.479  38.492  1.00  0.00     0.243 C 
ATOM      4  O   UNL A   1      36.820  30.405  38.435  1.00  0.00    -0.270 OA
ATOM      5  H   UNL A   1      37.341  31.502  40.468  1.00  0.00     0.163 HD
BRANCH   3   6
ATOM      6  C   UNL A   1      37.872  32.113  37.233  1.00  0.00     0.071 C 
ATOM      7  C   UNL A   1      38.126  31.431  36.113  1.00  0.00     0.005 C 
BRANCH   7   8
ATOM      8  C   UNL A   1      38.481  32.003  34.836  1.00  0.00    -0.004 C 
ATOM      9  C   UNL A   1      39.372  31.336  34.087  1.00  0.00    -0.022 C 
BRANCH   9  10
ATOM     10  C   UNL A   1      40.061  31.795  32.823  1.00  0.00     0.027 C 
ATOM     11  C   UNL A   1      40.533  30.593  31.885  1.00  0.00     0.047 C 
ATOM     12  C   UNL A   1      40.392  30.865  30.384  1.00  0.00    -0.069 C 
ATOM     13  C   UNL A   1      40.662  29.741  29.415  1.00  0.00     0.040 C 
ATOM     14  C   UNL A   1      40.138  32.096  29.902  1.00  0.00    -0.024 C 
ATOM     15  C   UNL A   1      39.267  32.944  32.118  1.00  0.00     0.009 C 
ATOM     16  C   UNL A   1      39.943  33.302  30.775  1.00  0.00     0.016 C 
ATOM     17  C   UNL A   1      37.706  32.815  32.032  1.00  0.00     0.021 C 
ATOM     18  C   UNL A   1      39.218  34.443  30.043  1.00  0.00     0.011 C 
ATOM     19  C   UNL A   1      37.097  34.052  31.322  1.00  0.00     0.141 C 
ATOM     20  C   UNL A   1      37.167  31.517  31.425  1.00  0.00     0.011 C 
ATOM     21  C   UNL A   1      37.712  34.247  29.939  1.00  0.00     0.034 C 
BRANCH  11  22
ATOM     22  C   UNL A   1      40.073  29.187  32.355  1.00  0.00    -0.070 C 
ATOM     23  C   UNL A   1      38.286  27.339  32.434  1.00  0.00     0.035 C 
ATOM     24  C   UNL A   1      38.901  28.626  31.985  1.00  0.00    -0.031 C 
ATOM     25  C   UNL A   1      41.060  28.502  33.276  1.00  0.00     0.040 C 
ENDBRANCH  11  22
BRANCH  19  26
ATOM     26  O   UNL A   1      35.686  33.887  31.224  1.00  0.00    -0.276 OA
BRANCH  26  27
ATOM     27  S   UNL A   1      34.716  34.575  32.326  1.00  0.00     0.217 S 
ATOM     28  O   UNL A   1      35.440  35.622  33.015  1.00  0.00    -0.213 OA
ATOM     29  O   UNL A   1      33.425  34.813  31.727  1.00  0.00    -0.213 OA
ATOM     30  O   UNL A   1      34.476  33.387  33.385  1.00  0.00    -0.726 OA
ENDBRANCH  26  27
ENDBRANCH  19  26
ENDBRANCH   9  10
ENDBRANCH   7   8
ENDBRANCH   3   6
ENDBRANCH   1   2
BRANCH   1  31
ATOM     31  C   UNL A   1      39.999  32.918  39.972  1.00  0.00     0.042 C 
BRANCH  31  32
ATOM     32  C   UNL A   1      40.852  34.037  40.564  1.00  0.00     0.118 C 
BRANCH  32  33
ATOM     33  N   UNL A   1      40.441  35.351  40.084  1.00  0.00    -0.352 N 
ATOM     34  C   UNL A   1      40.695  35.967  38.883  1.00  0.00     0.251 C 
ATOM     35  H   UNL A   1      39.898  35.876  40.716  1.00  0.00     0.163 HD
ATOM     36  O   UNL A   1      40.445  37.162  38.750  1.00  0.00    -0.269 OA
BRANCH  34  37
ATOM     37  C   UNL A   1      41.277  35.200  37.762  1.00  0.00     0.039 A 
ATOM     38  C   UNL A   1      40.428  34.647  36.800  1.00  0.00     0.014 A 
ATOM     39  C   UNL A   1      42.658  35.007  37.673  1.00  0.00     0.014 A 
ATOM     40  C   UNL A   1      40.968  33.951  35.715  1.00  0.00     0.010 A 
ATOM     41  C   UNL A   1      43.198  34.383  36.553  1.00  0.00     0.010 A 
ATOM     42  C   UNL A   1      42.361  33.842  35.566  1.00  0.00    -0.014 A 
BRANCH  42  43
ATOM     43  C   UNL A   1      42.972  33.150  34.403  1.00  0.00     0.031 A 
ATOM     44  C   UNL A   1      43.051  33.856  33.074  1.00  0.00     0.074 A 
ATOM     45  C   UNL A   1      43.387  31.872  34.519  1.00  0.00     0.049 A 
ATOM     46  N   UNL A   1      43.421  33.387  31.911  1.00  0.00    -0.248 NA
ATOM     47  C   UNL A   1      42.636  35.269  33.045  1.00  0.00     0.031 C 
ATOM     48  C   UNL A   1      43.349  31.074  35.747  1.00  0.00     0.029 A 
ATOM     49  N   UNL A   1      43.911  31.014  33.585  1.00  0.00    -0.354 N 
ATOM     50  C   UNL A   1      43.274  34.439  31.015  1.00  0.00     0.074 A 
ATOM     51  C   UNL A   1      42.723  35.553  31.754  1.00  0.00     0.031 C 
ATOM     52  C   UNL A   1      43.850  29.853  35.496  1.00  0.00     0.029 A 
ATOM     53  C   UNL A   1      44.194  29.761  34.081  1.00  0.00     0.049 A 
ATOM     54  H   UNL A   1      44.071  31.270  32.648  1.00  0.00     0.167 HD
ATOM     55  C   UNL A   1      43.592  34.484  29.700  1.00  0.00     0.031 A 
ATOM     56  C   UNL A   1      44.660  28.659  33.460  1.00  0.00     0.031 A 
ATOM     57  C   UNL A   1      44.150  33.378  28.969  1.00  0.00     0.049 A 
ATOM     58  C   UNL A   1      44.954  28.721  31.984  1.00  0.00     0.074 A 
ATOM     59  C   UNL A   1      44.526  33.328  27.638  1.00  0.00     0.029 A 
ATOM     60  N   UNL A   1      44.423  32.131  29.511  1.00  0.00    -0.354 N 
ATOM     61  N   UNL A   1      44.837  29.737  31.160  1.00  0.00    -0.248 NA
ATOM     62  C   UNL A   1      45.454  27.492  31.353  1.00  0.00     0.031 C 
ATOM     63  C   UNL A   1      44.983  32.037  27.362  1.00  0.00     0.029 A 
ATOM     64  C   UNL A   1      44.955  31.303  28.537  1.00  0.00     0.049 A 
ATOM     65  H   UNL A   1      44.263  31.873  30.447  1.00  0.00     0.167 HD
ATOM     66  C   UNL A   1      45.297  29.281  29.929  1.00  0.00     0.074 A 
ATOM     67  C   UNL A   1      45.699  27.903  30.116  1.00  0.00     0.031 C 
ATOM     68  C   UNL A   1      45.382  29.944  28.750  1.00  0.00     0.031 A 
BRANCH  55  69
ATOM     69  C   UNL A   1      43.365  35.780  28.966  1.00  0.00    -0.014 A 
ATOM     70  C   UNL A   1      42.178  35.998  28.241  1.00  0.00     0.010 A 
ATOM     71  C   UNL A   1      44.312  36.816  29.056  1.00  0.00     0.010 A 
ATOM     72  C   UNL A   1      41.954  37.218  27.601  1.00  0.00     0.020 A 
ATOM     73  C   UNL A   1      44.077  38.051  28.442  1.00  0.00     0.020 A 
ATOM     74  C   UNL A   1      42.903  38.240  27.710  1.00  0.00     0.054 A 
BRANCH  74  75
ATOM     75  S   UNL A   1      42.554  39.831  26.913  1.00  0.00     0.124 S 
ATOM     76  O   UNL A   1      41.209  39.616  26.385  1.00  0.00    -0.237 OA
ATOM     77  O   UNL A   1      42.648  40.772  28.026  1.00  0.00    -0.237 OA
ATOM     78  O   UNL A   1      43.604  39.953  25.906  1.00  0.00    -0.744 OA
ENDBRANCH  74  75
ENDBRANCH  55  69
BRANCH  56  79
ATOM     79  C   UNL A   1      44.880  27.395  34.219  1.00  0.00    -0.014 A 
ATOM     80  C   UNL A   1      46.150  27.087  34.740  1.00  0.00     0.010 A 
ATOM     81  C   UNL A   1      43.834  26.468  34.384  1.00  0.00     0.010 A 
ATOM     82  C   UNL A   1      46.384  25.857  35.364  1.00  0.00     0.020 A 
ATOM     83  C   UNL A   1      44.054  25.253  35.040  1.00  0.00     0.020 A 
ATOM     84  C   UNL A   1      45.335  24.945  35.503  1.00  0.00     0.054 A 
BRANCH  84  85
ATOM     85  S   UNL A   1      45.663  23.352  36.306  1.00  0.00     0.124 S 
ATOM     86  O   UNL A   1      45.409  23.662  37.709  1.00  0.00    -0.237 OA
ATOM     87  O   UNL A   1      44.690  22.470  35.665  1.00  0.00    -0.237 OA
ATOM     88  O   UNL A   1      47.058  23.079  35.967  1.00  0.00    -0.744 OA
ENDBRANCH  84  85
ENDBRANCH  56  79
BRANCH  68  89
ATOM     89  C   UNL A   1      46.004  29.222  27.583  1.00  0.00    -0.014 A 
ATOM     90  C   UNL A   1      45.224  28.515  26.653  1.00  0.00     0.010 A 
ATOM     91  C   UNL A   1      47.393  29.324  27.378  1.00  0.00     0.010 A 
ATOM     92  C   UNL A   1      45.827  27.901  25.551  1.00  0.00     0.020 A 
ATOM     93  C   UNL A   1      47.995  28.740  26.263  1.00  0.00     0.020 A 
ATOM     94  C   UNL A   1      47.208  28.023  25.360  1.00  0.00     0.054 A 
BRANCH  94  95
ATOM     95  S   UNL A   1      47.954  27.271  23.888  1.00  0.00     0.124 S 
ATOM     96  O   UNL A   1      47.597  25.864  24.049  1.00  0.00    -0.237 OA
ATOM     97  O   UNL A   1      47.279  27.971  22.798  1.00  0.00    -0.237 OA
ATOM     98  O   UNL A   1      49.377  27.572  24.028  1.00  0.00    -0.744 OA
ENDBRANCH  94  95
ENDBRANCH  68  89
ENDBRANCH  42  43
ENDBRANCH  34  37
ENDBRANCH  32  33
ENDBRANCH  31  32
ENDBRANCH   1  31
TORSDOF 18
ENDMDL
