MODEL 1
REMARK VINA RESULT:     -12.1      0.000      0.000
REMARK SMILES C[C@@H]1CC[C@H](C)[N@H+]1Cc1cc2c(cc1Cl)C=C(C(=O)NCCCNC(=O)c1ccc(-c3c4nc(c(-c5ccc(S(=O)(=O)[O-])cc5)c5ccc([nH]5)c(-c5ccc(S(=O)(=O)[O-])cc5)c5nc(c(-c6ccc(S(=O)(=O)[O-])cc6)c6ccc3[nH]6)C=C5)C=C4)cc1)[C@@H](C(F)(F)F)O2
REMARK SMILES IDX 22 1 21 2 20 3 18 4 19 5 17 7 9 8 10 9 14 10 11 11 13 12
REMARK SMILES IDX 15 13 12 14 92 15 16 16 87 17 8 18 7 19 6 20 5 21 4 22 3 23
REMARK SMILES IDX 2 24 1 26 88 27 89 28 90 29 91 30 23 31 24 32 25 33 26 35
REMARK SMILES IDX 27 36 28 37 86 38 29 39 85 40 30 41 31 42 32 43 79 44 33 45
REMARK SMILES IDX 84 46 78 47 80 48 34 49 83 50 77 51 76 52 35 54 65 55 46 56
REMARK SMILES IDX 64 57 47 58 50 59 63 60 81 61 48 62 49 63 62 65 82 66 51 67
REMARK SMILES IDX 36 68 37 69 45 70 38 71 44 72 39 73 40 74 41 75 42 76 43 77
REMARK SMILES IDX 66 78 67 79 75 80 68 81 74 82 69 83 70 84 71 85 72 86 73 87
REMARK SMILES IDX 52 88 53 89 61 90 54 91 60 92 55 93 56 94 57 95 58 96 59 97
REMARK H PARENT 20 6 7 25 24 34 80 53 50 64
REMARK Flexibility Score: inf
ROOT
ATOM      1  C   UNL A   1      33.106  29.628  25.590  1.00  0.00     0.042 C 
ENDROOT
BRANCH   1   2
ATOM      2  C   UNL A   1      31.665  30.100  25.702  1.00  0.00     0.118 C 
BRANCH   2   3
ATOM      3  N   UNL A   1      31.005  30.109  24.405  1.00  0.00    -0.352 N 
ATOM      4  C   UNL A   1      30.723  29.216  23.431  1.00  0.00     0.251 C 
ATOM      5  O   UNL A   1      30.138  29.680  22.448  1.00  0.00    -0.270 OA
ATOM      6  H   UNL A   1      30.675  31.008  24.176  1.00  0.00     0.163 HD
BRANCH   4   7
ATOM      7  C   UNL A   1      31.050  27.767  23.479  1.00  0.00     0.067 C 
ATOM      8  C   UNL A   1      31.504  22.936  24.857  1.00  0.00     0.029 A 
ATOM      9  C   UNL A   1      31.479  23.614  23.623  1.00  0.00     0.058 A 
ATOM     10  C   UNL A   1      31.419  23.709  26.029  1.00  0.00     0.050 A 
ATOM     11  C   UNL A   1      31.288  24.989  23.570  1.00  0.00     0.128 A 
ATOM     12  C   UNL A   1      31.140  25.081  25.966  1.00  0.00     0.033 A 
ATOM     13  Cl  UNL A   1      31.734  23.067  27.604  1.00  0.00    -0.084 Cl
ATOM     14  C   UNL A   1      31.053  25.719  24.733  1.00  0.00     0.019 A 
ATOM     15  O   UNL A   1      31.326  25.588  22.340  1.00  0.00    -0.475 OA
ATOM     16  C   UNL A   1      30.730  27.134  24.624  1.00  0.00     0.025 C 
ATOM     17  C   UNL A   1      31.721  26.993  22.379  1.00  0.00     0.314 C 
BRANCH   8  18
ATOM     18  C   UNL A   1      31.597  21.421  24.840  1.00  0.00     0.301 C 
BRANCH  18  19
ATOM     19  N   UNL A   1      32.841  20.840  24.308  1.00  0.00    -0.327 N 
ATOM     20  C   UNL A   1      32.462  18.760  23.015  1.00  0.00     0.075 C 
ATOM     21  C   UNL A   1      32.943  19.370  24.324  1.00  0.00     0.181 C 
ATOM     22  C   UNL A   1      34.421  19.075  24.577  1.00  0.00     0.071 C 
ATOM     23  C   UNL A   1      34.854  20.248  25.430  1.00  0.00     0.071 C 
ATOM     24  C   UNL A   1      34.084  21.416  24.831  1.00  0.00     0.181 C 
ATOM     25  H   UNL A   1      32.744  21.120  23.332  1.00  0.00     0.348 HD
ATOM     26  C   UNL A   1      34.840  22.080  23.680  1.00  0.00     0.075 C 
ENDBRANCH  18  19
ENDBRANCH   8  18
BRANCH  17  27
ATOM     27  C   UNL A   1      33.262  27.117  22.443  1.00  0.00     0.429 C 
ATOM     28  F   UNL A   1      33.855  26.051  21.855  1.00  0.00    -0.167 F 
ATOM     29  F   UNL A   1      33.715  28.218  21.793  1.00  0.00    -0.167 F 
ATOM     30  F   UNL A   1      33.736  27.199  23.707  1.00  0.00    -0.167 F 
ENDBRANCH  17  27
ENDBRANCH   4   7
ENDBRANCH   2   3
ENDBRANCH   1   2
BRANCH   1  31
ATOM     31  C   UNL A   1      33.741  29.404  26.955  1.00  0.00     0.118 C 
BRANCH  31  32
ATOM     32  N   UNL A   1      33.738  30.619  27.767  1.00  0.00    -0.352 N 
ATOM     33  C   UNL A   1      34.674  31.085  28.665  1.00  0.00     0.251 C 
ATOM     34  H   UNL A   1      32.946  31.193  27.655  1.00  0.00     0.163 HD
ATOM     35  O   UNL A   1      34.394  31.996  29.427  1.00  0.00    -0.269 OA
BRANCH  33  36
ATOM     36  C   UNL A   1      36.007  30.449  28.707  1.00  0.00     0.039 A 
ATOM     37  C   UNL A   1      36.406  29.751  29.847  1.00  0.00     0.014 A 
ATOM     38  C   UNL A   1      36.875  30.585  27.622  1.00  0.00     0.014 A 
ATOM     39  C   UNL A   1      37.734  29.383  29.991  1.00  0.00     0.010 A 
ATOM     40  C   UNL A   1      38.186  30.108  27.727  1.00  0.00     0.010 A 
ATOM     41  C   UNL A   1      38.643  29.557  28.935  1.00  0.00    -0.014 A 
BRANCH  41  42
ATOM     42  C   UNL A   1      40.061  29.162  29.129  1.00  0.00     0.031 A 
ATOM     43  C   UNL A   1      41.023  30.076  29.841  1.00  0.00     0.074 A 
ATOM     44  C   UNL A   1      40.459  27.938  28.729  1.00  0.00     0.049 A 
ATOM     45  N   UNL A   1      42.291  29.886  30.102  1.00  0.00    -0.248 NA
ATOM     46  C   UNL A   1      40.503  31.367  30.325  1.00  0.00     0.031 C 
ATOM     47  C   UNL A   1      39.602  26.952  28.063  1.00  0.00     0.029 A 
ATOM     48  N   UNL A   1      41.664  27.294  28.858  1.00  0.00    -0.354 N 
ATOM     49  C   UNL A   1      42.724  31.037  30.752  1.00  0.00     0.074 A 
ATOM     50  C   UNL A   1      41.592  31.932  30.829  1.00  0.00     0.031 C 
ATOM     51  C   UNL A   1      40.282  25.808  27.912  1.00  0.00     0.029 A 
ATOM     52  C   UNL A   1      41.650  26.003  28.383  1.00  0.00     0.049 A 
ATOM     53  H   UNL A   1      42.461  27.715  29.252  1.00  0.00     0.167 HD
ATOM     54  C   UNL A   1      43.954  31.312  31.245  1.00  0.00     0.031 A 
ATOM     55  C   UNL A   1      42.627  25.079  28.310  1.00  0.00     0.031 A 
ATOM     56  C   UNL A   1      45.065  30.400  31.189  1.00  0.00     0.049 A 
ATOM     57  C   UNL A   1      43.995  25.429  28.815  1.00  0.00     0.074 A 
ATOM     58  C   UNL A   1      46.347  30.584  31.678  1.00  0.00     0.029 A 
ATOM     59  N   UNL A   1      45.030  29.135  30.622  1.00  0.00    -0.354 N 
ATOM     60  N   UNL A   1      44.388  26.531  29.407  1.00  0.00    -0.248 NA
ATOM     61  C   UNL A   1      45.053  24.428  28.631  1.00  0.00     0.031 C 
ATOM     62  C   UNL A   1      47.102  29.456  31.352  1.00  0.00     0.029 A 
ATOM     63  C   UNL A   1      46.275  28.540  30.720  1.00  0.00     0.049 A 
ATOM     64  H   UNL A   1      44.237  28.722  30.209  1.00  0.00     0.167 HD
ATOM     65  C   UNL A   1      45.742  26.360  29.662  1.00  0.00     0.074 A 
ATOM     66  C   UNL A   1      46.094  25.036  29.186  1.00  0.00     0.031 C 
ATOM     67  C   UNL A   1      46.614  27.226  30.231  1.00  0.00     0.031 A 
BRANCH  54  68
ATOM     68  C   UNL A   1      44.187  32.654  31.890  1.00  0.00    -0.014 A 
ATOM     69  C   UNL A   1      44.628  33.735  31.104  1.00  0.00     0.010 A 
ATOM     70  C   UNL A   1      44.097  32.815  33.284  1.00  0.00     0.010 A 
ATOM     71  C   UNL A   1      45.006  34.941  31.700  1.00  0.00     0.020 A 
ATOM     72  C   UNL A   1      44.449  34.029  33.882  1.00  0.00     0.020 A 
ATOM     73  C   UNL A   1      44.924  35.077  33.088  1.00  0.00     0.054 A 
BRANCH  73  74
ATOM     74  S   UNL A   1      45.444  36.640  33.849  1.00  0.00     0.124 S 
ATOM     75  O   UNL A   1      46.752  36.860  33.241  1.00  0.00    -0.237 OA
ATOM     76  O   UNL A   1      44.390  37.564  33.435  1.00  0.00    -0.237 OA
ATOM     77  O   UNL A   1      45.461  36.333  35.278  1.00  0.00    -0.744 OA
ENDBRANCH  73  74
ENDBRANCH  54  68
BRANCH  55  78
ATOM     78  C   UNL A   1      42.317  23.747  27.720  1.00  0.00    -0.014 A 
ATOM     79  C   UNL A   1      41.927  22.678  28.551  1.00  0.00     0.010 A 
ATOM     80  C   UNL A   1      42.519  23.508  26.350  1.00  0.00     0.010 A 
ATOM     81  C   UNL A   1      41.818  21.384  28.040  1.00  0.00     0.020 A 
ATOM     82  C   UNL A   1      42.379  22.217  25.828  1.00  0.00     0.020 A 
ATOM     83  C   UNL A   1      42.064  21.159  26.684  1.00  0.00     0.054 A 
BRANCH  83  84
ATOM     84  S   UNL A   1      41.987  19.459  26.056  1.00  0.00     0.124 S 
ATOM     85  O   UNL A   1      42.497  18.698  27.193  1.00  0.00    -0.237 OA
ATOM     86  O   UNL A   1      40.566  19.286  25.769  1.00  0.00    -0.237 OA
ATOM     87  O   UNL A   1      42.858  19.491  24.883  1.00  0.00    -0.744 OA
ENDBRANCH  83  84
ENDBRANCH  55  78
BRANCH  67  88
ATOM     88  C   UNL A   1      48.050  26.801  30.365  1.00  0.00    -0.014 A 
ATOM     89  C   UNL A   1      48.477  26.133  31.527  1.00  0.00     0.010 A 
ATOM     90  C   UNL A   1      49.002  27.199  29.410  1.00  0.00     0.010 A 
ATOM     91  C   UNL A   1      49.836  25.912  31.756  1.00  0.00     0.020 A 
ATOM     92  C   UNL A   1      50.361  26.956  29.624  1.00  0.00     0.020 A 
ATOM     93  C   UNL A   1      50.771  26.341  30.810  1.00  0.00     0.054 A 
BRANCH  93  94
ATOM     94  S   UNL A   1      52.535  26.098  31.152  1.00  0.00     0.124 S 
ATOM     95  O   UNL A   1      52.857  27.275  31.953  1.00  0.00    -0.237 OA
ATOM     96  O   UNL A   1      52.551  24.825  31.867  1.00  0.00    -0.237 OA
ATOM     97  O   UNL A   1      53.139  26.063  29.821  1.00  0.00    -0.744 OA
ENDBRANCH  93  94
ENDBRANCH  67  88
ENDBRANCH  41  42
ENDBRANCH  33  36
ENDBRANCH  31  32
ENDBRANCH   1  31
TORSDOF 16
ENDMDL
MODEL 2
REMARK VINA RESULT:     -12.0      2.893      8.609
REMARK SMILES C[C@@H]1CC[C@H](C)[N@H+]1Cc1cc2c(cc1Cl)C=C(C(=O)NCCCNC(=O)c1ccc(-c3c4nc(c(-c5ccc(S(=O)(=O)[O-])cc5)c5ccc([nH]5)c(-c5ccc(S(=O)(=O)[O-])cc5)c5nc(c(-c6ccc(S(=O)(=O)[O-])cc6)c6ccc3[nH]6)C=C5)C=C4)cc1)[C@@H](C(F)(F)F)O2
REMARK SMILES IDX 22 1 21 2 20 3 18 4 19 5 17 7 9 8 10 9 14 10 11 11 13 12
REMARK SMILES IDX 15 13 12 14 92 15 16 16 87 17 8 18 7 19 6 20 5 21 4 22 3 23
REMARK SMILES IDX 2 24 1 26 88 27 89 28 90 29 91 30 23 31 24 32 25 33 26 35
REMARK SMILES IDX 27 36 28 37 86 38 29 39 85 40 30 41 31 42 32 43 79 44 33 45
REMARK SMILES IDX 84 46 78 47 80 48 34 49 83 50 77 51 76 52 35 54 65 55 46 56
REMARK SMILES IDX 64 57 47 58 50 59 63 60 81 61 48 62 49 63 62 65 82 66 51 67
REMARK SMILES IDX 36 68 37 69 45 70 38 71 44 72 39 73 40 74 41 75 42 76 43 77
REMARK SMILES IDX 66 78 67 79 75 80 68 81 74 82 69 83 70 84 71 85 72 86 73 87
REMARK SMILES IDX 52 88 53 89 61 90 54 91 60 92 55 93 56 94 57 95 58 96 59 97
REMARK H PARENT 20 6 7 25 24 34 80 53 50 64
REMARK Flexibility Score: inf
ROOT
ATOM      1  C   UNL A   1      34.768  32.484  28.152  1.00  0.00     0.042 C 
ENDROOT
BRANCH   1   2
ATOM      2  C   UNL A   1      34.363  31.132  27.589  1.00  0.00     0.118 C 
BRANCH   2   3
ATOM      3  N   UNL A   1      33.120  31.217  26.838  1.00  0.00    -0.352 N 
ATOM      4  C   UNL A   1      32.390  30.411  26.036  1.00  0.00     0.251 C 
ATOM      5  O   UNL A   1      31.365  30.921  25.574  1.00  0.00    -0.270 OA
ATOM      6  H   UNL A   1      32.697  32.100  26.941  1.00  0.00     0.163 HD
BRANCH   4   7
ATOM      7  C   UNL A   1      32.728  29.002  25.704  1.00  0.00     0.067 C 
ATOM      8  C   UNL A   1      34.036  24.759  23.311  1.00  0.00     0.029 A 
ATOM      9  C   UNL A   1      34.128  25.212  24.642  1.00  0.00     0.058 A 
ATOM     10  C   UNL A   1      33.425  25.609  22.372  1.00  0.00     0.050 A 
ATOM     11  C   UNL A   1      33.708  26.491  24.988  1.00  0.00     0.128 A 
ATOM     12  C   UNL A   1      33.084  26.925  22.709  1.00  0.00     0.033 A 
ATOM     13  Cl  UNL A   1      32.970  25.086  20.787  1.00  0.00    -0.084 Cl
ATOM     14  C   UNL A   1      33.246  27.374  24.016  1.00  0.00     0.019 A 
ATOM     15  O   UNL A   1      33.779  26.845  26.308  1.00  0.00    -0.475 OA
ATOM     16  C   UNL A   1      32.937  28.745  24.399  1.00  0.00     0.025 C 
ATOM     17  C   UNL A   1      32.820  27.876  26.696  1.00  0.00     0.314 C 
BRANCH   8  18
ATOM     18  C   UNL A   1      34.622  23.399  22.977  1.00  0.00     0.301 C 
BRANCH  18  19
ATOM     19  N   UNL A   1      33.971  22.229  23.589  1.00  0.00    -0.327 N 
ATOM     20  C   UNL A   1      32.007  21.431  22.306  1.00  0.00     0.075 C 
ATOM     21  C   UNL A   1      32.499  22.185  23.533  1.00  0.00     0.181 C 
ATOM     22  C   UNL A   1      32.069  21.501  24.829  1.00  0.00     0.071 C 
ATOM     23  C   UNL A   1      33.151  21.919  25.802  1.00  0.00     0.071 C 
ATOM     24  C   UNL A   1      34.412  21.898  24.949  1.00  0.00     0.181 C 
ATOM     25  H   UNL A   1      34.314  21.506  22.957  1.00  0.00     0.348 HD
ATOM     26  C   UNL A   1      35.076  20.521  24.928  1.00  0.00     0.075 C 
ENDBRANCH  18  19
ENDBRANCH   8  18
BRANCH  17  27
ATOM     27  C   UNL A   1      31.438  27.245  26.981  1.00  0.00     0.429 C 
ATOM     28  F   UNL A   1      30.612  27.396  25.918  1.00  0.00    -0.167 F 
ATOM     29  F   UNL A   1      31.520  25.912  27.219  1.00  0.00    -0.167 F 
ATOM     30  F   UNL A   1      30.818  27.785  28.055  1.00  0.00    -0.167 F 
ENDBRANCH  17  27
ENDBRANCH   4   7
ENDBRANCH   2   3
ENDBRANCH   1   2
BRANCH   1  31
ATOM     31  C   UNL A   1      35.962  32.377  29.091  1.00  0.00     0.118 C 
BRANCH  31  32
ATOM     32  N   UNL A   1      35.706  31.463  30.201  1.00  0.00    -0.352 N 
ATOM     33  C   UNL A   1      36.476  30.432  30.694  1.00  0.00     0.251 C 
ATOM     34  H   UNL A   1      34.850  31.604  30.669  1.00  0.00     0.163 HD
ATOM     35  O   UNL A   1      35.996  29.623  31.473  1.00  0.00    -0.269 OA
BRANCH  33  36
ATOM     36  C   UNL A   1      37.879  30.308  30.248  1.00  0.00     0.039 A 
ATOM     37  C   UNL A   1      38.161  30.093  28.900  1.00  0.00     0.014 A 
ATOM     38  C   UNL A   1      38.913  30.367  31.185  1.00  0.00     0.014 A 
ATOM     39  C   UNL A   1      39.441  29.719  28.521  1.00  0.00     0.010 A 
ATOM     40  C   UNL A   1      40.225  30.104  30.778  1.00  0.00     0.010 A 
ATOM     41  C   UNL A   1      40.490  29.718  29.454  1.00  0.00    -0.014 A 
BRANCH  41  42
ATOM     42  C   UNL A   1      41.847  29.301  29.016  1.00  0.00     0.031 A 
ATOM     43  C   UNL A   1      42.093  27.906  28.504  1.00  0.00     0.074 A 
ATOM     44  C   UNL A   1      42.839  30.212  29.008  1.00  0.00     0.049 A 
ATOM     45  N   UNL A   1      43.211  27.378  28.076  1.00  0.00    -0.248 NA
ATOM     46  C   UNL A   1      40.945  26.983  28.463  1.00  0.00     0.031 C 
ATOM     47  C   UNL A   1      42.705  31.605  29.446  1.00  0.00     0.029 A 
ATOM     48  N   UNL A   1      44.141  30.124  28.583  1.00  0.00    -0.354 N 
ATOM     49  C   UNL A   1      42.910  26.062  27.743  1.00  0.00     0.074 A 
ATOM     50  C   UNL A   1      41.510  25.861  28.036  1.00  0.00     0.031 C 
ATOM     51  C   UNL A   1      43.847  32.257  29.196  1.00  0.00     0.029 A 
ATOM     52  C   UNL A   1      44.827  31.313  28.668  1.00  0.00     0.049 A 
ATOM     53  H   UNL A   1      44.544  29.292  28.249  1.00  0.00     0.167 HD
ATOM     54  C   UNL A   1      43.729  25.116  27.229  1.00  0.00     0.031 A 
ATOM     55  C   UNL A   1      46.108  31.616  28.377  1.00  0.00     0.031 A 
ATOM     56  C   UNL A   1      45.115  25.338  26.913  1.00  0.00     0.049 A 
ATOM     57  C   UNL A   1      47.009  30.535  27.861  1.00  0.00     0.074 A 
ATOM     58  C   UNL A   1      46.023  24.443  26.372  1.00  0.00     0.029 A 
ATOM     59  N   UNL A   1      45.792  26.534  27.095  1.00  0.00    -0.354 N 
ATOM     60  N   UNL A   1      46.708  29.291  27.573  1.00  0.00    -0.248 NA
ATOM     61  C   UNL A   1      48.418  30.884  27.645  1.00  0.00     0.031 C 
ATOM     62  C   UNL A   1      47.262  25.079  26.286  1.00  0.00     0.029 A 
ATOM     63  C   UNL A   1      47.114  26.391  26.708  1.00  0.00     0.049 A 
ATOM     64  H   UNL A   1      45.393  27.362  27.449  1.00  0.00     0.167 HD
ATOM     65  C   UNL A   1      47.893  28.706  27.146  1.00  0.00     0.074 A 
ATOM     66  C   UNL A   1      48.909  29.739  27.188  1.00  0.00     0.031 C 
ATOM     67  C   UNL A   1      48.117  27.426  26.766  1.00  0.00     0.031 A 
BRANCH  54  68
ATOM     68  C   UNL A   1      43.170  23.740  26.975  1.00  0.00    -0.014 A 
ATOM     69  C   UNL A   1      43.084  22.818  28.036  1.00  0.00     0.010 A 
ATOM     70  C   UNL A   1      42.851  23.315  25.673  1.00  0.00     0.010 A 
ATOM     71  C   UNL A   1      42.722  21.489  27.796  1.00  0.00     0.020 A 
ATOM     72  C   UNL A   1      42.463  21.993  25.433  1.00  0.00     0.020 A 
ATOM     73  C   UNL A   1      42.424  21.082  26.493  1.00  0.00     0.054 A 
BRANCH  73  74
ATOM     74  S   UNL A   1      41.982  19.348  26.195  1.00  0.00     0.124 S 
ATOM     75  O   UNL A   1      40.546  19.434  25.946  1.00  0.00    -0.237 OA
ATOM     76  O   UNL A   1      42.805  19.002  25.039  1.00  0.00    -0.237 OA
ATOM     77  O   UNL A   1      42.363  18.681  27.438  1.00  0.00    -0.744 OA
ENDBRANCH  73  74
ENDBRANCH  54  68
BRANCH  55  78
ATOM     78  C   UNL A   1      46.584  33.011  28.589  1.00  0.00    -0.014 A 
ATOM     79  C   UNL A   1      47.041  33.418  29.858  1.00  0.00     0.010 A 
ATOM     80  C   UNL A   1      46.477  33.966  27.564  1.00  0.00     0.010 A 
ATOM     81  C   UNL A   1      47.310  34.762  30.120  1.00  0.00     0.020 A 
ATOM     82  C   UNL A   1      46.778  35.310  27.813  1.00  0.00     0.020 A 
ATOM     83  C   UNL A   1      47.157  35.703  29.099  1.00  0.00     0.054 A 
BRANCH  83  84
ATOM     84  S   UNL A   1      47.442  37.454  29.479  1.00  0.00     0.124 S 
ATOM     85  O   UNL A   1      47.850  37.392  30.880  1.00  0.00    -0.237 OA
ATOM     86  O   UNL A   1      48.493  37.821  28.534  1.00  0.00    -0.237 OA
ATOM     87  O   UNL A   1      46.141  38.071  29.232  1.00  0.00    -0.744 OA
ENDBRANCH  83  84
ENDBRANCH  55  78
BRANCH  67  88
ATOM     88  C   UNL A   1      49.516  27.036  26.375  1.00  0.00    -0.014 A 
ATOM     89  C   UNL A   1      49.917  27.125  25.029  1.00  0.00     0.010 A 
ATOM     90  C   UNL A   1      50.377  26.442  27.313  1.00  0.00     0.010 A 
ATOM     91  C   UNL A   1      51.135  26.582  24.618  1.00  0.00     0.020 A 
ATOM     92  C   UNL A   1      51.609  25.921  26.909  1.00  0.00     0.020 A 
ATOM     93  C   UNL A   1      51.967  25.968  25.559  1.00  0.00     0.054 A 
BRANCH  93  94
ATOM     94  S   UNL A   1      53.518  25.217  24.997  1.00  0.00     0.124 S 
ATOM     95  O   UNL A   1      53.570  25.630  23.599  1.00  0.00    -0.237 OA
ATOM     96  O   UNL A   1      54.510  25.834  25.875  1.00  0.00    -0.237 OA
ATOM     97  O   UNL A   1      53.306  23.787  25.220  1.00  0.00    -0.744 OA
ENDBRANCH  93  94
ENDBRANCH  67  88
ENDBRANCH  41  42
ENDBRANCH  33  36
ENDBRANCH  31  32
ENDBRANCH   1  31
TORSDOF 16
ENDMDL
MODEL 3
REMARK VINA RESULT:     -12.0      1.611      2.381
REMARK SMILES C[C@@H]1CC[C@H](C)[N@H+]1Cc1cc2c(cc1Cl)C=C(C(=O)NCCCNC(=O)c1ccc(-c3c4nc(c(-c5ccc(S(=O)(=O)[O-])cc5)c5ccc([nH]5)c(-c5ccc(S(=O)(=O)[O-])cc5)c5nc(c(-c6ccc(S(=O)(=O)[O-])cc6)c6ccc3[nH]6)C=C5)C=C4)cc1)[C@@H](C(F)(F)F)O2
REMARK SMILES IDX 22 1 21 2 20 3 18 4 19 5 17 7 9 8 10 9 14 10 11 11 13 12
REMARK SMILES IDX 15 13 12 14 92 15 16 16 87 17 8 18 7 19 6 20 5 21 4 22 3 23
REMARK SMILES IDX 2 24 1 26 88 27 89 28 90 29 91 30 23 31 24 32 25 33 26 35
REMARK SMILES IDX 27 36 28 37 86 38 29 39 85 40 30 41 31 42 32 43 79 44 33 45
REMARK SMILES IDX 84 46 78 47 80 48 34 49 83 50 77 51 76 52 35 54 65 55 46 56
REMARK SMILES IDX 64 57 47 58 50 59 63 60 81 61 48 62 49 63 62 65 82 66 51 67
REMARK SMILES IDX 36 68 37 69 45 70 38 71 44 72 39 73 40 74 41 75 42 76 43 77
REMARK SMILES IDX 66 78 67 79 75 80 68 81 74 82 69 83 70 84 71 85 72 86 73 87
REMARK SMILES IDX 52 88 53 89 61 90 54 91 60 92 55 93 56 94 57 95 58 96 59 97
REMARK H PARENT 20 6 7 25 24 34 80 53 50 64
REMARK Flexibility Score: inf
ROOT
ATOM      1  C   UNL A   1      31.979  28.137  27.640  1.00  0.00     0.042 C 
ENDROOT
BRANCH   1   2
ATOM      2  C   UNL A   1      31.190  27.506  26.504  1.00  0.00     0.118 C 
BRANCH   2   3
ATOM      3  N   UNL A   1      31.669  27.958  25.207  1.00  0.00    -0.352 N 
ATOM      4  C   UNL A   1      32.326  27.425  24.154  1.00  0.00     0.251 C 
ATOM      5  O   UNL A   1      32.555  28.210  23.228  1.00  0.00    -0.270 OA
ATOM      6  H   UNL A   1      31.458  28.908  25.057  1.00  0.00     0.163 HD
BRANCH   4   7
ATOM      7  C   UNL A   1      32.757  26.007  24.043  1.00  0.00     0.067 C 
ATOM      8  C   UNL A   1      35.024  21.555  24.737  1.00  0.00     0.029 A 
ATOM      9  C   UNL A   1      33.790  21.962  24.194  1.00  0.00     0.058 A 
ATOM     10  C   UNL A   1      35.902  22.557  25.188  1.00  0.00     0.050 A 
ATOM     11  C   UNL A   1      33.423  23.302  24.187  1.00  0.00     0.128 A 
ATOM     12  C   UNL A   1      35.491  23.895  25.257  1.00  0.00     0.033 A 
ATOM     13  Cl  UNL A   1      37.553  22.245  25.597  1.00  0.00    -0.084 Cl
ATOM     14  C   UNL A   1      34.240  24.265  24.775  1.00  0.00     0.019 A 
ATOM     15  O   UNL A   1      32.233  23.631  23.596  1.00  0.00    -0.475 OA
ATOM     16  C   UNL A   1      33.761  25.638  24.861  1.00  0.00     0.025 C 
ATOM     17  C   UNL A   1      32.183  24.998  23.087  1.00  0.00     0.314 C 
BRANCH   8  18
ATOM     18  C   UNL A   1      35.312  20.068  24.823  1.00  0.00     0.301 C 
BRANCH  18  19
ATOM     19  N   UNL A   1      34.166  19.160  24.648  1.00  0.00    -0.327 N 
ATOM     20  C   UNL A   1      32.019  20.161  25.376  1.00  0.00     0.075 C 
ATOM     21  C   UNL A   1      33.138  19.182  25.703  1.00  0.00     0.181 C 
ATOM     22  C   UNL A   1      32.626  17.746  25.794  1.00  0.00     0.071 C 
ATOM     23  C   UNL A   1      33.847  16.932  25.422  1.00  0.00     0.071 C 
ATOM     24  C   UNL A   1      34.503  17.768  24.331  1.00  0.00     0.181 C 
ATOM     25  H   UNL A   1      33.750  19.585  23.819  1.00  0.00     0.348 HD
ATOM     26  C   UNL A   1      33.960  17.435  22.941  1.00  0.00     0.075 C 
ENDBRANCH  18  19
ENDBRANCH   8  18
BRANCH  17  27
ATOM     27  C   UNL A   1      32.851  25.079  21.695  1.00  0.00     0.429 C 
ATOM     28  F   UNL A   1      33.141  23.841  21.228  1.00  0.00    -0.167 F 
ATOM     29  F   UNL A   1      32.045  25.660  20.772  1.00  0.00    -0.167 F 
ATOM     30  F   UNL A   1      34.001  25.791  21.697  1.00  0.00    -0.167 F 
ENDBRANCH  17  27
ENDBRANCH   4   7
ENDBRANCH   2   3
ENDBRANCH   1   2
BRANCH   1  31
ATOM     31  C   UNL A   1      33.295  28.732  27.160  1.00  0.00     0.118 C 
BRANCH  31  32
ATOM     32  N   UNL A   1      33.387  30.162  27.448  1.00  0.00    -0.352 N 
ATOM     33  C   UNL A   1      34.383  30.875  28.080  1.00  0.00     0.251 C 
ATOM     34  H   UNL A   1      32.618  30.698  27.145  1.00  0.00     0.163 HD
ATOM     35  O   UNL A   1      34.182  32.023  28.444  1.00  0.00    -0.269 OA
BRANCH  33  36
ATOM     36  C   UNL A   1      35.685  30.222  28.330  1.00  0.00     0.039 A 
ATOM     37  C   UNL A   1      35.931  29.618  29.562  1.00  0.00     0.014 A 
ATOM     38  C   UNL A   1      36.675  30.249  27.346  1.00  0.00     0.014 A 
ATOM     39  C   UNL A   1      37.224  29.241  29.890  1.00  0.00     0.010 A 
ATOM     40  C   UNL A   1      37.951  29.760  27.641  1.00  0.00     0.010 A 
ATOM     41  C   UNL A   1      38.252  29.307  28.936  1.00  0.00    -0.014 A 
BRANCH  41  42
ATOM     42  C   UNL A   1      39.628  28.905  29.326  1.00  0.00     0.031 A 
ATOM     43  C   UNL A   1      40.448  29.770  30.247  1.00  0.00     0.074 A 
ATOM     44  C   UNL A   1      40.104  27.715  28.909  1.00  0.00     0.049 A 
ATOM     45  N   UNL A   1      41.662  29.568  30.693  1.00  0.00    -0.248 NA
ATOM     46  C   UNL A   1      39.837  31.020  30.731  1.00  0.00     0.031 C 
ATOM     47  C   UNL A   1      39.380  26.777  28.046  1.00  0.00     0.029 A 
ATOM     48  N   UNL A   1      41.283  27.070  29.183  1.00  0.00    -0.354 N 
ATOM     49  C   UNL A   1      41.967  30.670  31.484  1.00  0.00     0.074 A 
ATOM     50  C   UNL A   1      40.823  31.551  31.442  1.00  0.00     0.031 C 
ATOM     51  C   UNL A   1      40.094  25.650  27.925  1.00  0.00     0.029 A 
ATOM     52  C   UNL A   1      41.366  25.817  28.621  1.00  0.00     0.049 A 
ATOM     53  H   UNL A   1      42.000  27.464  29.728  1.00  0.00     0.167 HD
ATOM     54  C   UNL A   1      43.097  30.914  32.186  1.00  0.00     0.031 A 
ATOM     55  C   UNL A   1      42.357  24.905  28.640  1.00  0.00     0.031 A 
ATOM     56  C   UNL A   1      44.218  30.013  32.244  1.00  0.00     0.049 A 
ATOM     57  C   UNL A   1      43.621  25.224  29.381  1.00  0.00     0.074 A 
ATOM     58  C   UNL A   1      45.403  30.167  32.944  1.00  0.00     0.029 A 
ATOM     59  N   UNL A   1      44.294  28.793  31.590  1.00  0.00    -0.354 N 
ATOM     60  N   UNL A   1      43.897  26.282  30.105  1.00  0.00    -0.248 NA
ATOM     61  C   UNL A   1      44.711  24.243  29.299  1.00  0.00     0.031 C 
ATOM     62  C   UNL A   1      46.219  29.069  32.664  1.00  0.00     0.029 A 
ATOM     63  C   UNL A   1      45.518  28.198  31.844  1.00  0.00     0.049 A 
ATOM     64  H   UNL A   1      43.584  28.407  31.027  1.00  0.00     0.167 HD
ATOM     65  C   UNL A   1      45.195  26.098  30.562  1.00  0.00     0.074 A 
ATOM     66  C   UNL A   1      45.641  24.814  30.055  1.00  0.00     0.031 C 
ATOM     67  C   UNL A   1      45.951  26.925  31.323  1.00  0.00     0.031 A 
BRANCH  54  68
ATOM     68  C   UNL A   1      43.204  32.206  32.954  1.00  0.00    -0.014 A 
ATOM     69  C   UNL A   1      42.744  32.264  34.284  1.00  0.00     0.010 A 
ATOM     70  C   UNL A   1      43.635  33.389  32.328  1.00  0.00     0.010 A 
ATOM     71  C   UNL A   1      42.682  33.483  34.963  1.00  0.00     0.020 A 
ATOM     72  C   UNL A   1      43.599  34.608  33.014  1.00  0.00     0.020 A 
ATOM     73  C   UNL A   1      43.101  34.651  34.319  1.00  0.00     0.054 A 
BRANCH  73  74
ATOM     74  S   UNL A   1      42.988  36.230  35.205  1.00  0.00     0.124 S 
ATOM     75  O   UNL A   1      41.629  36.191  35.736  1.00  0.00    -0.237 OA
ATOM     76  O   UNL A   1      44.057  36.119  36.194  1.00  0.00    -0.237 OA
ATOM     77  O   UNL A   1      43.224  37.224  34.160  1.00  0.00    -0.744 OA
ENDBRANCH  73  74
ENDBRANCH  54  68
BRANCH  55  78
ATOM     78  C   UNL A   1      42.167  23.618  27.915  1.00  0.00    -0.014 A 
ATOM     79  C   UNL A   1      41.514  22.540  28.546  1.00  0.00     0.010 A 
ATOM     80  C   UNL A   1      42.733  23.424  26.644  1.00  0.00     0.010 A 
ATOM     81  C   UNL A   1      41.496  21.276  27.954  1.00  0.00     0.020 A 
ATOM     82  C   UNL A   1      42.688  22.166  26.033  1.00  0.00     0.020 A 
ATOM     83  C   UNL A   1      42.101  21.093  26.709  1.00  0.00     0.054 A 
BRANCH  83  84
ATOM     84  S   UNL A   1      42.129  19.427  25.991  1.00  0.00     0.124 S 
ATOM     85  O   UNL A   1      43.027  19.608  24.854  1.00  0.00    -0.237 OA
ATOM     86  O   UNL A   1      42.655  18.614  27.084  1.00  0.00    -0.237 OA
ATOM     87  O   UNL A   1      40.730  19.180  25.651  1.00  0.00    -0.744 OA
ENDBRANCH  83  84
ENDBRANCH  55  78
BRANCH  67  88
ATOM     88  C   UNL A   1      47.355  26.498  31.655  1.00  0.00    -0.014 A 
ATOM     89  C   UNL A   1      48.360  26.575  30.673  1.00  0.00     0.010 A 
ATOM     90  C   UNL A   1      47.638  25.881  32.885  1.00  0.00     0.010 A 
ATOM     91  C   UNL A   1      49.611  26.000  30.897  1.00  0.00     0.020 A 
ATOM     92  C   UNL A   1      48.899  25.327  33.123  1.00  0.00     0.020 A 
ATOM     93  C   UNL A   1      49.867  25.364  32.115  1.00  0.00     0.054 A 
BRANCH  93  94
ATOM     94  S   UNL A   1      51.478  24.570  32.367  1.00  0.00     0.124 S 
ATOM     95  O   UNL A   1      52.333  25.315  31.449  1.00  0.00    -0.237 OA
ATOM     96  O   UNL A   1      51.729  24.798  33.788  1.00  0.00    -0.237 OA
ATOM     97  O   UNL A   1      51.234  23.176  32.002  1.00  0.00    -0.744 OA
ENDBRANCH  93  94
ENDBRANCH  67  88
ENDBRANCH  41  42
ENDBRANCH  33  36
ENDBRANCH  31  32
ENDBRANCH   1  31
TORSDOF 16
ENDMDL
