MODEL 1
REMARK VINA RESULT:     -11.3      0.000      0.000
REMARK SMILES COc1cccc(/C=C(/CC(=O)NCCCNC(=O)c2ccc(-c3c4nc(c(-c5ccc(S(=O)(=O)[O-])cc5)c5ccc([nH]5)c(-c5ccc(S(=O)(=O)[O-])cc5)c5nc(c(-c6ccc(S(=O)(=O)[O-])cc6)c6ccc3[nH]6)C=C5)C=C4)cc2)c2nc3ccccc3o2)c1
REMARK SMILES IDX 15 1 14 2 13 3 11 4 12 5 10 7 9 8 8 9 7 10 3 11 4 12 89 13
REMARK SMILES IDX 5 14 6 15 2 16 1 17 80 18 81 19 88 20 82 21 87 22 83 23
REMARK SMILES IDX 86 24 84 25 85 26 16 27 17 28 18 29 19 31 20 32 21 33 79 34
REMARK SMILES IDX 22 35 78 36 23 37 24 38 25 39 72 40 26 41 77 42 71 43 73 44
REMARK SMILES IDX 27 45 76 46 70 47 69 48 28 50 58 51 39 52 57 53 40 54 43 55
REMARK SMILES IDX 56 56 74 57 41 58 42 59 55 61 75 62 44 63 29 64 30 65 38 66
REMARK SMILES IDX 31 67 37 68 32 69 33 70 34 71 35 72 36 73 59 74 60 75 68 76
REMARK SMILES IDX 61 77 67 78 62 79 63 80 64 81 65 82 66 83 45 84 46 85 54 86
REMARK SMILES IDX 47 87 53 88 48 89 49 90 50 91 51 92 52 93
REMARK H PARENT 13 6 17 30 73 49 43 60
REMARK Flexibility Score: inf
ROOT
ATOM      1  C   UNL A   1      35.890  23.725  24.659  1.00  0.00     0.042 C 
ENDROOT
BRANCH   1   2
ATOM      2  C   UNL A   1      34.580  23.095  24.198  1.00  0.00     0.117 C 
BRANCH   2   3
ATOM      3  N   UNL A   1      33.451  23.429  25.045  1.00  0.00    -0.356 N 
ATOM      4  C   UNL A   1      32.490  24.385  24.876  1.00  0.00     0.224 C 
ATOM      5  O   UNL A   1      31.525  24.384  25.644  1.00  0.00    -0.275 OA
ATOM      6  H   UNL A   1      33.364  22.886  25.861  1.00  0.00     0.163 HD
BRANCH   4   7
ATOM      7  C   UNL A   1      32.577  25.370  23.712  1.00  0.00     0.141 C 
BRANCH   7   8
ATOM      8  C   UNL A   1      31.737  26.631  23.925  1.00  0.00     0.025 C 
ATOM      9  C   UNL A   1      30.543  26.700  23.285  1.00  0.00     0.018 C 
BRANCH   9  10
ATOM     10  C   UNL A   1      29.489  27.723  23.051  1.00  0.00    -0.021 A 
ATOM     11  C   UNL A   1      28.987  29.953  22.153  1.00  0.00     0.119 A 
ATOM     12  C   UNL A   1      27.682  29.854  22.616  1.00  0.00     0.046 A 
ATOM     13  C   UNL A   1      29.882  28.898  22.368  1.00  0.00     0.054 A 
ATOM     14  C   UNL A   1      27.268  28.703  23.273  1.00  0.00     0.004 A 
ATOM     15  C   UNL A   1      28.168  27.655  23.499  1.00  0.00     0.008 A 
BRANCH  11  16
ATOM     16  O   UNL A   1      29.323  31.152  21.588  1.00  0.00    -0.497 OA
ATOM     17  C   UNL A   1      28.676  32.289  22.143  1.00  0.00     0.278 C 
ENDBRANCH  11  16
ENDBRANCH   9  10
BRANCH   8  18
ATOM     18  C   UNL A   1      32.267  27.684  24.743  1.00  0.00     0.223 A 
ATOM     19  N   UNL A   1      33.533  27.744  25.138  1.00  0.00    -0.210 NA
ATOM     20  O   UNL A   1      31.498  28.677  25.332  1.00  0.00    -0.436 OA
ATOM     21  C   UNL A   1      33.609  28.812  25.986  1.00  0.00     0.110 A 
ATOM     22  C   UNL A   1      32.369  29.410  26.081  1.00  0.00     0.155 A 
ATOM     23  C   UNL A   1      34.682  29.338  26.714  1.00  0.00     0.032 A 
ATOM     24  C   UNL A   1      32.100  30.553  26.823  1.00  0.00     0.049 A 
ATOM     25  C   UNL A   1      34.453  30.486  27.487  1.00  0.00     0.003 A 
ATOM     26  C   UNL A   1      33.188  31.088  27.528  1.00  0.00     0.004 A 
ENDBRANCH   8  18
ENDBRANCH   7   8
ENDBRANCH   4   7
ENDBRANCH   2   3
ENDBRANCH   1   2
BRANCH   1  27
ATOM     27  C   UNL A   1      36.320  23.341  26.073  1.00  0.00     0.118 C 
BRANCH  27  28
ATOM     28  N   UNL A   1      37.489  22.470  26.095  1.00  0.00    -0.352 N 
ATOM     29  C   UNL A   1      38.805  22.745  26.369  1.00  0.00     0.251 C 
ATOM     30  H   UNL A   1      37.304  21.528  25.878  1.00  0.00     0.163 HD
ATOM     31  O   UNL A   1      39.653  21.874  26.154  1.00  0.00    -0.269 OA
BRANCH  29  32
ATOM     32  C   UNL A   1      39.225  24.061  26.899  1.00  0.00     0.039 A 
ATOM     33  C   UNL A   1      38.882  24.398  28.212  1.00  0.00     0.014 A 
ATOM     34  C   UNL A   1      39.913  24.982  26.105  1.00  0.00     0.014 A 
ATOM     35  C   UNL A   1      39.287  25.625  28.748  1.00  0.00     0.010 A 
ATOM     36  C   UNL A   1      40.382  26.170  26.663  1.00  0.00     0.010 A 
ATOM     37  C   UNL A   1      40.074  26.507  27.990  1.00  0.00    -0.014 A 
BRANCH  37  38
ATOM     38  C   UNL A   1      40.598  27.770  28.575  1.00  0.00     0.031 A 
ATOM     39  C   UNL A   1      42.010  27.849  29.089  1.00  0.00     0.074 A 
ATOM     40  C   UNL A   1      39.773  28.827  28.717  1.00  0.00     0.049 A 
ATOM     41  N   UNL A   1      42.616  28.844  29.685  1.00  0.00    -0.248 NA
ATOM     42  C   UNL A   1      42.842  26.645  28.937  1.00  0.00     0.031 C 
ATOM     43  C   UNL A   1      38.366  28.862  28.308  1.00  0.00     0.029 A 
ATOM     44  N   UNL A   1      39.992  30.070  29.257  1.00  0.00    -0.354 N 
ATOM     45  C   UNL A   1      43.888  28.381  30.003  1.00  0.00     0.074 A 
ATOM     46  C   UNL A   1      43.952  27.001  29.569  1.00  0.00     0.031 C 
ATOM     47  C   UNL A   1      37.854  30.069  28.598  1.00  0.00     0.029 A 
ATOM     48  C   UNL A   1      38.879  30.878  29.250  1.00  0.00     0.049 A 
ATOM     49  H   UNL A   1      40.863  30.356  29.615  1.00  0.00     0.167 HD
ATOM     50  C   UNL A   1      44.913  29.044  30.592  1.00  0.00     0.031 A 
ATOM     51  C   UNL A   1      38.692  32.123  29.729  1.00  0.00     0.031 A 
ATOM     52  C   UNL A   1      44.847  30.418  31.015  1.00  0.00     0.049 A 
ATOM     53  C   UNL A   1      39.845  32.846  30.368  1.00  0.00     0.074 A 
ATOM     54  C   UNL A   1      45.855  31.202  31.550  1.00  0.00     0.029 A 
ATOM     55  N   UNL A   1      43.710  31.211  30.964  1.00  0.00    -0.354 N 
ATOM     56  N   UNL A   1      41.067  32.419  30.579  1.00  0.00    -0.248 NA
ATOM     57  C   UNL A   1      39.599  34.222  30.821  1.00  0.00     0.031 C 
ATOM     58  C   UNL A   1      45.311  32.448  31.882  1.00  0.00     0.029 A 
ATOM     59  C   UNL A   1      43.982  32.464  31.490  1.00  0.00     0.049 A 
ATOM     60  H   UNL A   1      42.838  30.925  30.608  1.00  0.00     0.167 HD
ATOM     61  C   UNL A   1      41.743  33.482  31.170  1.00  0.00     0.074 A 
ATOM     62  C   UNL A   1      40.798  34.576  31.266  1.00  0.00     0.031 C 
ATOM     63  C   UNL A   1      43.031  33.544  31.590  1.00  0.00     0.031 A 
BRANCH  50  64
ATOM     64  C   UNL A   1      46.191  28.280  30.833  1.00  0.00    -0.014 A 
ATOM     65  C   UNL A   1      46.405  27.565  32.024  1.00  0.00     0.010 A 
ATOM     66  C   UNL A   1      47.184  28.256  29.835  1.00  0.00     0.010 A 
ATOM     67  C   UNL A   1      47.608  26.885  32.237  1.00  0.00     0.020 A 
ATOM     68  C   UNL A   1      48.376  27.552  30.031  1.00  0.00     0.020 A 
ATOM     69  C   UNL A   1      48.589  26.888  31.241  1.00  0.00     0.054 A 
BRANCH  69  70
ATOM     70  S   UNL A   1      50.140  25.996  31.542  1.00  0.00     0.124 S 
ATOM     71  O   UNL A   1      50.401  25.399  30.236  1.00  0.00    -0.237 OA
ATOM     72  O   UNL A   1      51.053  27.066  31.937  1.00  0.00    -0.237 OA
ATOM     73  O   UNL A   1      49.797  25.050  32.601  1.00  0.00    -0.744 OA
ENDBRANCH  69  70
ENDBRANCH  50  64
BRANCH  51  74
ATOM     74  C   UNL A   1      37.352  32.762  29.610  1.00  0.00    -0.014 A 
ATOM     75  C   UNL A   1      36.479  32.813  30.710  1.00  0.00     0.010 A 
ATOM     76  C   UNL A   1      36.961  33.362  28.398  1.00  0.00     0.010 A 
ATOM     77  C   UNL A   1      35.239  33.449  30.601  1.00  0.00     0.020 A 
ATOM     78  C   UNL A   1      35.735  34.024  28.293  1.00  0.00     0.020 A 
ATOM     79  C   UNL A   1      34.877  34.057  29.395  1.00  0.00     0.054 A 
BRANCH  79  80
ATOM     80  S   UNL A   1      33.295  34.941  29.299  1.00  0.00     0.124 S 
ATOM     81  O   UNL A   1      33.707  36.247  28.795  1.00  0.00    -0.237 OA
ATOM     82  O   UNL A   1      32.529  34.116  28.368  1.00  0.00    -0.237 OA
ATOM     83  O   UNL A   1      32.809  34.926  30.677  1.00  0.00    -0.744 OA
ENDBRANCH  79  80
ENDBRANCH  51  74
BRANCH  63  84
ATOM     84  C   UNL A   1      43.511  34.849  32.172  1.00  0.00    -0.014 A 
ATOM     85  C   UNL A   1      44.056  35.856  31.357  1.00  0.00     0.010 A 
ATOM     86  C   UNL A   1      43.360  35.090  33.550  1.00  0.00     0.010 A 
ATOM     87  C   UNL A   1      44.470  37.070  31.914  1.00  0.00     0.020 A 
ATOM     88  C   UNL A   1      43.743  36.313  34.105  1.00  0.00     0.020 A 
ATOM     89  C   UNL A   1      44.309  37.290  33.286  1.00  0.00     0.054 A 
BRANCH  89  90
ATOM     90  S   UNL A   1      44.811  38.891  33.978  1.00  0.00     0.124 S 
ATOM     91  O   UNL A   1      44.940  39.714  32.779  1.00  0.00    -0.237 OA
ATOM     92  O   UNL A   1      43.692  39.228  34.854  1.00  0.00    -0.237 OA
ATOM     93  O   UNL A   1      46.066  38.593  34.667  1.00  0.00    -0.744 OA
ENDBRANCH  89  90
ENDBRANCH  63  84
ENDBRANCH  37  38
ENDBRANCH  29  32
ENDBRANCH  27  28
ENDBRANCH   1  27
TORSDOF 17
ENDMDL
MODEL 2
REMARK VINA RESULT:     -10.9      3.875      5.619
REMARK SMILES COc1cccc(/C=C(/CC(=O)NCCCNC(=O)c2ccc(-c3c4nc(c(-c5ccc(S(=O)(=O)[O-])cc5)c5ccc([nH]5)c(-c5ccc(S(=O)(=O)[O-])cc5)c5nc(c(-c6ccc(S(=O)(=O)[O-])cc6)c6ccc3[nH]6)C=C5)C=C4)cc2)c2nc3ccccc3o2)c1
REMARK SMILES IDX 15 1 14 2 13 3 11 4 12 5 10 7 9 8 8 9 7 10 3 11 4 12 89 13
REMARK SMILES IDX 5 14 6 15 2 16 1 17 80 18 81 19 88 20 82 21 87 22 83 23
REMARK SMILES IDX 86 24 84 25 85 26 16 27 17 28 18 29 19 31 20 32 21 33 79 34
REMARK SMILES IDX 22 35 78 36 23 37 24 38 25 39 72 40 26 41 77 42 71 43 73 44
REMARK SMILES IDX 27 45 76 46 70 47 69 48 28 50 58 51 39 52 57 53 40 54 43 55
REMARK SMILES IDX 56 56 74 57 41 58 42 59 55 61 75 62 44 63 29 64 30 65 38 66
REMARK SMILES IDX 31 67 37 68 32 69 33 70 34 71 35 72 36 73 59 74 60 75 68 76
REMARK SMILES IDX 61 77 67 78 62 79 63 80 64 81 65 82 66 83 45 84 46 85 54 86
REMARK SMILES IDX 47 87 53 88 48 89 49 90 50 91 51 92 52 93
REMARK H PARENT 13 6 17 30 73 49 43 60
REMARK Flexibility Score: inf
ROOT
ATOM      1  C   UNL A   1      40.165  21.938  26.446  1.00  0.00     0.042 C 
ENDROOT
BRANCH   1   2
ATOM      2  C   UNL A   1      38.669  22.229  26.377  1.00  0.00     0.117 C 
BRANCH   2   3
ATOM      3  N   UNL A   1      38.180  22.416  25.024  1.00  0.00    -0.356 N 
ATOM      4  C   UNL A   1      37.156  23.196  24.570  1.00  0.00     0.224 C 
ATOM      5  O   UNL A   1      37.019  23.329  23.351  1.00  0.00    -0.275 OA
ATOM      6  H   UNL A   1      38.657  21.904  24.332  1.00  0.00     0.163 HD
BRANCH   4   7
ATOM      7  C   UNL A   1      36.263  23.949  25.555  1.00  0.00     0.141 C 
BRANCH   7   8
ATOM      8  C   UNL A   1      34.775  23.854  25.214  1.00  0.00     0.025 C 
ATOM      9  C   UNL A   1      34.050  25.000  25.263  1.00  0.00     0.018 C 
BRANCH   9  10
ATOM     10  C   UNL A   1      32.617  25.387  25.180  1.00  0.00    -0.021 A 
ATOM     11  C   UNL A   1      30.934  26.697  23.961  1.00  0.00     0.119 A 
ATOM     12  C   UNL A   1      29.972  26.350  24.900  1.00  0.00     0.046 A 
ATOM     13  C   UNL A   1      32.243  26.220  24.099  1.00  0.00     0.054 A 
ATOM     14  C   UNL A   1      30.311  25.518  25.960  1.00  0.00     0.004 A 
ATOM     15  C   UNL A   1      31.624  25.054  26.103  1.00  0.00     0.008 A 
BRANCH  11  16
ATOM     16  O   UNL A   1      30.528  27.579  23.000  1.00  0.00    -0.497 OA
ATOM     17  C   UNL A   1      29.197  28.059  23.138  1.00  0.00     0.278 C 
ENDBRANCH  11  16
ENDBRANCH   9  10
BRANCH   8  18
ATOM     18  C   UNL A   1      34.217  22.568  24.907  1.00  0.00     0.223 A 
ATOM     19  N   UNL A   1      33.589  22.288  23.772  1.00  0.00    -0.210 NA
ATOM     20  O   UNL A   1      34.143  21.515  25.808  1.00  0.00    -0.436 OA
ATOM     21  C   UNL A   1      33.110  21.018  23.914  1.00  0.00     0.110 A 
ATOM     22  C   UNL A   1      33.478  20.525  25.149  1.00  0.00     0.155 A 
ATOM     23  C   UNL A   1      32.357  20.213  23.051  1.00  0.00     0.032 A 
ATOM     24  C   UNL A   1      33.196  19.241  25.601  1.00  0.00     0.049 A 
ATOM     25  C   UNL A   1      32.040  18.914  23.471  1.00  0.00     0.003 A 
ATOM     26  C   UNL A   1      32.464  18.435  24.718  1.00  0.00     0.004 A 
ENDBRANCH   8  18
ENDBRANCH   7   8
ENDBRANCH   4   7
ENDBRANCH   2   3
ENDBRANCH   1   2
BRANCH   1  27
ATOM     27  C   UNL A   1      41.015  23.090  26.980  1.00  0.00     0.118 C 
BRANCH  27  28
ATOM     28  N   UNL A   1      41.526  23.957  25.925  1.00  0.00    -0.352 N 
ATOM     29  C   UNL A   1      41.718  25.315  25.897  1.00  0.00     0.251 C 
ATOM     30  H   UNL A   1      41.775  23.490  25.095  1.00  0.00     0.163 HD
ATOM     31  O   UNL A   1      42.001  25.854  24.824  1.00  0.00    -0.269 OA
BRANCH  29  32
ATOM     32  C   UNL A   1      41.578  26.140  27.117  1.00  0.00     0.039 A 
ATOM     33  C   UNL A   1      42.539  27.123  27.378  1.00  0.00     0.014 A 
ATOM     34  C   UNL A   1      40.539  25.929  28.026  1.00  0.00     0.014 A 
ATOM     35  C   UNL A   1      42.418  27.935  28.510  1.00  0.00     0.010 A 
ATOM     36  C   UNL A   1      40.378  26.788  29.112  1.00  0.00     0.010 A 
ATOM     37  C   UNL A   1      41.315  27.801  29.368  1.00  0.00    -0.014 A 
BRANCH  37  38
ATOM     38  C   UNL A   1      41.118  28.720  30.520  1.00  0.00     0.031 A 
ATOM     39  C   UNL A   1      41.949  28.577  31.766  1.00  0.00     0.074 A 
ATOM     40  C   UNL A   1      40.131  29.638  30.475  1.00  0.00     0.049 A 
ATOM     41  N   UNL A   1      41.874  29.246  32.889  1.00  0.00    -0.248 NA
ATOM     42  C   UNL A   1      42.982  27.529  31.761  1.00  0.00     0.031 C 
ATOM     43  C   UNL A   1      39.219  29.844  29.346  1.00  0.00     0.029 A 
ATOM     44  N   UNL A   1      39.718  30.560  31.405  1.00  0.00    -0.354 N 
ATOM     45  C   UNL A   1      42.828  28.685  33.731  1.00  0.00     0.074 A 
ATOM     46  C   UNL A   1      43.440  27.593  33.003  1.00  0.00     0.031 C 
ATOM     47  C   UNL A   1      38.367  30.837  29.644  1.00  0.00     0.029 A 
ATOM     48  C   UNL A   1      38.641  31.310  30.998  1.00  0.00     0.049 A 
ATOM     49  H   UNL A   1      40.154  30.672  32.281  1.00  0.00     0.167 HD
ATOM     50  C   UNL A   1      43.170  29.049  34.990  1.00  0.00     0.031 A 
ATOM     51  C   UNL A   1      37.936  32.261  31.641  1.00  0.00     0.031 A 
ATOM     52  C   UNL A   1      42.563  30.140  35.708  1.00  0.00     0.049 A 
ATOM     53  C   UNL A   1      38.340  32.659  33.034  1.00  0.00     0.074 A 
ATOM     54  C   UNL A   1      42.894  30.636  36.957  1.00  0.00     0.029 A 
ATOM     55  N   UNL A   1      41.494  30.895  35.249  1.00  0.00    -0.354 N 
ATOM     56  N   UNL A   1      39.304  32.174  33.780  1.00  0.00    -0.248 NA
ATOM     57  C   UNL A   1      37.572  33.740  33.666  1.00  0.00     0.031 C 
ATOM     58  C   UNL A   1      41.983  31.649  37.280  1.00  0.00     0.029 A 
ATOM     59  C   UNL A   1      41.129  31.831  36.204  1.00  0.00     0.049 A 
ATOM     60  H   UNL A   1      41.057  30.782  34.374  1.00  0.00     0.167 HD
ATOM     61  C   UNL A   1      39.272  32.907  34.962  1.00  0.00     0.074 A 
ATOM     62  C   UNL A   1      38.205  33.877  34.824  1.00  0.00     0.031 C 
ATOM     63  C   UNL A   1      40.059  32.786  36.060  1.00  0.00     0.031 A 
BRANCH  50  64
ATOM     64  C   UNL A   1      44.242  28.244  35.683  1.00  0.00    -0.014 A 
ATOM     65  C   UNL A   1      45.603  28.571  35.555  1.00  0.00     0.010 A 
ATOM     66  C   UNL A   1      43.875  27.158  36.499  1.00  0.00     0.010 A 
ATOM     67  C   UNL A   1      46.582  27.795  36.185  1.00  0.00     0.020 A 
ATOM     68  C   UNL A   1      44.848  26.398  37.156  1.00  0.00     0.020 A 
ATOM     69  C   UNL A   1      46.197  26.709  36.977  1.00  0.00     0.054 A 
BRANCH  69  70
ATOM     70  S   UNL A   1      47.486  25.721  37.786  1.00  0.00     0.124 S 
ATOM     71  O   UNL A   1      48.698  26.226  37.144  1.00  0.00    -0.237 OA
ATOM     72  O   UNL A   1      47.327  26.077  39.193  1.00  0.00    -0.237 OA
ATOM     73  O   UNL A   1      47.132  24.345  37.449  1.00  0.00    -0.744 OA
ENDBRANCH  69  70
ENDBRANCH  50  64
BRANCH  51  74
ATOM     74  C   UNL A   1      36.778  32.903  30.961  1.00  0.00    -0.014 A 
ATOM     75  C   UNL A   1      35.461  32.623  31.364  1.00  0.00     0.010 A 
ATOM     76  C   UNL A   1      36.993  33.836  29.929  1.00  0.00     0.010 A 
ATOM     77  C   UNL A   1      34.380  33.260  30.746  1.00  0.00     0.020 A 
ATOM     78  C   UNL A   1      35.918  34.496  29.329  1.00  0.00     0.020 A 
ATOM     79  C   UNL A   1      34.616  34.198  29.737  1.00  0.00     0.054 A 
BRANCH  79  80
ATOM     80  S   UNL A   1      33.203  35.068  29.001  1.00  0.00     0.124 S 
ATOM     81  O   UNL A   1      32.361  35.319  30.166  1.00  0.00    -0.237 OA
ATOM     82  O   UNL A   1      33.832  36.246  28.409  1.00  0.00    -0.237 OA
ATOM     83  O   UNL A   1      32.671  34.106  28.039  1.00  0.00    -0.744 OA
ENDBRANCH  79  80
ENDBRANCH  51  74
BRANCH  63  84
ATOM     84  C   UNL A   1      39.818  33.746  37.197  1.00  0.00    -0.014 A 
ATOM     85  C   UNL A   1      40.351  35.047  37.182  1.00  0.00     0.010 A 
ATOM     86  C   UNL A   1      38.998  33.355  38.272  1.00  0.00     0.010 A 
ATOM     87  C   UNL A   1      40.092  35.929  38.235  1.00  0.00     0.020 A 
ATOM     88  C   UNL A   1      38.712  34.244  39.311  1.00  0.00     0.020 A 
ATOM     89  C   UNL A   1      39.273  35.522  39.292  1.00  0.00     0.054 A 
BRANCH  89  90
ATOM     90  S   UNL A   1      38.915  36.701  40.624  1.00  0.00     0.124 S 
ATOM     91  O   UNL A   1      38.006  35.936  41.472  1.00  0.00    -0.237 OA
ATOM     92  O   UNL A   1      40.237  36.957  41.191  1.00  0.00    -0.237 OA
ATOM     93  O   UNL A   1      38.312  37.836  39.930  1.00  0.00    -0.744 OA
ENDBRANCH  89  90
ENDBRANCH  63  84
ENDBRANCH  37  38
ENDBRANCH  29  32
ENDBRANCH  27  28
ENDBRANCH   1  27
TORSDOF 17
ENDMDL
MODEL 3
REMARK VINA RESULT:     -10.8      3.930      9.995
REMARK SMILES COc1cccc(/C=C(/CC(=O)NCCCNC(=O)c2ccc(-c3c4nc(c(-c5ccc(S(=O)(=O)[O-])cc5)c5ccc([nH]5)c(-c5ccc(S(=O)(=O)[O-])cc5)c5nc(c(-c6ccc(S(=O)(=O)[O-])cc6)c6ccc3[nH]6)C=C5)C=C4)cc2)c2nc3ccccc3o2)c1
REMARK SMILES IDX 15 1 14 2 13 3 11 4 12 5 10 7 9 8 8 9 7 10 3 11 4 12 89 13
REMARK SMILES IDX 5 14 6 15 2 16 1 17 80 18 81 19 88 20 82 21 87 22 83 23
REMARK SMILES IDX 86 24 84 25 85 26 16 27 17 28 18 29 19 31 20 32 21 33 79 34
REMARK SMILES IDX 22 35 78 36 23 37 24 38 25 39 72 40 26 41 77 42 71 43 73 44
REMARK SMILES IDX 27 45 76 46 70 47 69 48 28 50 58 51 39 52 57 53 40 54 43 55
REMARK SMILES IDX 56 56 74 57 41 58 42 59 55 61 75 62 44 63 29 64 30 65 38 66
REMARK SMILES IDX 31 67 37 68 32 69 33 70 34 71 35 72 36 73 59 74 60 75 68 76
REMARK SMILES IDX 61 77 67 78 62 79 63 80 64 81 65 82 66 83 45 84 46 85 54 86
REMARK SMILES IDX 47 87 53 88 48 89 49 90 50 91 51 92 52 93
REMARK H PARENT 13 6 17 30 73 49 43 60
REMARK Flexibility Score: inf
ROOT
ATOM      1  C   UNL A   1      35.174  32.013  28.009  1.00  0.00     0.042 C 
ENDROOT
BRANCH   1   2
ATOM      2  C   UNL A   1      35.243  30.556  27.562  1.00  0.00     0.117 C 
BRANCH   2   3
ATOM      3  N   UNL A   1      34.004  29.831  27.769  1.00  0.00    -0.356 N 
ATOM      4  C   UNL A   1      33.398  28.901  26.974  1.00  0.00     0.224 C 
ATOM      5  O   UNL A   1      32.427  28.290  27.426  1.00  0.00    -0.275 OA
ATOM      6  H   UNL A   1      33.531  30.040  28.606  1.00  0.00     0.163 HD
BRANCH   4   7
ATOM      7  C   UNL A   1      33.968  28.574  25.595  1.00  0.00     0.141 C 
BRANCH   7   8
ATOM      8  C   UNL A   1      33.173  27.499  24.852  1.00  0.00     0.025 C 
ATOM      9  C   UNL A   1      33.700  26.249  24.813  1.00  0.00     0.018 C 
BRANCH   9  10
ATOM     10  C   UNL A   1      33.410  24.966  24.120  1.00  0.00    -0.021 A 
ATOM     11  C   UNL A   1      32.795  22.603  24.394  1.00  0.00     0.119 A 
ATOM     12  C   UNL A   1      32.939  22.399  23.028  1.00  0.00     0.046 A 
ATOM     13  C   UNL A   1      33.028  23.874  24.934  1.00  0.00     0.054 A 
ATOM     14  C   UNL A   1      33.296  23.460  22.206  1.00  0.00     0.004 A 
ATOM     15  C   UNL A   1      33.541  24.726  22.750  1.00  0.00     0.008 A 
BRANCH  11  16
ATOM     16  O   UNL A   1      32.519  21.486  25.131  1.00  0.00    -0.497 OA
ATOM     17  C   UNL A   1      33.302  21.323  26.306  1.00  0.00     0.278 C 
ENDBRANCH  11  16
ENDBRANCH   9  10
BRANCH   8  18
ATOM     18  C   UNL A   1      31.947  27.870  24.205  1.00  0.00     0.223 A 
ATOM     19  N   UNL A   1      31.812  28.951  23.447  1.00  0.00    -0.210 NA
ATOM     20  O   UNL A   1      30.733  27.228  24.406  1.00  0.00    -0.436 OA
ATOM     21  C   UNL A   1      30.487  29.014  23.121  1.00  0.00     0.110 A 
ATOM     22  C   UNL A   1      29.826  27.938  23.678  1.00  0.00     0.155 A 
ATOM     23  C   UNL A   1      29.766  29.944  22.364  1.00  0.00     0.032 A 
ATOM     24  C   UNL A   1      28.475  27.668  23.505  1.00  0.00     0.049 A 
ATOM     25  C   UNL A   1      28.396  29.717  22.173  1.00  0.00     0.003 A 
ATOM     26  C   UNL A   1      27.767  28.592  22.723  1.00  0.00     0.004 A 
ENDBRANCH   8  18
ENDBRANCH   7   8
ENDBRANCH   4   7
ENDBRANCH   2   3
ENDBRANCH   1   2
BRANCH   1  27
ATOM     27  C   UNL A   1      36.033  32.347  29.227  1.00  0.00     0.118 C 
BRANCH  27  28
ATOM     28  N   UNL A   1      35.783  31.462  30.359  1.00  0.00    -0.352 N 
ATOM     29  C   UNL A   1      36.522  30.423  30.863  1.00  0.00     0.251 C 
ATOM     30  H   UNL A   1      34.944  31.640  30.842  1.00  0.00     0.163 HD
ATOM     31  O   UNL A   1      36.021  29.700  31.730  1.00  0.00    -0.269 OA
BRANCH  29  32
ATOM     32  C   UNL A   1      37.893  30.144  30.380  1.00  0.00     0.039 A 
ATOM     33  C   UNL A   1      38.923  30.014  31.318  1.00  0.00     0.014 A 
ATOM     34  C   UNL A   1      38.182  30.052  29.017  1.00  0.00     0.014 A 
ATOM     35  C   UNL A   1      40.223  29.726  30.891  1.00  0.00     0.010 A 
ATOM     36  C   UNL A   1      39.461  29.690  28.598  1.00  0.00     0.010 A 
ATOM     37  C   UNL A   1      40.497  29.522  29.529  1.00  0.00    -0.014 A 
BRANCH  37  38
ATOM     38  C   UNL A   1      41.851  29.117  29.067  1.00  0.00     0.031 A 
ATOM     39  C   UNL A   1      42.961  30.129  28.964  1.00  0.00     0.074 A 
ATOM     40  C   UNL A   1      42.062  27.849  28.662  1.00  0.00     0.049 A 
ATOM     41  N   UNL A   1      44.183  29.970  28.525  1.00  0.00    -0.248 NA
ATOM     42  C   UNL A   1      42.650  31.504  29.387  1.00  0.00     0.031 C 
ATOM     43  C   UNL A   1      41.055  26.784  28.661  1.00  0.00     0.029 A 
ATOM     44  N   UNL A   1      43.186  27.241  28.159  1.00  0.00    -0.354 N 
ATOM     45  C   UNL A   1      44.778  31.225  28.591  1.00  0.00     0.074 A 
ATOM     46  C   UNL A   1      43.768  32.143  29.076  1.00  0.00     0.031 C 
ATOM     47  C   UNL A   1      41.610  25.654  28.196  1.00  0.00     0.029 A 
ATOM     48  C   UNL A   1      42.997  25.921  27.826  1.00  0.00     0.049 A 
ATOM     49  H   UNL A   1      44.046  27.708  28.048  1.00  0.00     0.167 HD
ATOM     50  C   UNL A   1      46.050  31.581  28.287  1.00  0.00     0.031 A 
ATOM     51  C   UNL A   1      43.835  25.025  27.268  1.00  0.00     0.031 A 
ATOM     52  C   UNL A   1      47.053  30.664  27.811  1.00  0.00     0.049 A 
ATOM     53  C   UNL A   1      45.245  25.437  26.949  1.00  0.00     0.074 A 
ATOM     54  C   UNL A   1      48.389  30.911  27.550  1.00  0.00     0.029 A 
ATOM     55  N   UNL A   1      46.829  29.327  27.515  1.00  0.00    -0.354 N 
ATOM     56  N   UNL A   1      45.814  26.609  27.103  1.00  0.00    -0.248 NA
ATOM     57  C   UNL A   1      46.130  24.404  26.395  1.00  0.00     0.031 C 
ATOM     58  C   UNL A   1      48.958  29.742  27.034  1.00  0.00     0.029 A 
ATOM     59  C   UNL A   1      47.994  28.746  27.040  1.00  0.00     0.049 A 
ATOM     60  H   UNL A   1      45.969  28.861  27.624  1.00  0.00     0.167 HD
ATOM     61  C   UNL A   1      47.131  26.448  26.685  1.00  0.00     0.074 A 
ATOM     62  C   UNL A   1      47.277  25.063  26.289  1.00  0.00     0.031 C 
ATOM     63  C   UNL A   1      48.127  27.367  26.638  1.00  0.00     0.031 A 
BRANCH  50  64
ATOM     64  C   UNL A   1      46.423  33.035  28.440  1.00  0.00    -0.014 A 
ATOM     65  C   UNL A   1      46.968  33.530  29.638  1.00  0.00     0.010 A 
ATOM     66  C   UNL A   1      46.252  33.913  27.355  1.00  0.00     0.010 A 
ATOM     67  C   UNL A   1      47.284  34.886  29.767  1.00  0.00     0.020 A 
ATOM     68  C   UNL A   1      46.594  35.264  27.468  1.00  0.00     0.020 A 
ATOM     69  C   UNL A   1      47.088  35.746  28.682  1.00  0.00     0.054 A 
BRANCH  69  70
ATOM     70  S   UNL A   1      47.508  37.501  28.875  1.00  0.00     0.124 S 
ATOM     71  O   UNL A   1      46.551  37.928  29.892  1.00  0.00    -0.237 OA
ATOM     72  O   UNL A   1      48.903  37.450  29.308  1.00  0.00    -0.237 OA
ATOM     73  O   UNL A   1      47.291  38.059  27.543  1.00  0.00    -0.744 OA
ENDBRANCH  69  70
ENDBRANCH  50  64
BRANCH  51  74
ATOM     74  C   UNL A   1      43.351  23.646  26.986  1.00  0.00    -0.014 A 
ATOM     75  C   UNL A   1      43.230  23.182  25.665  1.00  0.00     0.010 A 
ATOM     76  C   UNL A   1      43.050  22.771  28.047  1.00  0.00     0.010 A 
ATOM     77  C   UNL A   1      42.813  21.872  25.409  1.00  0.00     0.020 A 
ATOM     78  C   UNL A   1      42.661  21.453  27.796  1.00  0.00     0.020 A 
ATOM     79  C   UNL A   1      42.537  21.013  26.477  1.00  0.00     0.054 A 
BRANCH  79  80
ATOM     80  S   UNL A   1      42.070  19.296  26.122  1.00  0.00     0.124 S 
ATOM     81  O   UNL A   1      42.934  18.973  24.991  1.00  0.00    -0.237 OA
ATOM     82  O   UNL A   1      42.390  18.617  27.376  1.00  0.00    -0.237 OA
ATOM     83  O   UNL A   1      40.644  19.384  25.817  1.00  0.00    -0.744 OA
ENDBRANCH  79  80
ENDBRANCH  51  74
BRANCH  63  84
ATOM     84  C   UNL A   1      49.481  26.902  26.165  1.00  0.00    -0.014 A 
ATOM     85  C   UNL A   1      50.313  26.121  26.986  1.00  0.00     0.010 A 
ATOM     86  C   UNL A   1      49.899  27.206  24.857  1.00  0.00     0.010 A 
ATOM     87  C   UNL A   1      51.553  25.678  26.517  1.00  0.00     0.020 A 
ATOM     88  C   UNL A   1      51.124  26.739  24.374  1.00  0.00     0.020 A 
ATOM     89  C   UNL A   1      51.950  25.989  25.212  1.00  0.00     0.054 A 
BRANCH  89  90
ATOM     90  S   UNL A   1      53.543  25.363  24.611  1.00  0.00     0.124 S 
ATOM     91  O   UNL A   1      54.493  26.196  25.343  1.00  0.00    -0.237 OA
ATOM     92  O   UNL A   1      53.506  23.957  25.006  1.00  0.00    -0.237 OA
ATOM     93  O   UNL A   1      53.489  25.601  23.170  1.00  0.00    -0.744 OA
ENDBRANCH  89  90
ENDBRANCH  63  84
ENDBRANCH  37  38
ENDBRANCH  29  32
ENDBRANCH  27  28
ENDBRANCH   1  27
TORSDOF 17
ENDMDL
