MODEL 1
REMARK VINA RESULT:     -10.3      0.000      0.000
REMARK SMILES CC(C)C[C@@H](NC(=O)c1cccnc1)C(=O)NCCCNC(=O)c1ccc(-c2c3nc(c(-c4ccc(S(=O)(=O)[O-])cc4)c4ccc([nH]4)c(-c4ccc(S(=O)(=O)[O-])cc4)c4nc(c(-c5ccc(S(=O)(=O)[O-])cc5)c5ccc2[nH]5)C=C4)C=C3)cc1
REMARK SMILES IDX 19 1 18 2 17 3 15 4 16 5 5 7 4 8 2 9 1 10 3 11 6 12 7 13
REMARK SMILES IDX 8 15 9 16 10 17 14 18 11 19 13 20 12 21 20 22 21 23 22 24
REMARK SMILES IDX 23 26 24 27 25 28 83 29 26 30 82 31 27 32 28 33 29 34 76 35
REMARK SMILES IDX 30 36 81 37 75 38 77 39 31 40 80 41 74 42 73 43 32 45 62 46
REMARK SMILES IDX 43 47 61 48 44 49 47 50 60 51 78 52 45 53 46 54 59 56 79 57
REMARK SMILES IDX 48 58 33 59 34 60 42 61 35 62 41 63 36 64 37 65 38 66 39 67
REMARK SMILES IDX 40 68 63 69 64 70 72 71 65 72 71 73 66 74 67 75 68 76 69 77
REMARK SMILES IDX 70 78 49 79 50 80 58 81 51 82 57 83 52 84 53 85 54 86 55 87
REMARK SMILES IDX 56 88
REMARK H PARENT 17 6 6 14 21 25 77 44 47 55
REMARK Flexibility Score: inf
ROOT
ATOM      1  C   UNL A   1      32.155  27.802  27.387  1.00  0.00     0.042 C 
ENDROOT
BRANCH   1   2
ATOM      2  C   UNL A   1      31.435  27.500  26.089  1.00  0.00     0.117 C 
BRANCH   2   3
ATOM      3  N   UNL A   1      30.861  26.164  26.097  1.00  0.00    -0.354 N 
ATOM      4  C   UNL A   1      31.415  24.976  25.730  1.00  0.00     0.242 C 
ATOM      5  O   UNL A   1      30.694  23.973  25.718  1.00  0.00    -0.273 OA
ATOM      6  H   UNL A   1      29.931  26.111  26.415  1.00  0.00     0.163 HD
BRANCH   4   7
ATOM      7  C   UNL A   1      32.866  24.903  25.220  1.00  0.00     0.171 C 
BRANCH   7   8
ATOM      8  C   UNL A   1      33.582  23.977  26.239  1.00  0.00     0.038 C 
BRANCH   8   9
ATOM      9  C   UNL A   1      34.373  22.775  25.702  1.00  0.00    -0.015 C 
ATOM     10  C   UNL A   1      35.798  22.749  26.243  1.00  0.00     0.007 C 
ATOM     11  C   UNL A   1      33.638  21.486  26.094  1.00  0.00     0.007 C 
ENDBRANCH   8   9
ENDBRANCH   7   8
BRANCH   7  12
ATOM     12  N   UNL A   1      33.025  24.462  23.822  1.00  0.00    -0.340 N 
ATOM     13  C   UNL A   1      33.165  25.187  22.657  1.00  0.00     0.253 C 
ATOM     14  H   UNL A   1      33.034  23.485  23.700  1.00  0.00     0.164 HD
ATOM     15  O   UNL A   1      33.615  24.638  21.654  1.00  0.00    -0.269 OA
BRANCH  13  16
ATOM     16  C   UNL A   1      32.614  26.546  22.528  1.00  0.00     0.058 A 
ATOM     17  C   UNL A   1      33.336  27.711  22.762  1.00  0.00     0.017 A 
ATOM     18  C   UNL A   1      31.261  26.659  22.229  1.00  0.00     0.124 A 
ATOM     19  C   UNL A   1      32.654  28.928  22.799  1.00  0.00     0.021 A 
ATOM     20  N   UNL A   1      30.573  27.826  22.267  1.00  0.00    -0.264 NA
ATOM     21  C   UNL A   1      31.285  28.934  22.568  1.00  0.00     0.111 A 
ENDBRANCH  13  16
ENDBRANCH   7  12
ENDBRANCH   4   7
ENDBRANCH   2   3
ENDBRANCH   1   2
BRANCH   1  22
ATOM     22  C   UNL A   1      33.487  28.505  27.175  1.00  0.00     0.118 C 
BRANCH  22  23
ATOM     23  N   UNL A   1      33.438  29.929  27.483  1.00  0.00    -0.352 N 
ATOM     24  C   UNL A   1      34.405  30.699  28.086  1.00  0.00     0.251 C 
ATOM     25  H   UNL A   1      32.610  30.397  27.229  1.00  0.00     0.163 HD
ATOM     26  O   UNL A   1      34.164  31.845  28.449  1.00  0.00    -0.269 OA
BRANCH  24  27
ATOM     27  C   UNL A   1      35.736  30.105  28.305  1.00  0.00     0.039 A 
ATOM     28  C   UNL A   1      36.677  30.132  27.275  1.00  0.00     0.014 A 
ATOM     29  C   UNL A   1      36.069  29.597  29.564  1.00  0.00     0.014 A 
ATOM     30  C   UNL A   1      37.983  29.714  27.534  1.00  0.00     0.010 A 
ATOM     31  C   UNL A   1      37.388  29.276  29.845  1.00  0.00     0.010 A 
ATOM     32  C   UNL A   1      38.357  29.323  28.831  1.00  0.00    -0.014 A 
BRANCH  32  33
ATOM     33  C   UNL A   1      39.754  28.945  29.156  1.00  0.00     0.031 A 
ATOM     34  C   UNL A   1      40.666  29.952  29.802  1.00  0.00     0.074 A 
ATOM     35  C   UNL A   1      40.222  27.733  28.797  1.00  0.00     0.049 A 
ATOM     36  N   UNL A   1      41.939  29.850  30.083  1.00  0.00    -0.248 NA
ATOM     37  C   UNL A   1      40.079  31.260  30.144  1.00  0.00     0.031 C 
ATOM     38  C   UNL A   1      39.452  26.691  28.112  1.00  0.00     0.029 A 
ATOM     39  N   UNL A   1      41.466  27.175  28.951  1.00  0.00    -0.354 N 
ATOM     40  C   UNL A   1      42.308  31.084  30.605  1.00  0.00     0.074 A 
ATOM     41  C   UNL A   1      41.141  31.936  30.552  1.00  0.00     0.031 C 
ATOM     42  C   UNL A   1      40.231  25.612  27.935  1.00  0.00     0.029 A 
ATOM     43  C   UNL A   1      41.563  25.896  28.457  1.00  0.00     0.049 A 
ATOM     44  H   UNL A   1      42.218  27.648  29.375  1.00  0.00     0.167 HD
ATOM     45  C   UNL A   1      43.506  31.469  31.107  1.00  0.00     0.031 A 
ATOM     46  C   UNL A   1      42.609  25.048  28.428  1.00  0.00     0.031 A 
ATOM     47  C   UNL A   1      44.653  30.608  31.189  1.00  0.00     0.049 A 
ATOM     48  C   UNL A   1      43.921  25.485  29.020  1.00  0.00     0.074 A 
ATOM     49  C   UNL A   1      45.893  30.878  31.742  1.00  0.00     0.029 A 
ATOM     50  N   UNL A   1      44.699  29.307  30.713  1.00  0.00    -0.354 N 
ATOM     51  N   UNL A   1      44.234  26.637  29.567  1.00  0.00    -0.248 NA
ATOM     52  C   UNL A   1      45.016  24.506  29.004  1.00  0.00     0.031 C 
ATOM     53  C   UNL A   1      46.701  29.748  31.567  1.00  0.00     0.029 A 
ATOM     54  C   UNL A   1      45.950  28.763  30.946  1.00  0.00     0.049 A 
ATOM     55  H   UNL A   1      43.953  28.839  30.272  1.00  0.00     0.167 HD
ATOM     56  C   UNL A   1      45.554  26.511  29.981  1.00  0.00     0.074 A 
ATOM     57  C   UNL A   1      45.976  25.169  29.633  1.00  0.00     0.031 C 
ATOM     58  C   UNL A   1      46.347  27.424  30.594  1.00  0.00     0.031 A 
BRANCH  45  59
ATOM     59  C   UNL A   1      43.622  32.883  31.610  1.00  0.00    -0.014 A 
ATOM     60  C   UNL A   1      43.403  33.191  32.964  1.00  0.00     0.010 A 
ATOM     61  C   UNL A   1      43.974  33.915  30.721  1.00  0.00     0.010 A 
ATOM     62  C   UNL A   1      43.485  34.511  33.412  1.00  0.00     0.020 A 
ATOM     63  C   UNL A   1      44.086  35.233  31.171  1.00  0.00     0.020 A 
ATOM     64  C   UNL A   1      43.820  35.525  32.511  1.00  0.00     0.054 A 
BRANCH  64  65
ATOM     65  S   UNL A   1      43.937  37.229  33.121  1.00  0.00     0.124 S 
ATOM     66  O   UNL A   1      43.891  37.996  31.878  1.00  0.00    -0.237 OA
ATOM     67  O   UNL A   1      42.757  37.347  33.975  1.00  0.00    -0.237 OA
ATOM     68  O   UNL A   1      45.216  37.259  33.825  1.00  0.00    -0.744 OA
ENDBRANCH  64  65
ENDBRANCH  45  59
BRANCH  46  69
ATOM     69  C   UNL A   1      42.448  23.689  27.844  1.00  0.00    -0.014 A 
ATOM     70  C   UNL A   1      42.790  23.448  26.502  1.00  0.00     0.010 A 
ATOM     71  C   UNL A   1      41.972  22.626  28.631  1.00  0.00     0.010 A 
ATOM     72  C   UNL A   1      42.642  22.172  25.951  1.00  0.00     0.020 A 
ATOM     73  C   UNL A   1      41.845  21.342  28.091  1.00  0.00     0.020 A 
ATOM     74  C   UNL A   1      42.172  21.126  26.750  1.00  0.00     0.054 A 
BRANCH  74  75
ATOM     75  S   UNL A   1      42.040  19.464  26.032  1.00  0.00     0.124 S 
ATOM     76  O   UNL A   1      42.556  18.627  27.109  1.00  0.00    -0.237 OA
ATOM     77  O   UNL A   1      40.607  19.347  25.768  1.00  0.00    -0.237 OA
ATOM     78  O   UNL A   1      42.879  19.542  24.838  1.00  0.00    -0.744 OA
ENDBRANCH  74  75
ENDBRANCH  46  69
BRANCH  58  79
ATOM     79  C   UNL A   1      47.741  26.993  30.958  1.00  0.00    -0.014 A 
ATOM     80  C   UNL A   1      48.002  26.319  32.163  1.00  0.00     0.010 A 
ATOM     81  C   UNL A   1      48.793  27.215  30.050  1.00  0.00     0.010 A 
ATOM     82  C   UNL A   1      49.299  25.898  32.467  1.00  0.00     0.020 A 
ATOM     83  C   UNL A   1      50.085  26.774  30.340  1.00  0.00     0.020 A 
ATOM     84  C   UNL A   1      50.332  26.130  31.554  1.00  0.00     0.054 A 
BRANCH  84  85
ATOM     85  S   UNL A   1      51.998  25.532  31.950  1.00  0.00     0.124 S 
ATOM     86  O   UNL A   1      52.324  26.311  33.141  1.00  0.00    -0.237 OA
ATOM     87  O   UNL A   1      51.783  24.103  32.172  1.00  0.00    -0.237 OA
ATOM     88  O   UNL A   1      52.776  25.860  30.757  1.00  0.00    -0.744 OA
ENDBRANCH  84  85
ENDBRANCH  58  79
ENDBRANCH  32  33
ENDBRANCH  24  27
ENDBRANCH  22  23
ENDBRANCH   1  22
TORSDOF 17
ENDMDL
MODEL 2
REMARK VINA RESULT:     -10.3      1.171      2.749
REMARK SMILES CC(C)C[C@@H](NC(=O)c1cccnc1)C(=O)NCCCNC(=O)c1ccc(-c2c3nc(c(-c4ccc(S(=O)(=O)[O-])cc4)c4ccc([nH]4)c(-c4ccc(S(=O)(=O)[O-])cc4)c4nc(c(-c5ccc(S(=O)(=O)[O-])cc5)c5ccc2[nH]5)C=C4)C=C3)cc1
REMARK SMILES IDX 19 1 18 2 17 3 15 4 16 5 5 7 4 8 2 9 1 10 3 11 6 12 7 13
REMARK SMILES IDX 8 15 9 16 10 17 14 18 11 19 13 20 12 21 20 22 21 23 22 24
REMARK SMILES IDX 23 26 24 27 25 28 83 29 26 30 82 31 27 32 28 33 29 34 76 35
REMARK SMILES IDX 30 36 81 37 75 38 77 39 31 40 80 41 74 42 73 43 32 45 62 46
REMARK SMILES IDX 43 47 61 48 44 49 47 50 60 51 78 52 45 53 46 54 59 56 79 57
REMARK SMILES IDX 48 58 33 59 34 60 42 61 35 62 41 63 36 64 37 65 38 66 39 67
REMARK SMILES IDX 40 68 63 69 64 70 72 71 65 72 71 73 66 74 67 75 68 76 69 77
REMARK SMILES IDX 70 78 49 79 50 80 58 81 51 82 57 83 52 84 53 85 54 86 55 87
REMARK SMILES IDX 56 88
REMARK H PARENT 17 6 6 14 21 25 77 44 47 55
REMARK Flexibility Score: inf
ROOT
ATOM      1  C   UNL A   1      33.994  28.336  25.825  1.00  0.00     0.042 C 
ENDROOT
BRANCH   1   2
ATOM      2  C   UNL A   1      33.187  29.208  24.884  1.00  0.00     0.117 C 
BRANCH   2   3
ATOM      3  N   UNL A   1      33.699  29.139  23.525  1.00  0.00    -0.354 N 
ATOM      4  C   UNL A   1      33.599  28.140  22.605  1.00  0.00     0.242 C 
ATOM      5  O   UNL A   1      34.213  28.260  21.541  1.00  0.00    -0.273 OA
ATOM      6  H   UNL A   1      34.195  29.935  23.224  1.00  0.00     0.163 HD
BRANCH   4   7
ATOM      7  C   UNL A   1      32.844  26.838  22.931  1.00  0.00     0.171 C 
BRANCH   7   8
ATOM      8  C   UNL A   1      31.406  27.088  22.405  1.00  0.00     0.038 C 
BRANCH   8   9
ATOM      9  C   UNL A   1      30.336  27.557  23.401  1.00  0.00    -0.015 C 
ATOM     10  C   UNL A   1      29.417  28.609  22.789  1.00  0.00     0.007 C 
ATOM     11  C   UNL A   1      29.515  26.340  23.852  1.00  0.00     0.007 C 
ENDBRANCH   8   9
ENDBRANCH   7   8
BRANCH   7  12
ATOM     12  N   UNL A   1      33.451  25.603  22.399  1.00  0.00    -0.340 N 
ATOM     13  C   UNL A   1      33.221  24.279  22.707  1.00  0.00     0.253 C 
ATOM     14  H   UNL A   1      34.136  25.750  21.708  1.00  0.00     0.164 HD
ATOM     15  O   UNL A   1      33.584  23.405  21.924  1.00  0.00    -0.269 OA
BRANCH  13  16
ATOM     16  C   UNL A   1      32.724  23.874  24.032  1.00  0.00     0.058 A 
ATOM     17  C   UNL A   1      32.643  24.721  25.132  1.00  0.00     0.017 A 
ATOM     18  C   UNL A   1      32.390  22.535  24.205  1.00  0.00     0.124 A 
ATOM     19  C   UNL A   1      32.342  24.173  26.380  1.00  0.00     0.021 A 
ATOM     20  N   UNL A   1      32.103  21.977  25.406  1.00  0.00    -0.264 NA
ATOM     21  C   UNL A   1      32.102  22.809  26.471  1.00  0.00     0.111 A 
ENDBRANCH  13  16
ENDBRANCH   7  12
ENDBRANCH   4   7
ENDBRANCH   2   3
ENDBRANCH   1   2
BRANCH   1  22
ATOM     22  C   UNL A   1      33.622  28.542  27.285  1.00  0.00     0.118 C 
BRANCH  22  23
ATOM     23  N   UNL A   1      33.555  29.949  27.666  1.00  0.00    -0.352 N 
ATOM     24  C   UNL A   1      34.520  30.706  28.287  1.00  0.00     0.251 C 
ATOM     25  H   UNL A   1      32.714  30.414  27.451  1.00  0.00     0.163 HD
ATOM     26  O   UNL A   1      34.267  31.828  28.712  1.00  0.00    -0.269 OA
BRANCH  24  27
ATOM     27  C   UNL A   1      35.866  30.126  28.450  1.00  0.00     0.039 A 
ATOM     28  C   UNL A   1      36.760  30.158  27.380  1.00  0.00     0.014 A 
ATOM     29  C   UNL A   1      36.258  29.626  29.696  1.00  0.00     0.014 A 
ATOM     30  C   UNL A   1      38.081  29.754  27.584  1.00  0.00     0.010 A 
ATOM     31  C   UNL A   1      37.592  29.320  29.920  1.00  0.00     0.010 A 
ATOM     32  C   UNL A   1      38.515  29.373  28.864  1.00  0.00    -0.014 A 
BRANCH  32  33
ATOM     33  C   UNL A   1      39.928  29.009  29.129  1.00  0.00     0.031 A 
ATOM     34  C   UNL A   1      40.862  30.034  29.714  1.00  0.00     0.074 A 
ATOM     35  C   UNL A   1      40.388  27.794  28.770  1.00  0.00     0.049 A 
ATOM     36  N   UNL A   1      42.148  29.946  29.935  1.00  0.00    -0.248 NA
ATOM     37  C   UNL A   1      40.282  31.344  30.059  1.00  0.00     0.031 C 
ATOM     38  C   UNL A   1      39.594  26.735  28.142  1.00  0.00     0.029 A 
ATOM     39  N   UNL A   1      41.643  27.248  28.875  1.00  0.00    -0.354 N 
ATOM     40  C   UNL A   1      42.532  31.192  30.417  1.00  0.00     0.074 A 
ATOM     41  C   UNL A   1      41.357  32.035  30.404  1.00  0.00     0.031 C 
ATOM     42  C   UNL A   1      40.373  25.658  27.948  1.00  0.00     0.029 A 
ATOM     43  C   UNL A   1      41.726  25.961  28.401  1.00  0.00     0.049 A 
ATOM     44  H   UNL A   1      42.410  27.733  29.255  1.00  0.00     0.167 HD
ATOM     45  C   UNL A   1      43.749  31.594  30.854  1.00  0.00     0.031 A 
ATOM     46  C   UNL A   1      42.775  25.119  28.338  1.00  0.00     0.031 A 
ATOM     47  C   UNL A   1      44.905  30.743  30.898  1.00  0.00     0.049 A 
ATOM     48  C   UNL A   1      44.110  25.576  28.859  1.00  0.00     0.074 A 
ATOM     49  C   UNL A   1      46.168  31.031  31.387  1.00  0.00     0.029 A 
ATOM     50  N   UNL A   1      44.938  29.434  30.444  1.00  0.00    -0.354 N 
ATOM     51  N   UNL A   1      44.440  26.740  29.369  1.00  0.00    -0.248 NA
ATOM     52  C   UNL A   1      45.211  24.604  28.808  1.00  0.00     0.031 C 
ATOM     53  C   UNL A   1      46.975  29.904  31.194  1.00  0.00     0.029 A 
ATOM     54  C   UNL A   1      46.203  28.902  30.627  1.00  0.00     0.049 A 
ATOM     55  H   UNL A   1      44.176  28.953  30.048  1.00  0.00     0.167 HD
ATOM     56  C   UNL A   1      45.780  26.631  29.722  1.00  0.00     0.074 A 
ATOM     57  C   UNL A   1      46.195  25.285  29.380  1.00  0.00     0.031 C 
ATOM     58  C   UNL A   1      46.593  27.560  30.281  1.00  0.00     0.031 A 
BRANCH  45  59
ATOM     59  C   UNL A   1      43.878  33.018  31.326  1.00  0.00    -0.014 A 
ATOM     60  C   UNL A   1      44.278  34.040  30.446  1.00  0.00     0.010 A 
ATOM     61  C   UNL A   1      43.578  33.343  32.661  1.00  0.00     0.010 A 
ATOM     62  C   UNL A   1      44.422  35.352  30.903  1.00  0.00     0.020 A 
ATOM     63  C   UNL A   1      43.694  34.660  33.115  1.00  0.00     0.020 A 
ATOM     64  C   UNL A   1      44.135  35.652  32.237  1.00  0.00     0.054 A 
BRANCH  64  65
ATOM     65  S   UNL A   1      44.315  37.366  32.802  1.00  0.00     0.124 S 
ATOM     66  O   UNL A   1      45.669  37.359  33.351  1.00  0.00    -0.237 OA
ATOM     67  O   UNL A   1      44.142  38.131  31.569  1.00  0.00    -0.237 OA
ATOM     68  O   UNL A   1      43.245  37.522  33.783  1.00  0.00    -0.744 OA
ENDBRANCH  64  65
ENDBRANCH  45  59
BRANCH  46  69
ATOM     69  C   UNL A   1      42.597  23.749  27.787  1.00  0.00    -0.014 A 
ATOM     70  C   UNL A   1      42.228  22.687  28.631  1.00  0.00     0.010 A 
ATOM     71  C   UNL A   1      42.777  23.502  26.415  1.00  0.00     0.010 A 
ATOM     72  C   UNL A   1      42.058  21.398  28.116  1.00  0.00     0.020 A 
ATOM     73  C   UNL A   1      42.584  22.219  25.891  1.00  0.00     0.020 A 
ATOM     74  C   UNL A   1      42.236  21.173  26.749  1.00  0.00     0.054 A 
BRANCH  74  75
ATOM     75  S   UNL A   1      41.956  19.505  26.090  1.00  0.00     0.124 S 
ATOM     76  O   UNL A   1      42.821  19.494  24.915  1.00  0.00    -0.237 OA
ATOM     77  O   UNL A   1      42.381  18.652  27.198  1.00  0.00    -0.237 OA
ATOM     78  O   UNL A   1      40.521  19.484  25.815  1.00  0.00    -0.744 OA
ENDBRANCH  74  75
ENDBRANCH  46  69
BRANCH  58  79
ATOM     79  C   UNL A   1      48.006  27.145  30.586  1.00  0.00    -0.014 A 
ATOM     80  C   UNL A   1      49.041  27.357  29.660  1.00  0.00     0.010 A 
ATOM     81  C   UNL A   1      48.308  26.589  31.843  1.00  0.00     0.010 A 
ATOM     82  C   UNL A   1      50.353  26.994  29.975  1.00  0.00     0.020 A 
ATOM     83  C   UNL A   1      49.621  26.248  32.170  1.00  0.00     0.020 A 
ATOM     84  C   UNL A   1      50.634  26.440  31.228  1.00  0.00     0.054 A 
BRANCH  84  85
ATOM     85  S   UNL A   1      52.352  26.020  31.633  1.00  0.00     0.124 S 
ATOM     86  O   UNL A   1      52.655  26.976  32.694  1.00  0.00    -0.237 OA
ATOM     87  O   UNL A   1      52.251  24.624  32.053  1.00  0.00    -0.237 OA
ATOM     88  O   UNL A   1      53.065  26.236  30.376  1.00  0.00    -0.744 OA
ENDBRANCH  84  85
ENDBRANCH  58  79
ENDBRANCH  32  33
ENDBRANCH  24  27
ENDBRANCH  22  23
ENDBRANCH   1  22
TORSDOF 17
ENDMDL
MODEL 3
REMARK VINA RESULT:     -10.2      2.602      9.047
REMARK SMILES CC(C)C[C@@H](NC(=O)c1cccnc1)C(=O)NCCCNC(=O)c1ccc(-c2c3nc(c(-c4ccc(S(=O)(=O)[O-])cc4)c4ccc([nH]4)c(-c4ccc(S(=O)(=O)[O-])cc4)c4nc(c(-c5ccc(S(=O)(=O)[O-])cc5)c5ccc2[nH]5)C=C4)C=C3)cc1
REMARK SMILES IDX 19 1 18 2 17 3 15 4 16 5 5 7 4 8 2 9 1 10 3 11 6 12 7 13
REMARK SMILES IDX 8 15 9 16 10 17 14 18 11 19 13 20 12 21 20 22 21 23 22 24
REMARK SMILES IDX 23 26 24 27 25 28 83 29 26 30 82 31 27 32 28 33 29 34 76 35
REMARK SMILES IDX 30 36 81 37 75 38 77 39 31 40 80 41 74 42 73 43 32 45 62 46
REMARK SMILES IDX 43 47 61 48 44 49 47 50 60 51 78 52 45 53 46 54 59 56 79 57
REMARK SMILES IDX 48 58 33 59 34 60 42 61 35 62 41 63 36 64 37 65 38 66 39 67
REMARK SMILES IDX 40 68 63 69 64 70 72 71 65 72 71 73 66 74 67 75 68 76 69 77
REMARK SMILES IDX 70 78 49 79 50 80 58 81 51 82 57 83 52 84 53 85 54 86 55 87
REMARK SMILES IDX 56 88
REMARK H PARENT 17 6 6 14 21 25 77 44 47 55
REMARK Flexibility Score: inf
ROOT
ATOM      1  C   UNL A   1      35.778  23.382  26.080  1.00  0.00     0.042 C 
ENDROOT
BRANCH   1   2
ATOM      2  C   UNL A   1      34.606  24.284  25.750  1.00  0.00     0.117 C 
BRANCH   2   3
ATOM      3  N   UNL A   1      33.473  24.025  26.624  1.00  0.00    -0.354 N 
ATOM      4  C   UNL A   1      32.146  23.948  26.331  1.00  0.00     0.242 C 
ATOM      5  O   UNL A   1      31.346  23.825  27.264  1.00  0.00    -0.273 OA
ATOM      6  H   UNL A   1      33.700  23.885  27.572  1.00  0.00     0.163 HD
BRANCH   4   7
ATOM      7  C   UNL A   1      31.643  24.137  24.888  1.00  0.00     0.171 C 
BRANCH   7   8
ATOM      8  C   UNL A   1      31.557  22.694  24.322  1.00  0.00     0.038 C 
BRANCH   8   9
ATOM      9  C   UNL A   1      32.606  22.250  23.294  1.00  0.00    -0.015 C 
ATOM     10  C   UNL A   1      32.059  21.183  22.352  1.00  0.00     0.007 C 
ATOM     11  C   UNL A   1      33.061  23.477  22.491  1.00  0.00     0.007 C 
ENDBRANCH   8   9
ENDBRANCH   7   8
BRANCH   7  12
ATOM     12  N   UNL A   1      30.383  24.891  24.750  1.00  0.00    -0.340 N 
ATOM     13  C   UNL A   1      30.147  26.247  24.661  1.00  0.00     0.253 C 
ATOM     14  H   UNL A   1      29.573  24.332  24.715  1.00  0.00     0.164 HD
ATOM     15  O   UNL A   1      29.072  26.646  24.220  1.00  0.00    -0.269 OA
BRANCH  13  16
ATOM     16  C   UNL A   1      31.071  27.226  25.256  1.00  0.00     0.058 A 
ATOM     17  C   UNL A   1      31.223  27.432  26.623  1.00  0.00     0.017 A 
ATOM     18  C   UNL A   1      31.774  28.051  24.384  1.00  0.00     0.124 A 
ATOM     19  C   UNL A   1      31.981  28.520  27.058  1.00  0.00     0.021 A 
ATOM     20  N   UNL A   1      32.509  29.118  24.780  1.00  0.00    -0.264 NA
ATOM     21  C   UNL A   1      32.581  29.339  26.110  1.00  0.00     0.111 A 
ENDBRANCH  13  16
ENDBRANCH   7  12
ENDBRANCH   4   7
ENDBRANCH   2   3
ENDBRANCH   1   2
BRANCH   1  22
ATOM     22  C   UNL A   1      36.992  23.648  25.205  1.00  0.00     0.118 C 
BRANCH  22  23
ATOM     23  N   UNL A   1      38.087  22.715  25.445  1.00  0.00    -0.352 N 
ATOM     24  C   UNL A   1      39.289  22.960  26.067  1.00  0.00     0.251 C 
ATOM     25  H   UNL A   1      37.948  21.795  25.122  1.00  0.00     0.163 HD
ATOM     26  O   UNL A   1      40.193  22.132  26.043  1.00  0.00    -0.269 OA
BRANCH  24  27
ATOM     27  C   UNL A   1      39.473  24.255  26.747  1.00  0.00     0.039 A 
ATOM     28  C   UNL A   1      39.006  24.417  28.052  1.00  0.00     0.014 A 
ATOM     29  C   UNL A   1      40.184  25.276  26.109  1.00  0.00     0.014 A 
ATOM     30  C   UNL A   1      39.321  25.585  28.748  1.00  0.00     0.010 A 
ATOM     31  C   UNL A   1      40.577  26.391  26.835  1.00  0.00     0.010 A 
ATOM     32  C   UNL A   1      40.143  26.560  28.159  1.00  0.00    -0.014 A 
BRANCH  32  33
ATOM     33  C   UNL A   1      40.556  27.778  28.898  1.00  0.00     0.031 A 
ATOM     34  C   UNL A   1      41.898  27.816  29.577  1.00  0.00     0.074 A 
ATOM     35  C   UNL A   1      39.697  28.808  29.028  1.00  0.00     0.049 A 
ATOM     36  N   UNL A   1      42.408  28.744  30.345  1.00  0.00    -0.248 NA
ATOM     37  C   UNL A   1      42.768  26.639  29.401  1.00  0.00     0.031 C 
ATOM     38  C   UNL A   1      38.345  28.866  28.466  1.00  0.00     0.029 A 
ATOM     39  N   UNL A   1      39.832  30.005  29.686  1.00  0.00    -0.354 N 
ATOM     40  C   UNL A   1      43.638  28.251  30.763  1.00  0.00     0.074 A 
ATOM     41  C   UNL A   1      43.776  26.922  30.210  1.00  0.00     0.031 C 
ATOM     42  C   UNL A   1      37.790  30.049  28.776  1.00  0.00     0.029 A 
ATOM     43  C   UNL A   1      38.727  30.817  29.588  1.00  0.00     0.049 A 
ATOM     44  H   UNL A   1      40.645  30.258  30.181  1.00  0.00     0.167 HD
ATOM     45  C   UNL A   1      44.582  28.859  31.520  1.00  0.00     0.031 A 
ATOM     46  C   UNL A   1      38.496  32.042  30.096  1.00  0.00     0.031 A 
ATOM     47  C   UNL A   1      44.456  30.193  32.038  1.00  0.00     0.049 A 
ATOM     48  C   UNL A   1      39.571  32.712  30.907  1.00  0.00     0.074 A 
ATOM     49  C   UNL A   1      45.382  30.927  32.758  1.00  0.00     0.029 A 
ATOM     50  N   UNL A   1      43.337  30.996  31.884  1.00  0.00    -0.354 N 
ATOM     51  N   UNL A   1      40.755  32.254  31.240  1.00  0.00    -0.248 NA
ATOM     52  C   UNL A   1      39.285  34.065  31.400  1.00  0.00     0.031 C 
ATOM     53  C   UNL A   1      44.806  32.164  33.071  1.00  0.00     0.029 A 
ATOM     54  C   UNL A   1      43.542  32.215  32.507  1.00  0.00     0.049 A 
ATOM     55  H   UNL A   1      42.517  30.738  31.404  1.00  0.00     0.167 HD
ATOM     56  C   UNL A   1      41.365  33.274  31.961  1.00  0.00     0.074 A 
ATOM     57  C   UNL A   1      40.424  34.376  32.004  1.00  0.00     0.031 C 
ATOM     58  C   UNL A   1      42.593  33.298  32.535  1.00  0.00     0.031 A 
BRANCH  45  59
ATOM     59  C   UNL A   1      45.834  28.079  31.821  1.00  0.00    -0.014 A 
ATOM     60  C   UNL A   1      45.923  27.262  32.962  1.00  0.00     0.010 A 
ATOM     61  C   UNL A   1      46.930  28.150  30.942  1.00  0.00     0.010 A 
ATOM     62  C   UNL A   1      47.101  26.567  33.245  1.00  0.00     0.020 A 
ATOM     63  C   UNL A   1      48.101  27.433  31.206  1.00  0.00     0.020 A 
ATOM     64  C   UNL A   1      48.185  26.662  32.368  1.00  0.00     0.054 A 
BRANCH  64  65
ATOM     65  S   UNL A   1      49.697  25.737  32.750  1.00  0.00     0.124 S 
ATOM     66  O   UNL A   1      50.556  26.782  33.303  1.00  0.00    -0.237 OA
ATOM     67  O   UNL A   1      49.231  24.737  33.708  1.00  0.00    -0.237 OA
ATOM     68  O   UNL A   1      50.116  25.207  31.455  1.00  0.00    -0.744 OA
ENDBRANCH  64  65
ENDBRANCH  45  59
BRANCH  46  69
ATOM     69  C   UNL A   1      37.203  32.728  29.826  1.00  0.00    -0.014 A 
ATOM     70  C   UNL A   1      36.200  32.763  30.809  1.00  0.00     0.010 A 
ATOM     71  C   UNL A   1      36.976  33.364  28.593  1.00  0.00     0.010 A 
ATOM     72  C   UNL A   1      34.985  33.408  30.560  1.00  0.00     0.020 A 
ATOM     73  C   UNL A   1      35.772  34.030  28.347  1.00  0.00     0.020 A 
ATOM     74  C   UNL A   1      34.779  34.039  29.330  1.00  0.00     0.054 A 
BRANCH  74  75
ATOM     75  S   UNL A   1      33.217  34.919  29.045  1.00  0.00     0.124 S 
ATOM     76  O   UNL A   1      32.611  34.123  27.983  1.00  0.00    -0.237 OA
ATOM     77  O   UNL A   1      32.564  34.835  30.351  1.00  0.00    -0.237 OA
ATOM     78  O   UNL A   1      33.648  36.261  28.659  1.00  0.00    -0.744 OA
ENDBRANCH  74  75
ENDBRANCH  46  69
BRANCH  58  79
ATOM     79  C   UNL A   1      43.003  34.565  33.233  1.00  0.00    -0.014 A 
ATOM     80  C   UNL A   1      42.824  34.722  34.618  1.00  0.00     0.010 A 
ATOM     81  C   UNL A   1      43.630  35.588  32.497  1.00  0.00     0.010 A 
ATOM     82  C   UNL A   1      43.243  35.895  35.253  1.00  0.00     0.020 A 
ATOM     83  C   UNL A   1      44.070  36.750  33.132  1.00  0.00     0.020 A 
ATOM     84  C   UNL A   1      43.862  36.902  34.505  1.00  0.00     0.054 A 
BRANCH  84  85
ATOM     85  S   UNL A   1      44.438  38.395  35.359  1.00  0.00     0.124 S 
ATOM     86  O   UNL A   1      43.921  38.191  36.708  1.00  0.00    -0.237 OA
ATOM     87  O   UNL A   1      45.890  38.304  35.221  1.00  0.00    -0.237 OA
ATOM     88  O   UNL A   1      43.814  39.484  34.610  1.00  0.00    -0.744 OA
ENDBRANCH  84  85
ENDBRANCH  58  79
ENDBRANCH  32  33
ENDBRANCH  24  27
ENDBRANCH  22  23
ENDBRANCH   1  22
TORSDOF 17
ENDMDL
