MODEL 1
REMARK VINA RESULT:     -12.9      0.000      0.000
REMARK SMILES Cc1nc2scc(C)n2c1CNc1ccc(C(=O)NCCCNC(=O)c2ccc(-c3c4nc(c(-c5ccc(S(=O)(=O)[O-])cc5)c5ccc([nH]5)c(-c5ccc(S(=O)(=O)[O-])cc5)c5nc(c(-c6ccc(S(=O)(=O)[O-])cc6)c6ccc3[nH]6)C=C5)C=C4)cc2)cc1
REMARK SMILES IDX 21 1 20 2 19 3 17 4 18 5 16 7 13 8 14 9 87 10 15 11 86 12
REMARK SMILES IDX 12 13 11 15 10 16 1 17 2 18 3 19 4 20 9 21 5 22 7 23 6 24
REMARK SMILES IDX 8 25 22 26 23 27 24 28 25 30 26 31 27 32 85 33 28 34 84 35
REMARK SMILES IDX 29 36 30 37 31 38 78 39 32 40 83 41 77 42 79 43 33 44 82 45
REMARK SMILES IDX 76 46 75 47 34 49 64 50 45 51 63 52 46 53 49 54 62 55 80 56
REMARK SMILES IDX 47 57 48 58 61 60 81 61 50 62 35 63 36 64 44 65 37 66 43 67
REMARK SMILES IDX 38 68 39 69 40 70 41 71 42 72 65 73 66 74 74 75 67 76 73 77
REMARK SMILES IDX 68 78 69 79 70 80 71 81 72 82 51 83 52 84 60 85 53 86 59 87
REMARK SMILES IDX 54 88 55 89 56 90 57 91 58 92
REMARK H PARENT 19 6 12 14 23 29 79 48 49 59
REMARK Flexibility Score: inf
ROOT
ATOM      1  C   UNL A   1      36.791  21.847  24.804  1.00  0.00     0.042 C 
ENDROOT
BRANCH   1   2
ATOM      2  C   UNL A   1      35.689  21.455  25.799  1.00  0.00     0.118 C 
BRANCH   2   3
ATOM      3  N   UNL A   1      34.989  20.240  25.413  1.00  0.00    -0.352 N 
ATOM      4  C   UNL A   1      33.769  20.025  24.816  1.00  0.00     0.251 C 
ATOM      5  O   UNL A   1      33.497  18.874  24.472  1.00  0.00    -0.269 OA
ATOM      6  H   UNL A   1      35.483  19.414  25.618  1.00  0.00     0.163 HD
BRANCH   4   7
ATOM      7  C   UNL A   1      32.798  21.114  24.511  1.00  0.00     0.039 A 
ATOM      8  C   UNL A   1      31.169  23.322  23.817  1.00  0.00     0.034 A 
ATOM      9  C   UNL A   1      31.849  22.601  22.833  1.00  0.00     0.026 A 
ATOM     10  C   UNL A   1      31.225  22.856  25.128  1.00  0.00     0.026 A 
ATOM     11  C   UNL A   1      32.671  21.520  23.176  1.00  0.00     0.016 A 
ATOM     12  C   UNL A   1      32.004  21.748  25.463  1.00  0.00     0.016 A 
BRANCH   8  13
ATOM     13  N   UNL A   1      30.596  24.539  23.504  1.00  0.00    -0.379 N 
ATOM     14  H   UNL A   1      29.666  24.730  23.767  1.00  0.00     0.160 HD
BRANCH  13  15
ATOM     15  C   UNL A   1      31.368  25.534  22.788  1.00  0.00     0.169 C 
BRANCH  15  16
ATOM     16  C   UNL A   1      32.145  26.416  23.689  1.00  0.00     0.066 A 
ATOM     17  C   UNL A   1      34.258  25.009  24.205  1.00  0.00     0.069 C 
ATOM     18  C   UNL A   1      33.373  26.194  24.311  1.00  0.00     0.062 A 
ATOM     19  N   UNL A   1      33.737  27.262  25.104  1.00  0.00    -0.224 NA
ATOM     20  C   UNL A   1      32.751  28.100  24.951  1.00  0.00     0.194 A 
ATOM     21  N   UNL A   1      31.773  27.679  24.089  1.00  0.00    -0.290 N 
ATOM     22  S   UNL A   1      32.425  29.680  25.586  1.00  0.00    -0.105 S 
ATOM     23  C   UNL A   1      30.751  28.605  23.886  1.00  0.00     0.032 A 
ATOM     24  C   UNL A   1      30.956  29.723  24.615  1.00  0.00     0.090 A 
ATOM     25  C   UNL A   1      29.597  28.432  22.966  1.00  0.00     0.066 C 
ENDBRANCH  15  16
ENDBRANCH  13  15
ENDBRANCH   8  13
ENDBRANCH   4   7
ENDBRANCH   2   3
ENDBRANCH   1   2
BRANCH   1  26
ATOM     26  C   UNL A   1      37.917  22.649  25.430  1.00  0.00     0.118 C 
BRANCH  26  27
ATOM     27  N   UNL A   1      38.748  21.848  26.335  1.00  0.00    -0.352 N 
ATOM     28  C   UNL A   1      39.871  22.235  27.054  1.00  0.00     0.251 C 
ATOM     29  H   UNL A   1      38.473  20.910  26.447  1.00  0.00     0.163 HD
ATOM     30  O   UNL A   1      40.668  21.406  27.452  1.00  0.00    -0.269 OA
BRANCH  28  31
ATOM     31  C   UNL A   1      40.070  23.674  27.314  1.00  0.00     0.039 A 
ATOM     32  C   UNL A   1      39.058  24.619  27.120  1.00  0.00     0.014 A 
ATOM     33  C   UNL A   1      41.296  24.048  27.840  1.00  0.00     0.014 A 
ATOM     34  C   UNL A   1      39.271  25.927  27.562  1.00  0.00     0.010 A 
ATOM     35  C   UNL A   1      41.403  25.246  28.487  1.00  0.00     0.010 A 
ATOM     36  C   UNL A   1      40.443  26.225  28.272  1.00  0.00    -0.014 A 
BRANCH  36  37
ATOM     37  C   UNL A   1      40.690  27.528  28.878  1.00  0.00     0.031 A 
ATOM     38  C   UNL A   1      41.822  28.290  28.299  1.00  0.00     0.074 A 
ATOM     39  C   UNL A   1      39.812  28.115  29.722  1.00  0.00     0.049 A 
ATOM     40  N   UNL A   1      42.994  28.457  28.813  1.00  0.00    -0.248 NA
ATOM     41  C   UNL A   1      41.691  28.804  26.926  1.00  0.00     0.031 C 
ATOM     42  C   UNL A   1      38.495  27.615  30.156  1.00  0.00     0.029 A 
ATOM     43  N   UNL A   1      39.854  29.353  30.280  1.00  0.00    -0.354 N 
ATOM     44  C   UNL A   1      43.659  29.321  27.951  1.00  0.00     0.074 A 
ATOM     45  C   UNL A   1      42.911  29.307  26.719  1.00  0.00     0.031 C 
ATOM     46  C   UNL A   1      37.776  28.625  30.693  1.00  0.00     0.029 A 
ATOM     47  C   UNL A   1      38.651  29.769  30.839  1.00  0.00     0.049 A 
ATOM     48  H   UNL A   1      40.667  29.907  30.287  1.00  0.00     0.167 HD
ATOM     49  C   UNL A   1      44.585  30.208  28.417  1.00  0.00     0.031 A 
ATOM     50  C   UNL A   1      38.395  30.967  31.414  1.00  0.00     0.031 A 
ATOM     51  C   UNL A   1      44.906  29.953  29.801  1.00  0.00     0.049 A 
ATOM     52  C   UNL A   1      39.699  31.507  31.854  1.00  0.00     0.074 A 
ATOM     53  C   UNL A   1      45.479  28.919  30.511  1.00  0.00     0.029 A 
ATOM     54  N   UNL A   1      44.227  30.730  30.711  1.00  0.00    -0.354 N 
ATOM     55  N   UNL A   1      40.436  30.934  32.766  1.00  0.00    -0.248 NA
ATOM     56  C   UNL A   1      40.392  32.470  31.012  1.00  0.00     0.031 C 
ATOM     57  C   UNL A   1      44.805  28.906  31.770  1.00  0.00     0.029 A 
ATOM     58  C   UNL A   1      43.890  29.962  31.796  1.00  0.00     0.049 A 
ATOM     59  H   UNL A   1      44.016  31.685  30.601  1.00  0.00     0.167 HD
ATOM     60  C   UNL A   1      41.738  31.117  32.331  1.00  0.00     0.074 A 
ATOM     61  C   UNL A   1      41.656  32.195  31.351  1.00  0.00     0.031 C 
ATOM     62  C   UNL A   1      42.702  30.187  32.600  1.00  0.00     0.031 A 
BRANCH  49  63
ATOM     63  C   UNL A   1      44.842  31.568  27.805  1.00  0.00    -0.014 A 
ATOM     64  C   UNL A   1      46.175  31.942  27.531  1.00  0.00     0.010 A 
ATOM     65  C   UNL A   1      43.873  32.590  27.759  1.00  0.00     0.010 A 
ATOM     66  C   UNL A   1      46.525  33.279  27.301  1.00  0.00     0.020 A 
ATOM     67  C   UNL A   1      44.203  33.919  27.485  1.00  0.00     0.020 A 
ATOM     68  C   UNL A   1      45.535  34.261  27.296  1.00  0.00     0.054 A 
BRANCH  68  69
ATOM     69  S   UNL A   1      46.007  35.998  27.118  1.00  0.00     0.124 S 
ATOM     70  O   UNL A   1      46.679  35.994  25.823  1.00  0.00    -0.237 OA
ATOM     71  O   UNL A   1      44.713  36.676  27.161  1.00  0.00    -0.237 OA
ATOM     72  O   UNL A   1      46.869  36.239  28.273  1.00  0.00    -0.744 OA
ENDBRANCH  68  69
ENDBRANCH  49  63
BRANCH  50  73
ATOM     73  C   UNL A   1      37.148  31.764  31.396  1.00  0.00    -0.014 A 
ATOM     74  C   UNL A   1      36.249  31.718  32.476  1.00  0.00     0.010 A 
ATOM     75  C   UNL A   1      36.997  32.802  30.453  1.00  0.00     0.010 A 
ATOM     76  C   UNL A   1      35.286  32.724  32.655  1.00  0.00     0.020 A 
ATOM     77  C   UNL A   1      36.036  33.807  30.625  1.00  0.00     0.020 A 
ATOM     78  C   UNL A   1      35.204  33.778  31.742  1.00  0.00     0.054 A 
BRANCH  78  79
ATOM     79  S   UNL A   1      34.096  35.176  32.097  1.00  0.00     0.124 S 
ATOM     80  O   UNL A   1      33.778  35.668  30.760  1.00  0.00    -0.237 OA
ATOM     81  O   UNL A   1      32.995  34.534  32.811  1.00  0.00    -0.237 OA
ATOM     82  O   UNL A   1      34.919  36.071  32.910  1.00  0.00    -0.744 OA
ENDBRANCH  78  79
ENDBRANCH  50  73
BRANCH  62  83
ATOM     83  C   UNL A   1      42.421  29.179  33.692  1.00  0.00    -0.014 A 
ATOM     84  C   UNL A   1      41.802  27.931  33.474  1.00  0.00     0.010 A 
ATOM     85  C   UNL A   1      42.915  29.465  34.976  1.00  0.00     0.010 A 
ATOM     86  C   UNL A   1      41.663  27.006  34.521  1.00  0.00     0.020 A 
ATOM     87  C   UNL A   1      42.795  28.542  36.018  1.00  0.00     0.020 A 
ATOM     88  C   UNL A   1      42.164  27.319  35.789  1.00  0.00     0.054 A 
BRANCH  88  89
ATOM     89  S   UNL A   1      42.028  26.103  37.130  1.00  0.00     0.124 S 
ATOM     90  O   UNL A   1      40.634  26.239  37.544  1.00  0.00    -0.237 OA
ATOM     91  O   UNL A   1      42.366  24.846  36.465  1.00  0.00    -0.237 OA
ATOM     92  O   UNL A   1      43.011  26.556  38.112  1.00  0.00    -0.744 OA
ENDBRANCH  88  89
ENDBRANCH  62  83
ENDBRANCH  36  37
ENDBRANCH  28  31
ENDBRANCH  26  27
ENDBRANCH   1  26
TORSDOF 16
ENDMDL
MODEL 2
REMARK VINA RESULT:     -12.8      3.099      9.591
REMARK SMILES Cc1nc2scc(C)n2c1CNc1ccc(C(=O)NCCCNC(=O)c2ccc(-c3c4nc(c(-c5ccc(S(=O)(=O)[O-])cc5)c5ccc([nH]5)c(-c5ccc(S(=O)(=O)[O-])cc5)c5nc(c(-c6ccc(S(=O)(=O)[O-])cc6)c6ccc3[nH]6)C=C5)C=C4)cc2)cc1
REMARK SMILES IDX 21 1 20 2 19 3 17 4 18 5 16 7 13 8 14 9 87 10 15 11 86 12
REMARK SMILES IDX 12 13 11 15 10 16 1 17 2 18 3 19 4 20 9 21 5 22 7 23 6 24
REMARK SMILES IDX 8 25 22 26 23 27 24 28 25 30 26 31 27 32 85 33 28 34 84 35
REMARK SMILES IDX 29 36 30 37 31 38 78 39 32 40 83 41 77 42 79 43 33 44 82 45
REMARK SMILES IDX 76 46 75 47 34 49 64 50 45 51 63 52 46 53 49 54 62 55 80 56
REMARK SMILES IDX 47 57 48 58 61 60 81 61 50 62 35 63 36 64 44 65 37 66 43 67
REMARK SMILES IDX 38 68 39 69 40 70 41 71 42 72 65 73 66 74 74 75 67 76 73 77
REMARK SMILES IDX 68 78 69 79 70 80 71 81 72 82 51 83 52 84 60 85 53 86 59 87
REMARK SMILES IDX 54 88 55 89 56 90 57 91 58 92
REMARK H PARENT 19 6 12 14 23 29 79 48 49 59
REMARK Flexibility Score: inf
ROOT
ATOM      1  C   UNL A   1      32.183  29.783  26.833  1.00  0.00     0.042 C 
ENDROOT
BRANCH   1   2
ATOM      2  C   UNL A   1      32.429  29.736  25.318  1.00  0.00     0.118 C 
BRANCH   2   3
ATOM      3  N   UNL A   1      31.263  30.142  24.548  1.00  0.00    -0.352 N 
ATOM      4  C   UNL A   1      30.394  29.441  23.745  1.00  0.00     0.251 C 
ATOM      5  O   UNL A   1      29.397  30.033  23.330  1.00  0.00    -0.269 OA
ATOM      6  H   UNL A   1      31.058  31.103  24.613  1.00  0.00     0.163 HD
BRANCH   4   7
ATOM      7  C   UNL A   1      30.565  27.999  23.409  1.00  0.00     0.039 A 
ATOM      8  C   UNL A   1      30.921  25.215  23.047  1.00  0.00     0.034 A 
ATOM      9  C   UNL A   1      29.867  25.703  23.822  1.00  0.00     0.026 A 
ATOM     10  C   UNL A   1      31.718  26.134  22.369  1.00  0.00     0.026 A 
ATOM     11  C   UNL A   1      29.700  27.080  24.019  1.00  0.00     0.016 A 
ATOM     12  C   UNL A   1      31.521  27.506  22.524  1.00  0.00     0.016 A 
BRANCH   8  13
ATOM     13  N   UNL A   1      31.240  23.871  23.089  1.00  0.00    -0.379 N 
ATOM     14  H   UNL A   1      31.443  23.385  22.258  1.00  0.00     0.160 HD
BRANCH  13  15
ATOM     15  C   UNL A   1      31.275  23.181  24.363  1.00  0.00     0.169 C 
BRANCH  15  16
ATOM     16  C   UNL A   1      32.620  23.187  24.982  1.00  0.00     0.066 A 
ATOM     17  C   UNL A   1      32.771  25.551  26.029  1.00  0.00     0.069 C 
ATOM     18  C   UNL A   1      33.273  24.200  25.682  1.00  0.00     0.062 A 
ATOM     19  N   UNL A   1      34.539  23.811  26.068  1.00  0.00    -0.224 NA
ATOM     20  C   UNL A   1      34.632  22.595  25.612  1.00  0.00     0.194 A 
ATOM     21  N   UNL A   1      33.509  22.135  24.978  1.00  0.00    -0.290 N 
ATOM     22  S   UNL A   1      35.884  21.396  25.669  1.00  0.00    -0.105 S 
ATOM     23  C   UNL A   1      33.594  20.814  24.544  1.00  0.00     0.032 A 
ATOM     24  C   UNL A   1      34.800  20.283  24.840  1.00  0.00     0.090 A 
ATOM     25  C   UNL A   1      32.509  20.049  23.878  1.00  0.00     0.066 C 
ENDBRANCH  15  16
ENDBRANCH  13  15
ENDBRANCH   8  13
ENDBRANCH   4   7
ENDBRANCH   2   3
ENDBRANCH   1   2
BRANCH   1  26
ATOM     26  C   UNL A   1      33.417  30.150  27.636  1.00  0.00     0.118 C 
BRANCH  26  27
ATOM     27  N   UNL A   1      33.920  31.492  27.322  1.00  0.00    -0.352 N 
ATOM     28  C   UNL A   1      35.103  32.093  27.730  1.00  0.00     0.251 C 
ATOM     29  H   UNL A   1      33.341  32.039  26.745  1.00  0.00     0.163 HD
ATOM     30  O   UNL A   1      35.218  33.305  27.718  1.00  0.00    -0.269 OA
BRANCH  28  31
ATOM     31  C   UNL A   1      36.207  31.224  28.181  1.00  0.00     0.039 A 
ATOM     32  C   UNL A   1      36.421  29.947  27.653  1.00  0.00     0.014 A 
ATOM     33  C   UNL A   1      37.085  31.763  29.108  1.00  0.00     0.014 A 
ATOM     34  C   UNL A   1      37.590  29.268  28.002  1.00  0.00     0.010 A 
ATOM     35  C   UNL A   1      38.325  31.211  29.246  1.00  0.00     0.010 A 
ATOM     36  C   UNL A   1      38.554  29.922  28.782  1.00  0.00    -0.014 A 
BRANCH  36  37
ATOM     37  C   UNL A   1      39.854  29.338  29.088  1.00  0.00     0.031 A 
ATOM     38  C   UNL A   1      40.112  29.085  30.524  1.00  0.00     0.074 A 
ATOM     39  C   UNL A   1      40.663  28.827  28.132  1.00  0.00     0.049 A 
ATOM     40  N   UNL A   1      40.865  29.773  31.315  1.00  0.00    -0.248 NA
ATOM     41  C   UNL A   1      39.332  28.037  31.202  1.00  0.00     0.031 C 
ATOM     42  C   UNL A   1      40.410  28.728  26.684  1.00  0.00     0.029 A 
ATOM     43  N   UNL A   1      41.842  28.167  28.269  1.00  0.00    -0.354 N 
ATOM     44  C   UNL A   1      40.864  29.086  32.523  1.00  0.00     0.074 A 
ATOM     45  C   UNL A   1      39.742  28.183  32.466  1.00  0.00     0.031 C 
ATOM     46  C   UNL A   1      41.270  27.847  26.127  1.00  0.00     0.029 A 
ATOM     47  C   UNL A   1      42.259  27.496  27.125  1.00  0.00     0.049 A 
ATOM     48  H   UNL A   1      42.358  28.165  29.107  1.00  0.00     0.167 HD
ATOM     49  C   UNL A   1      41.957  29.092  33.339  1.00  0.00     0.031 A 
ATOM     50  C   UNL A   1      43.362  26.723  26.992  1.00  0.00     0.031 A 
ATOM     51  C   UNL A   1      42.941  30.047  32.892  1.00  0.00     0.049 A 
ATOM     52  C   UNL A   1      44.310  27.167  28.037  1.00  0.00     0.074 A 
ATOM     53  C   UNL A   1      42.997  31.416  32.740  1.00  0.00     0.029 A 
ATOM     54  N   UNL A   1      43.958  29.523  32.128  1.00  0.00    -0.354 N 
ATOM     55  N   UNL A   1      44.832  28.362  28.062  1.00  0.00    -0.248 NA
ATOM     56  C   UNL A   1      44.389  26.428  29.287  1.00  0.00     0.031 C 
ATOM     57  C   UNL A   1      43.811  31.636  31.588  1.00  0.00     0.029 A 
ATOM     58  C   UNL A   1      44.262  30.400  31.118  1.00  0.00     0.049 A 
ATOM     59  H   UNL A   1      44.398  28.656  32.281  1.00  0.00     0.167 HD
ATOM     60  C   UNL A   1      44.892  28.690  29.407  1.00  0.00     0.074 A 
ATOM     61  C   UNL A   1      44.763  27.417  30.107  1.00  0.00     0.031 C 
ATOM     62  C   UNL A   1      44.755  29.986  29.817  1.00  0.00     0.031 A 
BRANCH  49  63
ATOM     63  C   UNL A   1      42.355  27.939  34.236  1.00  0.00    -0.014 A 
ATOM     64  C   UNL A   1      42.551  28.190  35.610  1.00  0.00     0.010 A 
ATOM     65  C   UNL A   1      42.818  26.702  33.742  1.00  0.00     0.010 A 
ATOM     66  C   UNL A   1      43.244  27.285  36.426  1.00  0.00     0.020 A 
ATOM     67  C   UNL A   1      43.469  25.773  34.556  1.00  0.00     0.020 A 
ATOM     68  C   UNL A   1      43.712  26.088  35.886  1.00  0.00     0.054 A 
BRANCH  68  69
ATOM     69  S   UNL A   1      44.708  24.980  36.911  1.00  0.00     0.124 S 
ATOM     70  O   UNL A   1      44.466  23.688  36.277  1.00  0.00    -0.237 OA
ATOM     71  O   UNL A   1      46.052  25.528  36.745  1.00  0.00    -0.237 OA
ATOM     72  O   UNL A   1      44.135  25.142  38.246  1.00  0.00    -0.744 OA
ENDBRANCH  68  69
ENDBRANCH  49  63
BRANCH  50  73
ATOM     73  C   UNL A   1      43.551  25.494  26.190  1.00  0.00    -0.014 A 
ATOM     74  C   UNL A   1      44.746  25.272  25.485  1.00  0.00     0.010 A 
ATOM     75  C   UNL A   1      42.675  24.402  26.370  1.00  0.00     0.010 A 
ATOM     76  C   UNL A   1      45.096  23.984  25.048  1.00  0.00     0.020 A 
ATOM     77  C   UNL A   1      43.018  23.116  25.933  1.00  0.00     0.020 A 
ATOM     78  C   UNL A   1      44.242  22.908  25.300  1.00  0.00     0.054 A 
BRANCH  78  79
ATOM     79  S   UNL A   1      44.800  21.222  24.914  1.00  0.00     0.124 S 
ATOM     80  O   UNL A   1      43.854  20.401  25.663  1.00  0.00    -0.237 OA
ATOM     81  O   UNL A   1      44.667  21.169  23.460  1.00  0.00    -0.237 OA
ATOM     82  O   UNL A   1      46.176  21.192  25.408  1.00  0.00    -0.744 OA
ENDBRANCH  78  79
ENDBRANCH  50  73
BRANCH  62  83
ATOM     83  C   UNL A   1      44.933  31.074  28.781  1.00  0.00    -0.014 A 
ATOM     84  C   UNL A   1      46.185  31.534  28.327  1.00  0.00     0.010 A 
ATOM     85  C   UNL A   1      43.773  31.567  28.159  1.00  0.00     0.010 A 
ATOM     86  C   UNL A   1      46.270  32.478  27.291  1.00  0.00     0.020 A 
ATOM     87  C   UNL A   1      43.851  32.494  27.117  1.00  0.00     0.020 A 
ATOM     88  C   UNL A   1      45.098  32.952  26.692  1.00  0.00     0.054 A 
BRANCH  88  89
ATOM     89  S   UNL A   1      45.211  34.136  25.320  1.00  0.00     0.124 S 
ATOM     90  O   UNL A   1      44.635  33.390  24.205  1.00  0.00    -0.237 OA
ATOM     91  O   UNL A   1      44.414  35.265  25.798  1.00  0.00    -0.237 OA
ATOM     92  O   UNL A   1      46.644  34.406  25.209  1.00  0.00    -0.744 OA
ENDBRANCH  88  89
ENDBRANCH  62  83
ENDBRANCH  36  37
ENDBRANCH  28  31
ENDBRANCH  26  27
ENDBRANCH   1  26
TORSDOF 16
ENDMDL
MODEL 3
REMARK VINA RESULT:     -12.4      3.006      9.495
REMARK SMILES Cc1nc2scc(C)n2c1CNc1ccc(C(=O)NCCCNC(=O)c2ccc(-c3c4nc(c(-c5ccc(S(=O)(=O)[O-])cc5)c5ccc([nH]5)c(-c5ccc(S(=O)(=O)[O-])cc5)c5nc(c(-c6ccc(S(=O)(=O)[O-])cc6)c6ccc3[nH]6)C=C5)C=C4)cc2)cc1
REMARK SMILES IDX 21 1 20 2 19 3 17 4 18 5 16 7 13 8 14 9 87 10 15 11 86 12
REMARK SMILES IDX 12 13 11 15 10 16 1 17 2 18 3 19 4 20 9 21 5 22 7 23 6 24
REMARK SMILES IDX 8 25 22 26 23 27 24 28 25 30 26 31 27 32 85 33 28 34 84 35
REMARK SMILES IDX 29 36 30 37 31 38 78 39 32 40 83 41 77 42 79 43 33 44 82 45
REMARK SMILES IDX 76 46 75 47 34 49 64 50 45 51 63 52 46 53 49 54 62 55 80 56
REMARK SMILES IDX 47 57 48 58 61 60 81 61 50 62 35 63 36 64 44 65 37 66 43 67
REMARK SMILES IDX 38 68 39 69 40 70 41 71 42 72 65 73 66 74 74 75 67 76 73 77
REMARK SMILES IDX 68 78 69 79 70 80 71 81 72 82 51 83 52 84 60 85 53 86 59 87
REMARK SMILES IDX 54 88 55 89 56 90 57 91 58 92
REMARK H PARENT 19 6 12 14 23 29 79 48 49 59
REMARK Flexibility Score: inf
ROOT
ATOM      1  C   UNL A   1      32.534  30.585  26.707  1.00  0.00     0.042 C 
ENDROOT
BRANCH   1   2
ATOM      2  C   UNL A   1      32.554  29.729  25.432  1.00  0.00     0.118 C 
BRANCH   2   3
ATOM      3  N   UNL A   1      31.360  29.906  24.619  1.00  0.00    -0.352 N 
ATOM      4  C   UNL A   1      30.616  29.028  23.865  1.00  0.00     0.251 C 
ATOM      5  O   UNL A   1      29.555  29.440  23.394  1.00  0.00    -0.269 OA
ATOM      6  H   UNL A   1      31.021  30.829  24.605  1.00  0.00     0.163 HD
BRANCH   4   7
ATOM      7  C   UNL A   1      30.994  27.603  23.647  1.00  0.00     0.039 A 
ATOM      8  C   UNL A   1      31.626  24.930  22.969  1.00  0.00     0.034 A 
ATOM      9  C   UNL A   1      32.236  25.996  22.305  1.00  0.00     0.026 A 
ATOM     10  C   UNL A   1      30.790  25.218  24.044  1.00  0.00     0.026 A 
ATOM     11  C   UNL A   1      31.910  27.320  22.626  1.00  0.00     0.016 A 
ATOM     12  C   UNL A   1      30.504  26.537  24.397  1.00  0.00     0.016 A 
BRANCH   8  13
ATOM     13  N   UNL A   1      31.740  23.649  22.462  1.00  0.00    -0.379 N 
ATOM     14  H   UNL A   1      30.965  23.215  22.038  1.00  0.00     0.160 HD
BRANCH  13  15
ATOM     15  C   UNL A   1      33.005  22.949  22.558  1.00  0.00     0.169 C 
BRANCH  15  16
ATOM     16  C   UNL A   1      33.085  22.069  23.746  1.00  0.00     0.066 A 
ATOM     17  C   UNL A   1      32.154  19.816  22.870  1.00  0.00     0.069 C 
ATOM     18  C   UNL A   1      32.710  20.734  23.892  1.00  0.00     0.062 A 
ATOM     19  N   UNL A   1      32.919  20.290  25.182  1.00  0.00    -0.224 NA
ATOM     20  C   UNL A   1      33.412  21.335  25.783  1.00  0.00     0.194 A 
ATOM     21  N   UNL A   1      33.575  22.432  24.980  1.00  0.00    -0.290 N 
ATOM     22  S   UNL A   1      33.952  21.628  27.405  1.00  0.00    -0.105 S 
ATOM     23  C   UNL A   1      34.156  23.527  25.616  1.00  0.00     0.032 A 
ATOM     24  C   UNL A   1      34.416  23.254  26.913  1.00  0.00     0.090 A 
ATOM     25  C   UNL A   1      34.496  24.823  24.973  1.00  0.00     0.066 C 
ENDBRANCH  15  16
ENDBRANCH  13  15
ENDBRANCH   8  13
ENDBRANCH   4   7
ENDBRANCH   2   3
ENDBRANCH   1   2
BRANCH   1  26
ATOM     26  C   UNL A   1      33.916  30.886  27.256  1.00  0.00     0.118 C 
BRANCH  26  27
ATOM     27  N   UNL A   1      33.885  31.807  28.396  1.00  0.00    -0.352 N 
ATOM     28  C   UNL A   1      34.767  31.896  29.465  1.00  0.00     0.251 C 
ATOM     29  H   UNL A   1      33.139  32.448  28.405  1.00  0.00     0.163 HD
ATOM     30  O   UNL A   1      34.428  32.426  30.507  1.00  0.00    -0.269 OA
BRANCH  28  31
ATOM     31  C   UNL A   1      36.119  31.326  29.302  1.00  0.00     0.039 A 
ATOM     32  C   UNL A   1      37.239  32.117  29.031  1.00  0.00     0.014 A 
ATOM     33  C   UNL A   1      36.249  29.962  29.509  1.00  0.00     0.014 A 
ATOM     34  C   UNL A   1      38.503  31.523  29.073  1.00  0.00     0.010 A 
ATOM     35  C   UNL A   1      37.482  29.448  29.792  1.00  0.00     0.010 A 
ATOM     36  C   UNL A   1      38.616  30.186  29.483  1.00  0.00    -0.014 A 
BRANCH  36  37
ATOM     37  C   UNL A   1      39.901  29.525  29.677  1.00  0.00     0.031 A 
ATOM     38  C   UNL A   1      40.293  29.307  31.089  1.00  0.00     0.074 A 
ATOM     39  C   UNL A   1      40.568  28.926  28.666  1.00  0.00     0.049 A 
ATOM     40  N   UNL A   1      41.169  29.969  31.768  1.00  0.00    -0.248 NA
ATOM     41  C   UNL A   1      39.523  28.340  31.889  1.00  0.00     0.031 C 
ATOM     42  C   UNL A   1      40.157  28.792  27.257  1.00  0.00     0.029 A 
ATOM     43  N   UNL A   1      41.711  28.192  28.708  1.00  0.00    -0.354 N 
ATOM     44  C   UNL A   1      41.251  29.328  32.997  1.00  0.00     0.074 A 
ATOM     45  C   UNL A   1      40.073  28.503  33.095  1.00  0.00     0.031 C 
ATOM     46  C   UNL A   1      40.894  27.835  26.653  1.00  0.00     0.029 A 
ATOM     47  C   UNL A   1      41.959  27.453  27.557  1.00  0.00     0.049 A 
ATOM     48  H   UNL A   1      42.311  28.184  29.488  1.00  0.00     0.167 HD
ATOM     49  C   UNL A   1      42.422  29.288  33.695  1.00  0.00     0.031 A 
ATOM     50  C   UNL A   1      42.990  26.602  27.344  1.00  0.00     0.031 A 
ATOM     51  C   UNL A   1      43.413  30.157  33.107  1.00  0.00     0.049 A 
ATOM     52  C   UNL A   1      44.070  27.017  28.265  1.00  0.00     0.074 A 
ATOM     53  C   UNL A   1      43.541  31.513  32.892  1.00  0.00     0.029 A 
ATOM     54  N   UNL A   1      44.307  29.537  32.265  1.00  0.00    -0.354 N 
ATOM     55  N   UNL A   1      44.668  28.174  28.184  1.00  0.00    -0.248 NA
ATOM     56  C   UNL A   1      44.234  26.320  29.531  1.00  0.00     0.031 C 
ATOM     57  C   UNL A   1      44.241  31.635  31.653  1.00  0.00     0.029 A 
ATOM     58  C   UNL A   1      44.558  30.354  31.193  1.00  0.00     0.049 A 
ATOM     59  H   UNL A   1      44.705  28.648  32.409  1.00  0.00     0.167 HD
ATOM     60  C   UNL A   1      44.892  28.545  29.500  1.00  0.00     0.074 A 
ATOM     61  C   UNL A   1      44.756  27.309  30.264  1.00  0.00     0.031 C 
ATOM     62  C   UNL A   1      44.883  29.861  29.867  1.00  0.00     0.031 A 
BRANCH  49  63
ATOM     63  C   UNL A   1      42.838  28.143  34.594  1.00  0.00    -0.014 A 
ATOM     64  C   UNL A   1      43.283  28.439  35.899  1.00  0.00     0.010 A 
ATOM     65  C   UNL A   1      43.081  26.838  34.119  1.00  0.00     0.010 A 
ATOM     66  C   UNL A   1      44.001  27.503  36.656  1.00  0.00     0.020 A 
ATOM     67  C   UNL A   1      43.755  25.882  34.882  1.00  0.00     0.020 A 
ATOM     68  C   UNL A   1      44.245  26.234  36.132  1.00  0.00     0.054 A 
BRANCH  68  69
ATOM     69  S   UNL A   1      45.273  25.071  37.061  1.00  0.00     0.124 S 
ATOM     70  O   UNL A   1      44.758  23.785  36.603  1.00  0.00    -0.237 OA
ATOM     71  O   UNL A   1      46.618  25.415  36.606  1.00  0.00    -0.237 OA
ATOM     72  O   UNL A   1      44.989  25.402  38.455  1.00  0.00    -0.744 OA
ENDBRANCH  68  69
ENDBRANCH  49  63
BRANCH  50  73
ATOM     73  C   UNL A   1      43.013  25.335  26.580  1.00  0.00    -0.014 A 
ATOM     74  C   UNL A   1      43.620  25.269  25.314  1.00  0.00     0.010 A 
ATOM     75  C   UNL A   1      42.708  24.122  27.232  1.00  0.00     0.010 A 
ATOM     76  C   UNL A   1      43.989  24.035  24.756  1.00  0.00     0.020 A 
ATOM     77  C   UNL A   1      43.071  22.887  26.678  1.00  0.00     0.020 A 
ATOM     78  C   UNL A   1      43.737  22.852  25.455  1.00  0.00     0.054 A 
BRANCH  78  79
ATOM     79  S   UNL A   1      44.402  21.285  24.817  1.00  0.00     0.124 S 
ATOM     80  O   UNL A   1      44.522  21.556  23.387  1.00  0.00    -0.237 OA
ATOM     81  O   UNL A   1      45.664  21.158  25.542  1.00  0.00    -0.237 OA
ATOM     82  O   UNL A   1      43.382  20.303  25.181  1.00  0.00    -0.744 OA
ENDBRANCH  78  79
ENDBRANCH  50  73
BRANCH  62  83
ATOM     83  C   UNL A   1      45.019  30.896  28.772  1.00  0.00    -0.014 A 
ATOM     84  C   UNL A   1      43.930  31.445  28.065  1.00  0.00     0.010 A 
ATOM     85  C   UNL A   1      46.302  31.419  28.536  1.00  0.00     0.010 A 
ATOM     86  C   UNL A   1      44.126  32.474  27.131  1.00  0.00     0.020 A 
ATOM     87  C   UNL A   1      46.502  32.455  27.619  1.00  0.00     0.020 A 
ATOM     88  C   UNL A   1      45.415  32.973  26.915  1.00  0.00     0.054 A 
BRANCH  88  89
ATOM     89  S   UNL A   1      45.662  34.337  25.742  1.00  0.00     0.124 S 
ATOM     90  O   UNL A   1      47.097  34.281  25.484  1.00  0.00    -0.237 OA
ATOM     91  O   UNL A   1      44.806  33.959  24.618  1.00  0.00    -0.237 OA
ATOM     92  O   UNL A   1      45.212  35.516  26.480  1.00  0.00    -0.744 OA
ENDBRANCH  88  89
ENDBRANCH  62  83
ENDBRANCH  36  37
ENDBRANCH  28  31
ENDBRANCH  26  27
ENDBRANCH   1  26
TORSDOF 16
ENDMDL
