MODEL 1
REMARK VINA RESULT:     -13.9      0.000      0.000
REMARK SMILES O=C(NCCCNC(=O)c1nnn(-c2cccc(Br)c2)c1[C@@H]1COc2ccccc2O1)c1ccc(-c2c3nc(c(-c4ccc(S(=O)(=O)[O-])cc4)c4ccc([nH]4)c(-c4ccc(S(=O)(=O)[O-])cc4)c4nc(c(-c5ccc(S(=O)(=O)[O-])cc5)c5ccc2[nH]5)C=C4)C=C3)cc1
REMARK SMILES IDX 4 1 3 2 1 3 2 4 32 6 33 7 91 8 34 9 90 10 35 11 36 12 37 13
REMARK SMILES IDX 84 14 38 15 89 16 83 17 85 18 39 19 88 20 82 21 81 22 40 24
REMARK SMILES IDX 70 25 51 26 69 27 52 28 55 29 68 30 86 31 53 32 54 33 67 35
REMARK SMILES IDX 87 36 56 37 41 38 42 39 50 40 43 41 49 42 44 43 45 44 46 45
REMARK SMILES IDX 47 46 48 47 71 48 72 49 80 50 73 51 79 52 74 53 75 54 76 55
REMARK SMILES IDX 77 56 78 57 57 58 58 59 66 60 59 61 65 62 60 63 61 64 62 65
REMARK SMILES IDX 63 66 64 67 5 68 6 69 7 70 8 71 9 73 10 74 11 75 21 76 12 77
REMARK SMILES IDX 13 78 22 79 23 80 31 81 24 82 30 83 25 84 29 85 26 86 28 87
REMARK SMILES IDX 27 88 14 89 15 90 20 91 16 92 18 93 17 94 19 95
REMARK H PARENT 3 5 85 23 55 34 7 72
REMARK Flexibility Score: inf
ROOT
ATOM      1  C   UNL A   1      33.370  29.604  27.058  1.00  0.00     0.118 C 
ENDROOT
BRANCH   1   2
ATOM      2  N   UNL A   1      33.645  30.819  27.816  1.00  0.00    -0.352 N 
ATOM      3  O   UNL A   1      34.531  32.833  28.168  1.00  0.00    -0.269 OA
ATOM      4  C   UNL A   1      34.720  31.620  28.078  1.00  0.00     0.251 C 
ATOM      5  H   UNL A   1      32.833  31.154  28.260  1.00  0.00     0.163 HD
BRANCH   4   6
ATOM      6  C   UNL A   1      35.999  31.059  28.494  1.00  0.00     0.039 A 
ATOM      7  C   UNL A   1      37.010  31.874  28.968  1.00  0.00     0.014 A 
ATOM      8  C   UNL A   1      36.217  29.695  28.219  1.00  0.00     0.014 A 
ATOM      9  C   UNL A   1      38.293  31.396  28.951  1.00  0.00     0.010 A 
ATOM     10  C   UNL A   1      37.498  29.185  28.291  1.00  0.00     0.010 A 
ATOM     11  C   UNL A   1      38.533  30.063  28.593  1.00  0.00    -0.014 A 
BRANCH  11  12
ATOM     12  C   UNL A   1      39.888  29.602  28.821  1.00  0.00     0.031 A 
ATOM     13  C   UNL A   1      40.221  29.593  30.277  1.00  0.00     0.074 A 
ATOM     14  C   UNL A   1      40.696  29.164  27.842  1.00  0.00     0.049 A 
ATOM     15  N   UNL A   1      41.103  30.306  30.899  1.00  0.00    -0.248 NA
ATOM     16  C   UNL A   1      39.273  28.897  31.174  1.00  0.00     0.031 C 
ATOM     17  C   UNL A   1      40.369  28.883  26.443  1.00  0.00     0.029 A 
ATOM     18  N   UNL A   1      41.979  28.738  27.945  1.00  0.00    -0.354 N 
ATOM     19  C   UNL A   1      40.957  29.987  32.246  1.00  0.00     0.074 A 
ATOM     20  C   UNL A   1      39.704  29.292  32.370  1.00  0.00     0.031 C 
ATOM     21  C   UNL A   1      41.320  28.071  25.928  1.00  0.00     0.029 A 
ATOM     22  C   UNL A   1      42.375  27.899  26.914  1.00  0.00     0.049 A 
ATOM     23  H   UNL A   1      42.575  29.000  28.684  1.00  0.00     0.167 HD
ATOM     24  C   UNL A   1      41.997  30.072  33.118  1.00  0.00     0.031 A 
ATOM     25  C   UNL A   1      43.428  27.042  26.946  1.00  0.00     0.031 A 
ATOM     26  C   UNL A   1      43.034  30.937  32.622  1.00  0.00     0.049 A 
ATOM     27  C   UNL A   1      44.316  27.483  28.056  1.00  0.00     0.074 A 
ATOM     28  C   UNL A   1      43.103  32.278  32.302  1.00  0.00     0.029 A 
ATOM     29  N   UNL A   1      44.106  30.339  32.000  1.00  0.00    -0.354 N 
ATOM     30  N   UNL A   1      44.948  28.625  28.054  1.00  0.00    -0.248 NA
ATOM     31  C   UNL A   1      44.112  26.891  29.371  1.00  0.00     0.031 C 
ATOM     32  C   UNL A   1      43.914  32.332  31.132  1.00  0.00     0.029 A 
ATOM     33  C   UNL A   1      44.353  31.037  30.846  1.00  0.00     0.049 A 
ATOM     34  H   UNL A   1      44.603  29.554  32.324  1.00  0.00     0.167 HD
ATOM     35  C   UNL A   1      44.845  29.097  29.356  1.00  0.00     0.074 A 
ATOM     36  C   UNL A   1      44.391  27.948  30.140  1.00  0.00     0.031 C 
ATOM     37  C   UNL A   1      44.862  30.436  29.631  1.00  0.00     0.031 A 
BRANCH  24  38
ATOM     38  C   UNL A   1      42.255  29.004  34.156  1.00  0.00    -0.014 A 
ATOM     39  C   UNL A   1      42.519  27.691  33.721  1.00  0.00     0.010 A 
ATOM     40  C   UNL A   1      41.944  29.174  35.523  1.00  0.00     0.010 A 
ATOM     41  C   UNL A   1      42.362  26.599  34.586  1.00  0.00     0.020 A 
ATOM     42  C   UNL A   1      41.825  28.099  36.401  1.00  0.00     0.020 A 
ATOM     43  C   UNL A   1      41.990  26.813  35.914  1.00  0.00     0.054 A 
BRANCH  43  44
ATOM     44  S   UNL A   1      41.640  25.397  36.980  1.00  0.00     0.124 S 
ATOM     45  O   UNL A   1      41.471  24.325  36.004  1.00  0.00    -0.237 OA
ATOM     46  O   UNL A   1      42.846  25.325  37.801  1.00  0.00    -0.237 OA
ATOM     47  O   UNL A   1      40.428  25.796  37.692  1.00  0.00    -0.744 OA
ENDBRANCH  43  44
ENDBRANCH  24  38
BRANCH  25  48
ATOM     48  C   UNL A   1      43.467  25.669  26.373  1.00  0.00    -0.014 A 
ATOM     49  C   UNL A   1      44.136  25.397  25.166  1.00  0.00     0.010 A 
ATOM     50  C   UNL A   1      43.064  24.567  27.157  1.00  0.00     0.010 A 
ATOM     51  C   UNL A   1      44.428  24.074  24.783  1.00  0.00     0.020 A 
ATOM     52  C   UNL A   1      43.345  23.250  26.780  1.00  0.00     0.020 A 
ATOM     53  C   UNL A   1      44.044  23.009  25.603  1.00  0.00     0.054 A 
BRANCH  53  54
ATOM     54  S   UNL A   1      44.562  21.317  25.183  1.00  0.00     0.124 S 
ATOM     55  O   UNL A   1      45.906  21.252  25.750  1.00  0.00    -0.237 OA
ATOM     56  O   UNL A   1      43.554  20.500  25.851  1.00  0.00    -0.237 OA
ATOM     57  O   UNL A   1      44.506  21.292  23.722  1.00  0.00    -0.744 OA
ENDBRANCH  53  54
ENDBRANCH  25  48
BRANCH  37  58
ATOM     58  C   UNL A   1      45.228  31.396  28.521  1.00  0.00    -0.014 A 
ATOM     59  C   UNL A   1      44.324  31.831  27.531  1.00  0.00     0.010 A 
ATOM     60  C   UNL A   1      46.490  32.009  28.592  1.00  0.00     0.010 A 
ATOM     61  C   UNL A   1      44.687  32.838  26.622  1.00  0.00     0.020 A 
ATOM     62  C   UNL A   1      46.850  33.024  27.703  1.00  0.00     0.020 A 
ATOM     63  C   UNL A   1      45.951  33.429  26.716  1.00  0.00     0.054 A 
BRANCH  63  64
ATOM     64  S   UNL A   1      46.404  34.765  25.574  1.00  0.00     0.124 S 
ATOM     65  O   UNL A   1      46.111  35.963  26.356  1.00  0.00    -0.237 OA
ATOM     66  O   UNL A   1      47.821  34.508  25.321  1.00  0.00    -0.237 OA
ATOM     67  O   UNL A   1      45.529  34.550  24.422  1.00  0.00    -0.744 OA
ENDBRANCH  63  64
ENDBRANCH  37  58
ENDBRANCH  11  12
ENDBRANCH   4   6
ENDBRANCH   1   2
BRANCH   1  68
ATOM     68  C   UNL A   1      32.002  28.901  27.158  1.00  0.00     0.042 C 
BRANCH  68  69
ATOM     69  C   UNL A   1      31.791  27.392  26.885  1.00  0.00     0.118 C 
BRANCH  69  70
ATOM     70  N   UNL A   1      30.643  26.992  26.091  1.00  0.00    -0.351 N 
ATOM     71  C   UNL A   1      30.291  25.701  25.701  1.00  0.00     0.273 C 
ATOM     72  H   UNL A   1      30.045  27.715  25.795  1.00  0.00     0.163 HD
ATOM     73  O   UNL A   1      29.266  25.535  25.058  1.00  0.00    -0.267 OA
BRANCH  71  74
ATOM     74  C   UNL A   1      31.219  24.599  25.973  1.00  0.00     0.178 A 
ATOM     75  N   UNL A   1      31.221  24.059  27.233  1.00  0.00    -0.124 NA
ATOM     76  C   UNL A   1      32.174  23.946  25.184  1.00  0.00     0.122 A 
ATOM     77  N   UNL A   1      32.036  23.024  27.242  1.00  0.00    -0.061 NA
ATOM     78  N   UNL A   1      32.603  22.911  26.021  1.00  0.00    -0.213 N 
BRANCH  76  79
ATOM     79  C   UNL A   1      32.604  24.054  23.743  1.00  0.00     0.262 C 
ATOM     80  C   UNL A   1      34.081  24.370  23.479  1.00  0.00     0.281 C 
ATOM     81  O   UNL A   1      31.757  24.964  23.046  1.00  0.00    -0.477 OA
ATOM     82  O   UNL A   1      34.459  25.698  23.848  1.00  0.00    -0.485 OA
ATOM     83  C   UNL A   1      32.240  26.241  23.056  1.00  0.00     0.162 A 
ATOM     84  C   UNL A   1      33.505  26.609  23.493  1.00  0.00     0.161 A 
ATOM     85  C   UNL A   1      31.308  27.209  22.736  1.00  0.00     0.050 A 
ATOM     86  C   UNL A   1      33.805  27.956  23.684  1.00  0.00     0.050 A 
ATOM     87  C   UNL A   1      31.583  28.552  22.997  1.00  0.00     0.004 A 
ATOM     88  C   UNL A   1      32.828  28.925  23.475  1.00  0.00     0.004 A 
ENDBRANCH  76  79
BRANCH  78  89
ATOM     89  C   UNL A   1      33.342  21.741  25.711  1.00  0.00     0.068 A 
ATOM     90  C   UNL A   1      34.733  21.680  25.848  1.00  0.00     0.028 A 
ATOM     91  C   UNL A   1      32.645  20.655  25.160  1.00  0.00     0.044 A 
ATOM     92  C   UNL A   1      35.434  20.583  25.341  1.00  0.00     0.003 A 
ATOM     93  C   UNL A   1      33.356  19.574  24.645  1.00  0.00     0.020 A 
ATOM     94  C   UNL A   1      34.748  19.543  24.716  1.00  0.00     0.016 A 
ATOM     95  Br  UNL A   1      32.431  18.162  23.798  1.00  0.00    -0.051 Br
ENDBRANCH  78  89
ENDBRANCH  71  74
ENDBRANCH  69  70
ENDBRANCH  68  69
ENDBRANCH   1  68
TORSDOF 15
ENDMDL
MODEL 2
REMARK VINA RESULT:     -13.7      3.042      9.365
REMARK SMILES O=C(NCCCNC(=O)c1nnn(-c2cccc(Br)c2)c1[C@@H]1COc2ccccc2O1)c1ccc(-c2c3nc(c(-c4ccc(S(=O)(=O)[O-])cc4)c4ccc([nH]4)c(-c4ccc(S(=O)(=O)[O-])cc4)c4nc(c(-c5ccc(S(=O)(=O)[O-])cc5)c5ccc2[nH]5)C=C4)C=C3)cc1
REMARK SMILES IDX 4 1 3 2 1 3 2 4 32 6 33 7 91 8 34 9 90 10 35 11 36 12 37 13
REMARK SMILES IDX 84 14 38 15 89 16 83 17 85 18 39 19 88 20 82 21 81 22 40 24
REMARK SMILES IDX 70 25 51 26 69 27 52 28 55 29 68 30 86 31 53 32 54 33 67 35
REMARK SMILES IDX 87 36 56 37 41 38 42 39 50 40 43 41 49 42 44 43 45 44 46 45
REMARK SMILES IDX 47 46 48 47 71 48 72 49 80 50 73 51 79 52 74 53 75 54 76 55
REMARK SMILES IDX 77 56 78 57 57 58 58 59 66 60 59 61 65 62 60 63 61 64 62 65
REMARK SMILES IDX 63 66 64 67 5 68 6 69 7 70 8 71 9 73 10 74 11 75 21 76 12 77
REMARK SMILES IDX 13 78 22 79 23 80 31 81 24 82 30 83 25 84 29 85 26 86 28 87
REMARK SMILES IDX 27 88 14 89 15 90 20 91 16 92 18 93 17 94 19 95
REMARK H PARENT 3 5 85 23 55 34 7 72
REMARK Flexibility Score: inf
ROOT
ATOM      1  C   UNL A   1      37.312  22.327  25.323  1.00  0.00     0.118 C 
ENDROOT
BRANCH   1   2
ATOM      2  N   UNL A   1      38.681  21.841  25.439  1.00  0.00    -0.352 N 
ATOM      3  O   UNL A   1      40.453  21.003  26.499  1.00  0.00    -0.269 OA
ATOM      4  C   UNL A   1      39.728  21.979  26.306  1.00  0.00     0.251 C 
ATOM      5  H   UNL A   1      38.916  21.252  24.686  1.00  0.00     0.163 HD
BRANCH   4   6
ATOM      6  C   UNL A   1      40.140  23.289  26.794  1.00  0.00     0.039 A 
ATOM      7  C   UNL A   1      41.227  23.422  27.637  1.00  0.00     0.014 A 
ATOM      8  C   UNL A   1      39.281  24.370  26.521  1.00  0.00     0.014 A 
ATOM      9  C   UNL A   1      41.332  24.560  28.389  1.00  0.00     0.010 A 
ATOM     10  C   UNL A   1      39.441  25.555  27.211  1.00  0.00     0.010 A 
ATOM     11  C   UNL A   1      40.428  25.611  28.190  1.00  0.00    -0.014 A 
BRANCH  11  12
ATOM     12  C   UNL A   1      40.760  26.845  28.874  1.00  0.00     0.031 A 
ATOM     13  C   UNL A   1      41.953  27.502  28.261  1.00  0.00     0.074 A 
ATOM     14  C   UNL A   1      40.027  27.356  29.876  1.00  0.00     0.049 A 
ATOM     15  N   UNL A   1      43.112  27.710  28.795  1.00  0.00    -0.248 NA
ATOM     16  C   UNL A   1      41.922  27.708  26.797  1.00  0.00     0.031 C 
ATOM     17  C   UNL A   1      38.711  26.932  30.355  1.00  0.00     0.029 A 
ATOM     18  N   UNL A   1      40.263  28.482  30.594  1.00  0.00    -0.354 N 
ATOM     19  C   UNL A   1      43.892  28.269  27.786  1.00  0.00     0.074 A 
ATOM     20  C   UNL A   1      43.185  28.049  26.552  1.00  0.00     0.031 C 
ATOM     21  C   UNL A   1      38.154  27.946  31.055  1.00  0.00     0.029 A 
ATOM     22  C   UNL A   1      39.128  29.019  31.183  1.00  0.00     0.049 A 
ATOM     23  H   UNL A   1      41.158  28.881  30.689  1.00  0.00     0.167 HD
ATOM     24  C   UNL A   1      44.925  29.109  28.062  1.00  0.00     0.031 A 
ATOM     25  C   UNL A   1      38.988  30.297  31.620  1.00  0.00     0.031 A 
ATOM     26  C   UNL A   1      45.383  28.957  29.417  1.00  0.00     0.049 A 
ATOM     27  C   UNL A   1      40.358  30.858  31.775  1.00  0.00     0.074 A 
ATOM     28  C   UNL A   1      45.943  27.922  30.138  1.00  0.00     0.029 A 
ATOM     29  N   UNL A   1      44.908  29.856  30.344  1.00  0.00    -0.354 N 
ATOM     30  N   UNL A   1      41.219  30.409  32.647  1.00  0.00    -0.248 NA
ATOM     31  C   UNL A   1      40.937  31.571  30.644  1.00  0.00     0.031 C 
ATOM     32  C   UNL A   1      45.352  28.017  31.431  1.00  0.00     0.029 A 
ATOM     33  C   UNL A   1      44.525  29.143  31.450  1.00  0.00     0.049 A 
ATOM     34  H   UNL A   1      44.853  30.832  30.232  1.00  0.00     0.167 HD
ATOM     35  C   UNL A   1      42.438  30.401  31.980  1.00  0.00     0.074 A 
ATOM     36  C   UNL A   1      42.216  31.205  30.778  1.00  0.00     0.031 C 
ATOM     37  C   UNL A   1      43.426  29.519  32.315  1.00  0.00     0.031 A 
BRANCH  24  38
ATOM     38  C   UNL A   1      45.167  30.365  27.257  1.00  0.00    -0.014 A 
ATOM     39  C   UNL A   1      46.493  30.714  26.935  1.00  0.00     0.010 A 
ATOM     40  C   UNL A   1      44.182  31.361  27.077  1.00  0.00     0.010 A 
ATOM     41  C   UNL A   1      46.825  32.025  26.567  1.00  0.00     0.020 A 
ATOM     42  C   UNL A   1      44.496  32.656  26.673  1.00  0.00     0.020 A 
ATOM     43  C   UNL A   1      45.824  32.992  26.465  1.00  0.00     0.054 A 
BRANCH  43  44
ATOM     44  S   UNL A   1      46.276  34.711  26.142  1.00  0.00     0.124 S 
ATOM     45  O   UNL A   1      44.985  35.299  25.795  1.00  0.00    -0.237 OA
ATOM     46  O   UNL A   1      46.840  35.126  27.424  1.00  0.00    -0.237 OA
ATOM     47  O   UNL A   1      47.236  34.612  25.045  1.00  0.00    -0.744 OA
ENDBRANCH  43  44
ENDBRANCH  24  38
BRANCH  25  48
ATOM     48  C   UNL A   1      37.774  31.147  31.488  1.00  0.00    -0.014 A 
ATOM     49  C   UNL A   1      36.561  30.797  32.110  1.00  0.00     0.010 A 
ATOM     50  C   UNL A   1      37.882  32.453  30.962  1.00  0.00     0.010 A 
ATOM     51  C   UNL A   1      35.516  31.731  32.237  1.00  0.00     0.020 A 
ATOM     52  C   UNL A   1      36.845  33.384  31.078  1.00  0.00     0.020 A 
ATOM     53  C   UNL A   1      35.672  33.026  31.734  1.00  0.00     0.054 A 
BRANCH  53  54
ATOM     54  S   UNL A   1      34.385  34.273  32.040  1.00  0.00     0.124 S 
ATOM     55  O   UNL A   1      33.505  33.588  32.983  1.00  0.00    -0.237 OA
ATOM     56  O   UNL A   1      35.148  35.392  32.585  1.00  0.00    -0.237 OA
ATOM     57  O   UNL A   1      33.810  34.507  30.716  1.00  0.00    -0.744 OA
ENDBRANCH  53  54
ENDBRANCH  25  48
BRANCH  37  58
ATOM     58  C   UNL A   1      43.265  28.699  33.576  1.00  0.00    -0.014 A 
ATOM     59  C   UNL A   1      43.547  29.186  34.868  1.00  0.00     0.010 A 
ATOM     60  C   UNL A   1      42.641  27.448  33.452  1.00  0.00     0.010 A 
ATOM     61  C   UNL A   1      43.230  28.423  36.005  1.00  0.00     0.020 A 
ATOM     62  C   UNL A   1      42.306  26.693  34.579  1.00  0.00     0.020 A 
ATOM     63  C   UNL A   1      42.610  27.180  35.850  1.00  0.00     0.054 A 
BRANCH  63  64
ATOM     64  S   UNL A   1      42.156  26.215  37.319  1.00  0.00     0.124 S 
ATOM     65  O   UNL A   1      43.162  26.629  38.293  1.00  0.00    -0.237 OA
ATOM     66  O   UNL A   1      40.792  26.664  37.592  1.00  0.00    -0.237 OA
ATOM     67  O   UNL A   1      42.264  24.827  36.871  1.00  0.00    -0.744 OA
ENDBRANCH  63  64
ENDBRANCH  37  58
ENDBRANCH  11  12
ENDBRANCH   4   6
ENDBRANCH   1   2
BRANCH   1  68
ATOM     68  C   UNL A   1      36.671  22.565  23.941  1.00  0.00     0.042 C 
BRANCH  68  69
ATOM     69  C   UNL A   1      35.303  23.261  23.739  1.00  0.00     0.118 C 
BRANCH  69  70
ATOM     70  N   UNL A   1      34.336  22.631  22.857  1.00  0.00    -0.351 N 
ATOM     71  C   UNL A   1      33.275  23.241  22.189  1.00  0.00     0.273 C 
ATOM     72  H   UNL A   1      34.443  21.663  22.714  1.00  0.00     0.163 HD
ATOM     73  O   UNL A   1      32.573  22.566  21.452  1.00  0.00    -0.267 OA
BRANCH  71  74
ATOM     74  C   UNL A   1      32.966  24.643  22.479  1.00  0.00     0.178 A 
ATOM     75  N   UNL A   1      33.672  25.608  21.808  1.00  0.00    -0.124 NA
ATOM     76  C   UNL A   1      32.062  25.254  23.357  1.00  0.00     0.122 A 
ATOM     77  N   UNL A   1      33.175  26.786  22.126  1.00  0.00    -0.061 NA
ATOM     78  N   UNL A   1      32.189  26.608  23.032  1.00  0.00    -0.213 N 
BRANCH  76  79
ATOM     79  C   UNL A   1      31.010  24.744  24.311  1.00  0.00     0.262 C 
ATOM     80  C   UNL A   1      31.038  25.298  25.740  1.00  0.00     0.281 C 
ATOM     81  O   UNL A   1      31.005  23.319  24.318  1.00  0.00    -0.477 OA
ATOM     82  O   UNL A   1      32.162  24.855  26.506  1.00  0.00    -0.485 OA
ATOM     83  C   UNL A   1      31.817  22.797  25.283  1.00  0.00     0.162 A 
ATOM     84  C   UNL A   1      32.422  23.531  26.294  1.00  0.00     0.161 A 
ATOM     85  C   UNL A   1      32.141  21.467  25.103  1.00  0.00     0.050 A 
ATOM     86  C   UNL A   1      33.415  22.943  27.075  1.00  0.00     0.050 A 
ATOM     87  C   UNL A   1      33.186  20.901  25.835  1.00  0.00     0.004 A 
ATOM     88  C   UNL A   1      33.826  21.639  26.816  1.00  0.00     0.004 A 
ENDBRANCH  76  79
BRANCH  78  89
ATOM     89  C   UNL A   1      31.348  27.702  23.359  1.00  0.00     0.068 A 
ATOM     90  C   UNL A   1      30.252  28.062  22.567  1.00  0.00     0.028 A 
ATOM     91  C   UNL A   1      31.704  28.493  24.462  1.00  0.00     0.044 A 
ATOM     92  C   UNL A   1      29.580  29.261  22.815  1.00  0.00     0.003 A 
ATOM     93  C   UNL A   1      31.035  29.693  24.690  1.00  0.00     0.020 A 
ATOM     94  C   UNL A   1      29.988  30.089  23.859  1.00  0.00     0.016 A 
ATOM     95  Br  UNL A   1      31.585  30.818  26.103  1.00  0.00    -0.051 Br
ENDBRANCH  78  89
ENDBRANCH  71  74
ENDBRANCH  69  70
ENDBRANCH  68  69
ENDBRANCH   1  68
TORSDOF 15
ENDMDL
MODEL 3
REMARK VINA RESULT:     -13.0      2.892      9.100
REMARK SMILES O=C(NCCCNC(=O)c1nnn(-c2cccc(Br)c2)c1[C@@H]1COc2ccccc2O1)c1ccc(-c2c3nc(c(-c4ccc(S(=O)(=O)[O-])cc4)c4ccc([nH]4)c(-c4ccc(S(=O)(=O)[O-])cc4)c4nc(c(-c5ccc(S(=O)(=O)[O-])cc5)c5ccc2[nH]5)C=C4)C=C3)cc1
REMARK SMILES IDX 4 1 3 2 1 3 2 4 32 6 33 7 91 8 34 9 90 10 35 11 36 12 37 13
REMARK SMILES IDX 84 14 38 15 89 16 83 17 85 18 39 19 88 20 82 21 81 22 40 24
REMARK SMILES IDX 70 25 51 26 69 27 52 28 55 29 68 30 86 31 53 32 54 33 67 35
REMARK SMILES IDX 87 36 56 37 41 38 42 39 50 40 43 41 49 42 44 43 45 44 46 45
REMARK SMILES IDX 47 46 48 47 71 48 72 49 80 50 73 51 79 52 74 53 75 54 76 55
REMARK SMILES IDX 77 56 78 57 57 58 58 59 66 60 59 61 65 62 60 63 61 64 62 65
REMARK SMILES IDX 63 66 64 67 5 68 6 69 7 70 8 71 9 73 10 74 11 75 21 76 12 77
REMARK SMILES IDX 13 78 22 79 23 80 31 81 24 82 30 83 25 84 29 85 26 86 28 87
REMARK SMILES IDX 27 88 14 89 15 90 20 91 16 92 18 93 17 94 19 95
REMARK H PARENT 3 5 85 23 55 34 7 72
REMARK Flexibility Score: inf
ROOT
ATOM      1  C   UNL A   1      36.177  22.847  26.697  1.00  0.00     0.118 C 
ENDROOT
BRANCH   1   2
ATOM      2  N   UNL A   1      37.408  22.491  26.002  1.00  0.00    -0.352 N 
ATOM      3  O   UNL A   1      39.453  21.629  25.812  1.00  0.00    -0.269 OA
ATOM      4  C   UNL A   1      38.751  22.543  26.244  1.00  0.00     0.251 C 
ATOM      5  H   UNL A   1      37.218  22.108  25.115  1.00  0.00     0.163 HD
BRANCH   4   6
ATOM      6  C   UNL A   1      39.381  23.750  26.763  1.00  0.00     0.039 A 
ATOM      7  C   UNL A   1      40.539  23.678  27.514  1.00  0.00     0.014 A 
ATOM      8  C   UNL A   1      38.665  24.954  26.624  1.00  0.00     0.014 A 
ATOM      9  C   UNL A   1      40.863  24.740  28.315  1.00  0.00     0.010 A 
ATOM     10  C   UNL A   1      39.044  26.058  27.361  1.00  0.00     0.010 A 
ATOM     11  C   UNL A   1      40.103  25.915  28.251  1.00  0.00    -0.014 A 
BRANCH  11  12
ATOM     12  C   UNL A   1      40.659  27.044  28.970  1.00  0.00     0.031 A 
ATOM     13  C   UNL A   1      41.849  27.606  28.262  1.00  0.00     0.074 A 
ATOM     14  C   UNL A   1      40.110  27.557  30.083  1.00  0.00     0.049 A 
ATOM     15  N   UNL A   1      43.076  27.636  28.667  1.00  0.00    -0.248 NA
ATOM     16  C   UNL A   1      41.682  27.928  26.829  1.00  0.00     0.031 C 
ATOM     17  C   UNL A   1      38.812  27.251  30.687  1.00  0.00     0.029 A 
ATOM     18  N   UNL A   1      40.561  28.588  30.839  1.00  0.00    -0.354 N 
ATOM     19  C   UNL A   1      43.803  28.178  27.610  1.00  0.00     0.074 A 
ATOM     20  C   UNL A   1      42.943  28.139  26.458  1.00  0.00     0.031 C 
ATOM     21  C   UNL A   1      38.466  28.265  31.512  1.00  0.00     0.029 A 
ATOM     22  C   UNL A   1      39.573  29.205  31.592  1.00  0.00     0.049 A 
ATOM     23  H   UNL A   1      41.503  28.872  30.852  1.00  0.00     0.167 HD
ATOM     24  C   UNL A   1      44.956  28.869  27.816  1.00  0.00     0.031 A 
ATOM     25  C   UNL A   1      39.641  30.452  32.124  1.00  0.00     0.031 A 
ATOM     26  C   UNL A   1      45.538  28.560  29.094  1.00  0.00     0.049 A 
ATOM     27  C   UNL A   1      41.079  30.837  32.151  1.00  0.00     0.074 A 
ATOM     28  C   UNL A   1      46.042  27.414  29.674  1.00  0.00     0.029 A 
ATOM     29  N   UNL A   1      45.284  29.432  30.127  1.00  0.00    -0.354 N 
ATOM     30  N   UNL A   1      41.969  30.225  32.884  1.00  0.00    -0.248 NA
ATOM     31  C   UNL A   1      41.613  31.565  31.007  1.00  0.00     0.031 C 
ATOM     32  C   UNL A   1      45.614  27.475  31.032  1.00  0.00     0.029 A 
ATOM     33  C   UNL A   1      44.941  28.684  31.222  1.00  0.00     0.049 A 
ATOM     34  H   UNL A   1      45.338  30.414  30.086  1.00  0.00     0.167 HD
ATOM     35  C   UNL A   1      43.096  30.129  32.077  1.00  0.00     0.074 A 
ATOM     36  C   UNL A   1      42.843  31.045  30.964  1.00  0.00     0.031 C 
ATOM     37  C   UNL A   1      43.999  29.115  32.234  1.00  0.00     0.031 A 
BRANCH  24  38
ATOM     38  C   UNL A   1      45.261  30.149  27.070  1.00  0.00    -0.014 A 
ATOM     39  C   UNL A   1      46.608  30.524  26.898  1.00  0.00     0.010 A 
ATOM     40  C   UNL A   1      44.285  31.136  26.811  1.00  0.00     0.010 A 
ATOM     41  C   UNL A   1      46.955  31.848  26.599  1.00  0.00     0.020 A 
ATOM     42  C   UNL A   1      44.618  32.445  26.472  1.00  0.00     0.020 A 
ATOM     43  C   UNL A   1      45.955  32.804  26.414  1.00  0.00     0.054 A 
BRANCH  43  44
ATOM     44  S   UNL A   1      46.411  34.537  26.181  1.00  0.00     0.124 S 
ATOM     45  O   UNL A   1      46.845  34.913  27.523  1.00  0.00    -0.237 OA
ATOM     46  O   UNL A   1      47.464  34.444  25.173  1.00  0.00    -0.237 OA
ATOM     47  O   UNL A   1      45.170  35.158  25.724  1.00  0.00    -0.744 OA
ENDBRANCH  43  44
ENDBRANCH  24  38
BRANCH  25  48
ATOM     48  C   UNL A   1      38.535  31.444  32.193  1.00  0.00    -0.014 A 
ATOM     49  C   UNL A   1      38.162  32.207  31.071  1.00  0.00     0.010 A 
ATOM     50  C   UNL A   1      37.665  31.454  33.305  1.00  0.00     0.010 A 
ATOM     51  C   UNL A   1      36.945  32.914  31.048  1.00  0.00     0.020 A 
ATOM     52  C   UNL A   1      36.457  32.160  33.292  1.00  0.00     0.020 A 
ATOM     53  C   UNL A   1      36.092  32.872  32.155  1.00  0.00     0.054 A 
BRANCH  53  54
ATOM     54  S   UNL A   1      34.453  33.654  32.060  1.00  0.00     0.124 S 
ATOM     55  O   UNL A   1      33.664  32.838  32.978  1.00  0.00    -0.237 OA
ATOM     56  O   UNL A   1      34.725  35.019  32.501  1.00  0.00    -0.237 OA
ATOM     57  O   UNL A   1      34.090  33.524  30.649  1.00  0.00    -0.744 OA
ENDBRANCH  53  54
ENDBRANCH  25  48
BRANCH  37  58
ATOM     58  C   UNL A   1      43.878  28.223  33.449  1.00  0.00    -0.014 A 
ATOM     59  C   UNL A   1      44.582  28.437  34.652  1.00  0.00     0.010 A 
ATOM     60  C   UNL A   1      42.881  27.234  33.423  1.00  0.00     0.010 A 
ATOM     61  C   UNL A   1      44.307  27.660  35.790  1.00  0.00     0.020 A 
ATOM     62  C   UNL A   1      42.591  26.471  34.556  1.00  0.00     0.020 A 
ATOM     63  C   UNL A   1      43.310  26.681  35.732  1.00  0.00     0.054 A 
BRANCH  63  64
ATOM     64  S   UNL A   1      42.920  25.711  37.216  1.00  0.00     0.124 S 
ATOM     65  O   UNL A   1      41.532  25.323  36.984  1.00  0.00    -0.237 OA
ATOM     66  O   UNL A   1      43.896  24.625  37.159  1.00  0.00    -0.237 OA
ATOM     67  O   UNL A   1      43.122  26.656  38.313  1.00  0.00    -0.744 OA
ENDBRANCH  63  64
ENDBRANCH  37  58
ENDBRANCH  11  12
ENDBRANCH   4   6
ENDBRANCH   1   2
BRANCH   1  68
ATOM     68  C   UNL A   1      35.076  23.663  25.991  1.00  0.00     0.042 C 
BRANCH  68  69
ATOM     69  C   UNL A   1      33.693  23.961  26.620  1.00  0.00     0.118 C 
BRANCH  69  70
ATOM     70  N   UNL A   1      32.529  23.958  25.751  1.00  0.00    -0.351 N 
ATOM     71  C   UNL A   1      31.739  25.048  25.389  1.00  0.00     0.273 C 
ATOM     72  H   UNL A   1      32.268  23.086  25.376  1.00  0.00     0.163 HD
ATOM     73  O   UNL A   1      30.810  24.875  24.615  1.00  0.00    -0.267 OA
BRANCH  71  74
ATOM     74  C   UNL A   1      31.976  26.342  26.034  1.00  0.00     0.178 A 
ATOM     75  N   UNL A   1      31.199  26.671  27.115  1.00  0.00    -0.124 NA
ATOM     76  C   UNL A   1      32.868  27.387  25.765  1.00  0.00     0.122 A 
ATOM     77  N   UNL A   1      31.638  27.810  27.611  1.00  0.00    -0.061 NA
ATOM     78  N   UNL A   1      32.656  28.253  26.842  1.00  0.00    -0.213 N 
BRANCH  76  79
ATOM     79  C   UNL A   1      33.972  27.600  24.759  1.00  0.00     0.262 C 
ATOM     80  C   UNL A   1      33.716  28.625  23.650  1.00  0.00     0.281 C 
ATOM     81  O   UNL A   1      34.382  26.350  24.211  1.00  0.00    -0.477 OA
ATOM     82  O   UNL A   1      32.728  28.213  22.702  1.00  0.00    -0.485 OA
ATOM     83  C   UNL A   1      33.704  26.031  23.070  1.00  0.00     0.162 A 
ATOM     84  C   UNL A   1      32.866  26.893  22.377  1.00  0.00     0.161 A 
ATOM     85  C   UNL A   1      33.781  24.700  22.709  1.00  0.00     0.050 A 
ATOM     86  C   UNL A   1      32.044  26.395  21.368  1.00  0.00     0.050 A 
ATOM     87  C   UNL A   1      32.905  24.188  21.751  1.00  0.00     0.004 A 
ATOM     88  C   UNL A   1      32.034  25.033  21.085  1.00  0.00     0.004 A 
ENDBRANCH  76  79
BRANCH  78  89
ATOM     89  C   UNL A   1      33.442  29.341  27.301  1.00  0.00     0.068 A 
ATOM     90  C   UNL A   1      32.938  30.644  27.382  1.00  0.00     0.028 A 
ATOM     91  C   UNL A   1      34.795  29.096  27.583  1.00  0.00     0.044 A 
ATOM     92  C   UNL A   1      33.803  31.709  27.643  1.00  0.00     0.003 A 
ATOM     93  C   UNL A   1      35.650  30.168  27.828  1.00  0.00     0.020 A 
ATOM     94  C   UNL A   1      35.163  31.473  27.839  1.00  0.00     0.016 A 
ATOM     95  Br  UNL A   1      37.493  29.854  28.093  1.00  0.00    -0.051 Br
ENDBRANCH  78  89
ENDBRANCH  71  74
ENDBRANCH  69  70
ENDBRANCH  68  69
ENDBRANCH   1  68
TORSDOF 15
ENDMDL
