MODEL 1
REMARK VINA RESULT:      -9.9      0.000      0.000
REMARK SMILES O=C(C[C@H]1C[C@H]2CC[C@@H](C1)N2C(=O)NCc1ncn[nH]1)NCCCNC(=O)c1ccc(-c2c3nc(c(-c4ccc(S(=O)(=O)[O-])cc4)c4ccc([nH]4)c(-c4ccc(S(=O)(=O)[O-])cc4)c4nc(c(-c5ccc(S(=O)(=O)[O-])cc5)c5ccc2[nH]5)C=C4)C=C3)cc1
REMARK SMILES IDX 22 1 21 2 1 3 2 4 3 6 4 7 5 8 10 9 6 10 9 11 7 12 11 13 8 14
REMARK SMILES IDX 12 15 13 16 14 17 15 19 16 20 17 21 20 22 18 23 19 24 23 26
REMARK SMILES IDX 24 27 25 28 26 29 27 31 28 32 29 33 87 34 30 35 86 36 31 37
REMARK SMILES IDX 32 38 33 39 80 40 34 41 85 42 79 43 81 44 35 45 84 46 78 47
REMARK SMILES IDX 77 48 36 50 66 51 47 52 65 53 48 54 51 55 64 56 82 57 49 58
REMARK SMILES IDX 50 59 63 61 83 62 52 63 37 64 38 65 46 66 39 67 45 68 40 69
REMARK SMILES IDX 41 70 42 71 43 72 44 73 67 74 68 75 76 76 69 77 75 78 70 79
REMARK SMILES IDX 71 80 72 81 73 82 74 83 53 84 54 85 62 86 55 87 61 88 56 89
REMARK SMILES IDX 57 90 58 91 59 92 60 93
REMARK H PARENT 21 5 14 18 20 25 25 30 81 49 51 60
REMARK Flexibility Score: inf
ROOT
ATOM      1  C   UNL A   1      33.402  34.848  29.483  1.00  0.00     0.117 C 
ENDROOT
BRANCH   1   2
ATOM      2  N   UNL A   1      34.441  34.836  30.493  1.00  0.00    -0.356 N 
ATOM      3  O   UNL A   1      33.065  34.798  32.326  1.00  0.00    -0.275 OA
ATOM      4  C   UNL A   1      34.189  34.878  31.840  1.00  0.00     0.220 C 
ATOM      5  H   UNL A   1      35.379  34.795  30.196  1.00  0.00     0.163 HD
BRANCH   4   6
ATOM      6  C   UNL A   1      35.410  35.172  32.699  1.00  0.00     0.103 C 
BRANCH   6   7
ATOM      7  C   UNL A   1      35.722  34.163  33.827  1.00  0.00     0.002 C 
ATOM      8  C   UNL A   1      35.460  32.673  33.454  1.00  0.00     0.029 C 
ATOM      9  C   UNL A   1      37.183  34.337  34.343  1.00  0.00     0.029 C 
ATOM     10  C   UNL A   1      36.671  31.927  32.849  1.00  0.00     0.087 C 
ATOM     11  C   UNL A   1      38.215  33.460  33.603  1.00  0.00     0.087 C 
ATOM     12  C   UNL A   1      37.198  32.581  31.574  1.00  0.00     0.027 C 
ATOM     13  N   UNL A   1      37.795  32.080  33.760  1.00  0.00    -0.319 N 
ATOM     14  C   UNL A   1      38.184  33.644  32.078  1.00  0.00     0.027 C 
BRANCH  13  15
ATOM     15  C   UNL A   1      38.109  31.076  34.608  1.00  0.00     0.318 C 
ATOM     16  O   UNL A   1      37.763  31.113  35.794  1.00  0.00    -0.249 OA
ATOM     17  N   UNL A   1      38.784  29.978  34.258  1.00  0.00    -0.331 N 
ATOM     18  H   UNL A   1      38.915  29.384  35.033  1.00  0.00     0.165 HD
BRANCH  17  19
ATOM     19  C   UNL A   1      39.374  29.413  33.071  1.00  0.00     0.194 C 
BRANCH  19  20
ATOM     20  C   UNL A   1      40.627  28.698  33.431  1.00  0.00     0.143 A 
ATOM     21  N   UNL A   1      40.789  27.617  34.168  1.00  0.00    -0.218 NA
ATOM     22  N   UNL A   1      41.853  29.111  32.992  1.00  0.00    -0.262 N 
ATOM     23  C   UNL A   1      42.138  27.418  34.150  1.00  0.00     0.246 A 
ATOM     24  N   UNL A   1      42.832  28.310  33.440  1.00  0.00    -0.162 NA
ATOM     25  H   UNL A   1      42.001  29.899  32.420  1.00  0.00     0.192 HD
ENDBRANCH  19  20
ENDBRANCH  17  19
ENDBRANCH  13  15
ENDBRANCH   6   7
ENDBRANCH   4   6
ENDBRANCH   1   2
BRANCH   1  26
ATOM     26  C   UNL A   1      33.886  34.222  28.175  1.00  0.00     0.042 C 
BRANCH  26  27
ATOM     27  C   UNL A   1      34.711  32.943  28.328  1.00  0.00     0.118 C 
BRANCH  27  28
ATOM     28  N   UNL A   1      33.958  31.738  28.028  1.00  0.00    -0.352 N 
ATOM     29  C   UNL A   1      34.374  30.436  27.896  1.00  0.00     0.251 C 
ATOM     30  H   UNL A   1      32.992  31.877  27.897  1.00  0.00     0.163 HD
ATOM     31  O   UNL A   1      33.574  29.599  27.485  1.00  0.00    -0.269 OA
BRANCH  29  32
ATOM     32  C   UNL A   1      35.764  30.031  28.213  1.00  0.00     0.039 A 
ATOM     33  C   UNL A   1      36.718  30.093  27.192  1.00  0.00     0.014 A 
ATOM     34  C   UNL A   1      36.130  29.544  29.472  1.00  0.00     0.014 A 
ATOM     35  C   UNL A   1      38.040  29.719  27.446  1.00  0.00     0.010 A 
ATOM     36  C   UNL A   1      37.465  29.233  29.742  1.00  0.00     0.010 A 
ATOM     37  C   UNL A   1      38.435  29.314  28.731  1.00  0.00    -0.014 A 
BRANCH  37  38
ATOM     38  C   UNL A   1      39.861  28.993  29.016  1.00  0.00     0.031 A 
ATOM     39  C   UNL A   1      40.769  30.006  29.661  1.00  0.00     0.074 A 
ATOM     40  C   UNL A   1      40.348  27.785  28.667  1.00  0.00     0.049 A 
ATOM     41  N   UNL A   1      42.027  29.881  30.005  1.00  0.00    -0.248 NA
ATOM     42  C   UNL A   1      40.203  31.335  29.936  1.00  0.00     0.031 C 
ATOM     43  C   UNL A   1      39.589  26.730  27.990  1.00  0.00     0.029 A 
ATOM     44  N   UNL A   1      41.594  27.236  28.841  1.00  0.00    -0.354 N 
ATOM     45  C   UNL A   1      42.404  31.113  30.526  1.00  0.00     0.074 A 
ATOM     46  C   UNL A   1      41.256  31.986  30.408  1.00  0.00     0.031 C 
ATOM     47  C   UNL A   1      40.375  25.651  27.840  1.00  0.00     0.029 A 
ATOM     48  C   UNL A   1      41.698  25.944  28.382  1.00  0.00     0.049 A 
ATOM     49  H   UNL A   1      42.344  27.723  29.256  1.00  0.00     0.167 HD
ATOM     50  C   UNL A   1      43.589  31.482  31.072  1.00  0.00     0.031 A 
ATOM     51  C   UNL A   1      42.735  25.085  28.402  1.00  0.00     0.031 A 
ATOM     52  C   UNL A   1      44.730  30.612  31.201  1.00  0.00     0.049 A 
ATOM     53  C   UNL A   1      44.032  25.508  29.033  1.00  0.00     0.074 A 
ATOM     54  C   UNL A   1      45.955  30.879  31.788  1.00  0.00     0.029 A 
ATOM     55  N   UNL A   1      44.789  29.307  30.735  1.00  0.00    -0.354 N 
ATOM     56  N   UNL A   1      44.344  26.658  29.582  1.00  0.00    -0.248 NA
ATOM     57  C   UNL A   1      45.109  24.510  29.063  1.00  0.00     0.031 C 
ATOM     58  C   UNL A   1      46.770  29.751  31.641  1.00  0.00     0.029 A 
ATOM     59  C   UNL A   1      46.033  28.762  31.007  1.00  0.00     0.049 A 
ATOM     60  H   UNL A   1      44.054  28.837  30.279  1.00  0.00     0.167 HD
ATOM     61  C   UNL A   1      45.647  26.512  30.046  1.00  0.00     0.074 A 
ATOM     62  C   UNL A   1      46.055  25.158  29.729  1.00  0.00     0.031 C 
ATOM     63  C   UNL A   1      46.434  27.418  30.679  1.00  0.00     0.031 A 
BRANCH  50  64
ATOM     64  C   UNL A   1      43.712  32.898  31.574  1.00  0.00    -0.014 A 
ATOM     65  C   UNL A   1      43.408  33.223  32.908  1.00  0.00     0.010 A 
ATOM     66  C   UNL A   1      44.175  33.909  30.712  1.00  0.00     0.010 A 
ATOM     67  C   UNL A   1      43.522  34.541  33.360  1.00  0.00     0.020 A 
ATOM     68  C   UNL A   1      44.318  35.223  31.169  1.00  0.00     0.020 A 
ATOM     69  C   UNL A   1      43.972  35.534  32.486  1.00  0.00     0.054 A 
BRANCH  69  70
ATOM     70  S   UNL A   1      44.129  37.232  33.103  1.00  0.00     0.124 S 
ATOM     71  O   UNL A   1      42.942  37.357  33.945  1.00  0.00    -0.237 OA
ATOM     72  O   UNL A   1      45.404  37.199  33.816  1.00  0.00    -0.237 OA
ATOM     73  O   UNL A   1      44.120  38.045  31.889  1.00  0.00    -0.744 OA
ENDBRANCH  69  70
ENDBRANCH  50  64
BRANCH  51  74
ATOM     74  C   UNL A   1      42.576  23.719  27.834  1.00  0.00    -0.014 A 
ATOM     75  C   UNL A   1      42.132  22.659  28.642  1.00  0.00     0.010 A 
ATOM     76  C   UNL A   1      42.854  23.477  26.477  1.00  0.00     0.010 A 
ATOM     77  C   UNL A   1      41.986  21.374  28.109  1.00  0.00     0.020 A 
ATOM     78  C   UNL A   1      42.685  22.199  25.934  1.00  0.00     0.020 A 
ATOM     79  C   UNL A   1      42.263  21.154  26.757  1.00  0.00     0.054 A 
BRANCH  79  80
ATOM     80  S   UNL A   1      42.017  19.492  26.071  1.00  0.00     0.124 S 
ATOM     81  O   UNL A   1      42.855  19.529  24.878  1.00  0.00    -0.237 OA
ATOM     82  O   UNL A   1      42.490  18.630  27.152  1.00  0.00    -0.237 OA
ATOM     83  O   UNL A   1      40.577  19.436  25.826  1.00  0.00    -0.744 OA
ENDBRANCH  79  80
ENDBRANCH  51  74
BRANCH  63  84
ATOM     84  C   UNL A   1      47.807  26.961  31.095  1.00  0.00    -0.014 A 
ATOM     85  C   UNL A   1      48.036  26.403  32.366  1.00  0.00     0.010 A 
ATOM     86  C   UNL A   1      48.881  27.079  30.193  1.00  0.00     0.010 A 
ATOM     87  C   UNL A   1      49.325  26.017  32.744  1.00  0.00     0.020 A 
ATOM     88  C   UNL A   1      50.165  26.669  30.560  1.00  0.00     0.020 A 
ATOM     89  C   UNL A   1      50.383  26.161  31.842  1.00  0.00     0.054 A 
BRANCH  89  90
ATOM     90  S   UNL A   1      52.046  25.647  32.352  1.00  0.00     0.124 S 
ATOM     91  O   UNL A   1      52.881  26.247  31.314  1.00  0.00    -0.237 OA
ATOM     92  O   UNL A   1      52.174  26.238  33.682  1.00  0.00    -0.237 OA
ATOM     93  O   UNL A   1      51.978  24.187  32.331  1.00  0.00    -0.744 OA
ENDBRANCH  89  90
ENDBRANCH  63  84
ENDBRANCH  37  38
ENDBRANCH  29  32
ENDBRANCH  27  28
ENDBRANCH  26  27
ENDBRANCH   1  26
TORSDOF 17
ENDMDL
MODEL 2
REMARK VINA RESULT:      -9.7      4.646      7.111
REMARK SMILES O=C(C[C@H]1C[C@H]2CC[C@@H](C1)N2C(=O)NCc1ncn[nH]1)NCCCNC(=O)c1ccc(-c2c3nc(c(-c4ccc(S(=O)(=O)[O-])cc4)c4ccc([nH]4)c(-c4ccc(S(=O)(=O)[O-])cc4)c4nc(c(-c5ccc(S(=O)(=O)[O-])cc5)c5ccc2[nH]5)C=C4)C=C3)cc1
REMARK SMILES IDX 22 1 21 2 1 3 2 4 3 6 4 7 5 8 10 9 6 10 9 11 7 12 11 13 8 14
REMARK SMILES IDX 12 15 13 16 14 17 15 19 16 20 17 21 20 22 18 23 19 24 23 26
REMARK SMILES IDX 24 27 25 28 26 29 27 31 28 32 29 33 87 34 30 35 86 36 31 37
REMARK SMILES IDX 32 38 33 39 80 40 34 41 85 42 79 43 81 44 35 45 84 46 78 47
REMARK SMILES IDX 77 48 36 50 66 51 47 52 65 53 48 54 51 55 64 56 82 57 49 58
REMARK SMILES IDX 50 59 63 61 83 62 52 63 37 64 38 65 46 66 39 67 45 68 40 69
REMARK SMILES IDX 41 70 42 71 43 72 44 73 67 74 68 75 76 76 69 77 75 78 70 79
REMARK SMILES IDX 71 80 72 81 73 82 74 83 53 84 54 85 62 86 55 87 61 88 56 89
REMARK SMILES IDX 57 90 58 91 59 92 60 93
REMARK H PARENT 21 5 14 18 20 25 25 30 81 49 51 60
REMARK Flexibility Score: inf
ROOT
ATOM      1  C   UNL A   1      32.233  28.351  24.813  1.00  0.00     0.117 C 
ENDROOT
BRANCH   1   2
ATOM      2  N   UNL A   1      31.527  27.087  24.758  1.00  0.00    -0.356 N 
ATOM      3  O   UNL A   1      30.639  27.160  26.870  1.00  0.00    -0.275 OA
ATOM      4  C   UNL A   1      30.837  26.559  25.818  1.00  0.00     0.220 C 
ATOM      5  H   UNL A   1      31.544  26.580  23.914  1.00  0.00     0.163 HD
BRANCH   4   6
ATOM      6  C   UNL A   1      30.443  25.099  25.647  1.00  0.00     0.103 C 
BRANCH   6   7
ATOM      7  C   UNL A   1      31.188  24.073  26.530  1.00  0.00     0.002 C 
ATOM      8  C   UNL A   1      30.860  22.584  26.210  1.00  0.00     0.029 C 
ATOM      9  C   UNL A   1      32.729  24.306  26.476  1.00  0.00     0.029 C 
ATOM     10  C   UNL A   1      31.785  21.920  25.165  1.00  0.00     0.087 C 
ATOM     11  C   UNL A   1      33.443  23.506  25.366  1.00  0.00     0.087 C 
ATOM     12  C   UNL A   1      31.776  22.638  23.819  1.00  0.00     0.027 C 
ATOM     13  N   UNL A   1      33.161  22.102  25.602  1.00  0.00    -0.319 N 
ATOM     14  C   UNL A   1      32.840  23.734  23.971  1.00  0.00     0.027 C 
BRANCH  13  15
ATOM     15  C   UNL A   1      33.804  21.089  26.225  1.00  0.00     0.318 C 
ATOM     16  O   UNL A   1      34.272  21.236  27.359  1.00  0.00    -0.249 OA
ATOM     17  N   UNL A   1      33.976  19.872  25.703  1.00  0.00    -0.331 N 
ATOM     18  H   UNL A   1      34.482  19.294  26.318  1.00  0.00     0.165 HD
BRANCH  17  19
ATOM     19  C   UNL A   1      33.631  19.162  24.497  1.00  0.00     0.194 C 
BRANCH  19  20
ATOM     20  C   UNL A   1      33.343  17.741  24.822  1.00  0.00     0.143 A 
ATOM     21  N   UNL A   1      32.256  17.208  25.345  1.00  0.00    -0.218 NA
ATOM     22  N   UNL A   1      34.245  16.742  24.586  1.00  0.00    -0.262 N 
ATOM     23  C   UNL A   1      32.553  15.878  25.411  1.00  0.00     0.246 A 
ATOM     24  N   UNL A   1      33.763  15.546  24.955  1.00  0.00    -0.162 NA
ATOM     25  H   UNL A   1      35.138  16.883  24.194  1.00  0.00     0.192 HD
ENDBRANCH  19  20
ENDBRANCH  17  19
ENDBRANCH  13  15
ENDBRANCH   6   7
ENDBRANCH   4   6
ENDBRANCH   1   2
BRANCH   1  26
ATOM     26  C   UNL A   1      33.653  28.175  25.351  1.00  0.00     0.042 C 
BRANCH  26  27
ATOM     27  C   UNL A   1      33.806  28.346  26.863  1.00  0.00     0.118 C 
BRANCH  27  28
ATOM     28  N   UNL A   1      33.677  29.725  27.299  1.00  0.00    -0.352 N 
ATOM     29  C   UNL A   1      34.547  30.523  28.002  1.00  0.00     0.251 C 
ATOM     30  H   UNL A   1      32.829  30.159  27.050  1.00  0.00     0.163 HD
ATOM     31  O   UNL A   1      34.156  31.621  28.392  1.00  0.00    -0.269 OA
BRANCH  29  32
ATOM     32  C   UNL A   1      35.924  30.078  28.317  1.00  0.00     0.039 A 
ATOM     33  C   UNL A   1      36.893  30.167  27.312  1.00  0.00     0.014 A 
ATOM     34  C   UNL A   1      36.265  29.527  29.557  1.00  0.00     0.014 A 
ATOM     35  C   UNL A   1      38.204  29.757  27.564  1.00  0.00     0.010 A 
ATOM     36  C   UNL A   1      37.591  29.179  29.828  1.00  0.00     0.010 A 
ATOM     37  C   UNL A   1      38.575  29.287  28.834  1.00  0.00    -0.014 A 
BRANCH  37  38
ATOM     38  C   UNL A   1      39.990  28.925  29.121  1.00  0.00     0.031 A 
ATOM     39  C   UNL A   1      40.919  29.903  29.792  1.00  0.00     0.074 A 
ATOM     40  C   UNL A   1      40.451  27.713  28.751  1.00  0.00     0.049 A 
ATOM     41  N   UNL A   1      42.171  29.741  30.142  1.00  0.00    -0.248 NA
ATOM     42  C   UNL A   1      40.382  31.240  30.091  1.00  0.00     0.031 C 
ATOM     43  C   UNL A   1      39.672  26.691  28.047  1.00  0.00     0.029 A 
ATOM     44  N   UNL A   1      41.683  27.132  28.921  1.00  0.00    -0.354 N 
ATOM     45  C   UNL A   1      42.574  30.953  30.691  1.00  0.00     0.074 A 
ATOM     46  C   UNL A   1      41.448  31.855  30.584  1.00  0.00     0.031 C 
ATOM     47  C   UNL A   1      40.432  25.597  27.880  1.00  0.00     0.029 A 
ATOM     48  C   UNL A   1      41.758  25.847  28.436  1.00  0.00     0.049 A 
ATOM     49  H   UNL A   1      42.440  27.591  29.350  1.00  0.00     0.167 HD
ATOM     50  C   UNL A   1      43.763  31.282  31.251  1.00  0.00     0.031 A 
ATOM     51  C   UNL A   1      42.774  24.963  28.445  1.00  0.00     0.031 A 
ATOM     52  C   UNL A   1      44.882  30.382  31.369  1.00  0.00     0.049 A 
ATOM     53  C   UNL A   1      44.076  25.342  29.092  1.00  0.00     0.074 A 
ATOM     54  C   UNL A   1      46.109  30.607  31.970  1.00  0.00     0.029 A 
ATOM     55  N   UNL A   1      44.913  29.085  30.877  1.00  0.00    -0.354 N 
ATOM     56  N   UNL A   1      44.412  26.472  29.667  1.00  0.00    -0.248 NA
ATOM     57  C   UNL A   1      45.129  24.318  29.108  1.00  0.00     0.031 C 
ATOM     58  C   UNL A   1      46.898  29.462  31.805  1.00  0.00     0.029 A 
ATOM     59  C   UNL A   1      46.142  28.505  31.146  1.00  0.00     0.049 A 
ATOM     60  H   UNL A   1      44.170  28.643  30.407  1.00  0.00     0.167 HD
ATOM     61  C   UNL A   1      45.708  26.285  30.136  1.00  0.00     0.074 A 
ATOM     62  C   UNL A   1      46.086  24.929  29.794  1.00  0.00     0.031 C 
ATOM     63  C   UNL A   1      46.512  27.159  30.792  1.00  0.00     0.031 A 
BRANCH  50  64
ATOM     64  C   UNL A   1      43.917  32.683  31.784  1.00  0.00    -0.014 A 
ATOM     65  C   UNL A   1      43.586  32.994  33.115  1.00  0.00     0.010 A 
ATOM     66  C   UNL A   1      44.436  33.694  30.954  1.00  0.00     0.010 A 
ATOM     67  C   UNL A   1      43.729  34.299  33.594  1.00  0.00     0.020 A 
ATOM     68  C   UNL A   1      44.607  34.995  31.439  1.00  0.00     0.020 A 
ATOM     69  C   UNL A   1      44.234  35.293  32.752  1.00  0.00     0.054 A 
BRANCH  69  70
ATOM     70  S   UNL A   1      44.427  36.974  33.405  1.00  0.00     0.124 S 
ATOM     71  O   UNL A   1      44.305  37.782  32.194  1.00  0.00    -0.237 OA
ATOM     72  O   UNL A   1      43.316  37.083  34.347  1.00  0.00    -0.237 OA
ATOM     73  O   UNL A   1      45.755  36.960  34.013  1.00  0.00    -0.744 OA
ENDBRANCH  69  70
ENDBRANCH  50  64
BRANCH  51  74
ATOM     74  C   UNL A   1      42.586  23.613  27.848  1.00  0.00    -0.014 A 
ATOM     75  C   UNL A   1      42.947  23.368  26.512  1.00  0.00     0.010 A 
ATOM     76  C   UNL A   1      42.060  22.562  28.619  1.00  0.00     0.010 A 
ATOM     77  C   UNL A   1      42.766  22.100  25.950  1.00  0.00     0.020 A 
ATOM     78  C   UNL A   1      41.902  21.286  28.070  1.00  0.00     0.020 A 
ATOM     79  C   UNL A   1      42.245  21.067  26.734  1.00  0.00     0.054 A 
BRANCH  79  80
ATOM     80  S   UNL A   1      42.069  19.416  26.004  1.00  0.00     0.124 S 
ATOM     81  O   UNL A   1      42.575  18.557  27.068  1.00  0.00    -0.237 OA
ATOM     82  O   UNL A   1      40.632  19.333  25.751  1.00  0.00    -0.237 OA
ATOM     83  O   UNL A   1      42.900  19.485  24.803  1.00  0.00    -0.744 OA
ENDBRANCH  79  80
ENDBRANCH  51  74
BRANCH  63  84
ATOM     84  C   UNL A   1      47.871  26.660  31.208  1.00  0.00    -0.014 A 
ATOM     85  C   UNL A   1      48.974  26.735  30.338  1.00  0.00     0.010 A 
ATOM     86  C   UNL A   1      48.049  26.122  32.496  1.00  0.00     0.010 A 
ATOM     87  C   UNL A   1      50.218  26.234  30.730  1.00  0.00     0.020 A 
ATOM     88  C   UNL A   1      49.298  25.645  32.901  1.00  0.00     0.020 A 
ATOM     89  C   UNL A   1      50.370  25.684  32.007  1.00  0.00     0.054 A 
BRANCH  89  90
ATOM     90  S   UNL A   1      51.995  25.047  32.498  1.00  0.00     0.124 S 
ATOM     91  O   UNL A   1      51.809  23.604  32.363  1.00  0.00    -0.237 OA
ATOM     92  O   UNL A   1      52.892  25.659  31.521  1.00  0.00    -0.237 OA
ATOM     93  O   UNL A   1      52.156  25.529  33.868  1.00  0.00    -0.744 OA
ENDBRANCH  89  90
ENDBRANCH  63  84
ENDBRANCH  37  38
ENDBRANCH  29  32
ENDBRANCH  27  28
ENDBRANCH  26  27
ENDBRANCH   1  26
TORSDOF 17
ENDMDL
MODEL 3
REMARK VINA RESULT:      -9.7      5.080     12.082
REMARK SMILES O=C(C[C@H]1C[C@H]2CC[C@@H](C1)N2C(=O)NCc1ncn[nH]1)NCCCNC(=O)c1ccc(-c2c3nc(c(-c4ccc(S(=O)(=O)[O-])cc4)c4ccc([nH]4)c(-c4ccc(S(=O)(=O)[O-])cc4)c4nc(c(-c5ccc(S(=O)(=O)[O-])cc5)c5ccc2[nH]5)C=C4)C=C3)cc1
REMARK SMILES IDX 22 1 21 2 1 3 2 4 3 6 4 7 5 8 10 9 6 10 9 11 7 12 11 13 8 14
REMARK SMILES IDX 12 15 13 16 14 17 15 19 16 20 17 21 20 22 18 23 19 24 23 26
REMARK SMILES IDX 24 27 25 28 26 29 27 31 28 32 29 33 87 34 30 35 86 36 31 37
REMARK SMILES IDX 32 38 33 39 80 40 34 41 85 42 79 43 81 44 35 45 84 46 78 47
REMARK SMILES IDX 77 48 36 50 66 51 47 52 65 53 48 54 51 55 64 56 82 57 49 58
REMARK SMILES IDX 50 59 63 61 83 62 52 63 37 64 38 65 46 66 39 67 45 68 40 69
REMARK SMILES IDX 41 70 42 71 43 72 44 73 67 74 68 75 76 76 69 77 75 78 70 79
REMARK SMILES IDX 71 80 72 81 73 82 74 83 53 84 54 85 62 86 55 87 61 88 56 89
REMARK SMILES IDX 57 90 58 91 59 92 60 93
REMARK H PARENT 21 5 14 18 20 25 25 30 81 49 51 60
REMARK Flexibility Score: inf
ROOT
ATOM      1  C   UNL A   1      39.832  21.731  26.666  1.00  0.00     0.117 C 
ENDROOT
BRANCH   1   2
ATOM      2  N   UNL A   1      38.937  22.165  25.613  1.00  0.00    -0.356 N 
ATOM      3  O   UNL A   1      38.017  23.944  26.728  1.00  0.00    -0.275 OA
ATOM      4  C   UNL A   1      38.050  23.201  25.752  1.00  0.00     0.220 C 
ATOM      5  H   UNL A   1      38.967  21.690  24.750  1.00  0.00     0.163 HD
BRANCH   4   6
ATOM      6  C   UNL A   1      37.001  23.283  24.652  1.00  0.00     0.103 C 
BRANCH   6   7
ATOM      7  C   UNL A   1      35.903  22.196  24.660  1.00  0.00     0.002 C 
ATOM      8  C   UNL A   1      35.235  21.961  26.048  1.00  0.00     0.029 C 
ATOM      9  C   UNL A   1      34.814  22.495  23.585  1.00  0.00     0.029 C 
ATOM     10  C   UNL A   1      33.979  22.818  26.323  1.00  0.00     0.087 C 
ATOM     11  C   UNL A   1      33.637  23.345  24.108  1.00  0.00     0.087 C 
ATOM     12  C   UNL A   1      34.254  24.318  26.252  1.00  0.00     0.027 C 
ATOM     13  N   UNL A   1      33.050  22.623  25.221  1.00  0.00    -0.319 N 
ATOM     14  C   UNL A   1      34.084  24.660  24.765  1.00  0.00     0.027 C 
BRANCH  13  15
ATOM     15  C   UNL A   1      32.010  21.772  25.367  1.00  0.00     0.318 C 
ATOM     16  O   UNL A   1      32.017  20.661  24.827  1.00  0.00    -0.249 OA
ATOM     17  N   UNL A   1      30.921  22.032  26.095  1.00  0.00    -0.331 N 
ATOM     18  H   UNL A   1      30.283  21.283  26.054  1.00  0.00     0.165 HD
BRANCH  17  19
ATOM     19  C   UNL A   1      30.412  23.094  26.926  1.00  0.00     0.194 C 
BRANCH  19  20
ATOM     20  C   UNL A   1      30.412  24.368  26.159  1.00  0.00     0.143 A 
ATOM     21  N   UNL A   1      30.678  25.592  26.572  1.00  0.00    -0.218 NA
ATOM     22  N   UNL A   1      30.122  24.414  24.825  1.00  0.00    -0.262 N 
ATOM     23  C   UNL A   1      30.529  26.347  25.446  1.00  0.00     0.246 A 
ATOM     24  N   UNL A   1      30.189  25.667  24.349  1.00  0.00    -0.162 NA
ATOM     25  H   UNL A   1      29.892  23.627  24.279  1.00  0.00     0.192 HD
ENDBRANCH  19  20
ENDBRANCH  17  19
ENDBRANCH  13  15
ENDBRANCH   6   7
ENDBRANCH   4   6
ENDBRANCH   1   2
BRANCH   1  26
ATOM     26  C   UNL A   1      41.294  21.981  26.295  1.00  0.00     0.042 C 
BRANCH  26  27
ATOM     27  C   UNL A   1      41.891  23.283  26.831  1.00  0.00     0.118 C 
BRANCH  27  28
ATOM     28  N   UNL A   1      42.198  24.244  25.786  1.00  0.00    -0.352 N 
ATOM     29  C   UNL A   1      42.139  25.616  25.790  1.00  0.00     0.251 C 
ATOM     30  H   UNL A   1      42.497  23.847  24.935  1.00  0.00     0.163 HD
ATOM     31  O   UNL A   1      42.302  26.217  24.732  1.00  0.00    -0.269 OA
BRANCH  29  32
ATOM     32  C   UNL A   1      41.860  26.375  27.032  1.00  0.00     0.039 A 
ATOM     33  C   UNL A   1      42.683  27.464  27.338  1.00  0.00     0.014 A 
ATOM     34  C   UNL A   1      40.846  26.005  27.921  1.00  0.00     0.014 A 
ATOM     35  C   UNL A   1      42.458  28.208  28.500  1.00  0.00     0.010 A 
ATOM     36  C   UNL A   1      40.581  26.788  29.047  1.00  0.00     0.010 A 
ATOM     37  C   UNL A   1      41.385  27.896  29.351  1.00  0.00    -0.014 A 
BRANCH  37  38
ATOM     38  C   UNL A   1      41.102  28.739  30.545  1.00  0.00     0.031 A 
ATOM     39  C   UNL A   1      41.934  28.617  31.795  1.00  0.00     0.074 A 
ATOM     40  C   UNL A   1      40.069  29.606  30.512  1.00  0.00     0.049 A 
ATOM     41  N   UNL A   1      41.843  29.294  32.913  1.00  0.00    -0.248 NA
ATOM     42  C   UNL A   1      42.989  27.592  31.800  1.00  0.00     0.031 C 
ATOM     43  C   UNL A   1      39.152  29.787  29.384  1.00  0.00     0.029 A 
ATOM     44  N   UNL A   1      39.621  30.503  31.450  1.00  0.00    -0.354 N 
ATOM     45  C   UNL A   1      42.817  28.772  33.755  1.00  0.00     0.074 A 
ATOM     46  C   UNL A   1      43.456  27.691  33.037  1.00  0.00     0.031 C 
ATOM     47  C   UNL A   1      38.277  30.760  29.681  1.00  0.00     0.029 A 
ATOM     48  C   UNL A   1      38.548  31.252  31.028  1.00  0.00     0.049 A 
ATOM     49  H   UNL A   1      40.030  30.600  32.341  1.00  0.00     0.167 HD
ATOM     50  C   UNL A   1      43.165  29.167  35.005  1.00  0.00     0.031 A 
ATOM     51  C   UNL A   1      37.864  32.233  31.647  1.00  0.00     0.031 A 
ATOM     52  C   UNL A   1      42.539  30.250  35.718  1.00  0.00     0.049 A 
ATOM     53  C   UNL A   1      38.282  32.670  33.023  1.00  0.00     0.074 A 
ATOM     54  C   UNL A   1      42.858  30.758  36.966  1.00  0.00     0.029 A 
ATOM     55  N   UNL A   1      41.465  30.992  35.250  1.00  0.00    -0.354 N 
ATOM     56  N   UNL A   1      39.253  32.207  33.774  1.00  0.00    -0.248 NA
ATOM     57  C   UNL A   1      37.524  33.774  33.625  1.00  0.00     0.031 C 
ATOM     58  C   UNL A   1      41.951  31.780  37.271  1.00  0.00     0.029 A 
ATOM     59  C   UNL A   1      41.100  31.942  36.189  1.00  0.00     0.049 A 
ATOM     60  H   UNL A   1      41.027  30.863  34.378  1.00  0.00     0.167 HD
ATOM     61  C   UNL A   1      39.237  32.982  34.929  1.00  0.00     0.074 A 
ATOM     62  C   UNL A   1      38.174  33.953  34.767  1.00  0.00     0.031 C 
ATOM     63  C   UNL A   1      40.034  32.897  36.024  1.00  0.00     0.031 A 
BRANCH  50  64
ATOM     64  C   UNL A   1      44.282  28.417  35.684  1.00  0.00    -0.014 A 
ATOM     65  C   UNL A   1      45.619  28.833  35.554  1.00  0.00     0.010 A 
ATOM     66  C   UNL A   1      43.988  27.306  36.496  1.00  0.00     0.010 A 
ATOM     67  C   UNL A   1      46.646  28.126  36.186  1.00  0.00     0.020 A 
ATOM     68  C   UNL A   1      45.010  26.614  37.153  1.00  0.00     0.020 A 
ATOM     69  C   UNL A   1      46.335  27.018  36.978  1.00  0.00     0.054 A 
BRANCH  69  70
ATOM     70  S   UNL A   1      47.685  26.130  37.803  1.00  0.00     0.124 S 
ATOM     71  O   UNL A   1      47.121  24.789  37.943  1.00  0.00    -0.237 OA
ATOM     72  O   UNL A   1      48.782  26.252  36.846  1.00  0.00    -0.237 OA
ATOM     73  O   UNL A   1      47.869  26.861  39.053  1.00  0.00    -0.744 OA
ENDBRANCH  69  70
ENDBRANCH  50  64
BRANCH  51  74
ATOM     74  C   UNL A   1      36.728  32.896  30.952  1.00  0.00    -0.014 A 
ATOM     75  C   UNL A   1      35.402  32.613  31.322  1.00  0.00     0.010 A 
ATOM     76  C   UNL A   1      36.969  33.827  29.926  1.00  0.00     0.010 A 
ATOM     77  C   UNL A   1      34.335  33.234  30.665  1.00  0.00     0.020 A 
ATOM     78  C   UNL A   1      35.905  34.470  29.284  1.00  0.00     0.020 A 
ATOM     79  C   UNL A   1      34.594  34.159  29.650  1.00  0.00     0.054 A 
BRANCH  79  80
ATOM     80  S   UNL A   1      33.198  34.994  28.847  1.00  0.00     0.124 S 
ATOM     81  O   UNL A   1      32.352  35.333  29.985  1.00  0.00    -0.237 OA
ATOM     82  O   UNL A   1      33.845  36.121  28.179  1.00  0.00    -0.237 OA
ATOM     83  O   UNL A   1      32.664  33.973  27.948  1.00  0.00    -0.744 OA
ENDBRANCH  79  80
ENDBRANCH  51  74
BRANCH  63  84
ATOM     84  C   UNL A   1      39.800  33.903  37.120  1.00  0.00    -0.014 A 
ATOM     85  C   UNL A   1      40.217  35.239  36.986  1.00  0.00     0.010 A 
ATOM     86  C   UNL A   1      39.139  33.506  38.297  1.00  0.00     0.010 A 
ATOM     87  C   UNL A   1      40.022  36.148  38.030  1.00  0.00     0.020 A 
ATOM     88  C   UNL A   1      38.918  34.419  39.331  1.00  0.00     0.020 A 
ATOM     89  C   UNL A   1      39.381  35.729  39.199  1.00  0.00     0.054 A 
BRANCH  89  90
ATOM     90  S   UNL A   1      39.132  36.927  40.538  1.00  0.00     0.124 S 
ATOM     91  O   UNL A   1      40.474  37.032  41.106  1.00  0.00    -0.237 OA
ATOM     92  O   UNL A   1      38.655  38.112  39.829  1.00  0.00    -0.237 OA
ATOM     93  O   UNL A   1      38.140  36.284  41.398  1.00  0.00    -0.744 OA
ENDBRANCH  89  90
ENDBRANCH  63  84
ENDBRANCH  37  38
ENDBRANCH  29  32
ENDBRANCH  27  28
ENDBRANCH  26  27
ENDBRANCH   1  26
TORSDOF 17
ENDMDL
