MODEL 1
REMARK VINA RESULT:     -14.1      0.000      0.000
REMARK SMILES COC(=O)c1ccc([C@H]2CC(=O)Nc3c(C(=O)NCCCNC(=O)c4ccc(-c5c6nc(c(-c7ccc(S(=O)(=O)[O-])cc7)c7ccc([nH]7)c(-c7ccc(S(=O)(=O)[O-])cc7)c7nc(c(-c8ccc(S(=O)(=O)[O-])cc8)c8ccc5[nH]8)C=C7)C=C6)cc4)cn(-c4ccccc4)c32)cc1
REMARK SMILES IDX 20 1 19 2 18 3 16 4 17 5 15 7 9 8 10 9 93 10 11 11 14 12
REMARK SMILES IDX 86 13 12 14 13 15 85 16 8 18 5 19 6 20 95 21 7 22 94 23 3 24
REMARK SMILES IDX 4 25 2 26 1 27 87 28 88 29 92 30 89 31 91 32 90 33 21 34
REMARK SMILES IDX 22 35 23 36 24 38 25 39 26 40 84 41 27 42 83 43 28 44 29 45
REMARK SMILES IDX 30 46 77 47 31 48 82 49 76 50 78 51 32 52 81 53 75 54 74 55
REMARK SMILES IDX 33 57 63 58 44 59 62 60 45 61 48 62 61 63 79 64 46 65 47 66
REMARK SMILES IDX 60 68 80 69 49 70 34 71 35 72 43 73 36 74 42 75 37 76 38 77
REMARK SMILES IDX 39 78 40 79 41 80 64 81 65 82 73 83 66 84 72 85 67 86 68 87
REMARK SMILES IDX 69 88 70 89 71 90 50 91 51 92 59 93 52 94 58 95 53 96 54 97
REMARK SMILES IDX 55 98 56 99 57 100
REMARK H PARENT 18 6 13 17 22 37 78 56 48 67
REMARK Flexibility Score: inf
ROOT
ATOM      1  C   UNL A   1      36.580  21.880  24.276  1.00  0.00     0.042 C 
ENDROOT
BRANCH   1   2
ATOM      2  C   UNL A   1      35.592  21.107  25.165  1.00  0.00     0.118 C 
BRANCH   2   3
ATOM      3  N   UNL A   1      34.414  20.657  24.456  1.00  0.00    -0.352 N 
ATOM      4  C   UNL A   1      33.245  21.238  24.045  1.00  0.00     0.254 C 
ATOM      5  O   UNL A   1      32.540  20.512  23.336  1.00  0.00    -0.269 OA
ATOM      6  H   UNL A   1      34.467  19.706  24.209  1.00  0.00     0.163 HD
BRANCH   4   7
ATOM      7  C   UNL A   1      32.781  22.593  24.390  1.00  0.00     0.081 A 
ATOM      8  C   UNL A   1      30.873  25.496  25.803  1.00  0.00     0.078 C 
ATOM      9  C   UNL A   1      29.688  24.667  26.349  1.00  0.00     0.115 C 
ATOM     10  C   UNL A   1      31.809  24.566  25.065  1.00  0.00     0.055 A 
ATOM     11  C   UNL A   1      30.107  23.361  26.947  1.00  0.00     0.225 C 
ATOM     12  C   UNL A   1      31.865  23.199  25.294  1.00  0.00     0.076 A 
ATOM     13  N   UNL A   1      32.834  24.871  24.195  1.00  0.00    -0.317 N 
ATOM     14  O   UNL A   1      29.510  22.849  27.892  1.00  0.00    -0.275 OA
ATOM     15  N   UNL A   1      31.111  22.692  26.319  1.00  0.00    -0.324 N 
ATOM     16  C   UNL A   1      33.307  23.681  23.691  1.00  0.00     0.107 A 
ATOM     17  H   UNL A   1      31.311  21.776  26.623  1.00  0.00     0.170 HD
BRANCH   8  18
ATOM     18  C   UNL A   1      30.210  26.668  25.079  1.00  0.00    -0.038 A 
ATOM     19  C   UNL A   1      29.087  28.551  23.296  1.00  0.00     0.060 A 
ATOM     20  C   UNL A   1      28.517  27.285  23.427  1.00  0.00     0.016 A 
ATOM     21  C   UNL A   1      30.186  28.895  24.092  1.00  0.00     0.016 A 
ATOM     22  C   UNL A   1      29.054  26.368  24.326  1.00  0.00     0.005 A 
ATOM     23  C   UNL A   1      30.758  27.951  24.960  1.00  0.00     0.005 A 
BRANCH  19  24
ATOM     24  C   UNL A   1      28.495  29.459  22.280  1.00  0.00     0.337 C 
ATOM     25  O   UNL A   1      29.029  29.702  21.208  1.00  0.00    -0.246 OA
BRANCH  24  26
ATOM     26  O   UNL A   1      27.334  29.996  22.725  1.00  0.00    -0.465 OA
ATOM     27  C   UNL A   1      27.510  31.229  23.424  1.00  0.00     0.282 C 
ENDBRANCH  24  26
ENDBRANCH  19  24
ENDBRANCH   8  18
BRANCH  13  28
ATOM     28  C   UNL A   1      33.363  26.142  23.870  1.00  0.00     0.045 A 
ATOM     29  C   UNL A   1      33.935  26.937  24.869  1.00  0.00     0.026 A 
ATOM     30  C   UNL A   1      33.307  26.598  22.549  1.00  0.00     0.026 A 
ATOM     31  C   UNL A   1      34.405  28.211  24.553  1.00  0.00     0.002 A 
ATOM     32  C   UNL A   1      33.749  27.887  22.247  1.00  0.00     0.002 A 
ATOM     33  C   UNL A   1      34.291  28.694  23.249  1.00  0.00     0.000 A 
ENDBRANCH  13  28
ENDBRANCH   4   7
ENDBRANCH   2   3
ENDBRANCH   1   2
BRANCH   1  34
ATOM     34  C   UNL A   1      37.624  22.639  25.073  1.00  0.00     0.118 C 
BRANCH  34  35
ATOM     35  N   UNL A   1      38.334  21.752  26.008  1.00  0.00    -0.352 N 
ATOM     36  C   UNL A   1      39.453  22.007  26.788  1.00  0.00     0.251 C 
ATOM     37  H   UNL A   1      37.962  20.845  26.092  1.00  0.00     0.163 HD
ATOM     38  O   UNL A   1      40.133  21.099  27.227  1.00  0.00    -0.269 OA
BRANCH  36  39
ATOM     39  C   UNL A   1      39.787  23.411  27.073  1.00  0.00     0.039 A 
ATOM     40  C   UNL A   1      38.814  24.412  27.155  1.00  0.00     0.014 A 
ATOM     41  C   UNL A   1      41.118  23.681  27.353  1.00  0.00     0.014 A 
ATOM     42  C   UNL A   1      39.195  25.672  27.616  1.00  0.00     0.010 A 
ATOM     43  C   UNL A   1      41.427  24.816  28.039  1.00  0.00     0.010 A 
ATOM     44  C   UNL A   1      40.505  25.853  28.076  1.00  0.00    -0.014 A 
BRANCH  44  45
ATOM     45  C   UNL A   1      40.961  27.081  28.710  1.00  0.00     0.031 A 
ATOM     46  C   UNL A   1      42.120  27.714  28.034  1.00  0.00     0.074 A 
ATOM     47  C   UNL A   1      40.194  27.731  29.614  1.00  0.00     0.049 A 
ATOM     48  N   UNL A   1      43.351  27.723  28.424  1.00  0.00    -0.248 NA
ATOM     49  C   UNL A   1      41.929  28.229  26.666  1.00  0.00     0.031 C 
ATOM     50  C   UNL A   1      38.845  27.374  30.082  1.00  0.00     0.029 A 
ATOM     51  N   UNL A   1      40.391  28.939  30.199  1.00  0.00    -0.354 N 
ATOM     52  C   UNL A   1      44.025  28.506  27.492  1.00  0.00     0.074 A 
ATOM     53  C   UNL A   1      43.182  28.536  26.325  1.00  0.00     0.031 C 
ATOM     54  C   UNL A   1      38.261  28.451  30.653  1.00  0.00     0.029 A 
ATOM     55  C   UNL A   1      39.250  29.504  30.764  1.00  0.00     0.049 A 
ATOM     56  H   UNL A   1      41.270  29.381  30.223  1.00  0.00     0.167 HD
ATOM     57  C   UNL A   1      45.030  29.345  27.873  1.00  0.00     0.031 A 
ATOM     58  C   UNL A   1      39.123  30.762  31.257  1.00  0.00     0.031 A 
ATOM     59  C   UNL A   1      45.427  29.094  29.241  1.00  0.00     0.049 A 
ATOM     60  C   UNL A   1      40.498  31.251  31.525  1.00  0.00     0.074 A 
ATOM     61  C   UNL A   1      45.885  28.000  29.946  1.00  0.00     0.029 A 
ATOM     62  N   UNL A   1      44.961  29.986  30.180  1.00  0.00    -0.354 N 
ATOM     63  N   UNL A   1      41.284  30.721  32.420  1.00  0.00    -0.248 NA
ATOM     64  C   UNL A   1      41.168  32.013  30.483  1.00  0.00     0.031 C 
ATOM     65  C   UNL A   1      45.257  28.094  31.224  1.00  0.00     0.029 A 
ATOM     66  C   UNL A   1      44.518  29.279  31.265  1.00  0.00     0.049 A 
ATOM     67  H   UNL A   1      44.949  30.967  30.088  1.00  0.00     0.167 HD
ATOM     68  C   UNL A   1      42.536  30.692  31.820  1.00  0.00     0.074 A 
ATOM     69  C   UNL A   1      42.424  31.602  30.679  1.00  0.00     0.031 C 
ATOM     70  C   UNL A   1      43.441  29.716  32.129  1.00  0.00     0.031 A 
BRANCH  57  71
ATOM     71  C   UNL A   1      45.310  30.686  27.219  1.00  0.00    -0.014 A 
ATOM     72  C   UNL A   1      46.656  31.077  27.060  1.00  0.00     0.010 A 
ATOM     73  C   UNL A   1      44.334  31.685  27.034  1.00  0.00     0.010 A 
ATOM     74  C   UNL A   1      47.006  32.417  26.849  1.00  0.00     0.020 A 
ATOM     75  C   UNL A   1      44.669  33.016  26.777  1.00  0.00     0.020 A 
ATOM     76  C   UNL A   1      46.007  33.380  26.731  1.00  0.00     0.054 A 
BRANCH  76  77
ATOM     77  S   UNL A   1      46.466  35.122  26.586  1.00  0.00     0.124 S 
ATOM     78  O   UNL A   1      47.389  35.279  27.706  1.00  0.00    -0.237 OA
ATOM     79  O   UNL A   1      47.064  35.173  25.256  1.00  0.00    -0.237 OA
ATOM     80  O   UNL A   1      45.191  35.822  26.719  1.00  0.00    -0.744 OA
ENDBRANCH  76  77
ENDBRANCH  57  71
BRANCH  58  81
ATOM     81  C   UNL A   1      37.940  31.659  31.239  1.00  0.00    -0.014 A 
ATOM     82  C   UNL A   1      36.637  31.136  31.121  1.00  0.00     0.010 A 
ATOM     83  C   UNL A   1      38.067  33.008  31.634  1.00  0.00     0.010 A 
ATOM     84  C   UNL A   1      35.511  31.909  31.455  1.00  0.00     0.020 A 
ATOM     85  C   UNL A   1      36.948  33.786  31.962  1.00  0.00     0.020 A 
ATOM     86  C   UNL A   1      35.675  33.224  31.898  1.00  0.00     0.054 A 
BRANCH  86  87
ATOM     87  S   UNL A   1      34.235  34.151  32.513  1.00  0.00     0.124 S 
ATOM     88  O   UNL A   1      33.576  33.170  33.371  1.00  0.00    -0.237 OA
ATOM     89  O   UNL A   1      34.853  35.279  33.203  1.00  0.00    -0.237 OA
ATOM     90  O   UNL A   1      33.504  34.499  31.296  1.00  0.00    -0.744 OA
ENDBRANCH  86  87
ENDBRANCH  58  81
BRANCH  70  91
ATOM     91  C   UNL A   1      43.200  28.877  33.364  1.00  0.00    -0.014 A 
ATOM     92  C   UNL A   1      43.565  29.263  34.670  1.00  0.00     0.010 A 
ATOM     93  C   UNL A   1      42.433  27.712  33.199  1.00  0.00     0.010 A 
ATOM     94  C   UNL A   1      43.190  28.483  35.777  1.00  0.00     0.020 A 
ATOM     95  C   UNL A   1      42.041  26.942  34.296  1.00  0.00     0.020 A 
ATOM     96  C   UNL A   1      42.430  27.325  35.580  1.00  0.00     0.054 A 
BRANCH  96  97
ATOM     97  S   UNL A   1      41.914  26.336  37.011  1.00  0.00     0.124 S 
ATOM     98  O   UNL A   1      43.016  26.536  37.949  1.00  0.00    -0.237 OA
ATOM     99  O   UNL A   1      40.644  26.949  37.391  1.00  0.00    -0.237 OA
ATOM    100  O   UNL A   1      41.800  24.980  36.474  1.00  0.00    -0.744 OA
ENDBRANCH  96  97
ENDBRANCH  70  91
ENDBRANCH  44  45
ENDBRANCH  36  39
ENDBRANCH  34  35
ENDBRANCH   1  34
TORSDOF 17
ENDMDL
MODEL 2
REMARK VINA RESULT:     -13.6      2.502      6.852
REMARK SMILES COC(=O)c1ccc([C@H]2CC(=O)Nc3c(C(=O)NCCCNC(=O)c4ccc(-c5c6nc(c(-c7ccc(S(=O)(=O)[O-])cc7)c7ccc([nH]7)c(-c7ccc(S(=O)(=O)[O-])cc7)c7nc(c(-c8ccc(S(=O)(=O)[O-])cc8)c8ccc5[nH]8)C=C7)C=C6)cc4)cn(-c4ccccc4)c32)cc1
REMARK SMILES IDX 20 1 19 2 18 3 16 4 17 5 15 7 9 8 10 9 93 10 11 11 14 12
REMARK SMILES IDX 86 13 12 14 13 15 85 16 8 18 5 19 6 20 95 21 7 22 94 23 3 24
REMARK SMILES IDX 4 25 2 26 1 27 87 28 88 29 92 30 89 31 91 32 90 33 21 34
REMARK SMILES IDX 22 35 23 36 24 38 25 39 26 40 84 41 27 42 83 43 28 44 29 45
REMARK SMILES IDX 30 46 77 47 31 48 82 49 76 50 78 51 32 52 81 53 75 54 74 55
REMARK SMILES IDX 33 57 63 58 44 59 62 60 45 61 48 62 61 63 79 64 46 65 47 66
REMARK SMILES IDX 60 68 80 69 49 70 34 71 35 72 43 73 36 74 42 75 37 76 38 77
REMARK SMILES IDX 39 78 40 79 41 80 64 81 65 82 73 83 66 84 72 85 67 86 68 87
REMARK SMILES IDX 69 88 70 89 71 90 50 91 51 92 59 93 52 94 58 95 53 96 54 97
REMARK SMILES IDX 55 98 56 99 57 100
REMARK H PARENT 18 6 13 17 22 37 78 56 48 67
REMARK Flexibility Score: inf
ROOT
ATOM      1  C   UNL A   1      37.092  20.862  25.712  1.00  0.00     0.042 C 
ENDROOT
BRANCH   1   2
ATOM      2  C   UNL A   1      36.072  21.602  24.833  1.00  0.00     0.118 C 
BRANCH   2   3
ATOM      3  N   UNL A   1      34.852  20.856  24.618  1.00  0.00    -0.352 N 
ATOM      4  C   UNL A   1      33.534  21.176  24.432  1.00  0.00     0.254 C 
ATOM      5  O   UNL A   1      32.814  20.213  24.149  1.00  0.00    -0.269 OA
ATOM      6  H   UNL A   1      35.006  19.884  24.602  1.00  0.00     0.163 HD
BRANCH   4   7
ATOM      7  C   UNL A   1      32.942  22.518  24.561  1.00  0.00     0.081 A 
ATOM      8  C   UNL A   1      30.727  25.406  25.465  1.00  0.00     0.078 C 
ATOM      9  C   UNL A   1      29.589  24.559  26.078  1.00  0.00     0.115 C 
ATOM     10  C   UNL A   1      31.774  24.471  24.907  1.00  0.00     0.055 A 
ATOM     11  C   UNL A   1      30.085  23.392  26.874  1.00  0.00     0.225 C 
ATOM     12  C   UNL A   1      31.932  23.160  25.331  1.00  0.00     0.076 A 
ATOM     13  N   UNL A   1      32.814  24.742  24.043  1.00  0.00    -0.317 N 
ATOM     14  O   UNL A   1      29.484  22.965  27.858  1.00  0.00    -0.275 OA
ATOM     15  N   UNL A   1      31.172  22.735  26.388  1.00  0.00    -0.324 N 
ATOM     16  C   UNL A   1      33.410  23.541  23.733  1.00  0.00     0.107 A 
ATOM     17  H   UNL A   1      31.432  21.892  26.828  1.00  0.00     0.170 HD
BRANCH   8  18
ATOM     18  C   UNL A   1      30.007  26.401  24.556  1.00  0.00    -0.038 A 
ATOM     19  C   UNL A   1      28.654  28.550  23.315  1.00  0.00     0.060 A 
ATOM     20  C   UNL A   1      29.948  28.726  23.803  1.00  0.00     0.016 A 
ATOM     21  C   UNL A   1      28.054  27.288  23.400  1.00  0.00     0.016 A 
ATOM     22  C   UNL A   1      30.624  27.659  24.389  1.00  0.00     0.005 A 
ATOM     23  C   UNL A   1      28.717  26.228  24.038  1.00  0.00     0.005 A 
BRANCH  19  24
ATOM     24  C   UNL A   1      27.973  29.744  22.751  1.00  0.00     0.337 C 
ATOM     25  O   UNL A   1      27.246  30.473  23.410  1.00  0.00    -0.246 OA
BRANCH  24  26
ATOM     26  O   UNL A   1      28.235  29.874  21.428  1.00  0.00    -0.465 OA
ATOM     27  C   UNL A   1      28.306  31.234  20.995  1.00  0.00     0.282 C 
ENDBRANCH  24  26
ENDBRANCH  19  24
ENDBRANCH   8  18
BRANCH  13  28
ATOM     28  C   UNL A   1      33.252  25.998  23.559  1.00  0.00     0.045 A 
ATOM     29  C   UNL A   1      33.793  26.937  24.444  1.00  0.00     0.026 A 
ATOM     30  C   UNL A   1      33.135  26.295  22.197  1.00  0.00     0.026 A 
ATOM     31  C   UNL A   1      34.172  28.192  23.971  1.00  0.00     0.002 A 
ATOM     32  C   UNL A   1      33.484  27.565  21.739  1.00  0.00     0.002 A 
ATOM     33  C   UNL A   1      33.995  28.514  22.625  1.00  0.00     0.000 A 
ENDBRANCH  13  28
ENDBRANCH   4   7
ENDBRANCH   2   3
ENDBRANCH   1   2
BRANCH   1  34
ATOM     34  C   UNL A   1      38.517  21.000  25.208  1.00  0.00     0.118 C 
BRANCH  34  35
ATOM     35  N   UNL A   1      39.308  19.793  25.501  1.00  0.00    -0.352 N 
ATOM     36  C   UNL A   1      40.637  19.681  25.884  1.00  0.00     0.251 C 
ATOM     37  H   UNL A   1      38.823  18.941  25.413  1.00  0.00     0.163 HD
ATOM     38  O   UNL A   1      41.244  18.637  25.742  1.00  0.00    -0.269 OA
BRANCH  36  39
ATOM     39  C   UNL A   1      41.285  20.865  26.470  1.00  0.00     0.039 A 
ATOM     40  C   UNL A   1      42.064  21.745  25.713  1.00  0.00     0.014 A 
ATOM     41  C   UNL A   1      41.006  21.120  27.804  1.00  0.00     0.014 A 
ATOM     42  C   UNL A   1      42.480  22.938  26.303  1.00  0.00     0.010 A 
ATOM     43  C   UNL A   1      41.189  22.382  28.282  1.00  0.00     0.010 A 
ATOM     44  C   UNL A   1      42.015  23.253  27.586  1.00  0.00    -0.014 A 
BRANCH  44  45
ATOM     45  C   UNL A   1      42.269  24.533  28.230  1.00  0.00     0.031 A 
ATOM     46  C   UNL A   1      41.203  25.542  28.010  1.00  0.00     0.074 A 
ATOM     47  C   UNL A   1      43.213  24.661  29.190  1.00  0.00     0.049 A 
ATOM     48  N   UNL A   1      41.240  26.569  27.228  1.00  0.00    -0.248 NA
ATOM     49  C   UNL A   1      39.868  25.273  28.573  1.00  0.00     0.031 C 
ATOM     50  C   UNL A   1      44.083  23.613  29.751  1.00  0.00     0.029 A 
ATOM     51  N   UNL A   1      43.495  25.724  29.984  1.00  0.00    -0.354 N 
ATOM     52  C   UNL A   1      40.036  27.232  27.439  1.00  0.00     0.074 A 
ATOM     53  C   UNL A   1      39.153  26.261  28.030  1.00  0.00     0.031 C 
ATOM     54  C   UNL A   1      44.586  24.024  30.936  1.00  0.00     0.029 A 
ATOM     55  C   UNL A   1      44.234  25.417  31.125  1.00  0.00     0.049 A 
ATOM     56  H   UNL A   1      43.201  26.639  29.771  1.00  0.00     0.167 HD
ATOM     57  C   UNL A   1      39.974  28.595  27.444  1.00  0.00     0.031 A 
ATOM     58  C   UNL A   1      44.507  26.246  32.165  1.00  0.00     0.031 A 
ATOM     59  C   UNL A   1      41.207  29.173  26.956  1.00  0.00     0.049 A 
ATOM     60  C   UNL A   1      44.302  27.629  31.668  1.00  0.00     0.074 A 
ATOM     61  C   UNL A   1      41.948  29.071  25.797  1.00  0.00     0.029 A 
ATOM     62  N   UNL A   1      42.059  29.677  27.913  1.00  0.00    -0.354 N 
ATOM     63  N   UNL A   1      45.034  28.168  30.733  1.00  0.00    -0.248 NA
ATOM     64  C   UNL A   1      42.998  28.240  31.868  1.00  0.00     0.031 C 
ATOM     65  C   UNL A   1      43.309  29.083  26.227  1.00  0.00     0.029 A 
ATOM     66  C   UNL A   1      43.332  29.276  27.610  1.00  0.00     0.049 A 
ATOM     67  H   UNL A   1      41.798  30.232  28.683  1.00  0.00     0.167 HD
ATOM     68  C   UNL A   1      44.135  28.868  29.940  1.00  0.00     0.074 A 
ATOM     69  C   UNL A   1      42.921  28.970  30.751  1.00  0.00     0.031 C 
ATOM     70  C   UNL A   1      44.361  29.036  28.602  1.00  0.00     0.031 A 
BRANCH  57  71
ATOM     71  C   UNL A   1      39.038  29.399  28.327  1.00  0.00    -0.014 A 
ATOM     72  C   UNL A   1      37.756  29.707  27.826  1.00  0.00     0.010 A 
ATOM     73  C   UNL A   1      39.456  30.105  29.472  1.00  0.00     0.010 A 
ATOM     74  C   UNL A   1      36.991  30.748  28.367  1.00  0.00     0.020 A 
ATOM     75  C   UNL A   1      38.682  31.113  30.050  1.00  0.00     0.020 A 
ATOM     76  C   UNL A   1      37.473  31.458  29.465  1.00  0.00     0.054 A 
BRANCH  76  77
ATOM     77  S   UNL A   1      36.542  32.880  30.080  1.00  0.00     0.124 S 
ATOM     78  O   UNL A   1      36.916  32.891  31.490  1.00  0.00    -0.237 OA
ATOM     79  O   UNL A   1      37.078  33.971  29.271  1.00  0.00    -0.237 OA
ATOM     80  O   UNL A   1      35.154  32.525  29.799  1.00  0.00    -0.744 OA
ENDBRANCH  76  77
ENDBRANCH  57  71
BRANCH  58  81
ATOM     81  C   UNL A   1      44.645  25.921  33.607  1.00  0.00    -0.014 A 
ATOM     82  C   UNL A   1      45.905  25.944  34.237  1.00  0.00     0.010 A 
ATOM     83  C   UNL A   1      43.504  25.876  34.436  1.00  0.00     0.010 A 
ATOM     84  C   UNL A   1      46.017  25.994  35.638  1.00  0.00     0.020 A 
ATOM     85  C   UNL A   1      43.608  25.920  35.833  1.00  0.00     0.020 A 
ATOM     86  C   UNL A   1      44.865  26.007  36.428  1.00  0.00     0.054 A 
BRANCH  86  87
ATOM     87  S   UNL A   1      45.010  26.269  38.223  1.00  0.00     0.124 S 
ATOM     88  O   UNL A   1      43.627  26.529  38.612  1.00  0.00    -0.237 OA
ATOM     89  O   UNL A   1      45.569  25.003  38.686  1.00  0.00    -0.237 OA
ATOM     90  O   UNL A   1      45.910  27.416  38.332  1.00  0.00    -0.744 OA
ENDBRANCH  86  87
ENDBRANCH  58  81
BRANCH  70  91
ATOM     91  C   UNL A   1      45.745  28.751  28.066  1.00  0.00    -0.014 A 
ATOM     92  C   UNL A   1      46.247  27.460  27.805  1.00  0.00     0.010 A 
ATOM     93  C   UNL A   1      46.512  29.860  27.670  1.00  0.00     0.010 A 
ATOM     94  C   UNL A   1      47.497  27.289  27.188  1.00  0.00     0.020 A 
ATOM     95  C   UNL A   1      47.747  29.698  27.039  1.00  0.00     0.020 A 
ATOM     96  C   UNL A   1      48.240  28.414  26.810  1.00  0.00     0.054 A 
BRANCH  96  97
ATOM     97  S   UNL A   1      49.839  28.195  25.980  1.00  0.00     0.124 S 
ATOM     98  O   UNL A   1      50.422  27.070  26.705  1.00  0.00    -0.237 OA
ATOM     99  O   UNL A   1      49.453  27.921  24.597  1.00  0.00    -0.237 OA
ATOM    100  O   UNL A   1      50.514  29.477  26.182  1.00  0.00    -0.744 OA
ENDBRANCH  96  97
ENDBRANCH  70  91
ENDBRANCH  44  45
ENDBRANCH  36  39
ENDBRANCH  34  35
ENDBRANCH   1  34
TORSDOF 17
ENDMDL
MODEL 3
REMARK VINA RESULT:     -12.1      1.836      2.389
REMARK SMILES COC(=O)c1ccc([C@H]2CC(=O)Nc3c(C(=O)NCCCNC(=O)c4ccc(-c5c6nc(c(-c7ccc(S(=O)(=O)[O-])cc7)c7ccc([nH]7)c(-c7ccc(S(=O)(=O)[O-])cc7)c7nc(c(-c8ccc(S(=O)(=O)[O-])cc8)c8ccc5[nH]8)C=C7)C=C6)cc4)cn(-c4ccccc4)c32)cc1
REMARK SMILES IDX 20 1 19 2 18 3 16 4 17 5 15 7 9 8 10 9 93 10 11 11 14 12
REMARK SMILES IDX 86 13 12 14 13 15 85 16 8 18 5 19 6 20 95 21 7 22 94 23 3 24
REMARK SMILES IDX 4 25 2 26 1 27 87 28 88 29 92 30 89 31 91 32 90 33 21 34
REMARK SMILES IDX 22 35 23 36 24 38 25 39 26 40 84 41 27 42 83 43 28 44 29 45
REMARK SMILES IDX 30 46 77 47 31 48 82 49 76 50 78 51 32 52 81 53 75 54 74 55
REMARK SMILES IDX 33 57 63 58 44 59 62 60 45 61 48 62 61 63 79 64 46 65 47 66
REMARK SMILES IDX 60 68 80 69 49 70 34 71 35 72 43 73 36 74 42 75 37 76 38 77
REMARK SMILES IDX 39 78 40 79 41 80 64 81 65 82 73 83 66 84 72 85 67 86 68 87
REMARK SMILES IDX 69 88 70 89 71 90 50 91 51 92 59 93 52 94 58 95 53 96 54 97
REMARK SMILES IDX 55 98 56 99 57 100
REMARK H PARENT 18 6 13 17 22 37 78 56 48 67
REMARK Flexibility Score: inf
ROOT
ATOM      1  C   UNL A   1      36.796  21.917  24.661  1.00  0.00     0.042 C 
ENDROOT
BRANCH   1   2
ATOM      2  C   UNL A   1      35.816  21.044  25.459  1.00  0.00     0.118 C 
BRANCH   2   3
ATOM      3  N   UNL A   1      34.697  20.573  24.673  1.00  0.00    -0.352 N 
ATOM      4  C   UNL A   1      33.541  21.129  24.195  1.00  0.00     0.254 C 
ATOM      5  O   UNL A   1      32.901  20.394  23.436  1.00  0.00    -0.269 OA
ATOM      6  H   UNL A   1      34.788  19.626  24.421  1.00  0.00     0.163 HD
BRANCH   4   7
ATOM      7  C   UNL A   1      33.022  22.468  24.523  1.00  0.00     0.081 A 
ATOM      8  C   UNL A   1      30.996  25.308  25.898  1.00  0.00     0.078 C 
ATOM      9  C   UNL A   1      29.846  24.439  26.455  1.00  0.00     0.115 C 
ATOM     10  C   UNL A   1      31.970  24.408  25.173  1.00  0.00     0.055 A 
ATOM     11  C   UNL A   1      30.317  23.159  27.069  1.00  0.00     0.225 C 
ATOM     12  C   UNL A   1      32.081  23.048  25.419  1.00  0.00     0.076 A 
ATOM     13  N   UNL A   1      32.982  24.744  24.299  1.00  0.00    -0.317 N 
ATOM     14  O   UNL A   1      29.740  22.634  28.020  1.00  0.00    -0.275 OA
ATOM     15  N   UNL A   1      31.348  22.523  26.450  1.00  0.00    -0.324 N 
ATOM     16  C   UNL A   1      33.504  23.568  23.810  1.00  0.00     0.107 A 
ATOM     17  H   UNL A   1      31.585  21.620  26.765  1.00  0.00     0.170 HD
BRANCH   8  18
ATOM     18  C   UNL A   1      30.286  26.443  25.160  1.00  0.00    -0.038 A 
ATOM     19  C   UNL A   1      29.040  28.231  23.361  1.00  0.00     0.060 A 
ATOM     20  C   UNL A   1      28.475  26.981  23.609  1.00  0.00     0.016 A 
ATOM     21  C   UNL A   1      30.200  28.609  24.048  1.00  0.00     0.016 A 
ATOM     22  C   UNL A   1      29.075  26.113  24.517  1.00  0.00     0.005 A 
ATOM     23  C   UNL A   1      30.831  27.712  24.924  1.00  0.00     0.005 A 
BRANCH  19  24
ATOM     24  C   UNL A   1      28.378  29.085  22.341  1.00  0.00     0.337 C 
ATOM     25  O   UNL A   1      27.165  29.172  22.227  1.00  0.00    -0.246 OA
BRANCH  24  26
ATOM     26  O   UNL A   1      29.293  29.699  21.552  1.00  0.00    -0.465 OA
ATOM     27  C   UNL A   1      28.875  30.986  21.095  1.00  0.00     0.282 C 
ENDBRANCH  24  26
ENDBRANCH  19  24
ENDBRANCH   8  18
BRANCH  13  28
ATOM     28  C   UNL A   1      33.460  26.031  23.958  1.00  0.00     0.045 A 
ATOM     29  C   UNL A   1      34.009  26.857  24.945  1.00  0.00     0.026 A 
ATOM     30  C   UNL A   1      33.374  26.473  22.634  1.00  0.00     0.026 A 
ATOM     31  C   UNL A   1      34.428  28.144  24.614  1.00  0.00     0.002 A 
ATOM     32  C   UNL A   1      33.763  27.775  22.318  1.00  0.00     0.002 A 
ATOM     33  C   UNL A   1      34.283  28.611  23.307  1.00  0.00     0.000 A 
ENDBRANCH  13  28
ENDBRANCH   4   7
ENDBRANCH   2   3
ENDBRANCH   1   2
BRANCH   1  34
ATOM     34  C   UNL A   1      38.112  22.141  25.382  1.00  0.00     0.118 C 
BRANCH  34  35
ATOM     35  N   UNL A   1      38.768  20.865  25.709  1.00  0.00    -0.352 N 
ATOM     36  C   UNL A   1      40.085  20.617  26.070  1.00  0.00     0.251 C 
ATOM     37  H   UNL A   1      38.189  20.071  25.665  1.00  0.00     0.163 HD
ATOM     38  O   UNL A   1      40.567  19.506  25.960  1.00  0.00    -0.269 OA
BRANCH  36  39
ATOM     39  C   UNL A   1      40.877  21.741  26.595  1.00  0.00     0.039 A 
ATOM     40  C   UNL A   1      41.695  22.528  25.779  1.00  0.00     0.014 A 
ATOM     41  C   UNL A   1      40.697  22.045  27.936  1.00  0.00     0.014 A 
ATOM     42  C   UNL A   1      42.256  23.684  26.320  1.00  0.00     0.010 A 
ATOM     43  C   UNL A   1      41.027  23.290  28.376  1.00  0.00     0.010 A 
ATOM     44  C   UNL A   1      41.895  24.064  27.619  1.00  0.00    -0.014 A 
BRANCH  44  45
ATOM     45  C   UNL A   1      42.307  25.323  28.221  1.00  0.00     0.031 A 
ATOM     46  C   UNL A   1      43.672  25.758  27.834  1.00  0.00     0.074 A 
ATOM     47  C   UNL A   1      41.410  26.153  28.800  1.00  0.00     0.049 A 
ATOM     48  N   UNL A   1      44.746  25.714  28.550  1.00  0.00    -0.248 NA
ATOM     49  C   UNL A   1      43.917  26.098  26.420  1.00  0.00     0.031 C 
ATOM     50  C   UNL A   1      39.952  25.978  28.905  1.00  0.00     0.029 A 
ATOM     51  N   UNL A   1      41.586  27.407  29.285  1.00  0.00    -0.354 N 
ATOM     52  C   UNL A   1      45.732  26.305  27.767  1.00  0.00     0.074 A 
ATOM     53  C   UNL A   1      45.243  26.249  26.414  1.00  0.00     0.031 C 
ATOM     54  C   UNL A   1      39.369  27.168  29.173  1.00  0.00     0.029 A 
ATOM     55  C   UNL A   1      40.410  28.138  29.444  1.00  0.00     0.049 A 
ATOM     56  H   UNL A   1      42.472  27.772  29.507  1.00  0.00     0.167 HD
ATOM     57  C   UNL A   1      46.691  27.099  28.323  1.00  0.00     0.031 A 
ATOM     58  C   UNL A   1      40.307  29.457  29.746  1.00  0.00     0.031 A 
ATOM     59  C   UNL A   1      46.675  27.001  29.766  1.00  0.00     0.049 A 
ATOM     60  C   UNL A   1      41.608  29.859  30.335  1.00  0.00     0.074 A 
ATOM     61  C   UNL A   1      46.794  25.977  30.683  1.00  0.00     0.029 A 
ATOM     62  N   UNL A   1      46.085  28.048  30.437  1.00  0.00    -0.354 N 
ATOM     63  N   UNL A   1      42.057  29.389  31.465  1.00  0.00    -0.248 NA
ATOM     64  C   UNL A   1      42.618  30.413  29.447  1.00  0.00     0.031 C 
ATOM     65  C   UNL A   1      45.862  26.296  31.716  1.00  0.00     0.029 A 
ATOM     66  C   UNL A   1      45.287  27.534  31.422  1.00  0.00     0.049 A 
ATOM     67  H   UNL A   1      46.215  29.005  30.242  1.00  0.00     0.167 HD
ATOM     68  C   UNL A   1      43.411  29.173  31.247  1.00  0.00     0.074 A 
ATOM     69  C   UNL A   1      43.718  29.927  30.031  1.00  0.00     0.031 C 
ATOM     70  C   UNL A   1      44.077  28.173  31.899  1.00  0.00     0.031 A 
BRANCH  57  71
ATOM     71  C   UNL A   1      47.294  28.310  27.636  1.00  0.00    -0.014 A 
ATOM     72  C   UNL A   1      48.598  28.194  27.111  1.00  0.00     0.010 A 
ATOM     73  C   UNL A   1      46.770  29.614  27.746  1.00  0.00     0.010 A 
ATOM     74  C   UNL A   1      49.375  29.324  26.829  1.00  0.00     0.020 A 
ATOM     75  C   UNL A   1      47.518  30.747  27.424  1.00  0.00     0.020 A 
ATOM     76  C   UNL A   1      48.833  30.596  27.010  1.00  0.00     0.054 A 
BRANCH  76  77
ATOM     77  S   UNL A   1      49.879  32.049  26.767  1.00  0.00     0.124 S 
ATOM     78  O   UNL A   1      50.266  32.367  28.137  1.00  0.00    -0.237 OA
ATOM     79  O   UNL A   1      50.939  31.525  25.911  1.00  0.00    -0.237 OA
ATOM     80  O   UNL A   1      48.984  33.009  26.126  1.00  0.00    -0.744 OA
ENDBRANCH  76  77
ENDBRANCH  57  71
BRANCH  58  81
ATOM     81  C   UNL A   1      39.287  30.441  29.301  1.00  0.00    -0.014 A 
ATOM     82  C   UNL A   1      38.380  30.128  28.270  1.00  0.00     0.010 A 
ATOM     83  C   UNL A   1      39.011  31.579  30.088  1.00  0.00     0.010 A 
ATOM     84  C   UNL A   1      37.207  30.880  28.081  1.00  0.00     0.020 A 
ATOM     85  C   UNL A   1      37.846  32.337  29.902  1.00  0.00     0.020 A 
ATOM     86  C   UNL A   1      36.934  31.966  28.915  1.00  0.00     0.054 A 
BRANCH  86  87
ATOM     87  S   UNL A   1      35.327  32.811  28.794  1.00  0.00     0.124 S 
ATOM     88  O   UNL A   1      34.655  32.380  30.016  1.00  0.00    -0.237 OA
ATOM     89  O   UNL A   1      35.710  34.219  28.748  1.00  0.00    -0.237 OA
ATOM     90  O   UNL A   1      34.756  32.288  27.555  1.00  0.00    -0.744 OA
ENDBRANCH  86  87
ENDBRANCH  58  81
BRANCH  70  91
ATOM     91  C   UNL A   1      43.416  27.533  33.099  1.00  0.00    -0.014 A 
ATOM     92  C   UNL A   1      43.611  26.193  33.492  1.00  0.00     0.010 A 
ATOM     93  C   UNL A   1      42.682  28.380  33.946  1.00  0.00     0.010 A 
ATOM     94  C   UNL A   1      43.060  25.713  34.692  1.00  0.00     0.020 A 
ATOM     95  C   UNL A   1      42.147  27.914  35.148  1.00  0.00     0.020 A 
ATOM     96  C   UNL A   1      42.329  26.580  35.511  1.00  0.00     0.054 A 
BRANCH  96  97
ATOM     97  S   UNL A   1      41.647  25.970  37.079  1.00  0.00     0.124 S 
ATOM     98  O   UNL A   1      40.590  26.938  37.363  1.00  0.00    -0.237 OA
ATOM     99  O   UNL A   1      41.193  24.625  36.735  1.00  0.00    -0.237 OA
ATOM    100  O   UNL A   1      42.786  26.015  37.995  1.00  0.00    -0.744 OA
ENDBRANCH  96  97
ENDBRANCH  70  91
ENDBRANCH  44  45
ENDBRANCH  36  39
ENDBRANCH  34  35
ENDBRANCH   1  34
TORSDOF 17
ENDMDL
