MODEL 1
REMARK VINA RESULT:     -11.6      0.000      0.000
REMARK SMILES COC(=O)c1sc(NC(=O)[C@H]2CC=CC[C@H]2C(=O)NCCCNC(=O)c2ccc(-c3c4nc(c(-c5ccc(S(=O)(=O)[O-])cc5)c5ccc([nH]5)c(-c5ccc(S(=O)(=O)[O-])cc5)c5nc(c(-c6ccc(S(=O)(=O)[O-])cc6)c6ccc3[nH]6)C=C5)C=C4)cc2)nc1C
REMARK SMILES IDX 20 1 19 2 17 3 18 4 16 6 11 7 12 8 13 9 15 10 14 11 9 12
REMARK SMILES IDX 8 13 10 15 7 16 5 17 6 18 87 19 86 20 88 21 3 22 4 23 2 24
REMARK SMILES IDX 1 25 21 26 22 27 23 28 24 29 25 31 26 32 27 33 85 34 28 35
REMARK SMILES IDX 84 36 29 37 30 38 31 39 78 40 32 41 83 42 77 43 79 44 33 45
REMARK SMILES IDX 82 46 76 47 75 48 34 50 64 51 45 52 63 53 46 54 49 55 62 56
REMARK SMILES IDX 80 57 47 58 48 59 61 61 81 62 50 63 35 64 36 65 44 66 37 67
REMARK SMILES IDX 43 68 38 69 39 70 40 71 41 72 42 73 65 74 66 75 74 76 67 77
REMARK SMILES IDX 73 78 68 79 69 80 70 81 71 82 72 83 51 84 52 85 60 86 53 87
REMARK SMILES IDX 59 88 54 89 55 90 56 91 57 92 58 93
REMARK H PARENT 19 5 8 14 23 30 79 49 49 60
REMARK Flexibility Score: inf
ROOT
ATOM      1  C   UNL A   1      33.150  26.737  25.857  1.00  0.00     0.117 C 
ENDROOT
BRANCH   1   2
ATOM      2  N   UNL A   1      32.141  25.718  26.075  1.00  0.00    -0.356 N 
ATOM      3  C   UNL A   1      32.299  24.418  26.453  1.00  0.00     0.224 C 
ATOM      4  O   UNL A   1      31.483  23.995  27.283  1.00  0.00    -0.275 OA
ATOM      5  H   UNL A   1      31.210  26.007  25.931  1.00  0.00     0.163 HD
BRANCH   3   6
ATOM      6  C   UNL A   1      33.221  23.432  25.726  1.00  0.00     0.095 C 
ATOM      7  C   UNL A   1      32.996  22.985  24.279  1.00  0.00     0.095 C 
ATOM      8  C   UNL A   1      33.597  21.539  24.201  1.00  0.00     0.041 C 
ATOM      9  C   UNL A   1      35.032  21.504  24.657  1.00  0.00    -0.030 C 
ATOM     10  C   UNL A   1      34.709  23.495  26.138  1.00  0.00     0.041 C 
ATOM     11  C   UNL A   1      35.536  22.404  25.513  1.00  0.00    -0.030 C 
BRANCH   7  12
ATOM     12  C   UNL A   1      33.474  23.703  22.995  1.00  0.00     0.230 C 
ATOM     13  N   UNL A   1      32.982  24.778  22.353  1.00  0.00    -0.302 N 
ATOM     14  H   UNL A   1      33.441  24.981  21.506  1.00  0.00     0.172 HD
ATOM     15  O   UNL A   1      34.412  23.174  22.365  1.00  0.00    -0.274 OA
BRANCH  13  16
ATOM     16  C   UNL A   1      31.974  25.632  22.647  1.00  0.00     0.190 A 
ATOM     17  C   UNL A   1      30.750  27.687  22.912  1.00  0.00     0.137 A 
ATOM     18  S   UNL A   1      32.261  27.255  22.216  1.00  0.00    -0.089 S 
ATOM     19  C   UNL A   1      30.110  26.552  23.378  1.00  0.00     0.065 A 
ATOM     20  N   UNL A   1      30.811  25.380  23.166  1.00  0.00    -0.224 NA
ATOM     21  C   UNL A   1      28.797  26.439  24.068  1.00  0.00     0.069 C 
BRANCH  17  22
ATOM     22  C   UNL A   1      30.343  29.066  22.964  1.00  0.00     0.350 C 
ATOM     23  O   UNL A   1      30.271  29.765  23.962  1.00  0.00    -0.245 OA
BRANCH  22  24
ATOM     24  O   UNL A   1      30.040  29.477  21.700  1.00  0.00    -0.465 OA
ATOM     25  C   UNL A   1      29.133  30.572  21.603  1.00  0.00     0.282 C 
ENDBRANCH  22  24
ENDBRANCH  17  22
ENDBRANCH  13  16
ENDBRANCH   7  12
ENDBRANCH   3   6
ENDBRANCH   1   2
BRANCH   1  26
ATOM     26  C   UNL A   1      32.719  28.142  26.228  1.00  0.00     0.042 C 
BRANCH  26  27
ATOM     27  C   UNL A   1      33.267  28.589  27.578  1.00  0.00     0.118 C 
BRANCH  27  28
ATOM     28  N   UNL A   1      33.390  30.030  27.765  1.00  0.00    -0.352 N 
ATOM     29  C   UNL A   1      34.511  30.783  28.047  1.00  0.00     0.251 C 
ATOM     30  H   UNL A   1      32.551  30.539  27.677  1.00  0.00     0.163 HD
ATOM     31  O   UNL A   1      34.400  32.002  28.159  1.00  0.00    -0.269 OA
BRANCH  29  32
ATOM     32  C   UNL A   1      35.825  30.131  28.276  1.00  0.00     0.039 A 
ATOM     33  C   UNL A   1      36.751  30.094  27.227  1.00  0.00     0.014 A 
ATOM     34  C   UNL A   1      36.175  29.600  29.516  1.00  0.00     0.014 A 
ATOM     35  C   UNL A   1      38.052  29.631  27.460  1.00  0.00     0.010 A 
ATOM     36  C   UNL A   1      37.496  29.246  29.775  1.00  0.00     0.010 A 
ATOM     37  C   UNL A   1      38.455  29.263  28.753  1.00  0.00    -0.014 A 
BRANCH  37  38
ATOM     38  C   UNL A   1      39.864  28.905  29.073  1.00  0.00     0.031 A 
ATOM     39  C   UNL A   1      40.793  29.939  29.658  1.00  0.00     0.074 A 
ATOM     40  C   UNL A   1      40.340  27.686  28.743  1.00  0.00     0.049 A 
ATOM     41  N   UNL A   1      42.083  29.869  29.862  1.00  0.00    -0.248 NA
ATOM     42  C   UNL A   1      40.200  31.237  30.020  1.00  0.00     0.031 C 
ATOM     43  C   UNL A   1      39.570  26.611  28.110  1.00  0.00     0.029 A 
ATOM     44  N   UNL A   1      41.598  27.150  28.880  1.00  0.00    -0.354 N 
ATOM     45  C   UNL A   1      42.458  31.118  30.345  1.00  0.00     0.074 A 
ATOM     46  C   UNL A   1      41.271  31.944  30.348  1.00  0.00     0.031 C 
ATOM     47  C   UNL A   1      40.361  25.540  27.940  1.00  0.00     0.029 A 
ATOM     48  C   UNL A   1      41.705  25.861  28.409  1.00  0.00     0.049 A 
ATOM     49  H   UNL A   1      42.352  27.641  29.279  1.00  0.00     0.167 HD
ATOM     50  C   UNL A   1      43.673  31.535  30.777  1.00  0.00     0.031 A 
ATOM     51  C   UNL A   1      42.766  25.032  28.351  1.00  0.00     0.031 A 
ATOM     52  C   UNL A   1      44.845  30.704  30.813  1.00  0.00     0.049 A 
ATOM     53  C   UNL A   1      44.094  25.502  28.877  1.00  0.00     0.074 A 
ATOM     54  C   UNL A   1      46.111  31.020  31.276  1.00  0.00     0.029 A 
ATOM     55  N   UNL A   1      44.891  29.386  30.387  1.00  0.00    -0.354 N 
ATOM     56  N   UNL A   1      44.415  26.675  29.368  1.00  0.00    -0.248 NA
ATOM     57  C   UNL A   1      45.199  24.533  28.855  1.00  0.00     0.031 C 
ATOM     58  C   UNL A   1      46.930  29.898  31.107  1.00  0.00     0.029 A 
ATOM     59  C   UNL A   1      46.162  28.872  30.580  1.00  0.00     0.049 A 
ATOM     60  H   UNL A   1      44.132  28.889  30.004  1.00  0.00     0.167 HD
ATOM     61  C   UNL A   1      45.753  26.577  29.735  1.00  0.00     0.074 A 
ATOM     62  C   UNL A   1      46.175  25.226  29.426  1.00  0.00     0.031 C 
ATOM     63  C   UNL A   1      46.560  27.521  30.277  1.00  0.00     0.031 A 
BRANCH  50  64
ATOM     64  C   UNL A   1      43.781  32.955  31.268  1.00  0.00    -0.014 A 
ATOM     65  C   UNL A   1      43.559  33.266  32.622  1.00  0.00     0.010 A 
ATOM     66  C   UNL A   1      44.136  33.986  30.380  1.00  0.00     0.010 A 
ATOM     67  C   UNL A   1      43.642  34.586  33.069  1.00  0.00     0.020 A 
ATOM     68  C   UNL A   1      44.248  35.305  30.830  1.00  0.00     0.020 A 
ATOM     69  C   UNL A   1      43.980  35.600  32.168  1.00  0.00     0.054 A 
BRANCH  69  70
ATOM     70  S   UNL A   1      44.096  37.302  32.781  1.00  0.00     0.124 S 
ATOM     71  O   UNL A   1      42.970  37.364  33.709  1.00  0.00    -0.237 OA
ATOM     72  O   UNL A   1      45.420  37.335  33.396  1.00  0.00    -0.237 OA
ATOM     73  O   UNL A   1      43.953  38.115  31.574  1.00  0.00    -0.744 OA
ENDBRANCH  69  70
ENDBRANCH  50  64
BRANCH  51  74
ATOM     74  C   UNL A   1      42.613  23.661  27.789  1.00  0.00    -0.014 A 
ATOM     75  C   UNL A   1      42.903  23.408  26.437  1.00  0.00     0.010 A 
ATOM     76  C   UNL A   1      42.177  22.601  28.603  1.00  0.00     0.010 A 
ATOM     77  C   UNL A   1      42.734  22.128  25.902  1.00  0.00     0.020 A 
ATOM     78  C   UNL A   1      42.033  21.313  28.079  1.00  0.00     0.020 A 
ATOM     79  C   UNL A   1      42.297  21.088  26.726  1.00  0.00     0.054 A 
BRANCH  79  80
ATOM     80  S   UNL A   1      42.119  19.425  26.022  1.00  0.00     0.124 S 
ATOM     81  O   UNL A   1      40.682  19.351  25.780  1.00  0.00    -0.237 OA
ATOM     82  O   UNL A   1      42.958  19.494  24.828  1.00  0.00    -0.237 OA
ATOM     83  O   UNL A   1      42.624  18.551  27.079  1.00  0.00    -0.744 OA
ENDBRANCH  79  80
ENDBRANCH  51  74
BRANCH  63  84
ATOM     84  C   UNL A   1      47.970  27.119  30.611  1.00  0.00    -0.014 A 
ATOM     85  C   UNL A   1      49.026  27.356  29.715  1.00  0.00     0.010 A 
ATOM     86  C   UNL A   1      48.247  26.548  31.867  1.00  0.00     0.010 A 
ATOM     87  C   UNL A   1      50.334  27.004  30.059  1.00  0.00     0.020 A 
ATOM     88  C   UNL A   1      49.556  26.218  32.223  1.00  0.00     0.020 A 
ATOM     89  C   UNL A   1      50.591  26.437  31.311  1.00  0.00     0.054 A 
BRANCH  89  90
ATOM     90  S   UNL A   1      52.303  26.035  31.754  1.00  0.00     0.124 S 
ATOM     91  O   UNL A   1      52.168  24.684  32.292  1.00  0.00    -0.237 OA
ATOM     92  O   UNL A   1      52.999  26.135  30.474  1.00  0.00    -0.237 OA
ATOM     93  O   UNL A   1      52.658  27.063  32.731  1.00  0.00    -0.744 OA
ENDBRANCH  89  90
ENDBRANCH  63  84
ENDBRANCH  37  38
ENDBRANCH  29  32
ENDBRANCH  27  28
ENDBRANCH  26  27
ENDBRANCH   1  26
TORSDOF 17
ENDMDL
MODEL 2
REMARK VINA RESULT:     -10.8      1.610      3.797
REMARK SMILES COC(=O)c1sc(NC(=O)[C@H]2CC=CC[C@H]2C(=O)NCCCNC(=O)c2ccc(-c3c4nc(c(-c5ccc(S(=O)(=O)[O-])cc5)c5ccc([nH]5)c(-c5ccc(S(=O)(=O)[O-])cc5)c5nc(c(-c6ccc(S(=O)(=O)[O-])cc6)c6ccc3[nH]6)C=C5)C=C4)cc2)nc1C
REMARK SMILES IDX 20 1 19 2 17 3 18 4 16 6 11 7 12 8 13 9 15 10 14 11 9 12
REMARK SMILES IDX 8 13 10 15 7 16 5 17 6 18 87 19 86 20 88 21 3 22 4 23 2 24
REMARK SMILES IDX 1 25 21 26 22 27 23 28 24 29 25 31 26 32 27 33 85 34 28 35
REMARK SMILES IDX 84 36 29 37 30 38 31 39 78 40 32 41 83 42 77 43 79 44 33 45
REMARK SMILES IDX 82 46 76 47 75 48 34 50 64 51 45 52 63 53 46 54 49 55 62 56
REMARK SMILES IDX 80 57 47 58 48 59 61 61 81 62 50 63 35 64 36 65 44 66 37 67
REMARK SMILES IDX 43 68 38 69 39 70 40 71 41 72 42 73 65 74 66 75 74 76 67 77
REMARK SMILES IDX 73 78 68 79 69 80 70 81 71 82 72 83 51 84 52 85 60 86 53 87
REMARK SMILES IDX 59 88 54 89 55 90 56 91 57 92 58 93
REMARK H PARENT 19 5 8 14 23 30 79 49 49 60
REMARK Flexibility Score: inf
ROOT
ATOM      1  C   UNL A   1      33.742  28.816  25.175  1.00  0.00     0.117 C 
ENDROOT
BRANCH   1   2
ATOM      2  N   UNL A   1      34.053  28.061  23.976  1.00  0.00    -0.356 N 
ATOM      3  C   UNL A   1      33.215  27.621  22.995  1.00  0.00     0.224 C 
ATOM      4  O   UNL A   1      33.637  27.733  21.836  1.00  0.00    -0.275 OA
ATOM      5  H   UNL A   1      35.004  27.835  23.854  1.00  0.00     0.163 HD
BRANCH   3   6
ATOM      6  C   UNL A   1      31.960  26.784  23.268  1.00  0.00     0.095 C 
ATOM      7  C   UNL A   1      32.001  25.398  23.916  1.00  0.00     0.095 C 
ATOM      8  C   UNL A   1      30.759  24.638  23.334  1.00  0.00     0.041 C 
ATOM      9  C   UNL A   1      29.480  25.403  23.558  1.00  0.00    -0.030 C 
ATOM     10  C   UNL A   1      30.688  27.594  23.601  1.00  0.00     0.041 C 
ATOM     11  C   UNL A   1      29.456  26.735  23.703  1.00  0.00    -0.030 C 
BRANCH   7  12
ATOM     12  C   UNL A   1      32.014  25.074  25.428  1.00  0.00     0.230 C 
ATOM     13  N   UNL A   1      32.365  23.953  26.086  1.00  0.00    -0.302 N 
ATOM     14  H   UNL A   1      32.204  23.994  27.056  1.00  0.00     0.172 HD
ATOM     15  O   UNL A   1      31.536  25.933  26.196  1.00  0.00    -0.274 OA
BRANCH  13  16
ATOM     16  C   UNL A   1      32.895  22.781  25.667  1.00  0.00     0.190 A 
ATOM     17  C   UNL A   1      33.044  20.485  24.963  1.00  0.00     0.137 A 
ATOM     18  S   UNL A   1      31.755  21.576  25.280  1.00  0.00    -0.089 S 
ATOM     19  C   UNL A   1      34.256  21.134  25.126  1.00  0.00     0.065 A 
ATOM     20  N   UNL A   1      34.141  22.465  25.480  1.00  0.00    -0.224 NA
ATOM     21  C   UNL A   1      35.632  20.590  24.979  1.00  0.00     0.069 C 
BRANCH  17  22
ATOM     22  C   UNL A   1      32.767  19.116  24.616  1.00  0.00     0.350 C 
ATOM     23  O   UNL A   1      32.732  18.645  23.491  1.00  0.00    -0.245 OA
BRANCH  22  24
ATOM     24  O   UNL A   1      32.538  18.415  25.763  1.00  0.00    -0.465 OA
ATOM     25  C   UNL A   1      32.476  16.998  25.623  1.00  0.00     0.282 C 
ENDBRANCH  22  24
ENDBRANCH  17  22
ENDBRANCH  13  16
ENDBRANCH   7  12
ENDBRANCH   3   6
ENDBRANCH   1   2
BRANCH   1  26
ATOM     26  C   UNL A   1      33.942  28.053  26.470  1.00  0.00     0.042 C 
BRANCH  26  27
ATOM     27  C   UNL A   1      33.365  28.782  27.678  1.00  0.00     0.118 C 
BRANCH  27  28
ATOM     28  N   UNL A   1      33.577  30.225  27.706  1.00  0.00    -0.352 N 
ATOM     29  C   UNL A   1      34.744  30.934  27.902  1.00  0.00     0.251 C 
ATOM     30  H   UNL A   1      32.770  30.772  27.566  1.00  0.00     0.163 HD
ATOM     31  O   UNL A   1      34.709  32.162  27.880  1.00  0.00    -0.269 OA
BRANCH  29  32
ATOM     32  C   UNL A   1      36.019  30.232  28.196  1.00  0.00     0.039 A 
ATOM     33  C   UNL A   1      36.999  30.168  27.199  1.00  0.00     0.014 A 
ATOM     34  C   UNL A   1      36.280  29.678  29.448  1.00  0.00     0.014 A 
ATOM     35  C   UNL A   1      38.267  29.654  27.498  1.00  0.00     0.010 A 
ATOM     36  C   UNL A   1      37.570  29.273  29.776  1.00  0.00     0.010 A 
ATOM     37  C   UNL A   1      38.585  29.262  28.808  1.00  0.00    -0.014 A 
BRANCH  37  38
ATOM     38  C   UNL A   1      39.959  28.849  29.201  1.00  0.00     0.031 A 
ATOM     39  C   UNL A   1      40.881  29.834  29.876  1.00  0.00     0.074 A 
ATOM     40  C   UNL A   1      40.419  27.626  28.861  1.00  0.00     0.049 A 
ATOM     41  N   UNL A   1      42.154  29.716  30.157  1.00  0.00    -0.248 NA
ATOM     42  C   UNL A   1      40.306  31.139  30.244  1.00  0.00     0.031 C 
ATOM     43  C   UNL A   1      39.657  26.597  28.147  1.00  0.00     0.029 A 
ATOM     44  N   UNL A   1      41.649  27.046  29.057  1.00  0.00    -0.354 N 
ATOM     45  C   UNL A   1      42.536  30.936  30.702  1.00  0.00     0.074 A 
ATOM     46  C   UNL A   1      41.375  31.800  30.660  1.00  0.00     0.031 C 
ATOM     47  C   UNL A   1      40.425  25.507  27.990  1.00  0.00     0.029 A 
ATOM     48  C   UNL A   1      41.746  25.770  28.550  1.00  0.00     0.049 A 
ATOM     49  H   UNL A   1      42.390  27.500  29.517  1.00  0.00     0.167 HD
ATOM     50  C   UNL A   1      43.733  31.301  31.221  1.00  0.00     0.031 A 
ATOM     51  C   UNL A   1      42.783  24.909  28.530  1.00  0.00     0.031 A 
ATOM     52  C   UNL A   1      44.875  30.432  31.301  1.00  0.00     0.049 A 
ATOM     53  C   UNL A   1      44.089  25.320  29.151  1.00  0.00     0.074 A 
ATOM     54  C   UNL A   1      46.118  30.693  31.851  1.00  0.00     0.029 A 
ATOM     55  N   UNL A   1      44.908  29.127  30.835  1.00  0.00    -0.354 N 
ATOM     56  N   UNL A   1      44.415  26.467  29.699  1.00  0.00    -0.248 NA
ATOM     57  C   UNL A   1      45.164  24.318  29.164  1.00  0.00     0.031 C 
ATOM     58  C   UNL A   1      46.912  29.551  31.695  1.00  0.00     0.029 A 
ATOM     59  C   UNL A   1      46.148  28.567  31.088  1.00  0.00     0.049 A 
ATOM     60  H   UNL A   1      44.160  28.667  30.390  1.00  0.00     0.167 HD
ATOM     61  C   UNL A   1      45.723  26.314  30.144  1.00  0.00     0.074 A 
ATOM     62  C   UNL A   1      46.123  24.961  29.817  1.00  0.00     0.031 C 
ATOM     63  C   UNL A   1      46.523  27.214  30.766  1.00  0.00     0.031 A 
BRANCH  50  64
ATOM     64  C   UNL A   1      43.853  32.701  31.765  1.00  0.00    -0.014 A 
ATOM     65  C   UNL A   1      43.581  32.971  33.118  1.00  0.00     0.010 A 
ATOM     66  C   UNL A   1      44.270  33.752  30.928  1.00  0.00     0.010 A 
ATOM     67  C   UNL A   1      43.675  34.274  33.614  1.00  0.00     0.020 A 
ATOM     68  C   UNL A   1      44.393  35.052  31.428  1.00  0.00     0.020 A 
ATOM     69  C   UNL A   1      44.075  35.308  32.763  1.00  0.00     0.054 A 
BRANCH  69  70
ATOM     70  S   UNL A   1      44.204  36.986  33.438  1.00  0.00     0.124 S 
ATOM     71  O   UNL A   1      43.332  36.907  34.607  1.00  0.00    -0.237 OA
ATOM     72  O   UNL A   1      45.630  37.110  33.725  1.00  0.00    -0.237 OA
ATOM     73  O   UNL A   1      43.715  37.834  32.353  1.00  0.00    -0.744 OA
ENDBRANCH  69  70
ENDBRANCH  50  64
BRANCH  51  74
ATOM     74  C   UNL A   1      42.624  23.563  27.915  1.00  0.00    -0.014 A 
ATOM     75  C   UNL A   1      43.127  23.302  26.628  1.00  0.00     0.010 A 
ATOM     76  C   UNL A   1      41.969  22.532  28.612  1.00  0.00     0.010 A 
ATOM     77  C   UNL A   1      42.955  22.046  26.038  1.00  0.00     0.020 A 
ATOM     78  C   UNL A   1      41.819  21.266  28.038  1.00  0.00     0.020 A 
ATOM     79  C   UNL A   1      42.299  21.036  26.747  1.00  0.00     0.054 A 
BRANCH  79  80
ATOM     80  S   UNL A   1      42.117  19.402  25.979  1.00  0.00     0.124 S 
ATOM     81  O   UNL A   1      42.929  19.541  24.775  1.00  0.00    -0.237 OA
ATOM     82  O   UNL A   1      42.654  18.509  27.004  1.00  0.00    -0.237 OA
ATOM     83  O   UNL A   1      40.678  19.288  25.757  1.00  0.00    -0.744 OA
ENDBRANCH  79  80
ENDBRANCH  51  74
BRANCH  63  84
ATOM     84  C   UNL A   1      47.897  26.757  31.172  1.00  0.00    -0.014 A 
ATOM     85  C   UNL A   1      48.127  26.172  32.429  1.00  0.00     0.010 A 
ATOM     86  C   UNL A   1      48.960  26.862  30.256  1.00  0.00     0.010 A 
ATOM     87  C   UNL A   1      49.405  25.724  32.774  1.00  0.00     0.020 A 
ATOM     88  C   UNL A   1      50.232  26.393  30.589  1.00  0.00     0.020 A 
ATOM     89  C   UNL A   1      50.449  25.837  31.852  1.00  0.00     0.054 A 
BRANCH  89  90
ATOM     90  S   UNL A   1      52.088  25.203  32.303  1.00  0.00     0.124 S 
ATOM     91  O   UNL A   1      51.869  23.759  32.285  1.00  0.00    -0.237 OA
ATOM     92  O   UNL A   1      52.940  25.723  31.236  1.00  0.00    -0.237 OA
ATOM     93  O   UNL A   1      52.331  25.780  33.623  1.00  0.00    -0.744 OA
ENDBRANCH  89  90
ENDBRANCH  63  84
ENDBRANCH  37  38
ENDBRANCH  29  32
ENDBRANCH  27  28
ENDBRANCH  26  27
ENDBRANCH   1  26
TORSDOF 17
ENDMDL
MODEL 3
REMARK VINA RESULT:     -10.6      2.639      3.212
REMARK SMILES COC(=O)c1sc(NC(=O)[C@H]2CC=CC[C@H]2C(=O)NCCCNC(=O)c2ccc(-c3c4nc(c(-c5ccc(S(=O)(=O)[O-])cc5)c5ccc([nH]5)c(-c5ccc(S(=O)(=O)[O-])cc5)c5nc(c(-c6ccc(S(=O)(=O)[O-])cc6)c6ccc3[nH]6)C=C5)C=C4)cc2)nc1C
REMARK SMILES IDX 20 1 19 2 17 3 18 4 16 6 11 7 12 8 13 9 15 10 14 11 9 12
REMARK SMILES IDX 8 13 10 15 7 16 5 17 6 18 87 19 86 20 88 21 3 22 4 23 2 24
REMARK SMILES IDX 1 25 21 26 22 27 23 28 24 29 25 31 26 32 27 33 85 34 28 35
REMARK SMILES IDX 84 36 29 37 30 38 31 39 78 40 32 41 83 42 77 43 79 44 33 45
REMARK SMILES IDX 82 46 76 47 75 48 34 50 64 51 45 52 63 53 46 54 49 55 62 56
REMARK SMILES IDX 80 57 47 58 48 59 61 61 81 62 50 63 35 64 36 65 44 66 37 67
REMARK SMILES IDX 43 68 38 69 39 70 40 71 41 72 42 73 65 74 66 75 74 76 67 77
REMARK SMILES IDX 73 78 68 79 69 80 70 81 71 82 72 83 51 84 52 85 60 86 53 87
REMARK SMILES IDX 59 88 54 89 55 90 56 91 57 92 58 93
REMARK H PARENT 19 5 8 14 23 30 79 49 49 60
REMARK Flexibility Score: inf
ROOT
ATOM      1  C   UNL A   1      33.251  26.677  25.857  1.00  0.00     0.117 C 
ENDROOT
BRANCH   1   2
ATOM      2  N   UNL A   1      32.087  25.828  26.023  1.00  0.00    -0.356 N 
ATOM      3  C   UNL A   1      32.007  24.574  26.551  1.00  0.00     0.224 C 
ATOM      4  O   UNL A   1      31.034  24.360  27.287  1.00  0.00    -0.275 OA
ATOM      5  H   UNL A   1      31.236  26.212  25.713  1.00  0.00     0.163 HD
BRANCH   3   6
ATOM      6  C   UNL A   1      32.869  23.399  26.075  1.00  0.00     0.095 C 
ATOM      7  C   UNL A   1      32.494  22.511  24.885  1.00  0.00     0.095 C 
ATOM      8  C   UNL A   1      33.125  21.112  25.205  1.00  0.00     0.041 C 
ATOM      9  C   UNL A   1      34.604  21.215  25.475  1.00  0.00    -0.030 C 
ATOM     10  C   UNL A   1      34.392  23.579  26.267  1.00  0.00     0.041 C 
ATOM     11  C   UNL A   1      35.175  22.338  25.931  1.00  0.00    -0.030 C 
BRANCH   7  12
ATOM     12  C   UNL A   1      32.800  22.773  23.392  1.00  0.00     0.230 C 
ATOM     13  N   UNL A   1      32.329  23.711  22.549  1.00  0.00    -0.302 N 
ATOM     14  H   UNL A   1      32.638  23.602  21.621  1.00  0.00     0.172 HD
ATOM     15  O   UNL A   1      33.525  21.944  22.808  1.00  0.00    -0.274 OA
BRANCH  13  16
ATOM     16  C   UNL A   1      31.512  24.772  22.733  1.00  0.00     0.190 A 
ATOM     17  C   UNL A   1      30.693  27.036  22.696  1.00  0.00     0.137 A 
ATOM     18  S   UNL A   1      32.053  26.225  22.027  1.00  0.00    -0.089 S 
ATOM     19  C   UNL A   1      29.893  26.128  23.368  1.00  0.00     0.065 A 
ATOM     20  N   UNL A   1      30.359  24.827  23.330  1.00  0.00    -0.224 NA
ATOM     21  C   UNL A   1      28.630  26.372  24.115  1.00  0.00     0.069 C 
BRANCH  17  22
ATOM     22  C   UNL A   1      30.542  28.457  22.531  1.00  0.00     0.350 C 
ATOM     23  O   UNL A   1      29.810  29.022  21.735  1.00  0.00    -0.245 OA
BRANCH  22  24
ATOM     24  O   UNL A   1      31.366  29.087  23.416  1.00  0.00    -0.465 OA
ATOM     25  C   UNL A   1      30.721  29.886  24.405  1.00  0.00     0.282 C 
ENDBRANCH  22  24
ENDBRANCH  17  22
ENDBRANCH  13  16
ENDBRANCH   7  12
ENDBRANCH   3   6
ENDBRANCH   1   2
BRANCH   1  26
ATOM     26  C   UNL A   1      33.218  27.959  26.668  1.00  0.00     0.042 C 
BRANCH  26  27
ATOM     27  C   UNL A   1      33.924  29.116  25.970  1.00  0.00     0.118 C 
BRANCH  27  28
ATOM     28  N   UNL A   1      33.757  30.424  26.591  1.00  0.00    -0.352 N 
ATOM     29  C   UNL A   1      34.554  31.059  27.521  1.00  0.00     0.251 C 
ATOM     30  H   UNL A   1      32.959  30.927  26.306  1.00  0.00     0.163 HD
ATOM     31  O   UNL A   1      34.237  32.179  27.916  1.00  0.00    -0.269 OA
BRANCH  29  32
ATOM     32  C   UNL A   1      35.747  30.381  28.088  1.00  0.00     0.039 A 
ATOM     33  C   UNL A   1      36.967  30.485  27.411  1.00  0.00     0.014 A 
ATOM     34  C   UNL A   1      35.692  29.685  29.295  1.00  0.00     0.014 A 
ATOM     35  C   UNL A   1      38.138  29.993  28.000  1.00  0.00     0.010 A 
ATOM     36  C   UNL A   1      36.868  29.298  29.930  1.00  0.00     0.010 A 
ATOM     37  C   UNL A   1      38.108  29.453  29.296  1.00  0.00    -0.014 A 
BRANCH  37  38
ATOM     38  C   UNL A   1      39.348  29.052  30.016  1.00  0.00     0.031 A 
ATOM     39  C   UNL A   1      39.777  29.799  31.254  1.00  0.00     0.074 A 
ATOM     40  C   UNL A   1      40.143  28.089  29.505  1.00  0.00     0.049 A 
ATOM     41  N   UNL A   1      40.893  29.704  31.931  1.00  0.00    -0.248 NA
ATOM     42  C   UNL A   1      38.848  30.817  31.773  1.00  0.00     0.031 C 
ATOM     43  C   UNL A   1      39.884  27.330  28.278  1.00  0.00     0.029 A 
ATOM     44  N   UNL A   1      41.346  27.593  29.948  1.00  0.00    -0.354 N 
ATOM     45  C   UNL A   1      40.812  30.667  32.931  1.00  0.00     0.074 A 
ATOM     46  C   UNL A   1      39.565  31.374  32.737  1.00  0.00     0.031 C 
ATOM     47  C   UNL A   1      40.879  26.450  28.082  1.00  0.00     0.029 A 
ATOM     48  C   UNL A   1      41.870  26.608  29.141  1.00  0.00     0.049 A 
ATOM     49  H   UNL A   1      41.791  27.912  30.765  1.00  0.00     0.167 HD
ATOM     50  C   UNL A   1      41.680  30.923  33.940  1.00  0.00     0.031 A 
ATOM     51  C   UNL A   1      43.022  25.916  29.236  1.00  0.00     0.031 A 
ATOM     52  C   UNL A   1      42.900  30.195  34.159  1.00  0.00     0.049 A 
ATOM     53  C   UNL A   1      43.948  26.187  30.389  1.00  0.00     0.074 A 
ATOM     54  C   UNL A   1      43.823  30.348  35.178  1.00  0.00     0.029 A 
ATOM     55  N   UNL A   1      43.357  29.163  33.355  1.00  0.00    -0.354 N 
ATOM     56  N   UNL A   1      43.831  27.075  31.347  1.00  0.00    -0.248 NA
ATOM     57  C   UNL A   1      45.156  25.354  30.482  1.00  0.00     0.031 C 
ATOM     58  C   UNL A   1      44.852  29.422  34.977  1.00  0.00     0.029 A 
ATOM     59  C   UNL A   1      44.548  28.666  33.857  1.00  0.00     0.049 A 
ATOM     60  H   UNL A   1      42.903  28.832  32.546  1.00  0.00     0.167 HD
ATOM     61  C   UNL A   1      44.936  26.891  32.170  1.00  0.00     0.074 A 
ATOM     62  C   UNL A   1      45.701  25.796  31.608  1.00  0.00     0.031 C 
ATOM     63  C   UNL A   1      45.288  27.568  33.290  1.00  0.00     0.031 A 
BRANCH  50  64
ATOM     64  C   UNL A   1      41.318  32.028  34.898  1.00  0.00    -0.014 A 
ATOM     65  C   UNL A   1      40.638  31.746  36.096  1.00  0.00     0.010 A 
ATOM     66  C   UNL A   1      41.687  33.356  34.617  1.00  0.00     0.010 A 
ATOM     67  C   UNL A   1      40.288  32.776  36.972  1.00  0.00     0.020 A 
ATOM     68  C   UNL A   1      41.364  34.387  35.506  1.00  0.00     0.020 A 
ATOM     69  C   UNL A   1      40.649  34.092  36.668  1.00  0.00     0.054 A 
BRANCH  69  70
ATOM     70  S   UNL A   1      40.195  35.407  37.832  1.00  0.00     0.124 S 
ATOM     71  O   UNL A   1      40.124  36.572  36.954  1.00  0.00    -0.237 OA
ATOM     72  O   UNL A   1      38.917  34.941  38.363  1.00  0.00    -0.237 OA
ATOM     73  O   UNL A   1      41.298  35.416  38.791  1.00  0.00    -0.744 OA
ENDBRANCH  69  70
ENDBRANCH  50  64
BRANCH  51  74
ATOM     74  C   UNL A   1      43.357  24.883  28.217  1.00  0.00    -0.014 A 
ATOM     75  C   UNL A   1      42.918  23.556  28.375  1.00  0.00     0.010 A 
ATOM     76  C   UNL A   1      44.117  25.219  27.083  1.00  0.00     0.010 A 
ATOM     77  C   UNL A   1      43.255  22.580  27.433  1.00  0.00     0.020 A 
ATOM     78  C   UNL A   1      44.433  24.251  26.124  1.00  0.00     0.020 A 
ATOM     79  C   UNL A   1      44.013  22.933  26.314  1.00  0.00     0.054 A 
BRANCH  79  80
ATOM     80  S   UNL A   1      44.409  21.659  25.084  1.00  0.00     0.124 S 
ATOM     81  O   UNL A   1      45.767  21.283  25.464  1.00  0.00    -0.237 OA
ATOM     82  O   UNL A   1      43.381  20.650  25.330  1.00  0.00    -0.237 OA
ATOM     83  O   UNL A   1      44.286  22.365  23.811  1.00  0.00    -0.744 OA
ENDBRANCH  79  80
ENDBRANCH  51  74
BRANCH  63  84
ATOM     84  C   UNL A   1      46.531  27.122  34.008  1.00  0.00    -0.014 A 
ATOM     85  C   UNL A   1      47.784  27.690  33.716  1.00  0.00     0.010 A 
ATOM     86  C   UNL A   1      46.433  26.160  35.031  1.00  0.00     0.010 A 
ATOM     87  C   UNL A   1      48.922  27.284  34.419  1.00  0.00     0.020 A 
ATOM     88  C   UNL A   1      47.564  25.771  35.750  1.00  0.00     0.020 A 
ATOM     89  C   UNL A   1      48.805  26.327  35.431  1.00  0.00     0.054 A 
BRANCH  89  90
ATOM     90  S   UNL A   1      50.287  25.853  36.362  1.00  0.00     0.124 S 
ATOM     91  O   UNL A   1      49.799  25.869  37.738  1.00  0.00    -0.237 OA
ATOM     92  O   UNL A   1      50.599  24.532  35.820  1.00  0.00    -0.237 OA
ATOM     93  O   UNL A   1      51.253  26.898  36.031  1.00  0.00    -0.744 OA
ENDBRANCH  89  90
ENDBRANCH  63  84
ENDBRANCH  37  38
ENDBRANCH  29  32
ENDBRANCH  27  28
ENDBRANCH  26  27
ENDBRANCH   1  26
TORSDOF 17
ENDMDL
