MODEL 1
REMARK VINA RESULT:     -10.6      0.000      0.000
REMARK SMILES CC(C)[C@H](CO)NS(=O)(=O)c1ccc(C(=O)NCCCNC(=O)c2ccc(-c3c4nc(c(-c5ccc(S(=O)(=O)[O-])cc5)c5ccc([nH]5)c(-c5ccc(S(=O)(=O)[O-])cc5)c5nc(c(-c6ccc(S(=O)(=O)[O-])cc6)c6ccc3[nH]6)C=C5)C=C4)cc2)cn1
REMARK SMILES IDX 18 1 17 2 15 3 16 4 14 6 11 7 12 8 85 9 13 10 84 11 8 12
REMARK SMILES IDX 9 13 10 14 7 15 4 17 2 18 1 19 3 20 5 21 6 22 19 24 20 25
REMARK SMILES IDX 21 26 22 27 23 29 24 30 25 31 83 32 26 33 82 34 27 35 28 36
REMARK SMILES IDX 29 37 76 38 30 39 81 40 75 41 77 42 31 43 80 44 74 45 73 46
REMARK SMILES IDX 32 48 62 49 43 50 61 51 44 52 47 53 60 54 78 55 45 56 46 57
REMARK SMILES IDX 59 59 79 60 48 61 33 62 34 63 42 64 35 65 41 66 36 67 37 68
REMARK SMILES IDX 38 69 39 70 40 71 63 72 64 73 72 74 65 75 71 76 66 77 67 78
REMARK SMILES IDX 68 79 69 80 70 81 49 82 50 83 58 84 51 85 57 86 52 87 53 88
REMARK SMILES IDX 54 89 55 90 56 91
REMARK H PARENT 17 5 7 16 6 23 21 28 77 47 47 58
REMARK Flexibility Score: inf
ROOT
ATOM      1  C   UNL A   1      36.686  21.375  24.702  1.00  0.00     0.118 C 
ENDROOT
BRANCH   1   2
ATOM      2  N   UNL A   1      35.366  20.924  25.107  1.00  0.00    -0.352 N 
ATOM      3  C   UNL A   1      34.111  21.413  24.859  1.00  0.00     0.252 C 
ATOM      4  O   UNL A   1      33.145  20.757  25.250  1.00  0.00    -0.269 OA
ATOM      5  H   UNL A   1      35.375  20.113  25.666  1.00  0.00     0.163 HD
BRANCH   3   6
ATOM      6  C   UNL A   1      33.862  22.654  24.094  1.00  0.00     0.058 A 
ATOM      7  C   UNL A   1      33.317  24.789  22.467  1.00  0.00     0.170 A 
ATOM      8  C   UNL A   1      33.839  25.041  23.728  1.00  0.00     0.043 A 
ATOM      9  N   UNL A   1      33.035  23.551  21.988  1.00  0.00    -0.243 NA
ATOM     10  C   UNL A   1      34.115  23.949  24.552  1.00  0.00     0.018 A 
ATOM     11  C   UNL A   1      33.284  22.519  22.833  1.00  0.00     0.126 A 
BRANCH   7  12
ATOM     12  S   UNL A   1      32.969  26.129  21.337  1.00  0.00     0.258 S 
ATOM     13  O   UNL A   1      32.992  25.610  19.984  1.00  0.00    -0.205 OA
ATOM     14  O   UNL A   1      33.797  27.266  21.671  1.00  0.00    -0.205 OA
BRANCH  12  15
ATOM     15  N   UNL A   1      31.379  26.600  21.642  1.00  0.00    -0.204 NA
ATOM     16  H   UNL A   1      31.153  27.285  20.920  1.00  0.00     0.141 HD
BRANCH  15  17
ATOM     17  C   UNL A   1      30.900  27.197  22.929  1.00  0.00     0.098 C 
BRANCH  17  18
ATOM     18  C   UNL A   1      29.816  26.319  23.629  1.00  0.00     0.003 C 
ATOM     19  C   UNL A   1      30.201  25.978  25.077  1.00  0.00     0.009 C 
ATOM     20  C   UNL A   1      28.437  26.995  23.713  1.00  0.00     0.009 C 
ENDBRANCH  17  18
BRANCH  17  21
ATOM     21  C   UNL A   1      30.399  28.616  22.518  1.00  0.00     0.176 C 
BRANCH  21  22
ATOM     22  O   UNL A   1      31.484  29.436  22.076  1.00  0.00    -0.395 OA
ATOM     23  H   UNL A   1      32.274  29.239  22.603  1.00  0.00     0.210 HD
ENDBRANCH  21  22
ENDBRANCH  17  21
ENDBRANCH  15  17
ENDBRANCH  12  15
ENDBRANCH   7  12
ENDBRANCH   3   6
ENDBRANCH   1   2
BRANCH   1  24
ATOM     24  C   UNL A   1      37.741  20.300  24.953  1.00  0.00     0.042 C 
BRANCH  24  25
ATOM     25  C   UNL A   1      38.974  20.818  25.693  1.00  0.00     0.118 C 
BRANCH  25  26
ATOM     26  N   UNL A   1      39.961  19.769  25.913  1.00  0.00    -0.352 N 
ATOM     27  C   UNL A   1      41.316  19.855  26.114  1.00  0.00     0.251 C 
ATOM     28  H   UNL A   1      39.599  18.853  25.918  1.00  0.00     0.163 HD
ATOM     29  O   UNL A   1      41.999  18.837  26.037  1.00  0.00    -0.269 OA
BRANCH  27  30
ATOM     30  C   UNL A   1      41.955  21.156  26.413  1.00  0.00     0.039 A 
ATOM     31  C   UNL A   1      42.281  22.008  25.354  1.00  0.00     0.014 A 
ATOM     32  C   UNL A   1      42.273  21.522  27.724  1.00  0.00     0.014 A 
ATOM     33  C   UNL A   1      42.870  23.247  25.614  1.00  0.00     0.010 A 
ATOM     34  C   UNL A   1      42.787  22.789  27.988  1.00  0.00     0.010 A 
ATOM     35  C   UNL A   1      43.096  23.664  26.936  1.00  0.00    -0.014 A 
BRANCH  35  36
ATOM     36  C   UNL A   1      43.650  25.010  27.236  1.00  0.00     0.031 A 
ATOM     37  C   UNL A   1      45.123  25.280  27.071  1.00  0.00     0.074 A 
ATOM     38  C   UNL A   1      42.835  25.975  27.710  1.00  0.00     0.049 A 
ATOM     39  N   UNL A   1      45.798  26.365  27.350  1.00  0.00    -0.248 NA
ATOM     40  C   UNL A   1      45.949  24.180  26.545  1.00  0.00     0.031 C 
ATOM     41  C   UNL A   1      41.397  25.826  27.951  1.00  0.00     0.029 A 
ATOM     42  N   UNL A   1      43.100  27.268  28.085  1.00  0.00    -0.354 N 
ATOM     43  C   UNL A   1      47.123  26.079  27.041  1.00  0.00     0.074 A 
ATOM     44  C   UNL A   1      47.168  24.700  26.609  1.00  0.00     0.031 C 
ATOM     45  C   UNL A   1      40.905  26.987  28.411  1.00  0.00     0.029 A 
ATOM     46  C   UNL A   1      41.994  27.947  28.545  1.00  0.00     0.049 A 
ATOM     47  H   UNL A   1      43.995  27.673  28.031  1.00  0.00     0.167 HD
ATOM     48  C   UNL A   1      48.201  26.898  27.087  1.00  0.00     0.031 A 
ATOM     49  C   UNL A   1      41.873  29.196  29.037  1.00  0.00     0.031 A 
ATOM     50  C   UNL A   1      48.153  28.271  27.515  1.00  0.00     0.049 A 
ATOM     51  C   UNL A   1      43.093  30.074  29.107  1.00  0.00     0.074 A 
ATOM     52  C   UNL A   1      49.184  29.192  27.566  1.00  0.00     0.029 A 
ATOM     53  N   UNL A   1      47.014  28.922  27.963  1.00  0.00    -0.354 N 
ATOM     54  N   UNL A   1      44.327  29.800  28.756  1.00  0.00    -0.248 NA
ATOM     55  C   UNL A   1      42.904  31.435  29.628  1.00  0.00     0.031 C 
ATOM     56  C   UNL A   1      48.681  30.384  28.096  1.00  0.00     0.029 A 
ATOM     57  C   UNL A   1      47.321  30.226  28.309  1.00  0.00     0.049 A 
ATOM     58  H   UNL A   1      46.118  28.517  28.024  1.00  0.00     0.167 HD
ATOM     59  C   UNL A   1      45.053  30.966  28.983  1.00  0.00     0.074 A 
ATOM     60  C   UNL A   1      44.116  31.950  29.483  1.00  0.00     0.031 C 
ATOM     61  C   UNL A   1      46.375  31.198  28.798  1.00  0.00     0.031 A 
BRANCH  48  62
ATOM     62  C   UNL A   1      49.530  26.333  26.653  1.00  0.00    -0.014 A 
ATOM     63  C   UNL A   1      49.929  26.380  25.304  1.00  0.00     0.010 A 
ATOM     64  C   UNL A   1      50.421  25.813  27.610  1.00  0.00     0.010 A 
ATOM     65  C   UNL A   1      51.179  25.893  24.917  1.00  0.00     0.020 A 
ATOM     66  C   UNL A   1      51.685  25.352  27.231  1.00  0.00     0.020 A 
ATOM     67  C   UNL A   1      52.052  25.385  25.883  1.00  0.00     0.054 A 
BRANCH  67  68
ATOM     68  S   UNL A   1      53.686  24.805  25.354  1.00  0.00     0.124 S 
ATOM     69  O   UNL A   1      53.412  23.413  25.002  1.00  0.00    -0.237 OA
ATOM     70  O   UNL A   1      53.989  25.688  24.231  1.00  0.00    -0.237 OA
ATOM     71  O   UNL A   1      54.523  24.993  26.537  1.00  0.00    -0.744 OA
ENDBRANCH  67  68
ENDBRANCH  48  62
BRANCH  49  72
ATOM     72  C   UNL A   1      40.550  29.688  29.515  1.00  0.00    -0.014 A 
ATOM     73  C   UNL A   1      40.261  29.761  30.889  1.00  0.00     0.010 A 
ATOM     74  C   UNL A   1      39.562  30.071  28.590  1.00  0.00     0.010 A 
ATOM     75  C   UNL A   1      38.997  30.171  31.327  1.00  0.00     0.020 A 
ATOM     76  C   UNL A   1      38.310  30.515  29.024  1.00  0.00     0.020 A 
ATOM     77  C   UNL A   1      38.029  30.544  30.391  1.00  0.00     0.054 A 
BRANCH  77  78
ATOM     78  S   UNL A   1      36.403  31.092  30.981  1.00  0.00     0.124 S 
ATOM     79  O   UNL A   1      35.650  31.198  29.736  1.00  0.00    -0.237 OA
ATOM     80  O   UNL A   1      36.009  30.003  31.871  1.00  0.00    -0.237 OA
ATOM     81  O   UNL A   1      36.693  32.359  31.648  1.00  0.00    -0.744 OA
ENDBRANCH  77  78
ENDBRANCH  49  72
BRANCH  61  82
ATOM     82  C   UNL A   1      46.885  32.585  29.090  1.00  0.00    -0.014 A 
ATOM     83  C   UNL A   1      46.877  33.592  28.108  1.00  0.00     0.010 A 
ATOM     84  C   UNL A   1      47.329  32.899  30.388  1.00  0.00     0.010 A 
ATOM     85  C   UNL A   1      47.336  34.877  28.410  1.00  0.00     0.020 A 
ATOM     86  C   UNL A   1      47.757  34.191  30.703  1.00  0.00     0.020 A 
ATOM     87  C   UNL A   1      47.771  35.168  29.707  1.00  0.00     0.054 A 
BRANCH  87  88
ATOM     88  S   UNL A   1      48.320  36.855  30.083  1.00  0.00     0.124 S 
ATOM     89  O   UNL A   1      47.109  37.452  30.638  1.00  0.00    -0.237 OA
ATOM     90  O   UNL A   1      49.405  36.633  31.035  1.00  0.00    -0.237 OA
ATOM     91  O   UNL A   1      48.735  37.383  28.784  1.00  0.00    -0.744 OA
ENDBRANCH  87  88
ENDBRANCH  61  82
ENDBRANCH  35  36
ENDBRANCH  27  30
ENDBRANCH  25  26
ENDBRANCH  24  25
ENDBRANCH   1  24
TORSDOF 19
ENDMDL
MODEL 2
REMARK VINA RESULT:     -10.6      0.483      8.268
REMARK SMILES CC(C)[C@H](CO)NS(=O)(=O)c1ccc(C(=O)NCCCNC(=O)c2ccc(-c3c4nc(c(-c5ccc(S(=O)(=O)[O-])cc5)c5ccc([nH]5)c(-c5ccc(S(=O)(=O)[O-])cc5)c5nc(c(-c6ccc(S(=O)(=O)[O-])cc6)c6ccc3[nH]6)C=C5)C=C4)cc2)cn1
REMARK SMILES IDX 18 1 17 2 15 3 16 4 14 6 11 7 12 8 85 9 13 10 84 11 8 12
REMARK SMILES IDX 9 13 10 14 7 15 4 17 2 18 1 19 3 20 5 21 6 22 19 24 20 25
REMARK SMILES IDX 21 26 22 27 23 29 24 30 25 31 83 32 26 33 82 34 27 35 28 36
REMARK SMILES IDX 29 37 76 38 30 39 81 40 75 41 77 42 31 43 80 44 74 45 73 46
REMARK SMILES IDX 32 48 62 49 43 50 61 51 44 52 47 53 60 54 78 55 45 56 46 57
REMARK SMILES IDX 59 59 79 60 48 61 33 62 34 63 42 64 35 65 41 66 36 67 37 68
REMARK SMILES IDX 38 69 39 70 40 71 63 72 64 73 72 74 65 75 71 76 66 77 67 78
REMARK SMILES IDX 68 79 69 80 70 81 49 82 50 83 58 84 51 85 57 86 52 87 53 88
REMARK SMILES IDX 54 89 55 90 56 91
REMARK H PARENT 17 5 7 16 6 23 21 28 77 47 47 58
REMARK Flexibility Score: inf
ROOT
ATOM      1  C   UNL A   1      36.702  21.475  24.951  1.00  0.00     0.118 C 
ENDROOT
BRANCH   1   2
ATOM      2  N   UNL A   1      35.371  20.935  25.164  1.00  0.00    -0.352 N 
ATOM      3  C   UNL A   1      34.127  21.388  24.812  1.00  0.00     0.252 C 
ATOM      4  O   UNL A   1      33.160  20.661  25.037  1.00  0.00    -0.269 OA
ATOM      5  H   UNL A   1      35.360  20.083  25.657  1.00  0.00     0.163 HD
BRANCH   3   6
ATOM      6  C   UNL A   1      33.900  22.676  24.121  1.00  0.00     0.058 A 
ATOM      7  C   UNL A   1      33.407  24.911  22.617  1.00  0.00     0.170 A 
ATOM      8  C   UNL A   1      33.871  25.082  23.914  1.00  0.00     0.043 A 
ATOM      9  N   UNL A   1      33.158  23.706  22.044  1.00  0.00    -0.243 NA
ATOM     10  C   UNL A   1      34.121  23.939  24.675  1.00  0.00     0.018 A 
ATOM     11  C   UNL A   1      33.379  22.621  22.829  1.00  0.00     0.126 A 
BRANCH   7  12
ATOM     12  S   UNL A   1      33.096  26.322  21.564  1.00  0.00     0.258 S 
ATOM     13  O   UNL A   1      33.065  25.872  20.187  1.00  0.00    -0.205 OA
ATOM     14  O   UNL A   1      33.982  27.402  21.935  1.00  0.00    -0.205 OA
BRANCH  12  15
ATOM     15  N   UNL A   1      31.535  26.846  21.930  1.00  0.00    -0.204 NA
ATOM     16  H   UNL A   1      31.217  27.354  21.104  1.00  0.00     0.141 HD
BRANCH  15  17
ATOM     17  C   UNL A   1      31.181  27.713  23.098  1.00  0.00     0.098 C 
BRANCH  17  18
ATOM     18  C   UNL A   1      30.296  26.970  24.148  1.00  0.00     0.003 C 
ATOM     19  C   UNL A   1      30.043  25.507  23.753  1.00  0.00     0.009 C 
ATOM     20  C   UNL A   1      30.922  26.921  25.553  1.00  0.00     0.009 C 
ENDBRANCH  17  18
BRANCH  17  21
ATOM     21  C   UNL A   1      30.490  28.951  22.448  1.00  0.00     0.176 C 
BRANCH  21  22
ATOM     22  O   UNL A   1      31.431  29.736  21.709  1.00  0.00    -0.395 OA
ATOM     23  H   UNL A   1      31.742  29.230  20.942  1.00  0.00     0.210 HD
ENDBRANCH  21  22
ENDBRANCH  17  21
ENDBRANCH  15  17
ENDBRANCH  12  15
ENDBRANCH   7  12
ENDBRANCH   3   6
ENDBRANCH   1   2
BRANCH   1  24
ATOM     24  C   UNL A   1      37.767  20.388  25.070  1.00  0.00     0.042 C 
BRANCH  24  25
ATOM     25  C   UNL A   1      39.045  20.861  25.762  1.00  0.00     0.118 C 
BRANCH  25  26
ATOM     26  N   UNL A   1      40.004  19.779  25.942  1.00  0.00    -0.352 N 
ATOM     27  C   UNL A   1      41.364  19.820  26.125  1.00  0.00     0.251 C 
ATOM     28  H   UNL A   1      39.614  18.874  25.930  1.00  0.00     0.163 HD
ATOM     29  O   UNL A   1      42.015  18.785  26.013  1.00  0.00    -0.269 OA
BRANCH  27  30
ATOM     30  C   UNL A   1      42.045  21.094  26.446  1.00  0.00     0.039 A 
ATOM     31  C   UNL A   1      42.400  21.952  25.402  1.00  0.00     0.014 A 
ATOM     32  C   UNL A   1      42.374  21.427  27.763  1.00  0.00     0.014 A 
ATOM     33  C   UNL A   1      43.029  23.167  25.683  1.00  0.00     0.010 A 
ATOM     34  C   UNL A   1      42.929  22.671  28.049  1.00  0.00     0.010 A 
ATOM     35  C   UNL A   1      43.268  23.554  27.013  1.00  0.00    -0.014 A 
BRANCH  35  36
ATOM     36  C   UNL A   1      43.867  24.875  27.335  1.00  0.00     0.031 A 
ATOM     37  C   UNL A   1      43.003  25.994  27.857  1.00  0.00     0.074 A 
ATOM     38  C   UNL A   1      45.179  25.085  27.106  1.00  0.00     0.049 A 
ATOM     39  N   UNL A   1      43.331  27.231  28.125  1.00  0.00    -0.248 NA
ATOM     40  C   UNL A   1      41.580  25.689  28.086  1.00  0.00     0.031 C 
ATOM     41  C   UNL A   1      46.113  24.093  26.566  1.00  0.00     0.029 A 
ATOM     42  N   UNL A   1      45.954  26.203  27.288  1.00  0.00    -0.354 N 
ATOM     43  C   UNL A   1      42.162  27.852  28.547  1.00  0.00     0.074 A 
ATOM     44  C   UNL A   1      41.102  26.873  28.444  1.00  0.00     0.031 C 
ATOM     45  C   UNL A   1      47.336  24.640  26.482  1.00  0.00     0.029 A 
ATOM     46  C   UNL A   1      47.268  26.032  26.912  1.00  0.00     0.049 A 
ATOM     47  H   UNL A   1      45.604  27.048  27.651  1.00  0.00     0.167 HD
ATOM     48  C   UNL A   1      41.988  29.116  29.004  1.00  0.00     0.031 A 
ATOM     49  C   UNL A   1      48.297  26.901  26.900  1.00  0.00     0.031 A 
ATOM     50  C   UNL A   1      43.045  30.087  29.109  1.00  0.00     0.049 A 
ATOM     51  C   UNL A   1      48.070  28.308  27.383  1.00  0.00     0.074 A 
ATOM     52  C   UNL A   1      42.977  31.382  29.591  1.00  0.00     0.029 A 
ATOM     53  N   UNL A   1      44.361  29.871  28.729  1.00  0.00    -0.354 N 
ATOM     54  N   UNL A   1      46.966  28.858  27.832  1.00  0.00    -0.248 NA
ATOM     55  C   UNL A   1      49.230  29.210  27.373  1.00  0.00     0.031 C 
ATOM     56  C   UNL A   1      44.239  31.968  29.451  1.00  0.00     0.029 A 
ATOM     57  C   UNL A   1      45.109  31.014  28.948  1.00  0.00     0.049 A 
ATOM     58  H   UNL A   1      44.711  29.028  28.359  1.00  0.00     0.167 HD
ATOM     59  C   UNL A   1      47.308  30.159  28.186  1.00  0.00     0.074 A 
ATOM     60  C   UNL A   1      48.723  30.307  27.918  1.00  0.00     0.031 C 
ATOM     61  C   UNL A   1      46.520  31.143  28.684  1.00  0.00     0.031 A 
BRANCH  48  62
ATOM     62  C   UNL A   1      40.602  29.521  29.439  1.00  0.00    -0.014 A 
ATOM     63  C   UNL A   1      40.300  29.713  30.800  1.00  0.00     0.010 A 
ATOM     64  C   UNL A   1      39.611  29.781  28.476  1.00  0.00     0.010 A 
ATOM     65  C   UNL A   1      39.024  30.129  31.191  1.00  0.00     0.020 A 
ATOM     66  C   UNL A   1      38.342  30.227  28.861  1.00  0.00     0.020 A 
ATOM     67  C   UNL A   1      38.055  30.387  30.219  1.00  0.00     0.054 A 
BRANCH  67  68
ATOM     68  S   UNL A   1      36.424  30.972  30.756  1.00  0.00     0.124 S 
ATOM     69  O   UNL A   1      35.722  31.118  29.483  1.00  0.00    -0.237 OA
ATOM     70  O   UNL A   1      35.960  29.881  31.608  1.00  0.00    -0.237 OA
ATOM     71  O   UNL A   1      36.715  32.223  31.452  1.00  0.00    -0.744 OA
ENDBRANCH  67  68
ENDBRANCH  48  62
BRANCH  49  72
ATOM     72  C   UNL A   1      49.634  26.473  26.400  1.00  0.00    -0.014 A 
ATOM     73  C   UNL A   1      50.528  25.778  27.235  1.00  0.00     0.010 A 
ATOM     74  C   UNL A   1      50.028  26.778  25.085  1.00  0.00     0.010 A 
ATOM     75  C   UNL A   1      51.802  25.430  26.775  1.00  0.00     0.020 A 
ATOM     76  C   UNL A   1      51.287  26.400  24.609  1.00  0.00     0.020 A 
ATOM     77  C   UNL A   1      52.173  25.745  25.465  1.00  0.00     0.054 A 
BRANCH  77  78
ATOM     78  S   UNL A   1      53.824  25.266  24.883  1.00  0.00     0.124 S 
ATOM     79  O   UNL A   1      53.890  25.930  23.585  1.00  0.00    -0.237 OA
ATOM     80  O   UNL A   1      54.694  25.812  25.920  1.00  0.00    -0.237 OA
ATOM     81  O   UNL A   1      53.759  23.807  24.838  1.00  0.00    -0.744 OA
ENDBRANCH  77  78
ENDBRANCH  49  72
BRANCH  61  82
ATOM     82  C   UNL A   1      47.178  32.456  29.021  1.00  0.00    -0.014 A 
ATOM     83  C   UNL A   1      47.796  32.670  30.266  1.00  0.00     0.010 A 
ATOM     84  C   UNL A   1      47.223  33.475  28.051  1.00  0.00     0.010 A 
ATOM     85  C   UNL A   1      48.417  33.890  30.546  1.00  0.00     0.020 A 
ATOM     86  C   UNL A   1      47.872  34.683  28.314  1.00  0.00     0.020 A 
ATOM     87  C   UNL A   1      48.453  34.888  29.567  1.00  0.00     0.054 A 
BRANCH  87  88
ATOM     88  S   UNL A   1      49.305  36.445  29.942  1.00  0.00     0.124 S 
ATOM     89  O   UNL A   1      49.455  36.368  31.392  1.00  0.00    -0.237 OA
ATOM     90  O   UNL A   1      50.541  36.324  29.174  1.00  0.00    -0.237 OA
ATOM     91  O   UNL A   1      48.378  37.470  29.465  1.00  0.00    -0.744 OA
ENDBRANCH  87  88
ENDBRANCH  61  82
ENDBRANCH  35  36
ENDBRANCH  27  30
ENDBRANCH  25  26
ENDBRANCH  24  25
ENDBRANCH   1  24
TORSDOF 19
ENDMDL
MODEL 3
REMARK VINA RESULT:     -10.3      5.865      7.907
REMARK SMILES CC(C)[C@H](CO)NS(=O)(=O)c1ccc(C(=O)NCCCNC(=O)c2ccc(-c3c4nc(c(-c5ccc(S(=O)(=O)[O-])cc5)c5ccc([nH]5)c(-c5ccc(S(=O)(=O)[O-])cc5)c5nc(c(-c6ccc(S(=O)(=O)[O-])cc6)c6ccc3[nH]6)C=C5)C=C4)cc2)cn1
REMARK SMILES IDX 18 1 17 2 15 3 16 4 14 6 11 7 12 8 85 9 13 10 84 11 8 12
REMARK SMILES IDX 9 13 10 14 7 15 4 17 2 18 1 19 3 20 5 21 6 22 19 24 20 25
REMARK SMILES IDX 21 26 22 27 23 29 24 30 25 31 83 32 26 33 82 34 27 35 28 36
REMARK SMILES IDX 29 37 76 38 30 39 81 40 75 41 77 42 31 43 80 44 74 45 73 46
REMARK SMILES IDX 32 48 62 49 43 50 61 51 44 52 47 53 60 54 78 55 45 56 46 57
REMARK SMILES IDX 59 59 79 60 48 61 33 62 34 63 42 64 35 65 41 66 36 67 37 68
REMARK SMILES IDX 38 69 39 70 40 71 63 72 64 73 72 74 65 75 71 76 66 77 67 78
REMARK SMILES IDX 68 79 69 80 70 81 49 82 50 83 58 84 51 85 57 86 52 87 53 88
REMARK SMILES IDX 54 89 55 90 56 91
REMARK H PARENT 17 5 7 16 6 23 21 28 77 47 47 58
REMARK Flexibility Score: inf
ROOT
ATOM      1  C   UNL A   1      37.932  21.965  25.912  1.00  0.00     0.118 C 
ENDROOT
BRANCH   1   2
ATOM      2  N   UNL A   1      37.699  22.279  24.513  1.00  0.00    -0.352 N 
ATOM      3  C   UNL A   1      36.644  22.865  23.866  1.00  0.00     0.252 C 
ATOM      4  O   UNL A   1      36.762  23.105  22.664  1.00  0.00    -0.269 OA
ATOM      5  H   UNL A   1      38.439  22.020  23.918  1.00  0.00     0.163 HD
BRANCH   3   6
ATOM      6  C   UNL A   1      35.400  23.278  24.553  1.00  0.00     0.058 A 
ATOM      7  C   UNL A   1      32.978  24.050  25.571  1.00  0.00     0.170 A 
ATOM      8  C   UNL A   1      34.035  23.874  26.453  1.00  0.00     0.043 A 
ATOM      9  N   UNL A   1      33.055  23.844  24.231  1.00  0.00    -0.243 NA
ATOM     10  C   UNL A   1      35.267  23.481  25.928  1.00  0.00     0.018 A 
ATOM     11  C   UNL A   1      34.259  23.427  23.766  1.00  0.00     0.126 A 
BRANCH   7  12
ATOM     12  S   UNL A   1      31.378  24.587  26.158  1.00  0.00     0.258 S 
ATOM     13  O   UNL A   1      30.940  23.679  27.200  1.00  0.00    -0.205 OA
ATOM     14  O   UNL A   1      30.510  24.836  25.029  1.00  0.00    -0.205 OA
BRANCH  12  15
ATOM     15  N   UNL A   1      31.626  26.081  26.900  1.00  0.00    -0.204 NA
ATOM     16  H   UNL A   1      30.748  26.303  27.369  1.00  0.00     0.141 HD
BRANCH  15  17
ATOM     17  C   UNL A   1      32.025  27.332  26.180  1.00  0.00     0.098 C 
BRANCH  17  18
ATOM     18  C   UNL A   1      33.555  27.383  25.872  1.00  0.00     0.003 C 
ATOM     19  C   UNL A   1      33.835  27.437  24.362  1.00  0.00     0.009 C 
ATOM     20  C   UNL A   1      34.262  28.611  26.471  1.00  0.00     0.009 C 
ENDBRANCH  17  18
BRANCH  17  21
ATOM     21  C   UNL A   1      31.528  28.476  27.117  1.00  0.00     0.176 C 
BRANCH  21  22
ATOM     22  O   UNL A   1      30.995  27.947  28.335  1.00  0.00    -0.395 OA
ATOM     23  H   UNL A   1      30.993  26.978  28.294  1.00  0.00     0.210 HD
ENDBRANCH  21  22
ENDBRANCH  17  21
ENDBRANCH  15  17
ENDBRANCH  12  15
ENDBRANCH   7  12
ENDBRANCH   3   6
ENDBRANCH   1   2
BRANCH   1  24
ATOM     24  C   UNL A   1      39.424  21.858  26.215  1.00  0.00     0.042 C 
BRANCH  24  25
ATOM     25  C   UNL A   1      40.034  23.155  26.745  1.00  0.00     0.118 C 
BRANCH  25  26
ATOM     26  N   UNL A   1      41.235  23.534  26.014  1.00  0.00    -0.352 N 
ATOM     27  C   UNL A   1      41.960  24.700  26.043  1.00  0.00     0.251 C 
ATOM     28  H   UNL A   1      41.583  22.846  25.401  1.00  0.00     0.163 HD
ATOM     29  O   UNL A   1      42.799  24.906  25.169  1.00  0.00    -0.269 OA
BRANCH  27  30
ATOM     30  C   UNL A   1      41.733  25.705  27.105  1.00  0.00     0.039 A 
ATOM     31  C   UNL A   1      40.750  25.461  28.067  1.00  0.00     0.014 A 
ATOM     32  C   UNL A   1      42.454  26.903  27.133  1.00  0.00     0.014 A 
ATOM     33  C   UNL A   1      40.531  26.389  29.088  1.00  0.00     0.010 A 
ATOM     34  C   UNL A   1      42.290  27.789  28.194  1.00  0.00     0.010 A 
ATOM     35  C   UNL A   1      41.324  27.545  29.181  1.00  0.00    -0.014 A 
BRANCH  35  36
ATOM     36  C   UNL A   1      41.157  28.506  30.304  1.00  0.00     0.031 A 
ATOM     37  C   UNL A   1      42.021  28.395  31.533  1.00  0.00     0.074 A 
ATOM     38  C   UNL A   1      40.190  29.444  30.238  1.00  0.00     0.049 A 
ATOM     39  N   UNL A   1      41.974  29.093  32.638  1.00  0.00    -0.248 NA
ATOM     40  C   UNL A   1      43.058  27.349  31.530  1.00  0.00     0.031 C 
ATOM     41  C   UNL A   1      39.263  29.628  29.118  1.00  0.00     0.029 A 
ATOM     42  N   UNL A   1      39.818  30.412  31.137  1.00  0.00    -0.354 N 
ATOM     43  C   UNL A   1      42.966  28.571  33.460  1.00  0.00     0.074 A 
ATOM     44  C   UNL A   1      43.559  27.459  32.752  1.00  0.00     0.031 C 
ATOM     45  C   UNL A   1      38.447  30.659  29.388  1.00  0.00     0.029 A 
ATOM     46  C   UNL A   1      38.755  31.178  30.715  1.00  0.00     0.049 A 
ATOM     47  H   UNL A   1      40.269  30.546  32.002  1.00  0.00     0.167 HD
ATOM     48  C   UNL A   1      43.364  28.995  34.684  1.00  0.00     0.031 A 
ATOM     49  C   UNL A   1      38.091  32.174  31.334  1.00  0.00     0.031 A 
ATOM     50  C   UNL A   1      42.773  30.104  35.385  1.00  0.00     0.049 A 
ATOM     51  C   UNL A   1      38.534  32.604  32.707  1.00  0.00     0.074 A 
ATOM     52  C   UNL A   1      43.128  30.631  36.614  1.00  0.00     0.029 A 
ATOM     53  N   UNL A   1      41.707  30.859  34.919  1.00  0.00    -0.354 N 
ATOM     54  N   UNL A   1      39.512  32.132  33.443  1.00  0.00    -0.248 NA
ATOM     55  C   UNL A   1      37.793  33.711  33.328  1.00  0.00     0.031 C 
ATOM     56  C   UNL A   1      42.241  31.669  36.917  1.00  0.00     0.029 A 
ATOM     57  C   UNL A   1      41.379  31.834  35.845  1.00  0.00     0.049 A 
ATOM     58  H   UNL A   1      41.250  30.721  34.058  1.00  0.00     0.167 HD
ATOM     59  C   UNL A   1      39.523  32.906  34.599  1.00  0.00     0.074 A 
ATOM     60  C   UNL A   1      38.468  33.887  34.455  1.00  0.00     0.031 C 
ATOM     61  C   UNL A   1      40.331  32.810  35.683  1.00  0.00     0.031 A 
BRANCH  48  62
ATOM     62  C   UNL A   1      44.504  28.261  35.344  1.00  0.00    -0.014 A 
ATOM     63  C   UNL A   1      44.275  27.086  36.084  1.00  0.00     0.010 A 
ATOM     64  C   UNL A   1      45.825  28.710  35.167  1.00  0.00     0.010 A 
ATOM     65  C   UNL A   1      45.342  26.390  36.657  1.00  0.00     0.020 A 
ATOM     66  C   UNL A   1      46.899  27.999  35.713  1.00  0.00     0.020 A 
ATOM     67  C   UNL A   1      46.648  26.848  36.465  1.00  0.00     0.054 A 
BRANCH  67  68
ATOM     68  S   UNL A   1      48.015  25.895  37.181  1.00  0.00     0.124 S 
ATOM     69  O   UNL A   1      48.400  26.729  38.317  1.00  0.00    -0.237 OA
ATOM     70  O   UNL A   1      47.373  24.628  37.522  1.00  0.00    -0.237 OA
ATOM     71  O   UNL A   1      48.995  25.825  36.100  1.00  0.00    -0.744 OA
ENDBRANCH  67  68
ENDBRANCH  48  62
BRANCH  49  72
ATOM     72  C   UNL A   1      36.928  32.826  30.669  1.00  0.00    -0.014 A 
ATOM     73  C   UNL A   1      37.119  33.804  29.677  1.00  0.00     0.010 A 
ATOM     74  C   UNL A   1      35.616  32.482  31.042  1.00  0.00     0.010 A 
ATOM     75  C   UNL A   1      36.022  34.451  29.098  1.00  0.00     0.020 A 
ATOM     76  C   UNL A   1      34.516  33.100  30.441  1.00  0.00     0.020 A 
ATOM     77  C   UNL A   1      34.727  34.096  29.486  1.00  0.00     0.054 A 
BRANCH  77  78
ATOM     78  S   UNL A   1      33.318  34.933  28.708  1.00  0.00     0.124 S 
ATOM     79  O   UNL A   1      32.319  34.894  29.771  1.00  0.00    -0.237 OA
ATOM     80  O   UNL A   1      33.866  36.251  28.401  1.00  0.00    -0.237 OA
ATOM     81  O   UNL A   1      33.027  34.100  27.544  1.00  0.00    -0.744 OA
ENDBRANCH  77  78
ENDBRANCH  49  72
BRANCH  61  82
ATOM     82  C   UNL A   1      40.141  33.822  36.783  1.00  0.00    -0.014 A 
ATOM     83  C   UNL A   1      40.807  35.061  36.763  1.00  0.00     0.010 A 
ATOM     84  C   UNL A   1      39.239  33.548  37.827  1.00  0.00     0.010 A 
ATOM     85  C   UNL A   1      40.599  35.992  37.784  1.00  0.00     0.020 A 
ATOM     86  C   UNL A   1      39.002  34.489  38.831  1.00  0.00     0.020 A 
ATOM     87  C   UNL A   1      39.696  35.700  38.811  1.00  0.00     0.054 A 
BRANCH  87  88
ATOM     88  S   UNL A   1      39.411  36.943  40.100  1.00  0.00     0.124 S 
ATOM     89  O   UNL A   1      40.768  37.392  40.395  1.00  0.00    -0.237 OA
ATOM     90  O   UNL A   1      38.561  37.917  39.420  1.00  0.00    -0.237 OA
ATOM     91  O   UNL A   1      38.758  36.191  41.169  1.00  0.00    -0.744 OA
ENDBRANCH  87  88
ENDBRANCH  61  82
ENDBRANCH  35  36
ENDBRANCH  27  30
ENDBRANCH  25  26
ENDBRANCH  24  25
ENDBRANCH   1  24
TORSDOF 19
ENDMDL
