MODEL 1
REMARK VINA RESULT:     -12.5      0.000      0.000
REMARK SMILES CS(=O)(=O)c1ccc(-c2cc(Cl)cc3c2O[C@H](C(F)(F)F)C(C(=O)NCCCNC(=O)c2ccc(-c4c5nc(c(-c6ccc(S(=O)(=O)[O-])cc6)c6ccc([nH]6)c(-c6ccc(S(=O)(=O)[O-])cc6)c6nc(c(-c7ccc(S(=O)(=O)[O-])cc7)c7ccc4[nH]7)C=C6)C=C5)cc2)=C3)cc1
REMARK SMILES IDX 27 1 26 2 25 3 23 4 24 5 22 7 9 8 10 9 15 10 11 11 14 12
REMARK SMILES IDX 16 13 12 14 13 15 92 16 17 17 8 18 5 19 6 20 94 21 7 22
REMARK SMILES IDX 93 23 2 24 1 25 3 26 4 27 18 28 19 29 20 30 21 31 28 32
REMARK SMILES IDX 29 33 30 34 31 36 32 37 33 38 91 39 34 40 90 41 35 42 36 43
REMARK SMILES IDX 37 44 84 45 38 46 89 47 83 48 85 49 39 50 88 51 82 52 81 53
REMARK SMILES IDX 40 55 70 56 51 57 69 58 52 59 55 60 68 61 86 62 53 63 54 64
REMARK SMILES IDX 67 66 87 67 56 68 41 69 42 70 50 71 43 72 49 73 44 74 45 75
REMARK SMILES IDX 46 76 47 77 48 78 71 79 72 80 80 81 73 82 79 83 74 84 75 85
REMARK SMILES IDX 76 86 77 87 78 88 57 89 58 90 66 91 59 92 65 93 60 94 61 95
REMARK SMILES IDX 62 96 63 97 64 98
REMARK H PARENT 25 6 29 35 85 54 55 65
REMARK Flexibility Score: inf
ROOT
ATOM      1  C   UNL A   1      33.058  28.117  25.899  1.00  0.00     0.042 C 
ENDROOT
BRANCH   1   2
ATOM      2  C   UNL A   1      34.131  27.404  25.073  1.00  0.00     0.118 C 
BRANCH   2   3
ATOM      3  N   UNL A   1      33.511  26.503  24.121  1.00  0.00    -0.352 N 
ATOM      4  C   UNL A   1      34.103  25.474  23.468  1.00  0.00     0.251 C 
ATOM      5  O   UNL A   1      33.827  25.255  22.294  1.00  0.00    -0.270 OA
ATOM      6  H   UNL A   1      32.557  26.655  23.929  1.00  0.00     0.163 HD
BRANCH   4   7
ATOM      7  C   UNL A   1      34.960  24.559  24.277  1.00  0.00     0.067 C 
ATOM      8  C   UNL A   1      32.219  21.667  25.110  1.00  0.00     0.026 A 
ATOM      9  C   UNL A   1      31.028  22.324  25.519  1.00  0.00     0.033 A 
ATOM     10  C   UNL A   1      33.378  22.461  25.053  1.00  0.00     0.135 A 
ATOM     11  C   UNL A   1      31.017  23.633  25.997  1.00  0.00     0.042 A 
ATOM     12  C   UNL A   1      33.369  23.745  25.653  1.00  0.00     0.019 A 
ATOM     13  O   UNL A   1      34.533  22.070  24.391  1.00  0.00    -0.475 OA
ATOM     14  Cl  UNL A   1      29.529  24.363  26.450  1.00  0.00    -0.084 Cl
ATOM     15  C   UNL A   1      32.201  24.329  26.134  1.00  0.00     0.032 A 
ATOM     16  C   UNL A   1      34.608  24.551  25.578  1.00  0.00     0.025 C 
ATOM     17  C   UNL A   1      35.204  23.188  23.658  1.00  0.00     0.314 C 
BRANCH   8  18
ATOM     18  C   UNL A   1      32.114  20.184  25.023  1.00  0.00    -0.015 A 
ATOM     19  C   UNL A   1      33.119  17.564  24.669  1.00  0.00     0.067 A 
ATOM     20  C   UNL A   1      32.998  18.084  25.955  1.00  0.00     0.021 A 
ATOM     21  C   UNL A   1      32.616  18.278  23.577  1.00  0.00     0.021 A 
ATOM     22  C   UNL A   1      32.471  19.375  26.127  1.00  0.00     0.010 A 
ATOM     23  C   UNL A   1      32.108  19.574  23.756  1.00  0.00     0.010 A 
BRANCH  19  24
ATOM     24  S   UNL A   1      34.015  16.060  24.339  1.00  0.00     0.175 S 
ATOM     25  C   UNL A   1      35.510  16.100  25.286  1.00  0.00     0.163 C 
ATOM     26  O   UNL A   1      34.388  16.101  22.939  1.00  0.00    -0.224 OA
ATOM     27  O   UNL A   1      33.210  14.971  24.865  1.00  0.00    -0.224 OA
ENDBRANCH  19  24
ENDBRANCH   8  18
BRANCH  17  28
ATOM     28  C   UNL A   1      36.732  22.974  23.553  1.00  0.00     0.429 C 
ATOM     29  F   UNL A   1      37.097  21.696  23.807  1.00  0.00    -0.167 F 
ATOM     30  F   UNL A   1      37.189  23.294  22.320  1.00  0.00    -0.167 F 
ATOM     31  F   UNL A   1      37.428  23.750  24.427  1.00  0.00    -0.167 F 
ENDBRANCH  17  28
ENDBRANCH   4   7
ENDBRANCH   2   3
ENDBRANCH   1   2
BRANCH   1  32
ATOM     32  C   UNL A   1      33.471  28.455  27.331  1.00  0.00     0.118 C 
BRANCH  32  33
ATOM     33  N   UNL A   1      33.419  29.878  27.623  1.00  0.00    -0.352 N 
ATOM     34  C   UNL A   1      34.389  30.690  28.161  1.00  0.00     0.251 C 
ATOM     35  H   UNL A   1      32.568  30.324  27.405  1.00  0.00     0.163 HD
ATOM     36  O   UNL A   1      34.116  31.843  28.476  1.00  0.00    -0.269 OA
BRANCH  34  37
ATOM     37  C   UNL A   1      35.749  30.154  28.388  1.00  0.00     0.039 A 
ATOM     38  C   UNL A   1      36.669  30.179  27.339  1.00  0.00     0.014 A 
ATOM     39  C   UNL A   1      36.120  29.651  29.638  1.00  0.00     0.014 A 
ATOM     40  C   UNL A   1      37.984  29.765  27.564  1.00  0.00     0.010 A 
ATOM     41  C   UNL A   1      37.450  29.318  29.881  1.00  0.00     0.010 A 
ATOM     42  C   UNL A   1      38.398  29.371  28.847  1.00  0.00    -0.014 A 
BRANCH  42  43
ATOM     43  C   UNL A   1      39.814  29.016  29.128  1.00  0.00     0.031 A 
ATOM     44  C   UNL A   1      40.748  30.035  29.723  1.00  0.00     0.074 A 
ATOM     45  C   UNL A   1      40.277  27.795  28.788  1.00  0.00     0.049 A 
ATOM     46  N   UNL A   1      42.027  29.930  29.984  1.00  0.00    -0.248 NA
ATOM     47  C   UNL A   1      40.179  31.356  30.041  1.00  0.00     0.031 C 
ATOM     48  C   UNL A   1      39.486  26.730  28.164  1.00  0.00     0.029 A 
ATOM     49  N   UNL A   1      41.527  27.243  28.916  1.00  0.00    -0.354 N 
ATOM     50  C   UNL A   1      42.416  31.170  30.477  1.00  0.00     0.074 A 
ATOM     51  C   UNL A   1      41.254  32.029  30.426  1.00  0.00     0.031 C 
ATOM     52  C   UNL A   1      40.260  25.647  27.993  1.00  0.00     0.029 A 
ATOM     53  C   UNL A   1      41.613  25.950  28.452  1.00  0.00     0.049 A 
ATOM     54  H   UNL A   1      42.293  27.726  29.303  1.00  0.00     0.167 HD
ATOM     55  C   UNL A   1      43.626  31.555  30.949  1.00  0.00     0.031 A 
ATOM     56  C   UNL A   1      42.659  25.103  28.395  1.00  0.00     0.031 A 
ATOM     57  C   UNL A   1      44.777  30.695  31.009  1.00  0.00     0.049 A 
ATOM     58  C   UNL A   1      43.995  25.556  28.920  1.00  0.00     0.074 A 
ATOM     59  C   UNL A   1      46.032  30.972  31.524  1.00  0.00     0.029 A 
ATOM     60  N   UNL A   1      44.818  29.390  30.540  1.00  0.00    -0.354 N 
ATOM     61  N   UNL A   1      44.325  26.712  29.444  1.00  0.00    -0.248 NA
ATOM     62  C   UNL A   1      45.097  24.586  28.856  1.00  0.00     0.031 C 
ATOM     63  C   UNL A   1      46.847  29.856  31.314  1.00  0.00     0.029 A 
ATOM     64  C   UNL A   1      46.082  28.858  30.729  1.00  0.00     0.049 A 
ATOM     65  H   UNL A   1      44.059  28.913  30.132  1.00  0.00     0.167 HD
ATOM     66  C   UNL A   1      45.665  26.597  29.800  1.00  0.00     0.074 A 
ATOM     67  C   UNL A   1      46.077  25.255  29.445  1.00  0.00     0.031 C 
ATOM     68  C   UNL A   1      46.479  27.519  30.371  1.00  0.00     0.031 A 
BRANCH  55  69
ATOM     69  C   UNL A   1      43.765  32.975  31.436  1.00  0.00    -0.014 A 
ATOM     70  C   UNL A   1      43.462  33.322  32.765  1.00  0.00     0.010 A 
ATOM     71  C   UNL A   1      44.243  33.970  30.563  1.00  0.00     0.010 A 
ATOM     72  C   UNL A   1      43.590  34.645  33.199  1.00  0.00     0.020 A 
ATOM     73  C   UNL A   1      44.404  35.287  31.002  1.00  0.00     0.020 A 
ATOM     74  C   UNL A   1      44.058  35.619  32.314  1.00  0.00     0.054 A 
BRANCH  74  75
ATOM     75  S   UNL A   1      44.236  37.321  32.914  1.00  0.00     0.124 S 
ATOM     76  O   UNL A   1      45.585  37.303  33.475  1.00  0.00    -0.237 OA
ATOM     77  O   UNL A   1      44.074  38.109  31.694  1.00  0.00    -0.237 OA
ATOM     78  O   UNL A   1      43.159  37.461  33.891  1.00  0.00    -0.744 OA
ENDBRANCH  74  75
ENDBRANCH  55  69
BRANCH  56  79
ATOM     79  C   UNL A   1      42.482  23.735  27.835  1.00  0.00    -0.014 A 
ATOM     80  C   UNL A   1      42.281  22.634  28.686  1.00  0.00     0.010 A 
ATOM     81  C   UNL A   1      42.504  23.527  26.443  1.00  0.00     0.010 A 
ATOM     82  C   UNL A   1      42.125  21.348  28.158  1.00  0.00     0.020 A 
ATOM     83  C   UNL A   1      42.318  22.248  25.911  1.00  0.00     0.020 A 
ATOM     84  C   UNL A   1      42.142  21.164  26.773  1.00  0.00     0.054 A 
BRANCH  84  85
ATOM     85  S   UNL A   1      41.887  19.494  26.110  1.00  0.00     0.124 S 
ATOM     86  O   UNL A   1      40.455  19.494  25.830  1.00  0.00    -0.237 OA
ATOM     87  O   UNL A   1      42.761  19.483  24.940  1.00  0.00    -0.237 OA
ATOM     88  O   UNL A   1      42.313  18.624  27.204  1.00  0.00    -0.744 OA
ENDBRANCH  84  85
ENDBRANCH  56  79
BRANCH  68  89
ATOM     89  C   UNL A   1      47.891  27.099  30.685  1.00  0.00    -0.014 A 
ATOM     90  C   UNL A   1      48.934  27.284  29.762  1.00  0.00     0.010 A 
ATOM     91  C   UNL A   1      48.185  26.559  31.952  1.00  0.00     0.010 A 
ATOM     92  C   UNL A   1      50.239  26.903  30.085  1.00  0.00     0.020 A 
ATOM     93  C   UNL A   1      49.494  26.206  32.290  1.00  0.00     0.020 A 
ATOM     94  C   UNL A   1      50.511  26.367  31.348  1.00  0.00     0.054 A 
BRANCH  94  95
ATOM     95  S   UNL A   1      52.220  25.920  31.756  1.00  0.00     0.124 S 
ATOM     96  O   UNL A   1      52.094  24.502  32.082  1.00  0.00    -0.237 OA
ATOM     97  O   UNL A   1      52.934  26.219  30.518  1.00  0.00    -0.237 OA
ATOM     98  O   UNL A   1      52.547  26.791  32.883  1.00  0.00    -0.744 OA
ENDBRANCH  94  95
ENDBRANCH  68  89
ENDBRANCH  42  43
ENDBRANCH  34  37
ENDBRANCH  32  33
ENDBRANCH   1  32
TORSDOF 16
ENDMDL
MODEL 2
REMARK VINA RESULT:     -12.1      4.125      8.507
REMARK SMILES CS(=O)(=O)c1ccc(-c2cc(Cl)cc3c2O[C@H](C(F)(F)F)C(C(=O)NCCCNC(=O)c2ccc(-c4c5nc(c(-c6ccc(S(=O)(=O)[O-])cc6)c6ccc([nH]6)c(-c6ccc(S(=O)(=O)[O-])cc6)c6nc(c(-c7ccc(S(=O)(=O)[O-])cc7)c7ccc4[nH]7)C=C6)C=C5)cc2)=C3)cc1
REMARK SMILES IDX 27 1 26 2 25 3 23 4 24 5 22 7 9 8 10 9 15 10 11 11 14 12
REMARK SMILES IDX 16 13 12 14 13 15 92 16 17 17 8 18 5 19 6 20 94 21 7 22
REMARK SMILES IDX 93 23 2 24 1 25 3 26 4 27 18 28 19 29 20 30 21 31 28 32
REMARK SMILES IDX 29 33 30 34 31 36 32 37 33 38 91 39 34 40 90 41 35 42 36 43
REMARK SMILES IDX 37 44 84 45 38 46 89 47 83 48 85 49 39 50 88 51 82 52 81 53
REMARK SMILES IDX 40 55 70 56 51 57 69 58 52 59 55 60 68 61 86 62 53 63 54 64
REMARK SMILES IDX 67 66 87 67 56 68 41 69 42 70 50 71 43 72 49 73 44 74 45 75
REMARK SMILES IDX 46 76 47 77 48 78 71 79 72 80 80 81 73 82 79 83 74 84 75 85
REMARK SMILES IDX 76 86 77 87 78 88 57 89 58 90 66 91 59 92 65 93 60 94 61 95
REMARK SMILES IDX 62 96 63 97 64 98
REMARK H PARENT 25 6 29 35 85 54 55 65
REMARK Flexibility Score: inf
ROOT
ATOM      1  C   UNL A   1      37.515  21.057  25.063  1.00  0.00     0.042 C 
ENDROOT
BRANCH   1   2
ATOM      2  C   UNL A   1      36.292  21.779  25.632  1.00  0.00     0.118 C 
BRANCH   2   3
ATOM      3  N   UNL A   1      36.217  23.127  25.102  1.00  0.00    -0.352 N 
ATOM      4  C   UNL A   1      35.358  23.584  24.159  1.00  0.00     0.251 C 
ATOM      5  O   UNL A   1      35.750  24.374  23.307  1.00  0.00    -0.270 OA
ATOM      6  H   UNL A   1      36.858  23.779  25.466  1.00  0.00     0.163 HD
BRANCH   4   7
ATOM      7  C   UNL A   1      33.922  23.209  24.309  1.00  0.00     0.067 C 
ATOM      8  C   UNL A   1      32.238  26.889  23.875  1.00  0.00     0.026 A 
ATOM      9  C   UNL A   1      32.985  27.790  24.680  1.00  0.00     0.033 A 
ATOM     10  C   UNL A   1      32.466  25.520  24.099  1.00  0.00     0.135 A 
ATOM     11  C   UNL A   1      33.778  27.366  25.745  1.00  0.00     0.042 A 
ATOM     12  C   UNL A   1      33.178  25.116  25.256  1.00  0.00     0.019 A 
ATOM     13  O   UNL A   1      32.067  24.530  23.212  1.00  0.00    -0.475 OA
ATOM     14  Cl  UNL A   1      34.669  28.518  26.655  1.00  0.00    -0.084 Cl
ATOM     15  C   UNL A   1      33.823  26.029  26.085  1.00  0.00     0.032 A 
ATOM     16  C   UNL A   1      33.395  23.667  25.462  1.00  0.00     0.025 C 
ATOM     17  C   UNL A   1      33.066  23.426  23.067  1.00  0.00     0.314 C 
BRANCH   8  18
ATOM     18  C   UNL A   1      31.155  27.523  23.072  1.00  0.00    -0.015 A 
ATOM     19  C   UNL A   1      29.153  29.451  22.549  1.00  0.00     0.067 A 
ATOM     20  C   UNL A   1      30.439  29.645  22.050  1.00  0.00     0.021 A 
ATOM     21  C   UNL A   1      28.823  28.247  23.179  1.00  0.00     0.021 A 
ATOM     22  C   UNL A   1      31.423  28.671  22.289  1.00  0.00     0.010 A 
ATOM     23  C   UNL A   1      29.816  27.287  23.428  1.00  0.00     0.010 A 
BRANCH  19  24
ATOM     24  S   UNL A   1      27.927  30.743  22.526  1.00  0.00     0.175 S 
ATOM     25  C   UNL A   1      28.708  32.242  23.051  1.00  0.00     0.163 C 
ATOM     26  O   UNL A   1      26.941  30.394  23.530  1.00  0.00    -0.224 OA
ATOM     27  O   UNL A   1      27.543  30.930  21.137  1.00  0.00    -0.224 OA
ENDBRANCH  19  24
ENDBRANCH   8  18
BRANCH  17  28
ATOM     28  C   UNL A   1      32.391  22.081  22.709  1.00  0.00     0.429 C 
ATOM     29  F   UNL A   1      31.066  22.074  22.983  1.00  0.00    -0.167 F 
ATOM     30  F   UNL A   1      32.539  21.793  21.394  1.00  0.00    -0.167 F 
ATOM     31  F   UNL A   1      32.926  21.032  23.389  1.00  0.00    -0.167 F 
ENDBRANCH  17  28
ENDBRANCH   4   7
ENDBRANCH   2   3
ENDBRANCH   1   2
BRANCH   1  32
ATOM     32  C   UNL A   1      38.815  21.294  25.831  1.00  0.00     0.118 C 
BRANCH  32  33
ATOM     33  N   UNL A   1      39.626  20.095  25.969  1.00  0.00    -0.352 N 
ATOM     34  C   UNL A   1      40.976  19.984  26.203  1.00  0.00     0.251 C 
ATOM     35  H   UNL A   1      39.140  19.243  25.883  1.00  0.00     0.163 HD
ATOM     36  O   UNL A   1      41.519  18.885  26.142  1.00  0.00    -0.269 OA
BRANCH  34  37
ATOM     37  C   UNL A   1      41.772  21.196  26.493  1.00  0.00     0.039 A 
ATOM     38  C   UNL A   1      42.137  22.034  25.439  1.00  0.00     0.014 A 
ATOM     39  C   UNL A   1      42.136  21.516  27.804  1.00  0.00     0.014 A 
ATOM     40  C   UNL A   1      42.807  23.230  25.707  1.00  0.00     0.010 A 
ATOM     41  C   UNL A   1      42.729  22.746  28.076  1.00  0.00     0.010 A 
ATOM     42  C   UNL A   1      43.071  23.618  27.031  1.00  0.00    -0.014 A 
BRANCH  42  43
ATOM     43  C   UNL A   1      43.699  24.929  27.342  1.00  0.00     0.031 A 
ATOM     44  C   UNL A   1      42.860  26.071  27.850  1.00  0.00     0.074 A 
ATOM     45  C   UNL A   1      45.015  25.113  27.107  1.00  0.00     0.049 A 
ATOM     46  N   UNL A   1      43.217  27.301  28.119  1.00  0.00    -0.248 NA
ATOM     47  C   UNL A   1      41.426  25.805  28.055  1.00  0.00     0.031 C 
ATOM     48  C   UNL A   1      45.931  24.100  26.574  1.00  0.00     0.029 A 
ATOM     49  N   UNL A   1      45.812  26.217  27.281  1.00  0.00    -0.354 N 
ATOM     50  C   UNL A   1      42.053  27.957  28.506  1.00  0.00     0.074 A 
ATOM     51  C   UNL A   1      40.972  27.006  28.382  1.00  0.00     0.031 C 
ATOM     52  C   UNL A   1      47.167  24.620  26.496  1.00  0.00     0.029 A 
ATOM     53  C   UNL A   1      47.126  26.014  26.929  1.00  0.00     0.049 A 
ATOM     54  H   UNL A   1      45.475  27.075  27.627  1.00  0.00     0.167 HD
ATOM     55  C   UNL A   1      41.901  29.228  28.946  1.00  0.00     0.031 A 
ATOM     56  C   UNL A   1      48.181  26.853  26.945  1.00  0.00     0.031 A 
ATOM     57  C   UNL A   1      42.981  30.169  29.079  1.00  0.00     0.049 A 
ATOM     58  C   UNL A   1      47.985  28.264  27.430  1.00  0.00     0.074 A 
ATOM     59  C   UNL A   1      42.940  31.463  29.569  1.00  0.00     0.029 A 
ATOM     60  N   UNL A   1      44.298  29.920  28.722  1.00  0.00    -0.354 N 
ATOM     61  N   UNL A   1      46.888  28.844  27.856  1.00  0.00    -0.248 NA
ATOM     62  C   UNL A   1      49.172  29.130  27.449  1.00  0.00     0.031 C 
ATOM     63  C   UNL A   1      44.219  32.015  29.456  1.00  0.00     0.029 A 
ATOM     64  C   UNL A   1      45.073  31.043  28.956  1.00  0.00     0.049 A 
ATOM     65  H   UNL A   1      44.632  29.069  28.355  1.00  0.00     0.167 HD
ATOM     66  C   UNL A   1      47.259  30.133  28.220  1.00  0.00     0.074 A 
ATOM     67  C   UNL A   1      48.684  30.241  27.981  1.00  0.00     0.031 C 
ATOM     68  C   UNL A   1      46.491  31.137  28.713  1.00  0.00     0.031 A 
BRANCH  55  69
ATOM     69  C   UNL A   1      40.510  29.679  29.311  1.00  0.00    -0.014 A 
ATOM     70  C   UNL A   1      40.156  29.941  30.647  1.00  0.00     0.010 A 
ATOM     71  C   UNL A   1      39.551  29.880  28.300  1.00  0.00     0.010 A 
ATOM     72  C   UNL A   1      38.859  30.351  30.971  1.00  0.00     0.020 A 
ATOM     73  C   UNL A   1      38.263  30.322  28.616  1.00  0.00     0.020 A 
ATOM     74  C   UNL A   1      37.921  30.537  29.953  1.00  0.00     0.054 A 
BRANCH  74  75
ATOM     75  S   UNL A   1      36.254  31.092  30.401  1.00  0.00     0.124 S 
ATOM     76  O   UNL A   1      36.491  32.484  30.776  1.00  0.00    -0.237 OA
ATOM     77  O   UNL A   1      35.506  30.895  29.162  1.00  0.00    -0.237 OA
ATOM     78  O   UNL A   1      35.876  30.208  31.502  1.00  0.00    -0.744 OA
ENDBRANCH  74  75
ENDBRANCH  55  69
BRANCH  56  79
ATOM     79  C   UNL A   1      49.520  26.376  26.502  1.00  0.00    -0.014 A 
ATOM     80  C   UNL A   1      49.940  26.556  25.172  1.00  0.00     0.010 A 
ATOM     81  C   UNL A   1      50.389  25.747  27.412  1.00  0.00     0.010 A 
ATOM     82  C   UNL A   1      51.194  26.099  24.756  1.00  0.00     0.020 A 
ATOM     83  C   UNL A   1      51.655  25.315  27.007  1.00  0.00     0.020 A 
ATOM     84  C   UNL A   1      52.046  25.483  25.678  1.00  0.00     0.054 A 
BRANCH  84  85
ATOM     85  S   UNL A   1      53.688  24.943  25.127  1.00  0.00     0.124 S 
ATOM     86  O   UNL A   1      53.824  25.637  23.850  1.00  0.00    -0.237 OA
ATOM     87  O   UNL A   1      54.553  25.419  26.202  1.00  0.00    -0.237 OA
ATOM     88  O   UNL A   1      53.557  23.490  25.040  1.00  0.00    -0.744 OA
ENDBRANCH  84  85
ENDBRANCH  56  79
BRANCH  68  89
ATOM     89  C   UNL A   1      47.178  32.431  29.063  1.00  0.00    -0.014 A 
ATOM     90  C   UNL A   1      47.747  32.640  30.331  1.00  0.00     0.010 A 
ATOM     91  C   UNL A   1      47.302  33.433  28.082  1.00  0.00     0.010 A 
ATOM     92  C   UNL A   1      48.395  33.842  30.624  1.00  0.00     0.020 A 
ATOM     93  C   UNL A   1      47.978  34.624  28.362  1.00  0.00     0.020 A 
ATOM     94  C   UNL A   1      48.508  34.826  29.637  1.00  0.00     0.054 A 
BRANCH  94  95
ATOM     95  S   UNL A   1      49.390  36.360  30.031  1.00  0.00     0.124 S 
ATOM     96  O   UNL A   1      48.799  37.303  29.085  1.00  0.00    -0.237 OA
ATOM     97  O   UNL A   1      49.046  36.578  31.433  1.00  0.00    -0.237 OA
ATOM     98  O   UNL A   1      50.792  36.027  29.784  1.00  0.00    -0.744 OA
ENDBRANCH  94  95
ENDBRANCH  68  89
ENDBRANCH  42  43
ENDBRANCH  34  37
ENDBRANCH  32  33
ENDBRANCH   1  32
TORSDOF 16
ENDMDL
MODEL 3
REMARK VINA RESULT:     -11.8      3.266      4.059
REMARK SMILES CS(=O)(=O)c1ccc(-c2cc(Cl)cc3c2O[C@H](C(F)(F)F)C(C(=O)NCCCNC(=O)c2ccc(-c4c5nc(c(-c6ccc(S(=O)(=O)[O-])cc6)c6ccc([nH]6)c(-c6ccc(S(=O)(=O)[O-])cc6)c6nc(c(-c7ccc(S(=O)(=O)[O-])cc7)c7ccc4[nH]7)C=C6)C=C5)cc2)=C3)cc1
REMARK SMILES IDX 27 1 26 2 25 3 23 4 24 5 22 7 9 8 10 9 15 10 11 11 14 12
REMARK SMILES IDX 16 13 12 14 13 15 92 16 17 17 8 18 5 19 6 20 94 21 7 22
REMARK SMILES IDX 93 23 2 24 1 25 3 26 4 27 18 28 19 29 20 30 21 31 28 32
REMARK SMILES IDX 29 33 30 34 31 36 32 37 33 38 91 39 34 40 90 41 35 42 36 43
REMARK SMILES IDX 37 44 84 45 38 46 89 47 83 48 85 49 39 50 88 51 82 52 81 53
REMARK SMILES IDX 40 55 70 56 51 57 69 58 52 59 55 60 68 61 86 62 53 63 54 64
REMARK SMILES IDX 67 66 87 67 56 68 41 69 42 70 50 71 43 72 49 73 44 74 45 75
REMARK SMILES IDX 46 76 47 77 48 78 71 79 72 80 80 81 73 82 79 83 74 84 75 85
REMARK SMILES IDX 76 86 77 87 78 88 57 89 58 90 66 91 59 92 65 93 60 94 61 95
REMARK SMILES IDX 62 96 63 97 64 98
REMARK H PARENT 25 6 29 35 85 54 55 65
REMARK Flexibility Score: inf
ROOT
ATOM      1  C   UNL A   1      34.344  30.083  26.623  1.00  0.00     0.042 C 
ENDROOT
BRANCH   1   2
ATOM      2  C   UNL A   1      33.703  28.968  25.794  1.00  0.00     0.118 C 
BRANCH   2   3
ATOM      3  N   UNL A   1      33.566  27.767  26.595  1.00  0.00    -0.352 N 
ATOM      4  C   UNL A   1      32.546  26.874  26.556  1.00  0.00     0.251 C 
ATOM      5  O   UNL A   1      32.128  26.379  27.597  1.00  0.00    -0.270 OA
ATOM      6  H   UNL A   1      34.290  27.580  27.235  1.00  0.00     0.163 HD
BRANCH   4   7
ATOM      7  C   UNL A   1      32.086  26.426  25.209  1.00  0.00     0.067 C 
ATOM      8  C   UNL A   1      33.376  22.568  25.332  1.00  0.00     0.026 A 
ATOM      9  C   UNL A   1      34.707  22.586  25.830  1.00  0.00     0.033 A 
ATOM     10  C   UNL A   1      32.844  23.808  24.937  1.00  0.00     0.135 A 
ATOM     11  C   UNL A   1      35.510  23.724  25.786  1.00  0.00     0.042 A 
ATOM     12  C   UNL A   1      33.711  24.919  24.789  1.00  0.00     0.019 A 
ATOM     13  O   UNL A   1      31.488  24.018  24.727  1.00  0.00    -0.475 OA
ATOM     14  Cl  UNL A   1      37.102  23.668  26.431  1.00  0.00    -0.084 Cl
ATOM     15  C   UNL A   1      35.040  24.881  25.198  1.00  0.00     0.032 A 
ATOM     16  C   UNL A   1      33.116  26.207  24.368  1.00  0.00     0.025 C 
ATOM     17  C   UNL A   1      31.011  25.347  25.222  1.00  0.00     0.314 C 
BRANCH   8  18
ATOM     18  C   UNL A   1      32.823  21.207  25.085  1.00  0.00    -0.015 A 
ATOM     19  C   UNL A   1      32.992  18.435  24.549  1.00  0.00     0.067 A 
ATOM     20  C   UNL A   1      32.894  18.874  25.867  1.00  0.00     0.021 A 
ATOM     21  C   UNL A   1      32.863  19.348  23.497  1.00  0.00     0.021 A 
ATOM     22  C   UNL A   1      32.783  20.251  26.126  1.00  0.00     0.010 A 
ATOM     23  C   UNL A   1      32.769  20.723  23.766  1.00  0.00     0.010 A 
BRANCH  19  24
ATOM     24  S   UNL A   1      33.402  16.750  24.143  1.00  0.00     0.175 S 
ATOM     25  C   UNL A   1      34.953  16.370  24.908  1.00  0.00     0.163 C 
ATOM     26  O   UNL A   1      33.607  16.709  22.708  1.00  0.00    -0.224 OA
ATOM     27  O   UNL A   1      32.400  15.911  24.777  1.00  0.00    -0.224 OA
ENDBRANCH  19  24
ENDBRANCH   8  18
BRANCH  17  28
ATOM     28  C   UNL A   1      29.802  25.864  24.407  1.00  0.00     0.429 C 
ATOM     29  F   UNL A   1      28.665  25.916  25.139  1.00  0.00    -0.167 F 
ATOM     30  F   UNL A   1      30.034  27.106  23.920  1.00  0.00    -0.167 F 
ATOM     31  F   UNL A   1      29.527  25.082  23.330  1.00  0.00    -0.167 F 
ENDBRANCH  17  28
ENDBRANCH   4   7
ENDBRANCH   2   3
ENDBRANCH   1   2
BRANCH   1  32
ATOM     32  C   UNL A   1      35.575  29.659  27.424  1.00  0.00     0.118 C 
BRANCH  32  33
ATOM     33  N   UNL A   1      35.396  29.786  28.861  1.00  0.00    -0.352 N 
ATOM     34  C   UNL A   1      36.323  29.651  29.866  1.00  0.00     0.251 C 
ATOM     35  H   UNL A   1      34.480  29.998  29.156  1.00  0.00     0.163 HD
ATOM     36  O   UNL A   1      35.960  29.646  31.038  1.00  0.00    -0.269 OA
BRANCH  34  37
ATOM     37  C   UNL A   1      37.753  29.478  29.526  1.00  0.00     0.039 A 
ATOM     38  C   UNL A   1      38.653  29.139  30.537  1.00  0.00     0.014 A 
ATOM     39  C   UNL A   1      38.198  29.628  28.209  1.00  0.00     0.014 A 
ATOM     40  C   UNL A   1      39.987  28.880  30.216  1.00  0.00     0.010 A 
ATOM     41  C   UNL A   1      39.507  29.288  27.880  1.00  0.00     0.010 A 
ATOM     42  C   UNL A   1      40.417  28.911  28.879  1.00  0.00    -0.014 A 
BRANCH  42  43
ATOM     43  C   UNL A   1      41.810  28.548  28.507  1.00  0.00     0.031 A 
ATOM     44  C   UNL A   1      42.885  29.602  28.471  1.00  0.00     0.074 A 
ATOM     45  C   UNL A   1      42.096  27.282  28.139  1.00  0.00     0.049 A 
ATOM     46  N   UNL A   1      44.140  29.489  28.116  1.00  0.00    -0.248 NA
ATOM     47  C   UNL A   1      42.493  30.967  28.858  1.00  0.00     0.031 C 
ATOM     48  C   UNL A   1      41.135  26.176  28.087  1.00  0.00     0.029 A 
ATOM     49  N   UNL A   1      43.276  26.711  27.733  1.00  0.00    -0.354 N 
ATOM     50  C   UNL A   1      44.679  30.767  28.218  1.00  0.00     0.074 A 
ATOM     51  C   UNL A   1      43.603  31.648  28.614  1.00  0.00     0.031 C 
ATOM     52  C   UNL A   1      41.771  25.057  27.706  1.00  0.00     0.029 A 
ATOM     53  C   UNL A   1      43.172  25.370  27.441  1.00  0.00     0.049 A 
ATOM     54  H   UNL A   1      44.120  27.213  27.658  1.00  0.00     0.167 HD
ATOM     55  C   UNL A   1      45.957  31.167  28.022  1.00  0.00     0.031 A 
ATOM     56  C   UNL A   1      44.095  24.491  27.003  1.00  0.00     0.031 A 
ATOM     57  C   UNL A   1      47.028  30.285  27.640  1.00  0.00     0.049 A 
ATOM     58  C   UNL A   1      45.508  24.962  26.786  1.00  0.00     0.074 A 
ATOM     59  C   UNL A   1      48.369  30.583  27.472  1.00  0.00     0.029 A 
ATOM     60  N   UNL A   1      46.882  28.934  27.365  1.00  0.00    -0.354 N 
ATOM     61  N   UNL A   1      46.012  26.161  26.954  1.00  0.00    -0.248 NA
ATOM     62  C   UNL A   1      46.479  23.957  26.331  1.00  0.00     0.031 C 
ATOM     63  C   UNL A   1      49.024  29.425  27.042  1.00  0.00     0.029 A 
ATOM     64  C   UNL A   1      48.103  28.389  27.005  1.00  0.00     0.049 A 
ATOM     65  H   UNL A   1      46.034  28.435  27.419  1.00  0.00     0.167 HD
ATOM     66  C   UNL A   1      47.365  26.048  26.654  1.00  0.00     0.074 A 
ATOM     67  C   UNL A   1      47.602  24.661  26.311  1.00  0.00     0.031 C 
ATOM     68  C   UNL A   1      48.325  27.006  26.665  1.00  0.00     0.031 A 
BRANCH  55  69
ATOM     69  C   UNL A   1      46.267  32.630  28.215  1.00  0.00    -0.014 A 
ATOM     70  C   UNL A   1      46.159  33.544  27.150  1.00  0.00     0.010 A 
ATOM     71  C   UNL A   1      46.636  33.106  29.487  1.00  0.00     0.010 A 
ATOM     72  C   UNL A   1      46.457  34.896  27.343  1.00  0.00     0.020 A 
ATOM     73  C   UNL A   1      46.903  34.463  29.691  1.00  0.00     0.020 A 
ATOM     74  C   UNL A   1      46.829  35.346  28.612  1.00  0.00     0.054 A 
BRANCH  74  75
ATOM     75  S   UNL A   1      47.186  37.109  28.836  1.00  0.00     0.124 S 
ATOM     76  O   UNL A   1      47.011  37.627  27.481  1.00  0.00    -0.237 OA
ATOM     77  O   UNL A   1      46.170  37.522  29.801  1.00  0.00    -0.237 OA
ATOM     78  O   UNL A   1      48.560  37.126  29.335  1.00  0.00    -0.744 OA
ENDBRANCH  74  75
ENDBRANCH  55  69
BRANCH  56  79
ATOM     79  C   UNL A   1      43.716  23.072  26.758  1.00  0.00    -0.014 A 
ATOM     80  C   UNL A   1      42.896  22.383  27.668  1.00  0.00     0.010 A 
ATOM     81  C   UNL A   1      44.167  22.403  25.605  1.00  0.00     0.010 A 
ATOM     82  C   UNL A   1      42.549  21.047  27.441  1.00  0.00     0.020 A 
ATOM     83  C   UNL A   1      43.798  21.078  25.358  1.00  0.00     0.020 A 
ATOM     84  C   UNL A   1      43.000  20.403  26.285  1.00  0.00     0.054 A 
BRANCH  84  85
ATOM     85  S   UNL A   1      42.496  18.687  25.986  1.00  0.00     0.124 S 
ATOM     86  O   UNL A   1      42.797  18.054  27.266  1.00  0.00    -0.237 OA
ATOM     87  O   UNL A   1      41.079  18.826  25.666  1.00  0.00    -0.237 OA
ATOM     88  O   UNL A   1      43.342  18.273  24.868  1.00  0.00    -0.744 OA
ENDBRANCH  84  85
ENDBRANCH  56  79
BRANCH  68  89
ATOM     89  C   UNL A   1      49.732  26.583  26.331  1.00  0.00    -0.014 A 
ATOM     90  C   UNL A   1      50.544  25.929  27.273  1.00  0.00     0.010 A 
ATOM     91  C   UNL A   1      50.227  26.799  25.031  1.00  0.00     0.010 A 
ATOM     92  C   UNL A   1      51.839  25.530  26.933  1.00  0.00     0.020 A 
ATOM     93  C   UNL A   1      51.511  26.373  24.678  1.00  0.00     0.020 A 
ATOM     94  C   UNL A   1      52.314  25.754  25.637  1.00  0.00     0.054 A 
BRANCH  94  95
ATOM     95  S   UNL A   1      53.983  25.190  25.210  1.00  0.00     0.124 S 
ATOM     96  O   UNL A   1      54.725  25.481  26.433  1.00  0.00    -0.237 OA
ATOM     97  O   UNL A   1      53.778  23.772  24.921  1.00  0.00    -0.237 OA
ATOM     98  O   UNL A   1      54.341  26.009  24.054  1.00  0.00    -0.744 OA
ENDBRANCH  94  95
ENDBRANCH  68  89
ENDBRANCH  42  43
ENDBRANCH  34  37
ENDBRANCH  32  33
ENDBRANCH   1  32
TORSDOF 16
ENDMDL
