MODEL 1
REMARK VINA RESULT:      -9.5      0.000      0.000
REMARK SMILES CC(C)(C)OCC[C@@H]1CCC[C@]1([NH2+]C1CC1)C(=O)NCCCNC(=O)c1ccc(-c2c3nc(c(-c4ccc(S(=O)(=O)[O-])cc4)c4ccc([nH]4)c(-c4ccc(S(=O)(=O)[O-])cc4)c4nc(c(-c5ccc(S(=O)(=O)[O-])cc5)c5ccc2[nH]5)C=C4)C=C3)cc1
REMARK SMILES IDX 20 1 19 2 17 3 18 4 12 6 8 7 9 8 10 9 11 10 7 11 6 12 5 13
REMARK SMILES IDX 2 14 1 15 3 16 4 17 13 18 14 21 15 22 16 23 21 24 22 25
REMARK SMILES IDX 23 26 24 27 25 29 26 30 27 31 85 32 28 33 84 34 29 35 30 36
REMARK SMILES IDX 31 37 78 38 32 39 83 40 77 41 79 42 33 43 82 44 76 45 75 46
REMARK SMILES IDX 34 48 64 49 45 50 63 51 46 52 49 53 62 54 80 55 47 56 48 57
REMARK SMILES IDX 61 59 81 60 50 61 35 62 36 63 44 64 37 65 43 66 38 67 39 68
REMARK SMILES IDX 40 69 41 70 42 71 65 72 66 73 74 74 67 75 73 76 68 77 69 78
REMARK SMILES IDX 70 79 71 80 72 81 51 82 52 83 60 84 53 85 59 86 54 87 55 88
REMARK SMILES IDX 56 89 57 90 58 91
REMARK H PARENT 19 5 13 19 13 20 23 28 79 47 49 58
REMARK Flexibility Score: inf
ROOT
ATOM      1  C   UNL A   1      34.421  24.533  25.626  1.00  0.00     0.118 C 
ENDROOT
BRANCH   1   2
ATOM      2  N   UNL A   1      34.337  24.985  24.241  1.00  0.00    -0.351 N 
ATOM      3  C   UNL A   1      33.686  26.033  23.647  1.00  0.00     0.281 C 
ATOM      4  O   UNL A   1      33.941  26.202  22.447  1.00  0.00    -0.268 OA
ATOM      5  H   UNL A   1      34.846  24.426  23.611  1.00  0.00     0.163 HD
BRANCH   3   6
ATOM      6  C   UNL A   1      32.625  26.944  24.381  1.00  0.00     0.178 C 
ATOM      7  C   UNL A   1      31.195  26.257  24.344  1.00  0.00     0.063 C 
ATOM      8  C   UNL A   1      30.826  26.526  22.877  1.00  0.00     0.011 C 
ATOM      9  C   UNL A   1      31.203  27.964  22.611  1.00  0.00     0.008 C 
ATOM     10  C   UNL A   1      32.330  28.253  23.583  1.00  0.00     0.079 C 
BRANCH   7  11
ATOM     11  C   UNL A   1      31.152  24.785  24.834  1.00  0.00     0.039 C 
BRANCH  11  12
ATOM     12  C   UNL A   1      31.001  23.582  23.877  1.00  0.00     0.161 C 
BRANCH  12  13
ATOM     13  O   UNL A   1      32.184  22.902  23.439  1.00  0.00    -0.376 OA
BRANCH  13  14
ATOM     14  C   UNL A   1      32.456  21.578  23.907  1.00  0.00     0.060 C 
ATOM     15  C   UNL A   1      33.975  21.407  24.109  1.00  0.00     0.042 C 
ATOM     16  C   UNL A   1      32.103  20.602  22.776  1.00  0.00     0.042 C 
ATOM     17  C   UNL A   1      31.840  21.325  25.293  1.00  0.00     0.042 C 
ENDBRANCH  13  14
ENDBRANCH  12  13
ENDBRANCH  11  12
ENDBRANCH   7  11
BRANCH   6  18
ATOM     18  N   UNL A   1      33.094  27.322  25.730  1.00  0.00    -0.331 N 
ATOM     19  H   UNL A   1      33.747  26.596  26.029  1.00  0.00     0.347 HD
ATOM     20  H   UNL A   1      32.229  27.421  26.261  1.00  0.00     0.347 HD
BRANCH  18  21
ATOM     21  C   UNL A   1      33.773  28.618  25.936  1.00  0.00     0.183 C 
ATOM     22  C   UNL A   1      33.281  29.772  26.768  1.00  0.00     0.071 C 
ATOM     23  C   UNL A   1      34.427  28.939  27.258  1.00  0.00     0.071 C 
ENDBRANCH  18  21
ENDBRANCH   6  18
ENDBRANCH   3   6
ENDBRANCH   1   2
BRANCH   1  24
ATOM     24  C   UNL A   1      35.846  24.176  26.062  1.00  0.00     0.042 C 
BRANCH  24  25
ATOM     25  C   UNL A   1      36.762  23.716  24.936  1.00  0.00     0.118 C 
BRANCH  25  26
ATOM     26  N   UNL A   1      37.701  22.695  25.375  1.00  0.00    -0.352 N 
ATOM     27  C   UNL A   1      38.880  22.823  26.062  1.00  0.00     0.251 C 
ATOM     28  H   UNL A   1      37.453  21.770  25.142  1.00  0.00     0.163 HD
ATOM     29  O   UNL A   1      39.641  21.848  26.135  1.00  0.00    -0.269 OA
BRANCH  27  30
ATOM     30  C   UNL A   1      39.272  24.101  26.701  1.00  0.00     0.039 A 
ATOM     31  C   UNL A   1      38.871  24.352  28.018  1.00  0.00     0.014 A 
ATOM     32  C   UNL A   1      39.996  25.075  26.006  1.00  0.00     0.014 A 
ATOM     33  C   UNL A   1      39.252  25.538  28.655  1.00  0.00     0.010 A 
ATOM     34  C   UNL A   1      40.434  26.225  26.664  1.00  0.00     0.010 A 
ATOM     35  C   UNL A   1      40.070  26.470  27.996  1.00  0.00    -0.014 A 
BRANCH  35  36
ATOM     36  C   UNL A   1      40.570  27.689  28.689  1.00  0.00     0.031 A 
ATOM     37  C   UNL A   1      41.947  27.714  29.300  1.00  0.00     0.074 A 
ATOM     38  C   UNL A   1      39.758  28.757  28.829  1.00  0.00     0.049 A 
ATOM     39  N   UNL A   1      42.520  28.657  30.004  1.00  0.00    -0.248 NA
ATOM     40  C   UNL A   1      42.782  26.518  29.108  1.00  0.00     0.031 C 
ATOM     41  C   UNL A   1      38.390  28.854  28.313  1.00  0.00     0.029 A 
ATOM     42  N   UNL A   1      39.959  29.961  29.459  1.00  0.00    -0.354 N 
ATOM     43  C   UNL A   1      43.772  28.163  30.354  1.00  0.00     0.074 A 
ATOM     44  C   UNL A   1      43.859  26.822  29.818  1.00  0.00     0.031 C 
ATOM     45  C   UNL A   1      37.885  30.056  28.629  1.00  0.00     0.029 A 
ATOM     46  C   UNL A   1      38.869  30.799  29.410  1.00  0.00     0.049 A 
ATOM     47  H   UNL A   1      40.804  30.202  29.903  1.00  0.00     0.167 HD
ATOM     48  C   UNL A   1      44.765  28.774  31.046  1.00  0.00     0.031 A 
ATOM     49  C   UNL A   1      38.671  32.020  29.946  1.00  0.00     0.031 A 
ATOM     50  C   UNL A   1      44.679  30.110  31.577  1.00  0.00     0.049 A 
ATOM     51  C   UNL A   1      39.775  32.663  30.740  1.00  0.00     0.074 A 
ATOM     52  C   UNL A   1      45.653  30.835  32.242  1.00  0.00     0.029 A 
ATOM     53  N   UNL A   1      43.556  30.920  31.511  1.00  0.00    -0.354 N 
ATOM     54  N   UNL A   1      40.975  32.204  31.003  1.00  0.00    -0.248 NA
ATOM     55  C   UNL A   1      39.498  33.990  31.307  1.00  0.00     0.031 C 
ATOM     56  C   UNL A   1      45.100  32.060  32.630  1.00  0.00     0.029 A 
ATOM     57  C   UNL A   1      43.801  32.123  32.153  1.00  0.00     0.049 A 
ATOM     58  H   UNL A   1      42.708  30.677  31.072  1.00  0.00     0.167 HD
ATOM     59  C   UNL A   1      41.603  33.194  31.750  1.00  0.00     0.074 A 
ATOM     60  C   UNL A   1      40.657  34.285  31.879  1.00  0.00     0.031 C 
ATOM     61  C   UNL A   1      42.850  33.199  32.284  1.00  0.00     0.031 A 
BRANCH  48  62
ATOM     62  C   UNL A   1      46.032  27.995  31.283  1.00  0.00    -0.014 A 
ATOM     63  C   UNL A   1      47.106  28.059  30.377  1.00  0.00     0.010 A 
ATOM     64  C   UNL A   1      46.172  27.224  32.452  1.00  0.00     0.010 A 
ATOM     65  C   UNL A   1      48.277  27.335  30.613  1.00  0.00     0.020 A 
ATOM     66  C   UNL A   1      47.352  26.519  32.706  1.00  0.00     0.020 A 
ATOM     67  C   UNL A   1      48.392  26.565  31.775  1.00  0.00     0.054 A 
BRANCH  67  68
ATOM     68  S   UNL A   1      49.931  25.650  32.065  1.00  0.00     0.124 S 
ATOM     69  O   UNL A   1      49.522  24.695  33.094  1.00  0.00    -0.237 OA
ATOM     70  O   UNL A   1      50.212  25.071  30.752  1.00  0.00    -0.237 OA
ATOM     71  O   UNL A   1      50.869  26.675  32.505  1.00  0.00    -0.744 OA
ENDBRANCH  67  68
ENDBRANCH  48  62
BRANCH  49  72
ATOM     72  C   UNL A   1      37.368  32.713  29.752  1.00  0.00    -0.014 A 
ATOM     73  C   UNL A   1      36.375  32.660  30.746  1.00  0.00     0.010 A 
ATOM     74  C   UNL A   1      37.116  33.441  28.575  1.00  0.00     0.010 A 
ATOM     75  C   UNL A   1      35.151  33.310  30.561  1.00  0.00     0.020 A 
ATOM     76  C   UNL A   1      35.905  34.116  28.397  1.00  0.00     0.020 A 
ATOM     77  C   UNL A   1      34.924  34.036  29.389  1.00  0.00     0.054 A 
BRANCH  77  78
ATOM     78  S   UNL A   1      33.351  34.917  29.195  1.00  0.00     0.124 S 
ATOM     79  O   UNL A   1      33.793  36.236  28.749  1.00  0.00    -0.237 OA
ATOM     80  O   UNL A   1      32.660  34.111  28.191  1.00  0.00    -0.237 OA
ATOM     81  O   UNL A   1      32.763  34.870  30.530  1.00  0.00    -0.744 OA
ENDBRANCH  77  78
ENDBRANCH  49  72
BRANCH  61  82
ATOM     82  C   UNL A   1      43.275  34.427  33.044  1.00  0.00    -0.014 A 
ATOM     83  C   UNL A   1      43.883  35.513  32.391  1.00  0.00     0.010 A 
ATOM     84  C   UNL A   1      43.009  34.520  34.423  1.00  0.00     0.010 A 
ATOM     85  C   UNL A   1      44.243  36.658  33.106  1.00  0.00     0.020 A 
ATOM     86  C   UNL A   1      43.341  35.674  35.137  1.00  0.00     0.020 A 
ATOM     87  C   UNL A   1      43.967  36.733  34.475  1.00  0.00     0.054 A 
BRANCH  87  88
ATOM     88  S   UNL A   1      44.398  38.250  35.370  1.00  0.00     0.124 S 
ATOM     89  O   UNL A   1      43.576  39.248  34.693  1.00  0.00    -0.237 OA
ATOM     90  O   UNL A   1      44.003  37.936  36.741  1.00  0.00    -0.237 OA
ATOM     91  O   UNL A   1      45.838  38.381  35.159  1.00  0.00    -0.744 OA
ENDBRANCH  87  88
ENDBRANCH  61  82
ENDBRANCH  35  36
ENDBRANCH  27  30
ENDBRANCH  25  26
ENDBRANCH  24  25
ENDBRANCH   1  24
TORSDOF 19
ENDMDL
MODEL 2
REMARK VINA RESULT:      -9.5      2.479      8.986
REMARK SMILES CC(C)(C)OCC[C@@H]1CCC[C@]1([NH2+]C1CC1)C(=O)NCCCNC(=O)c1ccc(-c2c3nc(c(-c4ccc(S(=O)(=O)[O-])cc4)c4ccc([nH]4)c(-c4ccc(S(=O)(=O)[O-])cc4)c4nc(c(-c5ccc(S(=O)(=O)[O-])cc5)c5ccc2[nH]5)C=C4)C=C3)cc1
REMARK SMILES IDX 20 1 19 2 17 3 18 4 12 6 8 7 9 8 10 9 11 10 7 11 6 12 5 13
REMARK SMILES IDX 2 14 1 15 3 16 4 17 13 18 14 21 15 22 16 23 21 24 22 25
REMARK SMILES IDX 23 26 24 27 25 29 26 30 27 31 85 32 28 33 84 34 29 35 30 36
REMARK SMILES IDX 31 37 78 38 32 39 83 40 77 41 79 42 33 43 82 44 76 45 75 46
REMARK SMILES IDX 34 48 64 49 45 50 63 51 46 52 49 53 62 54 80 55 47 56 48 57
REMARK SMILES IDX 61 59 81 60 50 61 35 62 36 63 44 64 37 65 43 66 38 67 39 68
REMARK SMILES IDX 40 69 41 70 42 71 65 72 66 73 74 74 67 75 73 76 68 77 69 78
REMARK SMILES IDX 70 79 71 80 72 81 51 82 52 83 60 84 53 85 59 86 54 87 55 88
REMARK SMILES IDX 56 89 57 90 58 91
REMARK H PARENT 19 5 13 19 13 20 23 28 79 47 49 58
REMARK Flexibility Score: inf
ROOT
ATOM      1  C   UNL A   1      32.426  26.806  25.037  1.00  0.00     0.118 C 
ENDROOT
BRANCH   1   2
ATOM      2  N   UNL A   1      32.769  26.080  23.818  1.00  0.00    -0.351 N 
ATOM      3  C   UNL A   1      33.282  24.830  23.598  1.00  0.00     0.281 C 
ATOM      4  O   UNL A   1      33.327  24.477  22.412  1.00  0.00    -0.268 OA
ATOM      5  H   UNL A   1      32.598  26.589  22.993  1.00  0.00     0.163 HD
BRANCH   3   6
ATOM      6  C   UNL A   1      33.855  23.898  24.737  1.00  0.00     0.178 C 
ATOM      7  C   UNL A   1      32.954  22.601  24.889  1.00  0.00     0.063 C 
ATOM      8  C   UNL A   1      31.748  23.218  25.615  1.00  0.00     0.011 C 
ATOM      9  C   UNL A   1      32.323  24.114  26.687  1.00  0.00     0.008 C 
ATOM     10  C   UNL A   1      33.679  24.531  26.153  1.00  0.00     0.079 C 
BRANCH   7  11
ATOM     11  C   UNL A   1      32.676  21.827  23.573  1.00  0.00     0.039 C 
BRANCH  11  12
ATOM     12  C   UNL A   1      32.563  20.287  23.508  1.00  0.00     0.161 C 
BRANCH  12  13
ATOM     13  O   UNL A   1      33.425  19.501  24.341  1.00  0.00    -0.376 OA
BRANCH  13  14
ATOM     14  C   UNL A   1      33.426  18.076  24.216  1.00  0.00     0.060 C 
ATOM     15  C   UNL A   1      32.862  17.682  22.837  1.00  0.00     0.042 C 
ATOM     16  C   UNL A   1      32.409  17.520  25.224  1.00  0.00     0.042 C 
ATOM     17  C   UNL A   1      34.852  17.501  24.242  1.00  0.00     0.042 C 
ENDBRANCH  13  14
ENDBRANCH  12  13
ENDBRANCH  11  12
ENDBRANCH   7  11
BRANCH   6  18
ATOM     18  N   UNL A   1      35.293  23.630  24.528  1.00  0.00    -0.331 N 
ATOM     19  H   UNL A   1      35.698  24.483  24.140  1.00  0.00     0.347 HD
ATOM     20  H   UNL A   1      35.294  22.800  23.934  1.00  0.00     0.347 HD
BRANCH  18  21
ATOM     21  C   UNL A   1      36.142  23.235  25.671  1.00  0.00     0.183 C 
ATOM     22  C   UNL A   1      37.350  22.338  25.629  1.00  0.00     0.071 C 
ATOM     23  C   UNL A   1      37.527  23.812  25.833  1.00  0.00     0.071 C 
ENDBRANCH  18  21
ENDBRANCH   6  18
ENDBRANCH   3   6
ENDBRANCH   1   2
BRANCH   1  24
ATOM     24  C   UNL A   1      33.236  28.093  25.225  1.00  0.00     0.042 C 
BRANCH  24  25
ATOM     25  C   UNL A   1      33.729  28.336  26.646  1.00  0.00     0.118 C 
BRANCH  25  26
ATOM     26  N   UNL A   1      33.626  29.736  27.029  1.00  0.00    -0.352 N 
ATOM     27  C   UNL A   1      34.478  30.505  27.781  1.00  0.00     0.251 C 
ATOM     28  H   UNL A   1      32.823  30.202  26.701  1.00  0.00     0.163 HD
ATOM     29  O   UNL A   1      34.089  31.611  28.181  1.00  0.00    -0.269 OA
BRANCH  27  30
ATOM     30  C   UNL A   1      35.837  30.037  28.137  1.00  0.00     0.039 A 
ATOM     31  C   UNL A   1      36.855  30.121  27.181  1.00  0.00     0.014 A 
ATOM     32  C   UNL A   1      36.113  29.478  29.389  1.00  0.00     0.014 A 
ATOM     33  C   UNL A   1      38.155  29.713  27.502  1.00  0.00     0.010 A 
ATOM     34  C   UNL A   1      37.423  29.137  29.730  1.00  0.00     0.010 A 
ATOM     35  C   UNL A   1      38.460  29.252  28.793  1.00  0.00    -0.014 A 
BRANCH  35  36
ATOM     36  C   UNL A   1      39.855  28.910  29.184  1.00  0.00     0.031 A 
ATOM     37  C   UNL A   1      40.729  29.923  29.876  1.00  0.00     0.074 A 
ATOM     38  C   UNL A   1      40.362  27.703  28.856  1.00  0.00     0.049 A 
ATOM     39  N   UNL A   1      41.987  29.828  30.222  1.00  0.00    -0.248 NA
ATOM     40  C   UNL A   1      40.112  31.218  30.206  1.00  0.00     0.031 C 
ATOM     41  C   UNL A   1      39.635  26.640  28.159  1.00  0.00     0.029 A 
ATOM     42  N   UNL A   1      41.613  27.171  29.055  1.00  0.00    -0.354 N 
ATOM     43  C   UNL A   1      42.319  31.051  30.793  1.00  0.00     0.074 A 
ATOM     44  C   UNL A   1      41.140  31.886  30.711  1.00  0.00     0.031 C 
ATOM     45  C   UNL A   1      40.444  25.580  28.006  1.00  0.00     0.029 A 
ATOM     46  C   UNL A   1      41.760  25.900  28.549  1.00  0.00     0.049 A 
ATOM     47  H   UNL A   1      42.336  27.654  29.516  1.00  0.00     0.167 HD
ATOM     48  C   UNL A   1      43.492  31.441  31.350  1.00  0.00     0.031 A 
ATOM     49  C   UNL A   1      42.834  25.087  28.507  1.00  0.00     0.031 A 
ATOM     50  C   UNL A   1      44.664  30.609  31.434  1.00  0.00     0.049 A 
ATOM     51  C   UNL A   1      44.135  25.555  29.100  1.00  0.00     0.074 A 
ATOM     52  C   UNL A   1      45.881  30.896  32.029  1.00  0.00     0.029 A 
ATOM     53  N   UNL A   1      44.772  29.332  30.904  1.00  0.00    -0.354 N 
ATOM     54  N   UNL A   1      44.408  26.692  29.694  1.00  0.00    -0.248 NA
ATOM     55  C   UNL A   1      45.273  24.629  29.017  1.00  0.00     0.031 C 
ATOM     56  C   UNL A   1      46.743  29.816  31.808  1.00  0.00     0.029 A 
ATOM     57  C   UNL A   1      46.045  28.832  31.128  1.00  0.00     0.049 A 
ATOM     58  H   UNL A   1      44.051  28.852  30.437  1.00  0.00     0.167 HD
ATOM     59  C   UNL A   1      45.743  26.610  30.073  1.00  0.00     0.074 A 
ATOM     60  C   UNL A   1      46.216  25.305  29.660  1.00  0.00     0.031 C 
ATOM     61  C   UNL A   1      46.509  27.535  30.705  1.00  0.00     0.031 A 
BRANCH  48  62
ATOM     62  C   UNL A   1      43.572  32.841  31.901  1.00  0.00    -0.014 A 
ATOM     63  C   UNL A   1      43.983  33.918  31.095  1.00  0.00     0.010 A 
ATOM     64  C   UNL A   1      43.184  33.093  33.230  1.00  0.00     0.010 A 
ATOM     65  C   UNL A   1      44.046  35.212  31.619  1.00  0.00     0.020 A 
ATOM     66  C   UNL A   1      43.219  34.390  33.751  1.00  0.00     0.020 A 
ATOM     67  C   UNL A   1      43.668  35.439  32.946  1.00  0.00     0.054 A 
BRANCH  67  68
ATOM     68  S   UNL A   1      43.742  37.132  33.595  1.00  0.00     0.124 S 
ATOM     69  O   UNL A   1      42.510  37.205  34.380  1.00  0.00    -0.237 OA
ATOM     70  O   UNL A   1      44.980  37.123  34.374  1.00  0.00    -0.237 OA
ATOM     71  O   UNL A   1      43.767  37.963  32.399  1.00  0.00    -0.744 OA
ENDBRANCH  67  68
ENDBRANCH  48  62
BRANCH  49  72
ATOM     72  C   UNL A   1      42.724  23.744  27.876  1.00  0.00    -0.014 A 
ATOM     73  C   UNL A   1      42.332  22.627  28.636  1.00  0.00     0.010 A 
ATOM     74  C   UNL A   1      43.000  23.574  26.507  1.00  0.00     0.010 A 
ATOM     75  C   UNL A   1      42.231  21.366  28.042  1.00  0.00     0.020 A 
ATOM     76  C   UNL A   1      42.873  22.320  25.903  1.00  0.00     0.020 A 
ATOM     77  C   UNL A   1      42.500  21.220  26.678  1.00  0.00     0.054 A 
BRANCH  77  78
ATOM     78  S   UNL A   1      42.309  19.585  25.918  1.00  0.00     0.124 S 
ATOM     79  O   UNL A   1      43.313  19.622  24.858  1.00  0.00    -0.237 OA
ATOM     80  O   UNL A   1      42.598  18.683  27.031  1.00  0.00    -0.237 OA
ATOM     81  O   UNL A   1      40.920  19.575  25.466  1.00  0.00    -0.744 OA
ENDBRANCH  77  78
ENDBRANCH  49  72
BRANCH  61  82
ATOM     82  C   UNL A   1      47.937  27.164  31.004  1.00  0.00    -0.014 A 
ATOM     83  C   UNL A   1      48.285  26.520  32.204  1.00  0.00     0.010 A 
ATOM     84  C   UNL A   1      48.938  27.413  30.046  1.00  0.00     0.010 A 
ATOM     85  C   UNL A   1      49.610  26.155  32.453  1.00  0.00     0.020 A 
ATOM     86  C   UNL A   1      50.259  27.024  30.279  1.00  0.00     0.020 A 
ATOM     87  C   UNL A   1      50.590  26.407  31.487  1.00  0.00     0.054 A 
BRANCH  87  88
ATOM     88  S   UNL A   1      52.294  25.878  31.813  1.00  0.00     0.124 S 
ATOM     89  O   UNL A   1      52.693  26.779  32.889  1.00  0.00    -0.237 OA
ATOM     90  O   UNL A   1      52.126  24.478  32.196  1.00  0.00    -0.237 OA
ATOM     91  O   UNL A   1      52.974  26.090  30.537  1.00  0.00    -0.744 OA
ENDBRANCH  87  88
ENDBRANCH  61  82
ENDBRANCH  35  36
ENDBRANCH  27  30
ENDBRANCH  25  26
ENDBRANCH  24  25
ENDBRANCH   1  24
TORSDOF 19
ENDMDL
MODEL 3
REMARK VINA RESULT:      -9.4      2.433      3.924
REMARK SMILES CC(C)(C)OCC[C@@H]1CCC[C@]1([NH2+]C1CC1)C(=O)NCCCNC(=O)c1ccc(-c2c3nc(c(-c4ccc(S(=O)(=O)[O-])cc4)c4ccc([nH]4)c(-c4ccc(S(=O)(=O)[O-])cc4)c4nc(c(-c5ccc(S(=O)(=O)[O-])cc5)c5ccc2[nH]5)C=C4)C=C3)cc1
REMARK SMILES IDX 20 1 19 2 17 3 18 4 12 6 8 7 9 8 10 9 11 10 7 11 6 12 5 13
REMARK SMILES IDX 2 14 1 15 3 16 4 17 13 18 14 21 15 22 16 23 21 24 22 25
REMARK SMILES IDX 23 26 24 27 25 29 26 30 27 31 85 32 28 33 84 34 29 35 30 36
REMARK SMILES IDX 31 37 78 38 32 39 83 40 77 41 79 42 33 43 82 44 76 45 75 46
REMARK SMILES IDX 34 48 64 49 45 50 63 51 46 52 49 53 62 54 80 55 47 56 48 57
REMARK SMILES IDX 61 59 81 60 50 61 35 62 36 63 44 64 37 65 43 66 38 67 39 68
REMARK SMILES IDX 40 69 41 70 42 71 65 72 66 73 74 74 67 75 73 76 68 77 69 78
REMARK SMILES IDX 70 79 71 80 72 81 51 82 52 83 60 84 53 85 59 86 54 87 55 88
REMARK SMILES IDX 56 89 57 90 58 91
REMARK H PARENT 19 5 13 19 13 20 23 28 79 47 49 58
REMARK Flexibility Score: inf
ROOT
ATOM      1  C   UNL A   1      34.647  23.391  24.278  1.00  0.00     0.118 C 
ENDROOT
BRANCH   1   2
ATOM      2  N   UNL A   1      34.191  24.313  23.241  1.00  0.00    -0.351 N 
ATOM      3  C   UNL A   1      33.376  25.411  23.273  1.00  0.00     0.281 C 
ATOM      4  O   UNL A   1      33.305  26.049  22.214  1.00  0.00    -0.268 OA
ATOM      5  H   UNL A   1      34.538  24.102  22.344  1.00  0.00     0.163 HD
BRANCH   3   6
ATOM      6  C   UNL A   1      32.511  25.834  24.526  1.00  0.00     0.178 C 
ATOM      7  C   UNL A   1      31.963  27.311  24.341  1.00  0.00     0.063 C 
ATOM      8  C   UNL A   1      33.256  28.094  24.618  1.00  0.00     0.011 C 
ATOM      9  C   UNL A   1      33.878  27.451  25.834  1.00  0.00     0.008 C 
ATOM     10  C   UNL A   1      33.388  26.017  25.805  1.00  0.00     0.079 C 
BRANCH   7  11
ATOM     11  C   UNL A   1      31.235  27.586  22.998  1.00  0.00     0.039 C 
BRANCH  11  12
ATOM     12  C   UNL A   1      30.763  28.993  22.567  1.00  0.00     0.161 C 
BRANCH  12  13
ATOM     13  O   UNL A   1      29.501  29.119  21.899  1.00  0.00    -0.376 OA
BRANCH  13  14
ATOM     14  C   UNL A   1      28.468  29.920  22.478  1.00  0.00     0.060 C 
ATOM     15  C   UNL A   1      27.932  30.908  21.423  1.00  0.00     0.042 C 
ATOM     16  C   UNL A   1      29.116  30.810  23.549  1.00  0.00     0.042 C 
ATOM     17  C   UNL A   1      27.250  29.075  22.887  1.00  0.00     0.042 C 
ENDBRANCH  13  14
ENDBRANCH  12  13
ENDBRANCH  11  12
ENDBRANCH   7  11
BRANCH   6  18
ATOM     18  N   UNL A   1      31.474  24.822  24.819  1.00  0.00    -0.331 N 
ATOM     19  H   UNL A   1      31.524  24.126  24.074  1.00  0.00     0.347 HD
ATOM     20  H   UNL A   1      30.620  25.374  24.887  1.00  0.00     0.347 HD
BRANCH  18  21
ATOM     21  C   UNL A   1      31.509  24.082  26.097  1.00  0.00     0.183 C 
ATOM     22  C   UNL A   1      30.368  23.340  26.740  1.00  0.00     0.071 C 
ATOM     23  C   UNL A   1      31.492  22.574  26.111  1.00  0.00     0.071 C 
ENDBRANCH  18  21
ENDBRANCH   6  18
ENDBRANCH   3   6
ENDBRANCH   1   2
BRANCH   1  24
ATOM     24  C   UNL A   1      36.159  23.446  24.516  1.00  0.00     0.042 C 
BRANCH  24  25
ATOM     25  C   UNL A   1      36.584  23.249  25.966  1.00  0.00     0.118 C 
BRANCH  25  26
ATOM     26  N   UNL A   1      37.658  22.275  26.095  1.00  0.00    -0.352 N 
ATOM     27  C   UNL A   1      38.995  22.469  26.330  1.00  0.00     0.251 C 
ATOM     28  H   UNL A   1      37.384  21.334  25.998  1.00  0.00     0.163 HD
ATOM     29  O   UNL A   1      39.774  21.518  26.175  1.00  0.00    -0.269 OA
BRANCH  27  30
ATOM     30  C   UNL A   1      39.528  23.787  26.744  1.00  0.00     0.039 A 
ATOM     31  C   UNL A   1      39.671  24.062  28.109  1.00  0.00     0.014 A 
ATOM     32  C   UNL A   1      39.851  24.774  25.808  1.00  0.00     0.014 A 
ATOM     33  C   UNL A   1      40.200  25.288  28.528  1.00  0.00     0.010 A 
ATOM     34  C   UNL A   1      40.442  25.968  26.223  1.00  0.00     0.010 A 
ATOM     35  C   UNL A   1      40.626  26.239  27.587  1.00  0.00    -0.014 A 
BRANCH  35  36
ATOM     36  C   UNL A   1      41.284  27.506  28.009  1.00  0.00     0.031 A 
ATOM     37  C   UNL A   1      42.781  27.653  27.941  1.00  0.00     0.074 A 
ATOM     38  C   UNL A   1      40.537  28.507  28.519  1.00  0.00     0.049 A 
ATOM     39  N   UNL A   1      43.531  28.651  28.335  1.00  0.00    -0.248 NA
ATOM     40  C   UNL A   1      43.535  26.525  27.373  1.00  0.00     0.031 C 
ATOM     41  C   UNL A   1      39.079  28.485  28.669  1.00  0.00     0.029 A 
ATOM     42  N   UNL A   1      40.900  29.735  29.017  1.00  0.00    -0.354 N 
ATOM     43  C   UNL A   1      44.842  28.266  28.079  1.00  0.00     0.074 A 
ATOM     44  C   UNL A   1      44.788  26.928  27.533  1.00  0.00     0.031 C 
ATOM     45  C   UNL A   1      38.674  29.647  29.202  1.00  0.00     0.029 A 
ATOM     46  C   UNL A   1      39.840  30.481  29.477  1.00  0.00     0.049 A 
ATOM     47  H   UNL A   1      41.832  30.051  29.042  1.00  0.00     0.167 HD
ATOM     48  C   UNL A   1      45.987  28.968  28.268  1.00  0.00     0.031 A 
ATOM     49  C   UNL A   1      39.805  31.691  30.071  1.00  0.00     0.031 A 
ATOM     50  C   UNL A   1      46.041  30.301  28.808  1.00  0.00     0.049 A 
ATOM     51  C   UNL A   1      41.092  32.435  30.301  1.00  0.00     0.074 A 
ATOM     52  C   UNL A   1      47.148  31.114  28.984  1.00  0.00     0.029 A 
ATOM     53  N   UNL A   1      44.946  31.017  29.267  1.00  0.00    -0.354 N 
ATOM     54  N   UNL A   1      42.316  32.079  29.991  1.00  0.00    -0.248 NA
ATOM     55  C   UNL A   1      40.992  33.745  30.959  1.00  0.00     0.031 C 
ATOM     56  C   UNL A   1      46.730  32.297  29.602  1.00  0.00     0.029 A 
ATOM     57  C   UNL A   1      45.354  32.247  29.757  1.00  0.00     0.049 A 
ATOM     58  H   UNL A   1      44.014  30.698  29.248  1.00  0.00     0.167 HD
ATOM     59  C   UNL A   1      43.130  33.130  30.400  1.00  0.00     0.074 A 
ATOM     60  C   UNL A   1      42.257  34.142  30.959  1.00  0.00     0.031 C 
ATOM     61  C   UNL A   1      44.479  33.244  30.321  1.00  0.00     0.031 A 
BRANCH  48  62
ATOM     62  C   UNL A   1      47.285  28.297  27.898  1.00  0.00    -0.014 A 
ATOM     63  C   UNL A   1      47.947  27.445  28.800  1.00  0.00     0.010 A 
ATOM     64  C   UNL A   1      47.826  28.483  26.612  1.00  0.00     0.010 A 
ATOM     65  C   UNL A   1      49.147  26.826  28.440  1.00  0.00     0.020 A 
ATOM     66  C   UNL A   1      49.012  27.844  26.237  1.00  0.00     0.020 A 
ATOM     67  C   UNL A   1      49.674  27.033  27.162  1.00  0.00     0.054 A 
BRANCH  67  68
ATOM     68  S   UNL A   1      51.224  26.201  26.714  1.00  0.00     0.124 S 
ATOM     69  O   UNL A   1      51.284  26.437  25.273  1.00  0.00    -0.237 OA
ATOM     70  O   UNL A   1      52.217  26.924  27.509  1.00  0.00    -0.237 OA
ATOM     71  O   UNL A   1      51.003  24.816  27.109  1.00  0.00    -0.744 OA
ENDBRANCH  67  68
ENDBRANCH  48  62
BRANCH  49  72
ATOM     72  C   UNL A   1      38.502  32.273  30.493  1.00  0.00    -0.014 A 
ATOM     73  C   UNL A   1      37.765  33.088  29.615  1.00  0.00     0.010 A 
ATOM     74  C   UNL A   1      37.983  32.007  31.774  1.00  0.00     0.010 A 
ATOM     75  C   UNL A   1      36.543  33.636  30.014  1.00  0.00     0.020 A 
ATOM     76  C   UNL A   1      36.748  32.530  32.166  1.00  0.00     0.020 A 
ATOM     77  C   UNL A   1      36.040  33.352  31.286  1.00  0.00     0.054 A 
BRANCH  77  78
ATOM     78  S   UNL A   1      34.426  34.028  31.762  1.00  0.00     0.124 S 
ATOM     79  O   UNL A   1      34.802  35.268  32.436  1.00  0.00    -0.237 OA
ATOM     80  O   UNL A   1      33.759  34.188  30.472  1.00  0.00    -0.237 OA
ATOM     81  O   UNL A   1      33.859  32.994  32.622  1.00  0.00    -0.744 OA
ENDBRANCH  77  78
ENDBRANCH  49  72
BRANCH  61  82
ATOM     82  C   UNL A   1      45.099  34.516  30.837  1.00  0.00    -0.014 A 
ATOM     83  C   UNL A   1      45.235  35.645  30.011  1.00  0.00     0.010 A 
ATOM     84  C   UNL A   1      45.498  34.600  32.184  1.00  0.00     0.010 A 
ATOM     85  C   UNL A   1      45.784  36.828  30.514  1.00  0.00     0.020 A 
ATOM     86  C   UNL A   1      46.020  35.789  32.698  1.00  0.00     0.020 A 
ATOM     87  C   UNL A   1      46.171  36.893  31.857  1.00  0.00     0.054 A 
BRANCH  87  88
ATOM     88  S   UNL A   1      46.833  38.455  32.498  1.00  0.00     0.124 S 
ATOM     89  O   UNL A   1      47.936  38.719  31.580  1.00  0.00    -0.237 OA
ATOM     90  O   UNL A   1      45.691  39.358  32.385  1.00  0.00    -0.237 OA
ATOM     91  O   UNL A   1      47.226  38.129  33.868  1.00  0.00    -0.744 OA
ENDBRANCH  87  88
ENDBRANCH  61  82
ENDBRANCH  35  36
ENDBRANCH  27  30
ENDBRANCH  25  26
ENDBRANCH  24  25
ENDBRANCH   1  24
TORSDOF 19
ENDMDL
