MODEL 1
REMARK VINA RESULT:     -12.3      0.000      0.000
REMARK SMILES O=C1[NH+]=C(Nc2ccc(C(=O)NCCCNC(=O)c3ccc(-c4c5nc(c(-c6ccc(S(=O)(=O)[O-])cc6)c6ccc([nH]6)c(-c6ccc(S(=O)(=O)[O-])cc6)c6nc(c(-c7ccc(S(=O)(=O)[O-])cc7)c7ccc4[nH]7)C=C6)C=C5)cc3)c(O)c2)S/C1=C\c1ccc[nH]1
REMARK SMILES IDX 14 1 13 2 12 3 10 4 11 5 9 7 6 8 7 9 81 10 8 11 79 12 5 13
REMARK SMILES IDX 1 14 2 15 3 16 83 17 4 18 82 20 84 21 85 23 86 24 89 25
REMARK SMILES IDX 87 26 88 27 80 29 15 31 16 32 17 33 18 35 19 36 20 37 78 38
REMARK SMILES IDX 21 39 77 40 22 41 23 42 24 43 71 44 25 45 76 46 70 47 72 48
REMARK SMILES IDX 26 49 75 50 69 51 68 52 27 54 57 55 38 56 56 57 39 58 42 59
REMARK SMILES IDX 55 60 73 61 40 62 41 63 54 65 74 66 43 67 28 68 29 69 37 70
REMARK SMILES IDX 30 71 36 72 31 73 32 74 33 75 34 76 35 77 58 78 59 79 67 80
REMARK SMILES IDX 60 81 66 82 61 83 62 84 63 85 64 86 65 87 44 88 45 89 53 90
REMARK SMILES IDX 46 91 52 92 47 93 48 94 49 95 50 96 51 97
REMARK H PARENT 12 6 3 19 5 22 89 28 80 30 16 34 72 53 42 64
REMARK Flexibility Score: inf
ROOT
ATOM      1  C   UNL A   1      32.621  28.305  25.937  1.00  0.00     0.042 C 
ENDROOT
BRANCH   1   2
ATOM      2  C   UNL A   1      33.213  28.977  24.711  1.00  0.00     0.118 C 
BRANCH   2   3
ATOM      3  N   UNL A   1      32.233  29.472  23.753  1.00  0.00    -0.352 N 
ATOM      4  C   UNL A   1      31.325  28.803  22.969  1.00  0.00     0.255 C 
ATOM      5  O   UNL A   1      30.592  29.454  22.227  1.00  0.00    -0.269 OA
ATOM      6  H   UNL A   1      32.219  30.451  23.650  1.00  0.00     0.163 HD
BRANCH   4   7
ATOM      7  C   UNL A   1      31.241  27.323  22.950  1.00  0.00     0.081 A 
ATOM      8  C   UNL A   1      31.393  24.504  23.040  1.00  0.00     0.129 A 
ATOM      9  C   UNL A   1      32.404  25.255  22.432  1.00  0.00     0.053 A 
ATOM     10  C   UNL A   1      30.272  25.180  23.535  1.00  0.00     0.098 A 
ATOM     11  C   UNL A   1      32.330  26.650  22.385  1.00  0.00     0.022 A 
ATOM     12  C   UNL A   1      30.174  26.569  23.444  1.00  0.00     0.132 A 
BRANCH   8  13
ATOM     13  N   UNL A   1      31.500  23.125  23.241  1.00  0.00    -0.234 N 
ATOM     14  O   UNL A   1      35.520  22.146  25.400  1.00  0.00    -0.240 OA
ATOM     15  C   UNL A   1      34.459  21.944  24.823  1.00  0.00     0.346 C 
ATOM     16  N   UNL A   1      33.634  22.923  24.322  1.00  0.00    -0.199 N 
ATOM     17  C   UNL A   1      33.915  20.581  24.565  1.00  0.00     0.111 C 
ATOM     18  C   UNL A   1      32.558  22.459  23.782  1.00  0.00     0.322 C 
ATOM     19  H   UNL A   1      33.843  23.884  24.371  1.00  0.00     0.316 HD
ATOM     20  S   UNL A   1      32.400  20.717  23.765  1.00  0.00     0.006 SA
ATOM     21  C   UNL A   1      34.562  19.470  24.941  1.00  0.00     0.050 C 
ATOM     22  H   UNL A   1      30.731  22.577  22.962  1.00  0.00     0.313 HD
BRANCH  21  23
ATOM     23  C   UNL A   1      34.095  18.174  24.619  1.00  0.00     0.039 A 
ATOM     24  C   UNL A   1      34.243  17.358  23.514  1.00  0.00     0.027 A 
ATOM     25  N   UNL A   1      33.318  17.502  25.530  1.00  0.00    -0.362 N 
ATOM     26  C   UNL A   1      33.507  16.175  23.753  1.00  0.00     0.020 A 
ATOM     27  C   UNL A   1      32.940  16.293  25.001  1.00  0.00     0.083 A 
ATOM     28  H   UNL A   1      33.071  17.837  26.422  1.00  0.00     0.166 HD
ENDBRANCH  21  23
ENDBRANCH   8  13
BRANCH  12  29
ATOM     29  O   UNL A   1      28.978  27.098  23.842  1.00  0.00    -0.507 OA
ATOM     30  H   UNL A   1      28.194  26.889  23.373  1.00  0.00     0.293 HD
ENDBRANCH  12  29
ENDBRANCH   4   7
ENDBRANCH   2   3
ENDBRANCH   1   2
BRANCH   1  31
ATOM     31  C   UNL A   1      33.368  28.546  27.239  1.00  0.00     0.118 C 
BRANCH  31  32
ATOM     32  N   UNL A   1      33.420  29.946  27.646  1.00  0.00    -0.352 N 
ATOM     33  C   UNL A   1      34.434  30.691  28.206  1.00  0.00     0.251 C 
ATOM     34  H   UNL A   1      32.585  30.445  27.494  1.00  0.00     0.163 HD
ATOM     35  O   UNL A   1      34.200  31.837  28.579  1.00  0.00    -0.269 OA
BRANCH  33  36
ATOM     36  C   UNL A   1      35.783  30.112  28.400  1.00  0.00     0.039 A 
ATOM     37  C   UNL A   1      36.698  30.140  27.342  1.00  0.00     0.014 A 
ATOM     38  C   UNL A   1      36.159  29.553  29.620  1.00  0.00     0.014 A 
ATOM     39  C   UNL A   1      38.013  29.707  27.549  1.00  0.00     0.010 A 
ATOM     40  C   UNL A   1      37.493  29.250  29.862  1.00  0.00     0.010 A 
ATOM     41  C   UNL A   1      38.438  29.315  28.828  1.00  0.00    -0.014 A 
BRANCH  41  42
ATOM     42  C   UNL A   1      39.853  28.954  29.113  1.00  0.00     0.031 A 
ATOM     43  C   UNL A   1      40.783  29.972  29.723  1.00  0.00     0.074 A 
ATOM     44  C   UNL A   1      40.324  27.742  28.753  1.00  0.00     0.049 A 
ATOM     45  N   UNL A   1      42.065  29.878  29.968  1.00  0.00    -0.248 NA
ATOM     46  C   UNL A   1      40.203  31.280  30.076  1.00  0.00     0.031 C 
ATOM     47  C   UNL A   1      39.542  26.681  28.113  1.00  0.00     0.029 A 
ATOM     48  N   UNL A   1      41.579  27.198  28.870  1.00  0.00    -0.354 N 
ATOM     49  C   UNL A   1      42.444  31.115  30.479  1.00  0.00     0.074 A 
ATOM     50  C   UNL A   1      41.275  31.963  30.445  1.00  0.00     0.031 C 
ATOM     51  C   UNL A   1      40.322  25.603  27.934  1.00  0.00     0.029 A 
ATOM     52  C   UNL A   1      41.672  25.910  28.393  1.00  0.00     0.049 A 
ATOM     53  H   UNL A   1      42.343  27.684  29.258  1.00  0.00     0.167 HD
ATOM     54  C   UNL A   1      43.649  31.504  30.962  1.00  0.00     0.031 A 
ATOM     55  C   UNL A   1      42.725  25.072  28.326  1.00  0.00     0.031 A 
ATOM     56  C   UNL A   1      44.808  30.653  31.005  1.00  0.00     0.049 A 
ATOM     57  C   UNL A   1      44.061  25.535  28.842  1.00  0.00     0.074 A 
ATOM     58  C   UNL A   1      46.060  30.932  31.521  1.00  0.00     0.029 A 
ATOM     59  N   UNL A   1      44.856  29.356  30.513  1.00  0.00    -0.354 N 
ATOM     60  N   UNL A   1      44.382  26.687  29.382  1.00  0.00    -0.248 NA
ATOM     61  C   UNL A   1      45.175  24.581  28.749  1.00  0.00     0.031 C 
ATOM     62  C   UNL A   1      46.885  29.829  31.284  1.00  0.00     0.029 A 
ATOM     63  C   UNL A   1      46.126  28.833  30.688  1.00  0.00     0.049 A 
ATOM     64  H   UNL A   1      44.100  28.879  30.101  1.00  0.00     0.167 HD
ATOM     65  C   UNL A   1      45.727  26.583  29.724  1.00  0.00     0.074 A 
ATOM     66  C   UNL A   1      46.153  25.251  29.343  1.00  0.00     0.031 C 
ATOM     67  C   UNL A   1      46.535  27.505  30.304  1.00  0.00     0.031 A 
BRANCH  54  68
ATOM     68  C   UNL A   1      43.770  32.915  31.478  1.00  0.00    -0.014 A 
ATOM     69  C   UNL A   1      43.622  33.205  32.848  1.00  0.00     0.010 A 
ATOM     70  C   UNL A   1      44.063  33.964  30.589  1.00  0.00     0.010 A 
ATOM     71  C   UNL A   1      43.715  34.520  33.309  1.00  0.00     0.020 A 
ATOM     72  C   UNL A   1      44.192  35.277  31.051  1.00  0.00     0.020 A 
ATOM     73  C   UNL A   1      43.997  35.549  32.407  1.00  0.00     0.054 A 
BRANCH  73  74
ATOM     74  S   UNL A   1      44.128  37.243  33.039  1.00  0.00     0.124 S 
ATOM     75  O   UNL A   1      45.360  37.179  33.821  1.00  0.00    -0.237 OA
ATOM     76  O   UNL A   1      44.203  38.036  31.814  1.00  0.00    -0.237 OA
ATOM     77  O   UNL A   1      42.905  37.420  33.818  1.00  0.00    -0.744 OA
ENDBRANCH  73  74
ENDBRANCH  54  68
BRANCH  55  78
ATOM     78  C   UNL A   1      42.556  23.702  27.765  1.00  0.00    -0.014 A 
ATOM     79  C   UNL A   1      42.085  22.653  28.575  1.00  0.00     0.010 A 
ATOM     80  C   UNL A   1      42.858  23.435  26.417  1.00  0.00     0.010 A 
ATOM     81  C   UNL A   1      41.937  21.363  28.056  1.00  0.00     0.020 A 
ATOM     82  C   UNL A   1      42.681  22.155  25.883  1.00  0.00     0.020 A 
ATOM     83  C   UNL A   1      42.233  21.124  26.711  1.00  0.00     0.054 A 
BRANCH  83  84
ATOM     84  S   UNL A   1      41.987  19.453  26.047  1.00  0.00     0.124 S 
ATOM     85  O   UNL A   1      40.545  19.422  25.824  1.00  0.00    -0.237 OA
ATOM     86  O   UNL A   1      42.815  19.468  24.844  1.00  0.00    -0.237 OA
ATOM     87  O   UNL A   1      42.474  18.585  27.118  1.00  0.00    -0.744 OA
ENDBRANCH  83  84
ENDBRANCH  55  78
BRANCH  67  88
ATOM     88  C   UNL A   1      47.953  27.097  30.605  1.00  0.00    -0.014 A 
ATOM     89  C   UNL A   1      48.997  27.342  29.695  1.00  0.00     0.010 A 
ATOM     90  C   UNL A   1      48.254  26.513  31.851  1.00  0.00     0.010 A 
ATOM     91  C   UNL A   1      50.309  26.984  30.013  1.00  0.00     0.020 A 
ATOM     92  C   UNL A   1      49.569  26.185  32.186  1.00  0.00     0.020 A 
ATOM     93  C   UNL A   1      50.588  26.410  31.258  1.00  0.00     0.054 A 
BRANCH  93  94
ATOM     94  S   UNL A   1      52.306  26.002  31.665  1.00  0.00     0.124 S 
ATOM     95  O   UNL A   1      52.978  26.195  30.382  1.00  0.00    -0.237 OA
ATOM     96  O   UNL A   1      52.631  26.983  32.697  1.00  0.00    -0.237 OA
ATOM     97  O   UNL A   1      52.235  24.618  32.128  1.00  0.00    -0.744 OA
ENDBRANCH  93  94
ENDBRANCH  67  88
ENDBRANCH  41  42
ENDBRANCH  33  36
ENDBRANCH  31  32
ENDBRANCH   1  31
TORSDOF 16
ENDMDL
MODEL 2
REMARK VINA RESULT:     -12.0      5.095     12.397
REMARK SMILES O=C1[NH+]=C(Nc2ccc(C(=O)NCCCNC(=O)c3ccc(-c4c5nc(c(-c6ccc(S(=O)(=O)[O-])cc6)c6ccc([nH]6)c(-c6ccc(S(=O)(=O)[O-])cc6)c6nc(c(-c7ccc(S(=O)(=O)[O-])cc7)c7ccc4[nH]7)C=C6)C=C5)cc3)c(O)c2)S/C1=C\c1ccc[nH]1
REMARK SMILES IDX 14 1 13 2 12 3 10 4 11 5 9 7 6 8 7 9 81 10 8 11 79 12 5 13
REMARK SMILES IDX 1 14 2 15 3 16 83 17 4 18 82 20 84 21 85 23 86 24 89 25
REMARK SMILES IDX 87 26 88 27 80 29 15 31 16 32 17 33 18 35 19 36 20 37 78 38
REMARK SMILES IDX 21 39 77 40 22 41 23 42 24 43 71 44 25 45 76 46 70 47 72 48
REMARK SMILES IDX 26 49 75 50 69 51 68 52 27 54 57 55 38 56 56 57 39 58 42 59
REMARK SMILES IDX 55 60 73 61 40 62 41 63 54 65 74 66 43 67 28 68 29 69 37 70
REMARK SMILES IDX 30 71 36 72 31 73 32 74 33 75 34 76 35 77 58 78 59 79 67 80
REMARK SMILES IDX 60 81 66 82 61 83 62 84 63 85 64 86 65 87 44 88 45 89 53 90
REMARK SMILES IDX 46 91 52 92 47 93 48 94 49 95 50 96 51 97
REMARK H PARENT 12 6 3 19 5 22 89 28 80 30 16 34 72 53 42 64
REMARK Flexibility Score: inf
ROOT
ATOM      1  C   UNL A   1      42.665  23.067  25.478  1.00  0.00     0.042 C 
ENDROOT
BRANCH   1   2
ATOM      2  C   UNL A   1      43.641  24.016  26.150  1.00  0.00     0.118 C 
BRANCH   2   3
ATOM      3  N   UNL A   1      44.778  24.405  25.327  1.00  0.00    -0.352 N 
ATOM      4  C   UNL A   1      45.418  25.613  25.191  1.00  0.00     0.255 C 
ATOM      5  O   UNL A   1      46.373  25.693  24.421  1.00  0.00    -0.269 OA
ATOM      6  H   UNL A   1      45.152  23.681  24.775  1.00  0.00     0.163 HD
BRANCH   4   7
ATOM      7  C   UNL A   1      44.960  26.831  25.901  1.00  0.00     0.081 A 
ATOM      8  C   UNL A   1      44.404  29.267  27.218  1.00  0.00     0.129 A 
ATOM      9  C   UNL A   1      45.496  28.481  27.601  1.00  0.00     0.053 A 
ATOM     10  C   UNL A   1      43.554  28.780  26.218  1.00  0.00     0.098 A 
ATOM     11  C   UNL A   1      45.772  27.276  26.951  1.00  0.00     0.022 A 
ATOM     12  C   UNL A   1      43.802  27.552  25.603  1.00  0.00     0.132 A 
BRANCH   8  13
ATOM     13  N   UNL A   1      44.180  30.546  27.737  1.00  0.00    -0.234 N 
ATOM     14  O   UNL A   1      44.499  33.715  24.325  1.00  0.00    -0.240 OA
ATOM     15  C   UNL A   1      44.382  33.272  25.461  1.00  0.00     0.346 C 
ATOM     16  N   UNL A   1      44.429  31.940  25.798  1.00  0.00    -0.199 N 
ATOM     17  C   UNL A   1      44.187  34.137  26.659  1.00  0.00     0.111 C 
ATOM     18  C   UNL A   1      44.253  31.726  27.058  1.00  0.00     0.322 C 
ATOM     19  H   UNL A   1      44.583  31.222  25.143  1.00  0.00     0.316 HD
ATOM     20  S   UNL A   1      44.036  33.146  28.055  1.00  0.00     0.006 SA
ATOM     21  C   UNL A   1      44.136  35.473  26.576  1.00  0.00     0.050 C 
ATOM     22  H   UNL A   1      43.947  30.601  28.692  1.00  0.00     0.313 HD
BRANCH  21  23
ATOM     23  C   UNL A   1      44.041  36.301  27.719  1.00  0.00     0.039 A 
ATOM     24  C   UNL A   1      42.978  36.808  28.440  1.00  0.00     0.027 A 
ATOM     25  N   UNL A   1      45.195  36.753  28.309  1.00  0.00    -0.362 N 
ATOM     26  C   UNL A   1      43.505  37.615  29.473  1.00  0.00     0.020 A 
ATOM     27  C   UNL A   1      44.876  37.570  29.365  1.00  0.00     0.083 A 
ATOM     28  H   UNL A   1      46.109  36.527  28.019  1.00  0.00     0.166 HD
ENDBRANCH  21  23
ENDBRANCH   8  13
BRANCH  12  29
ATOM     29  O   UNL A   1      42.832  27.125  24.740  1.00  0.00    -0.507 OA
ATOM     30  H   UNL A   1      42.470  27.717  24.110  1.00  0.00     0.293 HD
ENDBRANCH  12  29
ENDBRANCH   4   7
ENDBRANCH   2   3
ENDBRANCH   1   2
BRANCH   1  31
ATOM     31  C   UNL A   1      41.788  22.257  26.420  1.00  0.00     0.118 C 
BRANCH  31  32
ATOM     32  N   UNL A   1      40.391  22.172  26.009  1.00  0.00    -0.352 N 
ATOM     33  C   UNL A   1      39.331  23.026  26.216  1.00  0.00     0.251 C 
ATOM     34  H   UNL A   1      40.168  21.364  25.494  1.00  0.00     0.163 HD
ATOM     35  O   UNL A   1      38.204  22.677  25.873  1.00  0.00    -0.269 OA
BRANCH  33  36
ATOM     36  C   UNL A   1      39.529  24.333  26.885  1.00  0.00     0.039 A 
ATOM     37  C   UNL A   1      39.154  24.479  28.224  1.00  0.00     0.014 A 
ATOM     38  C   UNL A   1      40.092  25.412  26.206  1.00  0.00     0.014 A 
ATOM     39  C   UNL A   1      39.447  25.668  28.901  1.00  0.00     0.010 A 
ATOM     40  C   UNL A   1      40.500  26.537  26.911  1.00  0.00     0.010 A 
ATOM     41  C   UNL A   1      40.177  26.685  28.267  1.00  0.00    -0.014 A 
BRANCH  41  42
ATOM     42  C   UNL A   1      40.603  27.917  28.985  1.00  0.00     0.031 A 
ATOM     43  C   UNL A   1      41.960  27.977  29.640  1.00  0.00     0.074 A 
ATOM     44  C   UNL A   1      39.744  28.949  29.118  1.00  0.00     0.049 A 
ATOM     45  N   UNL A   1      42.478  28.924  30.379  1.00  0.00    -0.248 NA
ATOM     46  C   UNL A   1      42.837  26.807  29.467  1.00  0.00     0.031 C 
ATOM     47  C   UNL A   1      38.385  29.001  28.572  1.00  0.00     0.029 A 
ATOM     48  N   UNL A   1      39.886  30.155  29.759  1.00  0.00    -0.354 N 
ATOM     49  C   UNL A   1      43.726  28.454  30.775  1.00  0.00     0.074 A 
ATOM     50  C   UNL A   1      43.858  27.113  30.252  1.00  0.00     0.031 C 
ATOM     51  C   UNL A   1      37.837  30.192  28.864  1.00  0.00     0.029 A 
ATOM     52  C   UNL A   1      38.779  30.967  29.664  1.00  0.00     0.049 A 
ATOM     53  H   UNL A   1      40.703  30.416  30.243  1.00  0.00     0.167 HD
ATOM     54  C   UNL A   1      44.690  29.089  31.484  1.00  0.00     0.031 A 
ATOM     55  C   UNL A   1      38.543  32.194  30.169  1.00  0.00     0.031 A 
ATOM     56  C   UNL A   1      44.560  30.427  31.994  1.00  0.00     0.049 A 
ATOM     57  C   UNL A   1      39.618  32.870  30.977  1.00  0.00     0.074 A 
ATOM     58  C   UNL A   1      45.496  31.181  32.679  1.00  0.00     0.029 A 
ATOM     59  N   UNL A   1      43.423  31.212  31.873  1.00  0.00    -0.354 N 
ATOM     60  N   UNL A   1      40.817  32.433  31.284  1.00  0.00    -0.248 NA
ATOM     61  C   UNL A   1      39.311  34.209  31.501  1.00  0.00     0.031 C 
ATOM     62  C   UNL A   1      44.903  32.397  33.029  1.00  0.00     0.029 A 
ATOM     63  C   UNL A   1      43.624  32.432  32.497  1.00  0.00     0.049 A 
ATOM     64  H   UNL A   1      42.596  30.943  31.413  1.00  0.00     0.167 HD
ATOM     65  C   UNL A   1      41.419  33.458  32.006  1.00  0.00     0.074 A 
ATOM     66  C   UNL A   1      40.458  34.540  32.078  1.00  0.00     0.031 C 
ATOM     67  C   UNL A   1      42.657  33.500  32.558  1.00  0.00     0.031 A 
BRANCH  54  68
ATOM     68  C   UNL A   1      45.969  28.335  31.752  1.00  0.00    -0.014 A 
ATOM     69  C   UNL A   1      46.089  27.473  32.858  1.00  0.00     0.010 A 
ATOM     70  C   UNL A   1      47.058  28.468  30.872  1.00  0.00     0.010 A 
ATOM     71  C   UNL A   1      47.286  26.798  33.105  1.00  0.00     0.020 A 
ATOM     72  C   UNL A   1      48.246  27.767  31.096  1.00  0.00     0.020 A 
ATOM     73  C   UNL A   1      48.359  26.952  32.224  1.00  0.00     0.054 A 
BRANCH  73  74
ATOM     74  S   UNL A   1      49.895  26.049  32.563  1.00  0.00     0.124 S 
ATOM     75  O   UNL A   1      49.755  25.738  33.982  1.00  0.00    -0.237 OA
ATOM     76  O   UNL A   1      49.800  24.907  31.657  1.00  0.00    -0.237 OA
ATOM     77  O   UNL A   1      50.944  27.013  32.238  1.00  0.00    -0.744 OA
ENDBRANCH  73  74
ENDBRANCH  54  68
BRANCH  55  78
ATOM     78  C   UNL A   1      37.243  32.874  29.907  1.00  0.00    -0.014 A 
ATOM     79  C   UNL A   1      37.017  33.536  28.687  1.00  0.00     0.010 A 
ATOM     80  C   UNL A   1      36.219  32.859  30.872  1.00  0.00     0.010 A 
ATOM     81  C   UNL A   1      35.802  34.185  28.443  1.00  0.00     0.020 A 
ATOM     82  C   UNL A   1      34.991  33.479  30.621  1.00  0.00     0.020 A 
ATOM     83  C   UNL A   1      34.795  34.149  29.412  1.00  0.00     0.054 A 
BRANCH  83  84
ATOM     84  S   UNL A   1      33.211  34.957  29.054  1.00  0.00     0.124 S 
ATOM     85  O   UNL A   1      32.649  34.087  28.026  1.00  0.00    -0.237 OA
ATOM     86  O   UNL A   1      32.540  34.921  30.351  1.00  0.00    -0.237 OA
ATOM     87  O   UNL A   1      33.602  36.291  28.601  1.00  0.00    -0.744 OA
ENDBRANCH  83  84
ENDBRANCH  55  78
BRANCH  67  88
ATOM     88  C   UNL A   1      43.067  34.773  33.253  1.00  0.00    -0.014 A 
ATOM     89  C   UNL A   1      42.780  34.993  34.612  1.00  0.00     0.010 A 
ATOM     90  C   UNL A   1      43.809  35.737  32.544  1.00  0.00     0.010 A 
ATOM     91  C   UNL A   1      43.200  36.168  35.241  1.00  0.00     0.020 A 
ATOM     92  C   UNL A   1      44.260  36.896  33.178  1.00  0.00     0.020 A 
ATOM     93  C   UNL A   1      43.941  37.111  34.521  1.00  0.00     0.054 A 
BRANCH  93  94
ATOM     94  S   UNL A   1      44.517  38.602  35.375  1.00  0.00     0.124 S 
ATOM     95  O   UNL A   1      43.771  39.655  34.689  1.00  0.00    -0.237 OA
ATOM     96  O   UNL A   1      44.121  38.351  36.758  1.00  0.00    -0.237 OA
ATOM     97  O   UNL A   1      45.959  38.605  35.136  1.00  0.00    -0.744 OA
ENDBRANCH  93  94
ENDBRANCH  67  88
ENDBRANCH  41  42
ENDBRANCH  33  36
ENDBRANCH  31  32
ENDBRANCH   1  31
TORSDOF 16
ENDMDL
MODEL 3
REMARK VINA RESULT:     -12.0      2.804      9.844
REMARK SMILES O=C1[NH+]=C(Nc2ccc(C(=O)NCCCNC(=O)c3ccc(-c4c5nc(c(-c6ccc(S(=O)(=O)[O-])cc6)c6ccc([nH]6)c(-c6ccc(S(=O)(=O)[O-])cc6)c6nc(c(-c7ccc(S(=O)(=O)[O-])cc7)c7ccc4[nH]7)C=C6)C=C5)cc3)c(O)c2)S/C1=C\c1ccc[nH]1
REMARK SMILES IDX 14 1 13 2 12 3 10 4 11 5 9 7 6 8 7 9 81 10 8 11 79 12 5 13
REMARK SMILES IDX 1 14 2 15 3 16 83 17 4 18 82 20 84 21 85 23 86 24 89 25
REMARK SMILES IDX 87 26 88 27 80 29 15 31 16 32 17 33 18 35 19 36 20 37 78 38
REMARK SMILES IDX 21 39 77 40 22 41 23 42 24 43 71 44 25 45 76 46 70 47 72 48
REMARK SMILES IDX 26 49 75 50 69 51 68 52 27 54 57 55 38 56 56 57 39 58 42 59
REMARK SMILES IDX 55 60 73 61 40 62 41 63 54 65 74 66 43 67 28 68 29 69 37 70
REMARK SMILES IDX 30 71 36 72 31 73 32 74 33 75 34 76 35 77 58 78 59 79 67 80
REMARK SMILES IDX 60 81 66 82 61 83 62 84 63 85 64 86 65 87 44 88 45 89 53 90
REMARK SMILES IDX 46 91 52 92 47 93 48 94 49 95 50 96 51 97
REMARK H PARENT 12 6 3 19 5 22 89 28 80 30 16 34 72 53 42 64
REMARK Flexibility Score: inf
ROOT
ATOM      1  C   UNL A   1      35.399  22.425  25.922  1.00  0.00     0.042 C 
ENDROOT
BRANCH   1   2
ATOM      2  C   UNL A   1      35.320  21.220  25.002  1.00  0.00     0.118 C 
BRANCH   2   3
ATOM      3  N   UNL A   1      34.381  20.189  25.424  1.00  0.00    -0.352 N 
ATOM      4  C   UNL A   1      33.011  20.131  25.336  1.00  0.00     0.255 C 
ATOM      5  O   UNL A   1      32.433  19.136  25.770  1.00  0.00    -0.269 OA
ATOM      6  H   UNL A   1      34.797  19.402  25.843  1.00  0.00     0.163 HD
BRANCH   4   7
ATOM      7  C   UNL A   1      32.208  21.249  24.787  1.00  0.00     0.081 A 
ATOM      8  C   UNL A   1      30.847  23.580  23.955  1.00  0.00     0.129 A 
ATOM      9  C   UNL A   1      30.934  23.249  25.311  1.00  0.00     0.053 A 
ATOM     10  C   UNL A   1      31.387  22.690  23.019  1.00  0.00     0.098 A 
ATOM     11  C   UNL A   1      31.606  22.096  25.724  1.00  0.00     0.022 A 
ATOM     12  C   UNL A   1      32.015  21.512  23.429  1.00  0.00     0.132 A 
BRANCH   8  13
ATOM     13  N   UNL A   1      30.318  24.795  23.510  1.00  0.00    -0.234 N 
ATOM     14  O   UNL A   1      32.672  28.341  25.426  1.00  0.00    -0.240 OA
ATOM     15  C   UNL A   1      31.804  27.767  24.779  1.00  0.00     0.346 C 
ATOM     16  N   UNL A   1      31.682  26.403  24.659  1.00  0.00    -0.199 N 
ATOM     17  C   UNL A   1      30.731  28.485  24.034  1.00  0.00     0.111 C 
ATOM     18  C   UNL A   1      30.702  26.043  23.900  1.00  0.00     0.322 C 
ATOM     19  H   UNL A   1      32.282  25.765  25.107  1.00  0.00     0.316 HD
ATOM     20  S   UNL A   1      29.734  27.337  23.233  1.00  0.00     0.006 SA
ATOM     21  C   UNL A   1      30.634  29.821  24.029  1.00  0.00     0.050 C 
ATOM     22  H   UNL A   1      29.591  24.745  22.848  1.00  0.00     0.313 HD
BRANCH  21  23
ATOM     23  C   UNL A   1      29.566  30.502  23.399  1.00  0.00     0.039 A 
ATOM     24  C   UNL A   1      28.311  30.895  23.819  1.00  0.00     0.027 A 
ATOM     25  N   UNL A   1      29.709  30.894  22.091  1.00  0.00    -0.362 N 
ATOM     26  C   UNL A   1      27.666  31.512  22.722  1.00  0.00     0.020 A 
ATOM     27  C   UNL A   1      28.548  31.491  21.666  1.00  0.00     0.083 A 
ATOM     28  H   UNL A   1      30.516  30.766  21.543  1.00  0.00     0.166 HD
ENDBRANCH  21  23
ENDBRANCH   8  13
BRANCH  12  29
ATOM     29  O   UNL A   1      32.382  20.665  22.422  1.00  0.00    -0.507 OA
ATOM     30  H   UNL A   1      32.843  20.994  21.676  1.00  0.00     0.293 HD
ENDBRANCH  12  29
ENDBRANCH   4   7
ENDBRANCH   2   3
ENDBRANCH   1   2
BRANCH   1  31
ATOM     31  C   UNL A   1      36.660  23.265  25.792  1.00  0.00     0.118 C 
BRANCH  31  32
ATOM     32  N   UNL A   1      37.898  22.501  25.897  1.00  0.00    -0.352 N 
ATOM     33  C   UNL A   1      39.148  22.858  26.353  1.00  0.00     0.251 C 
ATOM     34  H   UNL A   1      37.829  21.569  25.589  1.00  0.00     0.163 HD
ATOM     35  O   UNL A   1      40.079  22.067  26.229  1.00  0.00    -0.269 OA
BRANCH  33  36
ATOM     36  C   UNL A   1      39.386  24.194  26.946  1.00  0.00     0.039 A 
ATOM     37  C   UNL A   1      38.961  24.447  28.254  1.00  0.00     0.014 A 
ATOM     38  C   UNL A   1      40.038  25.195  26.228  1.00  0.00     0.014 A 
ATOM     39  C   UNL A   1      39.287  25.661  28.868  1.00  0.00     0.010 A 
ATOM     40  C   UNL A   1      40.475  26.342  26.880  1.00  0.00     0.010 A 
ATOM     41  C   UNL A   1      40.100  26.595  28.207  1.00  0.00    -0.014 A 
BRANCH  41  42
ATOM     42  C   UNL A   1      40.560  27.847  28.865  1.00  0.00     0.031 A 
ATOM     43  C   UNL A   1      41.947  27.926  29.452  1.00  0.00     0.074 A 
ATOM     44  C   UNL A   1      39.709  28.885  29.008  1.00  0.00     0.049 A 
ATOM     45  N   UNL A   1      42.501  28.894  30.136  1.00  0.00    -0.248 NA
ATOM     46  C   UNL A   1      42.815  26.749  29.273  1.00  0.00     0.031 C 
ATOM     47  C   UNL A   1      38.325  28.922  28.527  1.00  0.00     0.029 A 
ATOM     48  N   UNL A   1      39.881  30.109  29.604  1.00  0.00    -0.354 N 
ATOM     49  C   UNL A   1      43.766  28.434  30.486  1.00  0.00     0.074 A 
ATOM     50  C   UNL A   1      43.873  27.077  29.999  1.00  0.00     0.031 C 
ATOM     51  C   UNL A   1      37.792  30.122  28.808  1.00  0.00     0.029 A 
ATOM     52  C   UNL A   1      38.771  30.920  29.538  1.00  0.00     0.049 A 
ATOM     53  H   UNL A   1      40.721  30.384  30.040  1.00  0.00     0.167 HD
ATOM     54  C   UNL A   1      44.763  29.089  31.128  1.00  0.00     0.031 A 
ATOM     55  C   UNL A   1      38.560  32.163  30.015  1.00  0.00     0.031 A 
ATOM     56  C   UNL A   1      44.658  30.442  31.602  1.00  0.00     0.049 A 
ATOM     57  C   UNL A   1      39.673  32.861  30.750  1.00  0.00     0.074 A 
ATOM     58  C   UNL A   1      45.626  31.215  32.218  1.00  0.00     0.029 A 
ATOM     59  N   UNL A   1      43.516  31.225  31.512  1.00  0.00    -0.354 N 
ATOM     60  N   UNL A   1      40.885  32.431  31.012  1.00  0.00    -0.248 NA
ATOM     61  C   UNL A   1      39.392  34.215  31.247  1.00  0.00     0.031 C 
ATOM     62  C   UNL A   1      45.051  32.443  32.558  1.00  0.00     0.029 A 
ATOM     63  C   UNL A   1      43.747  32.464  32.088  1.00  0.00     0.049 A 
ATOM     64  H   UNL A   1      42.668  30.943  31.101  1.00  0.00     0.167 HD
ATOM     65  C   UNL A   1      41.521  33.477  31.673  1.00  0.00     0.074 A 
ATOM     66  C   UNL A   1      40.565  34.562  31.757  1.00  0.00     0.031 C 
ATOM     67  C   UNL A   1      42.785  33.535  32.163  1.00  0.00     0.031 A 
BRANCH  54  68
ATOM     68  C   UNL A   1      46.053  28.342  31.357  1.00  0.00    -0.014 A 
ATOM     69  C   UNL A   1      46.253  27.570  32.517  1.00  0.00     0.010 A 
ATOM     70  C   UNL A   1      47.071  28.388  30.387  1.00  0.00     0.010 A 
ATOM     71  C   UNL A   1      47.460  26.901  32.725  1.00  0.00     0.020 A 
ATOM     72  C   UNL A   1      48.268  27.692  30.576  1.00  0.00     0.020 A 
ATOM     73  C   UNL A   1      48.463  26.968  31.754  1.00  0.00     0.054 A 
BRANCH  73  74
ATOM     74  S   UNL A   1      50.013  26.075  32.046  1.00  0.00     0.124 S 
ATOM     75  O   UNL A   1      49.821  25.572  33.403  1.00  0.00    -0.237 OA
ATOM     76  O   UNL A   1      50.001  25.062  30.993  1.00  0.00    -0.237 OA
ATOM     77  O   UNL A   1      51.041  27.105  31.904  1.00  0.00    -0.744 OA
ENDBRANCH  73  74
ENDBRANCH  54  68
BRANCH  55  78
ATOM     78  C   UNL A   1      37.249  32.836  29.796  1.00  0.00    -0.014 A 
ATOM     79  C   UNL A   1      37.011  33.568  28.619  1.00  0.00     0.010 A 
ATOM     80  C   UNL A   1      36.226  32.744  30.757  1.00  0.00     0.010 A 
ATOM     81  C   UNL A   1      35.786  34.211  28.416  1.00  0.00     0.020 A 
ATOM     82  C   UNL A   1      34.988  33.359  30.545  1.00  0.00     0.020 A 
ATOM     83  C   UNL A   1      34.780  34.099  29.380  1.00  0.00     0.054 A 
BRANCH  83  84
ATOM     84  S   UNL A   1      33.183  34.902  29.072  1.00  0.00     0.124 S 
ATOM     85  O   UNL A   1      32.555  34.846  30.388  1.00  0.00    -0.237 OA
ATOM     86  O   UNL A   1      33.582  36.232  28.617  1.00  0.00    -0.237 OA
ATOM     87  O   UNL A   1      32.568  34.060  28.048  1.00  0.00    -0.744 OA
ENDBRANCH  83  84
ENDBRANCH  55  78
BRANCH  67  88
ATOM     88  C   UNL A   1      43.228  34.827  32.798  1.00  0.00    -0.014 A 
ATOM     89  C   UNL A   1      43.761  35.878  32.030  1.00  0.00     0.010 A 
ATOM     90  C   UNL A   1      43.049  35.011  34.182  1.00  0.00     0.010 A 
ATOM     91  C   UNL A   1      44.133  37.078  32.640  1.00  0.00     0.020 A 
ATOM     92  C   UNL A   1      43.388  36.222  34.789  1.00  0.00     0.020 A 
ATOM     93  C   UNL A   1      43.942  37.244  34.016  1.00  0.00     0.054 A 
BRANCH  93  94
ATOM     94  S   UNL A   1      44.387  38.830  34.773  1.00  0.00     0.124 S 
ATOM     95  O   UNL A   1      44.101  38.586  36.184  1.00  0.00    -0.237 OA
ATOM     96  O   UNL A   1      45.801  38.960  34.432  1.00  0.00    -0.237 OA
ATOM     97  O   UNL A   1      43.503  39.790  34.116  1.00  0.00    -0.744 OA
ENDBRANCH  93  94
ENDBRANCH  67  88
ENDBRANCH  41  42
ENDBRANCH  33  36
ENDBRANCH  31  32
ENDBRANCH   1  31
TORSDOF 16
ENDMDL
