MODEL 1
REMARK VINA RESULT:     -13.4      0.000      0.000
REMARK SMILES Cc1ccc(-c2cc(C(=O)NCCCNC(=O)c3ccc(-c4c5nc(c(-c6ccc(S(=O)(=O)[O-])cc6)c6ccc([nH]6)c(-c6ccc(S(=O)(=O)[O-])cc6)c6nc(c(-c7ccc(S(=O)(=O)[O-])cc7)c7ccc4[nH]7)C=C6)C=C5)cc3)c3cc(C)ccc3n2)c(C)c1
REMARK SMILES IDX 14 1 13 2 12 3 11 4 9 5 10 6 8 8 6 9 7 10 85 11 84 12 78 13
REMARK SMILES IDX 83 14 79 15 82 16 80 17 81 18 5 19 1 20 2 21 3 22 88 23 4 24
REMARK SMILES IDX 86 25 87 26 15 27 16 28 17 30 18 31 19 32 77 33 20 34 76 35
REMARK SMILES IDX 21 36 22 37 23 38 70 39 24 40 75 41 69 42 71 43 25 44 74 45
REMARK SMILES IDX 68 46 67 47 26 49 56 50 37 51 55 52 38 53 41 54 54 55 72 56
REMARK SMILES IDX 39 57 40 58 53 60 73 61 42 62 27 63 28 64 36 65 29 66 35 67
REMARK SMILES IDX 30 68 31 69 32 70 33 71 34 72 57 73 58 74 66 75 59 76 65 77
REMARK SMILES IDX 60 78 61 79 62 80 63 81 64 82 43 83 44 84 52 85 45 86 51 87
REMARK SMILES IDX 46 88 47 89 48 90 49 91 50 92
REMARK H PARENT 11 7 15 29 71 48 41 59
REMARK Flexibility Score: inf
ROOT
ATOM      1  C   UNL A   1      38.015  24.004  26.205  1.00  0.00     0.118 C 
ENDROOT
BRANCH   1   2
ATOM      2  C   UNL A   1      37.238  23.468  25.010  1.00  0.00     0.042 C 
BRANCH   2   3
ATOM      3  C   UNL A   1      36.622  22.097  25.210  1.00  0.00     0.118 C 
BRANCH   3   4
ATOM      4  N   UNL A   1      35.831  21.914  26.420  1.00  0.00    -0.352 N 
ATOM      5  C   UNL A   1      34.479  21.696  26.591  1.00  0.00     0.252 C 
ATOM      6  O   UNL A   1      34.065  21.484  27.731  1.00  0.00    -0.269 OA
ATOM      7  H   UNL A   1      36.349  21.951  27.257  1.00  0.00     0.163 HD
BRANCH   5   8
ATOM      8  C   UNL A   1      33.488  21.810  25.482  1.00  0.00     0.051 A 
ATOM      9  C   UNL A   1      32.237  23.307  24.099  1.00  0.00     0.072 A 
ATOM     10  C   UNL A   1      33.062  23.111  25.192  1.00  0.00     0.043 A 
ATOM     11  N   UNL A   1      31.942  22.310  23.234  1.00  0.00    -0.248 NA
ATOM     12  C   UNL A   1      32.337  21.060  23.520  1.00  0.00     0.072 A 
ATOM     13  C   UNL A   1      33.002  20.732  24.712  1.00  0.00     0.013 A 
ATOM     14  C   UNL A   1      32.090  20.051  22.600  1.00  0.00     0.029 A 
ATOM     15  C   UNL A   1      33.160  19.367  25.037  1.00  0.00     0.014 A 
ATOM     16  C   UNL A   1      32.460  18.724  22.842  1.00  0.00     0.005 A 
ATOM     17  C   UNL A   1      32.976  18.366  24.081  1.00  0.00    -0.050 A 
ATOM     18  C   UNL A   1      33.488  16.980  24.344  1.00  0.00     0.044 C 
BRANCH   9  19
ATOM     19  C   UNL A   1      31.552  24.584  23.851  1.00  0.00     0.003 A 
ATOM     20  C   UNL A   1      29.515  28.351  23.169  1.00  0.00     0.044 C 
ATOM     21  C   UNL A   1      30.202  27.041  23.410  1.00  0.00    -0.051 A 
ATOM     22  C   UNL A   1      29.735  26.138  24.367  1.00  0.00     0.004 A 
ATOM     23  C   UNL A   1      31.343  26.711  22.670  1.00  0.00     0.007 A 
ATOM     24  C   UNL A   1      30.402  24.927  24.584  1.00  0.00     0.011 A 
ATOM     25  C   UNL A   1      32.016  25.491  22.868  1.00  0.00    -0.041 A 
ATOM     26  C   UNL A   1      33.246  25.231  22.036  1.00  0.00     0.045 C 
ENDBRANCH   9  19
ENDBRANCH   5   8
ENDBRANCH   3   4
ENDBRANCH   2   3
ENDBRANCH   1   2
BRANCH   1  27
ATOM     27  N   UNL A   1      39.464  23.841  26.116  1.00  0.00    -0.352 N 
ATOM     28  C   UNL A   1      40.526  24.524  26.664  1.00  0.00     0.251 C 
ATOM     29  H   UNL A   1      39.737  23.085  25.547  1.00  0.00     0.163 HD
ATOM     30  O   UNL A   1      41.665  24.193  26.334  1.00  0.00    -0.269 OA
BRANCH  28  31
ATOM     31  C   UNL A   1      40.340  25.670  27.585  1.00  0.00     0.039 A 
ATOM     32  C   UNL A   1      39.413  25.559  28.629  1.00  0.00     0.014 A 
ATOM     33  C   UNL A   1      41.047  26.859  27.437  1.00  0.00     0.014 A 
ATOM     34  C   UNL A   1      39.288  26.584  29.574  1.00  0.00     0.010 A 
ATOM     35  C   UNL A   1      41.023  27.817  28.446  1.00  0.00     0.010 A 
ATOM     36  C   UNL A   1      40.144  27.696  29.529  1.00  0.00    -0.014 A 
BRANCH  36  37
ATOM     37  C   UNL A   1      40.147  28.743  30.588  1.00  0.00     0.031 A 
ATOM     38  C   UNL A   1      41.055  28.608  31.786  1.00  0.00     0.074 A 
ATOM     39  C   UNL A   1      39.256  29.754  30.535  1.00  0.00     0.049 A 
ATOM     40  N   UNL A   1      41.089  29.322  32.882  1.00  0.00    -0.248 NA
ATOM     41  C   UNL A   1      42.020  27.496  31.766  1.00  0.00     0.031 C 
ATOM     42  C   UNL A   1      38.277  29.972  29.466  1.00  0.00     0.029 A 
ATOM     43  N   UNL A   1      39.017  30.784  31.414  1.00  0.00    -0.354 N 
ATOM     44  C   UNL A   1      42.046  28.723  33.693  1.00  0.00     0.074 A 
ATOM     45  C   UNL A   1      42.525  27.554  32.988  1.00  0.00     0.031 C 
ATOM     46  C   UNL A   1      37.565  31.078  29.737  1.00  0.00     0.029 A 
ATOM     47  C   UNL A   1      37.998  31.621  31.020  1.00  0.00     0.049 A 
ATOM     48  H   UNL A   1      39.526  30.909  32.246  1.00  0.00     0.167 HD
ATOM     49  C   UNL A   1      42.509  29.120  34.904  1.00  0.00     0.031 A 
ATOM     50  C   UNL A   1      37.462  32.698  31.626  1.00  0.00     0.031 A 
ATOM     51  C   UNL A   1      42.058  30.301  35.589  1.00  0.00     0.049 A 
ATOM     52  C   UNL A   1      38.007  33.139  32.954  1.00  0.00     0.074 A 
ATOM     53  C   UNL A   1      42.508  30.827  36.788  1.00  0.00     0.029 A 
ATOM     54  N   UNL A   1      41.059  31.147  35.130  1.00  0.00    -0.354 N 
ATOM     55  N   UNL A   1      38.951  32.589  33.680  1.00  0.00    -0.248 NA
ATOM     56  C   UNL A   1      37.424  34.353  33.541  1.00  0.00     0.031 C 
ATOM     57  C   UNL A   1      41.754  31.971  37.072  1.00  0.00     0.029 A 
ATOM     58  C   UNL A   1      40.869  32.184  36.026  1.00  0.00     0.049 A 
ATOM     59  H   UNL A   1      40.559  31.027  34.291  1.00  0.00     0.167 HD
ATOM     60  C   UNL A   1      39.088  33.400  34.801  1.00  0.00     0.074 A 
ATOM     61  C   UNL A   1      38.143  34.488  34.647  1.00  0.00     0.031 C 
ATOM     62  C   UNL A   1      39.921  33.256  35.861  1.00  0.00     0.031 A 
BRANCH  49  63
ATOM     63  C   UNL A   1      43.564  28.262  35.555  1.00  0.00    -0.014 A 
ATOM     64  C   UNL A   1      43.211  27.224  36.438  1.00  0.00     0.010 A 
ATOM     65  C   UNL A   1      44.924  28.493  35.283  1.00  0.00     0.010 A 
ATOM     66  C   UNL A   1      44.199  26.475  37.083  1.00  0.00     0.020 A 
ATOM     67  C   UNL A   1      45.915  27.724  35.902  1.00  0.00     0.020 A 
ATOM     68  C   UNL A   1      45.545  26.737  36.818  1.00  0.00     0.054 A 
BRANCH  68  69
ATOM     69  S   UNL A   1      46.806  25.755  37.675  1.00  0.00     0.124 S 
ATOM     70  O   UNL A   1      46.121  25.408  38.918  1.00  0.00    -0.237 OA
ATOM     71  O   UNL A   1      47.033  24.645  36.753  1.00  0.00    -0.237 OA
ATOM     72  O   UNL A   1      47.928  26.680  37.819  1.00  0.00    -0.744 OA
ENDBRANCH  68  69
ENDBRANCH  49  63
BRANCH  50  73
ATOM     73  C   UNL A   1      36.355  33.441  30.963  1.00  0.00    -0.014 A 
ATOM     74  C   UNL A   1      35.118  33.602  31.612  1.00  0.00     0.010 A 
ATOM     75  C   UNL A   1      36.544  34.024  29.696  1.00  0.00     0.010 A 
ATOM     76  C   UNL A   1      34.088  34.326  31.004  1.00  0.00     0.020 A 
ATOM     77  C   UNL A   1      35.525  34.769  29.097  1.00  0.00     0.020 A 
ATOM     78  C   UNL A   1      34.300  34.909  29.752  1.00  0.00     0.054 A 
BRANCH  78  79
ATOM     79  S   UNL A   1      32.974  35.906  29.014  1.00  0.00     0.124 S 
ATOM     80  O   UNL A   1      32.325  34.942  28.131  1.00  0.00    -0.237 OA
ATOM     81  O   UNL A   1      32.199  36.314  30.184  1.00  0.00    -0.237 OA
ATOM     82  O   UNL A   1      33.692  36.987  28.346  1.00  0.00    -0.744 OA
ENDBRANCH  78  79
ENDBRANCH  50  73
BRANCH  62  83
ATOM     83  C   UNL A   1      39.866  34.314  36.929  1.00  0.00    -0.014 A 
ATOM     84  C   UNL A   1      40.543  35.536  36.779  1.00  0.00     0.010 A 
ATOM     85  C   UNL A   1      39.077  34.102  38.075  1.00  0.00     0.010 A 
ATOM     86  C   UNL A   1      40.456  36.517  37.769  1.00  0.00     0.020 A 
ATOM     87  C   UNL A   1      38.967  35.091  39.055  1.00  0.00     0.020 A 
ATOM     88  C   UNL A   1      39.668  36.288  38.902  1.00  0.00     0.054 A 
BRANCH  88  89
ATOM     89  S   UNL A   1      39.534  37.596  40.151  1.00  0.00     0.124 S 
ATOM     90  O   UNL A   1      39.034  36.859  41.308  1.00  0.00    -0.237 OA
ATOM     91  O   UNL A   1      40.909  38.079  40.260  1.00  0.00    -0.237 OA
ATOM     92  O   UNL A   1      38.591  38.544  39.561  1.00  0.00    -0.744 OA
ENDBRANCH  88  89
ENDBRANCH  62  83
ENDBRANCH  36  37
ENDBRANCH  28  31
ENDBRANCH   1  27
TORSDOF 14
ENDMDL
MODEL 2
REMARK VINA RESULT:     -13.4      4.730     10.588
REMARK SMILES Cc1ccc(-c2cc(C(=O)NCCCNC(=O)c3ccc(-c4c5nc(c(-c6ccc(S(=O)(=O)[O-])cc6)c6ccc([nH]6)c(-c6ccc(S(=O)(=O)[O-])cc6)c6nc(c(-c7ccc(S(=O)(=O)[O-])cc7)c7ccc4[nH]7)C=C6)C=C5)cc3)c3cc(C)ccc3n2)c(C)c1
REMARK SMILES IDX 14 1 13 2 12 3 11 4 9 5 10 6 8 8 6 9 7 10 85 11 84 12 78 13
REMARK SMILES IDX 83 14 79 15 82 16 80 17 81 18 5 19 1 20 2 21 3 22 88 23 4 24
REMARK SMILES IDX 86 25 87 26 15 27 16 28 17 30 18 31 19 32 77 33 20 34 76 35
REMARK SMILES IDX 21 36 22 37 23 38 70 39 24 40 75 41 69 42 71 43 25 44 74 45
REMARK SMILES IDX 68 46 67 47 26 49 56 50 37 51 55 52 38 53 41 54 54 55 72 56
REMARK SMILES IDX 39 57 40 58 53 60 73 61 42 62 27 63 28 64 36 65 29 66 35 67
REMARK SMILES IDX 30 68 31 69 32 70 33 71 34 72 57 73 58 74 66 75 59 76 65 77
REMARK SMILES IDX 60 78 61 79 62 80 63 81 64 82 43 83 44 84 52 85 45 86 51 87
REMARK SMILES IDX 46 88 47 89 48 90 49 91 50 92
REMARK H PARENT 11 7 15 29 71 48 41 59
REMARK Flexibility Score: inf
ROOT
ATOM      1  C   UNL A   1      33.329  28.550  27.465  1.00  0.00     0.118 C 
ENDROOT
BRANCH   1   2
ATOM      2  C   UNL A   1      32.973  28.203  26.025  1.00  0.00     0.042 C 
BRANCH   2   3
ATOM      3  C   UNL A   1      33.244  29.303  25.017  1.00  0.00     0.118 C 
BRANCH   3   4
ATOM      4  N   UNL A   1      33.840  28.888  23.753  1.00  0.00    -0.352 N 
ATOM      5  C   UNL A   1      33.414  27.974  22.811  1.00  0.00     0.252 C 
ATOM      6  O   UNL A   1      34.064  27.867  21.771  1.00  0.00    -0.269 OA
ATOM      7  H   UNL A   1      34.689  29.337  23.534  1.00  0.00     0.163 HD
BRANCH   5   8
ATOM      8  C   UNL A   1      32.274  27.040  23.039  1.00  0.00     0.051 A 
ATOM      9  C   UNL A   1      31.626  24.854  23.762  1.00  0.00     0.072 A 
ATOM     10  C   UNL A   1      32.630  25.740  23.417  1.00  0.00     0.043 A 
ATOM     11  N   UNL A   1      30.335  25.240  23.873  1.00  0.00    -0.248 NA
ATOM     12  C   UNL A   1      29.990  26.480  23.494  1.00  0.00     0.072 A 
ATOM     13  C   UNL A   1      30.909  27.383  22.937  1.00  0.00     0.013 A 
ATOM     14  C   UNL A   1      28.677  26.895  23.670  1.00  0.00     0.029 A 
ATOM     15  C   UNL A   1      30.412  28.566  22.348  1.00  0.00     0.014 A 
ATOM     16  C   UNL A   1      28.247  28.167  23.283  1.00  0.00     0.005 A 
ATOM     17  C   UNL A   1      29.110  29.008  22.591  1.00  0.00    -0.050 A 
ATOM     18  C   UNL A   1      28.725  30.420  22.257  1.00  0.00     0.044 C 
BRANCH   9  19
ATOM     19  C   UNL A   1      31.876  23.416  23.944  1.00  0.00     0.003 A 
ATOM     20  C   UNL A   1      32.634  19.175  24.433  1.00  0.00     0.044 C 
ATOM     21  C   UNL A   1      32.362  20.638  24.247  1.00  0.00    -0.051 A 
ATOM     22  C   UNL A   1      32.212  21.195  22.977  1.00  0.00     0.004 A 
ATOM     23  C   UNL A   1      32.264  21.471  25.367  1.00  0.00     0.007 A 
ATOM     24  C   UNL A   1      31.973  22.566  22.828  1.00  0.00     0.011 A 
ATOM     25  C   UNL A   1      32.011  22.848  25.233  1.00  0.00    -0.041 A 
ATOM     26  C   UNL A   1      31.939  23.670  26.496  1.00  0.00     0.045 C 
ENDBRANCH   9  19
ENDBRANCH   5   8
ENDBRANCH   3   4
ENDBRANCH   2   3
ENDBRANCH   1   2
BRANCH   1  27
ATOM     27  N   UNL A   1      33.510  29.976  27.726  1.00  0.00    -0.352 N 
ATOM     28  C   UNL A   1      34.584  30.731  28.138  1.00  0.00     0.251 C 
ATOM     29  H   UNL A   1      32.694  30.507  27.574  1.00  0.00     0.163 HD
ATOM     30  O   UNL A   1      34.406  31.931  28.352  1.00  0.00    -0.269 OA
BRANCH  28  31
ATOM     31  C   UNL A   1      35.920  30.139  28.384  1.00  0.00     0.039 A 
ATOM     32  C   UNL A   1      36.854  30.114  27.340  1.00  0.00     0.014 A 
ATOM     33  C   UNL A   1      36.273  29.596  29.615  1.00  0.00     0.014 A 
ATOM     34  C   UNL A   1      38.156  29.654  27.569  1.00  0.00     0.010 A 
ATOM     35  C   UNL A   1      37.598  29.267  29.881  1.00  0.00     0.010 A 
ATOM     36  C   UNL A   1      38.561  29.290  28.863  1.00  0.00    -0.014 A 
BRANCH  36  37
ATOM     37  C   UNL A   1      39.969  28.929  29.187  1.00  0.00     0.031 A 
ATOM     38  C   UNL A   1      40.900  29.961  29.775  1.00  0.00     0.074 A 
ATOM     39  C   UNL A   1      40.446  27.714  28.848  1.00  0.00     0.049 A 
ATOM     40  N   UNL A   1      42.191  29.891  29.974  1.00  0.00    -0.248 NA
ATOM     41  C   UNL A   1      40.307  31.257  30.146  1.00  0.00     0.031 C 
ATOM     42  C   UNL A   1      39.672  26.641  28.216  1.00  0.00     0.029 A 
ATOM     43  N   UNL A   1      41.706  27.180  28.973  1.00  0.00    -0.354 N 
ATOM     44  C   UNL A   1      42.568  31.141  30.454  1.00  0.00     0.074 A 
ATOM     45  C   UNL A   1      41.380  31.966  30.458  1.00  0.00     0.031 C 
ATOM     46  C   UNL A   1      40.465  25.572  28.035  1.00  0.00     0.029 A 
ATOM     47  C   UNL A   1      41.812  25.897  28.489  1.00  0.00     0.049 A 
ATOM     48  H   UNL A   1      42.460  27.671  29.370  1.00  0.00     0.167 HD
ATOM     49  C   UNL A   1      43.784  31.561  30.879  1.00  0.00     0.031 A 
ATOM     50  C   UNL A   1      42.876  25.074  28.406  1.00  0.00     0.031 A 
ATOM     51  C   UNL A   1      44.957  30.730  30.908  1.00  0.00     0.049 A 
ATOM     52  C   UNL A   1      44.210  25.547  28.909  1.00  0.00     0.074 A 
ATOM     53  C   UNL A   1      46.221  31.038  31.381  1.00  0.00     0.029 A 
ATOM     54  N   UNL A   1      45.008  29.420  30.455  1.00  0.00    -0.354 N 
ATOM     55  N   UNL A   1      44.533  26.717  29.410  1.00  0.00    -0.248 NA
ATOM     56  C   UNL A   1      45.321  24.588  28.848  1.00  0.00     0.031 C 
ATOM     57  C   UNL A   1      47.046  29.927  31.177  1.00  0.00     0.029 A 
ATOM     58  C   UNL A   1      46.283  28.910  30.624  1.00  0.00     0.049 A 
ATOM     59  H   UNL A   1      44.249  28.926  30.069  1.00  0.00     0.167 HD
ATOM     60  C   UNL A   1      45.881  26.628  29.740  1.00  0.00     0.074 A 
ATOM     61  C   UNL A   1      46.306  25.284  29.400  1.00  0.00     0.031 C 
ATOM     62  C   UNL A   1      46.692  27.573  30.276  1.00  0.00     0.031 A 
BRANCH  49  63
ATOM     63  C   UNL A   1      43.895  32.988  31.352  1.00  0.00    -0.014 A 
ATOM     64  C   UNL A   1      43.679  33.324  32.703  1.00  0.00     0.010 A 
ATOM     65  C   UNL A   1      44.221  34.008  30.440  1.00  0.00     0.010 A 
ATOM     66  C   UNL A   1      43.725  34.656  33.118  1.00  0.00     0.020 A 
ATOM     67  C   UNL A   1      44.300  35.340  30.859  1.00  0.00     0.020 A 
ATOM     68  C   UNL A   1      44.025  35.657  32.191  1.00  0.00     0.054 A 
BRANCH  68  69
ATOM     69  S   UNL A   1      44.070  37.380  32.756  1.00  0.00     0.124 S 
ATOM     70  O   UNL A   1      42.954  37.415  33.699  1.00  0.00    -0.237 OA
ATOM     71  O   UNL A   1      45.398  37.489  33.353  1.00  0.00    -0.237 OA
ATOM     72  O   UNL A   1      43.876  38.152  31.532  1.00  0.00    -0.744 OA
ENDBRANCH  68  69
ENDBRANCH  49  63
BRANCH  50  73
ATOM     73  C   UNL A   1      42.709  23.708  27.839  1.00  0.00    -0.014 A 
ATOM     74  C   UNL A   1      42.338  22.634  28.667  1.00  0.00     0.010 A 
ATOM     75  C   UNL A   1      42.882  23.481  26.460  1.00  0.00     0.010 A 
ATOM     76  C   UNL A   1      42.151  21.356  28.130  1.00  0.00     0.020 A 
ATOM     77  C   UNL A   1      42.671  22.210  25.917  1.00  0.00     0.020 A 
ATOM     78  C   UNL A   1      42.314  21.155  26.757  1.00  0.00     0.054 A 
BRANCH  78  79
ATOM     79  S   UNL A   1      41.994  19.504  26.071  1.00  0.00     0.124 S 
ATOM     80  O   UNL A   1      40.552  19.540  25.853  1.00  0.00    -0.237 OA
ATOM     81  O   UNL A   1      42.817  19.499  24.864  1.00  0.00    -0.237 OA
ATOM     82  O   UNL A   1      42.449  18.603  27.127  1.00  0.00    -0.744 OA
ENDBRANCH  78  79
ENDBRANCH  50  73
BRANCH  62  83
ATOM     83  C   UNL A   1      48.118  27.182  30.551  1.00  0.00    -0.014 A 
ATOM     84  C   UNL A   1      49.126  27.387  29.592  1.00  0.00     0.010 A 
ATOM     85  C   UNL A   1      48.463  26.653  31.808  1.00  0.00     0.010 A 
ATOM     86  C   UNL A   1      50.450  27.045  29.877  1.00  0.00     0.020 A 
ATOM     87  C   UNL A   1      49.789  26.333  32.105  1.00  0.00     0.020 A 
ATOM     88  C   UNL A   1      50.774  26.519  31.132  1.00  0.00     0.054 A 
BRANCH  88  89
ATOM     89  S   UNL A   1      52.506  26.125  31.493  1.00  0.00     0.124 S 
ATOM     90  O   UNL A   1      52.870  27.186  32.429  1.00  0.00    -0.237 OA
ATOM     91  O   UNL A   1      52.418  24.784  32.066  1.00  0.00    -0.237 OA
ATOM     92  O   UNL A   1      53.158  26.196  30.187  1.00  0.00    -0.744 OA
ENDBRANCH  88  89
ENDBRANCH  62  83
ENDBRANCH  36  37
ENDBRANCH  28  31
ENDBRANCH   1  27
TORSDOF 14
ENDMDL
MODEL 3
REMARK VINA RESULT:     -13.2      6.607     12.186
REMARK SMILES Cc1ccc(-c2cc(C(=O)NCCCNC(=O)c3ccc(-c4c5nc(c(-c6ccc(S(=O)(=O)[O-])cc6)c6ccc([nH]6)c(-c6ccc(S(=O)(=O)[O-])cc6)c6nc(c(-c7ccc(S(=O)(=O)[O-])cc7)c7ccc4[nH]7)C=C6)C=C5)cc3)c3cc(C)ccc3n2)c(C)c1
REMARK SMILES IDX 14 1 13 2 12 3 11 4 9 5 10 6 8 8 6 9 7 10 85 11 84 12 78 13
REMARK SMILES IDX 83 14 79 15 82 16 80 17 81 18 5 19 1 20 2 21 3 22 88 23 4 24
REMARK SMILES IDX 86 25 87 26 15 27 16 28 17 30 18 31 19 32 77 33 20 34 76 35
REMARK SMILES IDX 21 36 22 37 23 38 70 39 24 40 75 41 69 42 71 43 25 44 74 45
REMARK SMILES IDX 68 46 67 47 26 49 56 50 37 51 55 52 38 53 41 54 54 55 72 56
REMARK SMILES IDX 39 57 40 58 53 60 73 61 42 62 27 63 28 64 36 65 29 66 35 67
REMARK SMILES IDX 30 68 31 69 32 70 33 71 34 72 57 73 58 74 66 75 59 76 65 77
REMARK SMILES IDX 60 78 61 79 62 80 63 81 64 82 43 83 44 84 52 85 45 86 51 87
REMARK SMILES IDX 46 88 47 89 48 90 49 91 50 92
REMARK H PARENT 11 7 15 29 71 48 41 59
REMARK Flexibility Score: inf
ROOT
ATOM      1  C   UNL A   1      35.269  29.210  27.439  1.00  0.00     0.118 C 
ENDROOT
BRANCH   1   2
ATOM      2  C   UNL A   1      33.934  28.666  26.949  1.00  0.00     0.042 C 
BRANCH   2   3
ATOM      3  C   UNL A   1      33.329  29.414  25.777  1.00  0.00     0.118 C 
BRANCH   3   4
ATOM      4  N   UNL A   1      33.973  29.218  24.484  1.00  0.00    -0.352 N 
ATOM      5  C   UNL A   1      33.576  28.493  23.379  1.00  0.00     0.252 C 
ATOM      6  O   UNL A   1      34.267  28.560  22.362  1.00  0.00    -0.269 OA
ATOM      7  H   UNL A   1      34.835  29.682  24.382  1.00  0.00     0.163 HD
BRANCH   5   8
ATOM      8  C   UNL A   1      32.415  27.557  23.392  1.00  0.00     0.051 A 
ATOM      9  C   UNL A   1      31.663  25.353  23.939  1.00  0.00     0.072 A 
ATOM     10  C   UNL A   1      32.709  26.246  23.787  1.00  0.00     0.043 A 
ATOM     11  N   UNL A   1      30.370  25.739  23.849  1.00  0.00    -0.248 NA
ATOM     12  C   UNL A   1      30.089  26.990  23.453  1.00  0.00     0.072 A 
ATOM     13  C   UNL A   1      31.085  27.905  23.078  1.00  0.00     0.013 A 
ATOM     14  C   UNL A   1      28.764  27.403  23.424  1.00  0.00     0.029 A 
ATOM     15  C   UNL A   1      30.688  29.105  22.449  1.00  0.00     0.014 A 
ATOM     16  C   UNL A   1      28.400  28.686  23.007  1.00  0.00     0.005 A 
ATOM     17  C   UNL A   1      29.363  29.544  22.488  1.00  0.00    -0.050 A 
ATOM     18  C   UNL A   1      29.035  30.964  22.134  1.00  0.00     0.044 C 
BRANCH   9  19
ATOM     19  C   UNL A   1      31.883  23.910  24.121  1.00  0.00     0.003 A 
ATOM     20  C   UNL A   1      32.558  19.655  24.609  1.00  0.00     0.044 C 
ATOM     21  C   UNL A   1      32.316  21.123  24.423  1.00  0.00    -0.051 A 
ATOM     22  C   UNL A   1      32.288  21.701  23.153  1.00  0.00     0.004 A 
ATOM     23  C   UNL A   1      32.123  21.940  25.542  1.00  0.00     0.007 A 
ATOM     24  C   UNL A   1      32.075  23.077  23.005  1.00  0.00     0.011 A 
ATOM     25  C   UNL A   1      31.895  23.322  25.408  1.00  0.00    -0.041 A 
ATOM     26  C   UNL A   1      31.714  24.124  26.671  1.00  0.00     0.045 C 
ENDBRANCH   9  19
ENDBRANCH   5   8
ENDBRANCH   3   4
ENDBRANCH   2   3
ENDBRANCH   1   2
BRANCH   1  27
ATOM     27  N   UNL A   1      35.228  29.845  28.754  1.00  0.00    -0.352 N 
ATOM     28  C   UNL A   1      36.200  30.203  29.660  1.00  0.00     0.251 C 
ATOM     29  H   UNL A   1      34.315  30.061  29.053  1.00  0.00     0.163 HD
ATOM     30  O   UNL A   1      35.844  30.660  30.746  1.00  0.00    -0.269 OA
BRANCH  28  31
ATOM     31  C   UNL A   1      37.644  30.005  29.392  1.00  0.00     0.039 A 
ATOM     32  C   UNL A   1      38.508  29.767  30.469  1.00  0.00     0.014 A 
ATOM     33  C   UNL A   1      38.172  30.061  28.107  1.00  0.00     0.014 A 
ATOM     34  C   UNL A   1      39.858  29.477  30.240  1.00  0.00     0.010 A 
ATOM     35  C   UNL A   1      39.477  29.641  27.867  1.00  0.00     0.010 A 
ATOM     36  C   UNL A   1      40.341  29.343  28.929  1.00  0.00    -0.014 A 
BRANCH  36  37
ATOM     37  C   UNL A   1      41.731  28.898  28.632  1.00  0.00     0.031 A 
ATOM     38  C   UNL A   1      42.855  29.904  28.590  1.00  0.00     0.074 A 
ATOM     39  C   UNL A   1      41.967  27.616  28.287  1.00  0.00     0.049 A 
ATOM     40  N   UNL A   1      44.093  29.744  28.195  1.00  0.00    -0.248 NA
ATOM     41  C   UNL A   1      42.533  31.280  29.004  1.00  0.00     0.031 C 
ATOM     42  C   UNL A   1      40.961  26.551  28.225  1.00  0.00     0.029 A 
ATOM     43  N   UNL A   1      43.129  26.992  27.904  1.00  0.00    -0.354 N 
ATOM     44  C   UNL A   1      44.680  31.002  28.277  1.00  0.00     0.074 A 
ATOM     45  C   UNL A   1      43.649  31.922  28.699  1.00  0.00     0.031 C 
ATOM     46  C   UNL A   1      41.554  25.404  27.857  1.00  0.00     0.029 A 
ATOM     47  C   UNL A   1      42.968  25.658  27.607  1.00  0.00     0.049 A 
ATOM     48  H   UNL A   1      43.995  27.456  27.848  1.00  0.00     0.167 HD
ATOM     49  C   UNL A   1      45.968  31.359  28.047  1.00  0.00     0.031 A 
ATOM     50  C   UNL A   1      43.854  24.742  27.170  1.00  0.00     0.031 A 
ATOM     51  C   UNL A   1      47.002  30.437  27.661  1.00  0.00     0.049 A 
ATOM     52  C   UNL A   1      45.282  25.150  26.949  1.00  0.00     0.074 A 
ATOM     53  C   UNL A   1      48.349  30.684  27.467  1.00  0.00     0.029 A 
ATOM     54  N   UNL A   1      46.804  29.085  27.419  1.00  0.00    -0.354 N 
ATOM     55  N   UNL A   1      45.830  26.335  27.084  1.00  0.00    -0.248 NA
ATOM     56  C   UNL A   1      46.216  24.097  26.529  1.00  0.00     0.031 C 
ATOM     57  C   UNL A   1      48.960  29.489  27.070  1.00  0.00     0.029 A 
ATOM     58  C   UNL A   1      48.001  28.488  27.066  1.00  0.00     0.049 A 
ATOM     59  H   UNL A   1      45.939  28.620  27.487  1.00  0.00     0.167 HD
ATOM     60  C   UNL A   1      47.177  26.165  26.782  1.00  0.00     0.074 A 
ATOM     61  C   UNL A   1      47.363  24.761  26.476  1.00  0.00     0.031 C 
ATOM     62  C   UNL A   1      48.169  27.090  26.760  1.00  0.00     0.031 A 
BRANCH  49  63
ATOM     63  C   UNL A   1      46.322  32.814  28.217  1.00  0.00    -0.014 A 
ATOM     64  C   UNL A   1      46.257  33.708  27.132  1.00  0.00     0.010 A 
ATOM     65  C   UNL A   1      46.722  33.298  29.475  1.00  0.00     0.010 A 
ATOM     66  C   UNL A   1      46.645  35.041  27.286  1.00  0.00     0.020 A 
ATOM     67  C   UNL A   1      47.081  34.640  29.642  1.00  0.00     0.020 A 
ATOM     68  C   UNL A   1      47.064  35.496  28.539  1.00  0.00     0.054 A 
BRANCH  68  69
ATOM     69  S   UNL A   1      47.570  37.229  28.709  1.00  0.00     0.124 S 
ATOM     70  O   UNL A   1      46.366  37.839  29.270  1.00  0.00    -0.237 OA
ATOM     71  O   UNL A   1      48.711  37.145  29.617  1.00  0.00    -0.237 OA
ATOM     72  O   UNL A   1      47.894  37.632  27.343  1.00  0.00    -0.744 OA
ENDBRANCH  68  69
ENDBRANCH  49  63
BRANCH  50  73
ATOM     73  C   UNL A   1      43.408  23.341  26.933  1.00  0.00    -0.014 A 
ATOM     74  C   UNL A   1      43.319  22.835  25.625  1.00  0.00     0.010 A 
ATOM     75  C   UNL A   1      43.109  22.494  28.016  1.00  0.00     0.010 A 
ATOM     76  C   UNL A   1      42.929  21.511  25.401  1.00  0.00     0.020 A 
ATOM     77  C   UNL A   1      42.744  21.162  27.798  1.00  0.00     0.020 A 
ATOM     78  C   UNL A   1      42.650  20.681  26.491  1.00  0.00     0.054 A 
BRANCH  78  79
ATOM     79  S   UNL A   1      42.218  18.945  26.181  1.00  0.00     0.124 S 
ATOM     80  O   UNL A   1      42.462  18.334  27.483  1.00  0.00    -0.237 OA
ATOM     81  O   UNL A   1      40.817  19.036  25.775  1.00  0.00    -0.237 OA
ATOM     82  O   UNL A   1      43.140  18.551  25.118  1.00  0.00    -0.744 OA
ENDBRANCH  78  79
ENDBRANCH  50  73
BRANCH  62  83
ATOM     83  C   UNL A   1      49.552  26.609  26.416  1.00  0.00    -0.014 A 
ATOM     84  C   UNL A   1      50.351  25.951  27.368  1.00  0.00     0.010 A 
ATOM     85  C   UNL A   1      50.035  26.767  25.104  1.00  0.00     0.010 A 
ATOM     86  C   UNL A   1      51.621  25.486  27.021  1.00  0.00     0.020 A 
ATOM     87  C   UNL A   1      51.295  26.281  24.747  1.00  0.00     0.020 A 
ATOM     88  C   UNL A   1      52.086  25.654  25.712  1.00  0.00     0.054 A 
BRANCH  88  89
ATOM     89  S   UNL A   1      53.720  25.001  25.274  1.00  0.00     0.124 S 
ATOM     90  O   UNL A   1      53.933  25.579  23.951  1.00  0.00    -0.237 OA
ATOM     91  O   UNL A   1      54.573  25.528  26.337  1.00  0.00    -0.237 OA
ATOM     92  O   UNL A   1      53.531  23.551  25.298  1.00  0.00    -0.744 OA
ENDBRANCH  88  89
ENDBRANCH  62  83
ENDBRANCH  36  37
ENDBRANCH  28  31
ENDBRANCH   1  27
TORSDOF 14
ENDMDL
