MODEL 1
REMARK VINA RESULT:     -11.7      0.000      0.000
REMARK SMILES C[C@@H]1CCC[C@@](Cc2ncccn2)(C(=O)NCCCNC(=O)c2ccc(-c3c4nc(c(-c5ccc(S(=O)(=O)[O-])cc5)c5ccc([nH]5)c(-c5ccc(S(=O)(=O)[O-])cc5)c5nc(c(-c6ccc(S(=O)(=O)[O-])cc6)c6ccc3[nH]6)C=C5)C=C4)cc2)C1
REMARK SMILES IDX 18 1 17 2 16 3 14 4 15 5 6 7 1 8 2 9 3 10 83 11 4 12 5 13
REMARK SMILES IDX 7 14 8 15 9 16 13 17 10 18 12 19 11 20 19 21 20 22 21 23
REMARK SMILES IDX 22 25 23 26 24 27 82 28 25 29 81 30 26 31 27 32 28 33 75 34
REMARK SMILES IDX 29 35 80 36 74 37 76 38 30 39 79 40 73 41 72 42 31 44 61 45
REMARK SMILES IDX 42 46 60 47 43 48 46 49 59 50 77 51 44 52 45 53 58 55 78 56
REMARK SMILES IDX 47 57 32 58 33 59 41 60 34 61 40 62 35 63 36 64 37 65 38 66
REMARK SMILES IDX 39 67 62 68 63 69 71 70 64 71 70 72 65 73 66 74 67 75 68 76
REMARK SMILES IDX 69 77 48 78 49 79 57 80 50 81 56 82 51 83 52 84 53 85 54 86
REMARK SMILES IDX 55 87
REMARK H PARENT 16 6 20 24 76 43 46 54
REMARK Flexibility Score: inf
ROOT
ATOM      1  C   UNL A   1      39.108  22.554  26.401  1.00  0.00     0.042 C 
ENDROOT
BRANCH   1   2
ATOM      2  C   UNL A   1      37.709  22.839  25.900  1.00  0.00     0.117 C 
BRANCH   2   3
ATOM      3  N   UNL A   1      37.534  22.689  24.473  1.00  0.00    -0.356 N 
ATOM      4  C   UNL A   1      36.432  22.861  23.696  1.00  0.00     0.226 C 
ATOM      5  O   UNL A   1      36.667  23.037  22.493  1.00  0.00    -0.274 OA
ATOM      6  H   UNL A   1      38.344  22.418  23.985  1.00  0.00     0.163 HD
BRANCH   4   7
ATOM      7  C   UNL A   1      34.969  22.836  24.234  1.00  0.00     0.056 C 
ATOM      8  C   UNL A   1      32.291  20.924  25.145  1.00  0.00     0.007 C 
ATOM      9  C   UNL A   1      33.615  21.197  25.860  1.00  0.00    -0.013 C 
ATOM     10  C   UNL A   1      33.489  22.336  26.871  1.00  0.00     0.003 C 
ATOM     11  C   UNL A   1      34.812  21.421  24.917  1.00  0.00     0.020 C 
ATOM     12  C   UNL A   1      33.523  23.703  26.206  1.00  0.00     0.001 C 
ATOM     13  C   UNL A   1      34.774  23.890  25.353  1.00  0.00     0.017 C 
BRANCH   7  14
ATOM     14  C   UNL A   1      33.963  22.890  23.046  1.00  0.00     0.094 C 
BRANCH  14  15
ATOM     15  C   UNL A   1      33.202  24.156  22.763  1.00  0.00     0.129 A 
ATOM     16  N   UNL A   1      33.873  25.178  22.195  1.00  0.00    -0.241 NA
ATOM     17  N   UNL A   1      31.893  24.194  23.080  1.00  0.00    -0.241 NA
ATOM     18  C   UNL A   1      33.155  26.279  21.893  1.00  0.00     0.115 A 
ATOM     19  C   UNL A   1      31.225  25.323  22.764  1.00  0.00     0.115 A 
ATOM     20  C   UNL A   1      31.810  26.402  22.147  1.00  0.00     0.040 A 
ENDBRANCH  14  15
ENDBRANCH   7  14
ENDBRANCH   4   7
ENDBRANCH   2   3
ENDBRANCH   1   2
BRANCH   1  21
ATOM     21  C   UNL A   1      39.808  23.797  26.927  1.00  0.00     0.118 C 
BRANCH  21  22
ATOM     22  N   UNL A   1      40.738  24.379  25.956  1.00  0.00    -0.352 N 
ATOM     23  C   UNL A   1      41.440  25.561  25.975  1.00  0.00     0.251 C 
ATOM     24  H   UNL A   1      40.884  23.831  25.152  1.00  0.00     0.163 HD
ATOM     25  O   UNL A   1      41.968  25.969  24.943  1.00  0.00    -0.269 OA
BRANCH  23  26
ATOM     26  C   UNL A   1      41.531  26.349  27.221  1.00  0.00     0.039 A 
ATOM     27  C   UNL A   1      42.392  27.447  27.285  1.00  0.00     0.014 A 
ATOM     28  C   UNL A   1      40.743  26.017  28.323  1.00  0.00     0.014 A 
ATOM     29  C   UNL A   1      42.368  28.280  28.408  1.00  0.00     0.010 A 
ATOM     30  C   UNL A   1      40.630  26.908  29.381  1.00  0.00     0.010 A 
ATOM     31  C   UNL A   1      41.434  28.055  29.433  1.00  0.00    -0.014 A 
BRANCH  31  32
ATOM     32  C   UNL A   1      41.245  29.008  30.557  1.00  0.00     0.031 A 
ATOM     33  C   UNL A   1      42.072  28.867  31.808  1.00  0.00     0.074 A 
ATOM     34  C   UNL A   1      40.239  29.907  30.502  1.00  0.00     0.049 A 
ATOM     35  N   UNL A   1      41.947  29.491  32.950  1.00  0.00    -0.248 NA
ATOM     36  C   UNL A   1      43.151  27.864  31.789  1.00  0.00     0.031 C 
ATOM     37  C   UNL A   1      39.320  30.089  29.374  1.00  0.00     0.029 A 
ATOM     38  N   UNL A   1      39.804  30.820  31.430  1.00  0.00    -0.354 N 
ATOM     39  C   UNL A   1      42.897  28.926  33.794  1.00  0.00     0.074 A 
ATOM     40  C   UNL A   1      43.565  27.885  33.048  1.00  0.00     0.031 C 
ATOM     41  C   UNL A   1      38.444  31.064  29.670  1.00  0.00     0.029 A 
ATOM     42  C   UNL A   1      38.705  31.542  31.023  1.00  0.00     0.049 A 
ATOM     43  H   UNL A   1      40.236  30.947  32.305  1.00  0.00     0.167 HD
ATOM     44  C   UNL A   1      43.195  29.257  35.072  1.00  0.00     0.031 A 
ATOM     45  C   UNL A   1      37.973  32.469  31.671  1.00  0.00     0.031 A 
ATOM     46  C   UNL A   1      42.563  30.331  35.790  1.00  0.00     0.049 A 
ATOM     47  C   UNL A   1      38.351  32.842  33.078  1.00  0.00     0.074 A 
ATOM     48  C   UNL A   1      42.878  30.825  37.043  1.00  0.00     0.029 A 
ATOM     49  N   UNL A   1      41.492  31.073  35.321  1.00  0.00    -0.354 N 
ATOM     50  N   UNL A   1      39.325  32.370  33.820  1.00  0.00    -0.248 NA
ATOM     51  C   UNL A   1      37.536  33.873  33.735  1.00  0.00     0.031 C 
ATOM     52  C   UNL A   1      41.960  31.832  37.355  1.00  0.00     0.029 A 
ATOM     53  C   UNL A   1      41.109  32.000  36.275  1.00  0.00     0.049 A 
ATOM     54  H   UNL A   1      41.067  30.959  34.440  1.00  0.00     0.167 HD
ATOM     55  C   UNL A   1      39.249  33.059  35.024  1.00  0.00     0.074 A 
ATOM     56  C   UNL A   1      38.149  33.995  34.905  1.00  0.00     0.031 C 
ATOM     57  C   UNL A   1      40.015  32.924  36.134  1.00  0.00     0.031 A 
BRANCH  44  58
ATOM     58  C   UNL A   1      44.255  28.459  35.782  1.00  0.00    -0.014 A 
ATOM     59  C   UNL A   1      45.605  28.849  35.748  1.00  0.00     0.010 A 
ATOM     60  C   UNL A   1      43.883  27.344  36.556  1.00  0.00     0.010 A 
ATOM     61  C   UNL A   1      46.568  28.124  36.454  1.00  0.00     0.020 A 
ATOM     62  C   UNL A   1      44.840  26.631  37.284  1.00  0.00     0.020 A 
ATOM     63  C   UNL A   1      46.179  27.021  37.220  1.00  0.00     0.054 A 
BRANCH  63  64
ATOM     64  S   UNL A   1      47.444  26.133  38.170  1.00  0.00     0.124 S 
ATOM     65  O   UNL A   1      48.678  26.684  37.615  1.00  0.00    -0.237 OA
ATOM     66  O   UNL A   1      47.144  26.524  39.545  1.00  0.00    -0.237 OA
ATOM     67  O   UNL A   1      47.193  24.729  37.855  1.00  0.00    -0.744 OA
ENDBRANCH  63  64
ENDBRANCH  44  58
BRANCH  45  68
ATOM     68  C   UNL A   1      36.801  33.101  31.006  1.00  0.00    -0.014 A 
ATOM     69  C   UNL A   1      36.964  33.839  29.820  1.00  0.00     0.010 A 
ATOM     70  C   UNL A   1      35.513  32.976  31.561  1.00  0.00     0.010 A 
ATOM     71  C   UNL A   1      35.868  34.467  29.219  1.00  0.00     0.020 A 
ATOM     72  C   UNL A   1      34.411  33.578  30.946  1.00  0.00     0.020 A 
ATOM     73  C   UNL A   1      34.599  34.334  29.788  1.00  0.00     0.054 A 
BRANCH  73  74
ATOM     74  S   UNL A   1      33.186  35.133  28.977  1.00  0.00     0.124 S 
ATOM     75  O   UNL A   1      33.800  36.325  28.403  1.00  0.00    -0.237 OA
ATOM     76  O   UNL A   1      32.756  34.117  28.018  1.00  0.00    -0.237 OA
ATOM     77  O   UNL A   1      32.253  35.373  30.076  1.00  0.00    -0.744 OA
ENDBRANCH  73  74
ENDBRANCH  45  68
BRANCH  57  78
ATOM     78  C   UNL A   1      39.707  33.820  37.303  1.00  0.00    -0.014 A 
ATOM     79  C   UNL A   1      38.850  33.393  38.330  1.00  0.00     0.010 A 
ATOM     80  C   UNL A   1      40.346  35.068  37.410  1.00  0.00     0.010 A 
ATOM     81  C   UNL A   1      38.621  34.209  39.440  1.00  0.00     0.020 A 
ATOM     82  C   UNL A   1      40.141  35.875  38.530  1.00  0.00     0.020 A 
ATOM     83  C   UNL A   1      39.272  35.443  39.535  1.00  0.00     0.054 A 
BRANCH  83  84
ATOM     84  S   UNL A   1      39.012  36.454  41.018  1.00  0.00     0.124 S 
ATOM     85  O   UNL A   1      38.619  37.739  40.444  1.00  0.00    -0.237 OA
ATOM     86  O   UNL A   1      37.955  35.729  41.718  1.00  0.00    -0.237 OA
ATOM     87  O   UNL A   1      40.314  36.440  41.680  1.00  0.00    -0.744 OA
ENDBRANCH  83  84
ENDBRANCH  57  78
ENDBRANCH  31  32
ENDBRANCH  23  26
ENDBRANCH  21  22
ENDBRANCH   1  21
TORSDOF 15
ENDMDL
MODEL 2
REMARK VINA RESULT:     -11.6      6.574     12.040
REMARK SMILES C[C@@H]1CCC[C@@](Cc2ncccn2)(C(=O)NCCCNC(=O)c2ccc(-c3c4nc(c(-c5ccc(S(=O)(=O)[O-])cc5)c5ccc([nH]5)c(-c5ccc(S(=O)(=O)[O-])cc5)c5nc(c(-c6ccc(S(=O)(=O)[O-])cc6)c6ccc3[nH]6)C=C5)C=C4)cc2)C1
REMARK SMILES IDX 18 1 17 2 16 3 14 4 15 5 6 7 1 8 2 9 3 10 83 11 4 12 5 13
REMARK SMILES IDX 7 14 8 15 9 16 13 17 10 18 12 19 11 20 19 21 20 22 21 23
REMARK SMILES IDX 22 25 23 26 24 27 82 28 25 29 81 30 26 31 27 32 28 33 75 34
REMARK SMILES IDX 29 35 80 36 74 37 76 38 30 39 79 40 73 41 72 42 31 44 61 45
REMARK SMILES IDX 42 46 60 47 43 48 46 49 59 50 77 51 44 52 45 53 58 55 78 56
REMARK SMILES IDX 47 57 32 58 33 59 41 60 34 61 40 62 35 63 36 64 37 65 38 66
REMARK SMILES IDX 39 67 62 68 63 69 71 70 64 71 70 72 65 73 66 74 67 75 68 76
REMARK SMILES IDX 69 77 48 78 49 79 57 80 50 81 56 82 51 83 52 84 53 85 54 86
REMARK SMILES IDX 55 87
REMARK H PARENT 16 6 20 24 76 43 46 54
REMARK Flexibility Score: inf
ROOT
ATOM      1  C   UNL A   1      34.234  31.183  27.539  1.00  0.00     0.042 C 
ENDROOT
BRANCH   1   2
ATOM      2  C   UNL A   1      33.881  29.786  27.079  1.00  0.00     0.117 C 
BRANCH   2   3
ATOM      3  N   UNL A   1      32.649  29.262  27.622  1.00  0.00    -0.356 N 
ATOM      4  C   UNL A   1      31.863  28.237  27.200  1.00  0.00     0.226 C 
ATOM      5  O   UNL A   1      31.099  27.779  28.060  1.00  0.00    -0.274 OA
ATOM      6  H   UNL A   1      32.326  29.723  28.429  1.00  0.00     0.163 HD
BRANCH   4   7
ATOM      7  C   UNL A   1      31.881  27.659  25.752  1.00  0.00     0.056 C 
ATOM      8  C   UNL A   1      30.815  27.995  22.525  1.00  0.00     0.007 C 
ATOM      9  C   UNL A   1      31.882  28.759  23.312  1.00  0.00    -0.013 C 
ATOM     10  C   UNL A   1      33.278  28.186  23.075  1.00  0.00     0.003 C 
ATOM     11  C   UNL A   1      31.585  28.896  24.817  1.00  0.00     0.020 C 
ATOM     12  C   UNL A   1      33.530  26.925  23.887  1.00  0.00     0.001 C 
ATOM     13  C   UNL A   1      33.298  27.153  25.378  1.00  0.00     0.017 C 
BRANCH   7  14
ATOM     14  C   UNL A   1      30.711  26.648  25.566  1.00  0.00     0.094 C 
BRANCH  14  15
ATOM     15  C   UNL A   1      30.980  25.169  25.621  1.00  0.00     0.129 A 
ATOM     16  N   UNL A   1      31.059  24.501  24.453  1.00  0.00    -0.241 NA
ATOM     17  N   UNL A   1      31.139  24.598  26.831  1.00  0.00    -0.241 NA
ATOM     18  C   UNL A   1      31.364  23.189  24.526  1.00  0.00     0.115 A 
ATOM     19  C   UNL A   1      31.434  23.282  26.846  1.00  0.00     0.115 A 
ATOM     20  C   UNL A   1      31.577  22.524  25.710  1.00  0.00     0.040 A 
ENDBRANCH  14  15
ENDBRANCH   7  14
ENDBRANCH   4   7
ENDBRANCH   2   3
ENDBRANCH   1   2
BRANCH   1  21
ATOM     21  C   UNL A   1      35.610  31.261  28.180  1.00  0.00     0.118 C 
BRANCH  21  22
ATOM     22  N   UNL A   1      35.557  31.225  29.644  1.00  0.00    -0.352 N 
ATOM     23  C   UNL A   1      36.325  30.545  30.559  1.00  0.00     0.251 C 
ATOM     24  H   UNL A   1      34.850  31.784  30.040  1.00  0.00     0.163 HD
ATOM     25  O   UNL A   1      35.948  30.463  31.726  1.00  0.00    -0.269 OA
BRANCH  23  26
ATOM     26  C   UNL A   1      37.578  29.890  30.133  1.00  0.00     0.039 A 
ATOM     27  C   UNL A   1      38.019  30.027  28.814  1.00  0.00     0.014 A 
ATOM     28  C   UNL A   1      38.336  29.159  31.047  1.00  0.00     0.014 A 
ATOM     29  C   UNL A   1      39.276  29.536  28.451  1.00  0.00     0.010 A 
ATOM     30  C   UNL A   1      39.630  28.780  30.720  1.00  0.00     0.010 A 
ATOM     31  C   UNL A   1      40.120  28.971  29.421  1.00  0.00    -0.014 A 
BRANCH  31  32
ATOM     32  C   UNL A   1      41.528  28.598  29.128  1.00  0.00     0.031 A 
ATOM     33  C   UNL A   1      42.601  29.656  29.131  1.00  0.00     0.074 A 
ATOM     34  C   UNL A   1      41.812  27.341  28.727  1.00  0.00     0.049 A 
ATOM     35  N   UNL A   1      43.847  29.563  28.746  1.00  0.00    -0.248 NA
ATOM     36  C   UNL A   1      42.212  31.004  29.581  1.00  0.00     0.031 C 
ATOM     37  C   UNL A   1      40.845  26.245  28.611  1.00  0.00     0.029 A 
ATOM     38  N   UNL A   1      42.995  26.778  28.317  1.00  0.00    -0.354 N 
ATOM     39  C   UNL A   1      44.375  30.844  28.865  1.00  0.00     0.074 A 
ATOM     40  C   UNL A   1      43.307  31.705  29.322  1.00  0.00     0.031 C 
ATOM     41  C   UNL A   1      41.476  25.141  28.178  1.00  0.00     0.029 A 
ATOM     42  C   UNL A   1      42.879  25.460  27.937  1.00  0.00     0.049 A 
ATOM     43  H   UNL A   1      43.847  27.270  28.295  1.00  0.00     0.167 HD
ATOM     44  C   UNL A   1      45.640  31.262  28.630  1.00  0.00     0.031 A 
ATOM     45  C   UNL A   1      43.791  24.607  27.431  1.00  0.00     0.031 A 
ATOM     46  C   UNL A   1      46.711  30.390  28.230  1.00  0.00     0.049 A 
ATOM     47  C   UNL A   1      45.198  25.091  27.216  1.00  0.00     0.074 A 
ATOM     48  C   UNL A   1      48.053  30.692  28.085  1.00  0.00     0.029 A 
ATOM     49  N   UNL A   1      46.561  29.051  27.910  1.00  0.00    -0.354 N 
ATOM     50  N   UNL A   1      45.702  26.281  27.440  1.00  0.00    -0.248 NA
ATOM     51  C   UNL A   1      46.162  24.118  26.682  1.00  0.00     0.031 C 
ATOM     52  C   UNL A   1      48.708  29.546  27.625  1.00  0.00     0.029 A 
ATOM     53  C   UNL A   1      47.783  28.519  27.533  1.00  0.00     0.049 A 
ATOM     54  H   UNL A   1      45.714  28.552  27.945  1.00  0.00     0.167 HD
ATOM     55  C   UNL A   1      47.044  26.194  27.090  1.00  0.00     0.074 A 
ATOM     56  C   UNL A   1      47.280  24.831  26.661  1.00  0.00     0.031 C 
ATOM     57  C   UNL A   1      47.996  27.159  27.114  1.00  0.00     0.031 A 
BRANCH  44  58
ATOM     58  C   UNL A   1      45.947  32.726  28.806  1.00  0.00    -0.014 A 
ATOM     59  C   UNL A   1      46.389  33.234  30.040  1.00  0.00     0.010 A 
ATOM     60  C   UNL A   1      45.864  33.591  27.699  1.00  0.00     0.010 A 
ATOM     61  C   UNL A   1      46.717  34.585  30.171  1.00  0.00     0.020 A 
ATOM     62  C   UNL A   1      46.216  34.938  27.820  1.00  0.00     0.020 A 
ATOM     63  C   UNL A   1      46.631  35.429  29.059  1.00  0.00     0.054 A 
BRANCH  63  64
ATOM     64  S   UNL A   1      47.117  37.166  29.246  1.00  0.00     0.124 S 
ATOM     65  O   UNL A   1      48.512  37.045  29.660  1.00  0.00    -0.237 OA
ATOM     66  O   UNL A   1      46.905  37.703  27.904  1.00  0.00    -0.237 OA
ATOM     67  O   UNL A   1      46.206  37.674  30.269  1.00  0.00    -0.744 OA
ENDBRANCH  63  64
ENDBRANCH  44  58
BRANCH  45  68
ATOM     68  C   UNL A   1      43.403  23.214  27.080  1.00  0.00    -0.014 A 
ATOM     69  C   UNL A   1      43.422  22.783  25.741  1.00  0.00     0.010 A 
ATOM     70  C   UNL A   1      43.003  22.310  28.082  1.00  0.00     0.010 A 
ATOM     71  C   UNL A   1      43.019  21.486  25.408  1.00  0.00     0.020 A 
ATOM     72  C   UNL A   1      42.627  21.004  27.756  1.00  0.00     0.020 A 
ATOM     73  C   UNL A   1      42.621  20.605  26.418  1.00  0.00     0.054 A 
BRANCH  73  74
ATOM     74  S   UNL A   1      42.128  18.918  25.967  1.00  0.00     0.124 S 
ATOM     75  O   UNL A   1      40.689  19.064  25.780  1.00  0.00    -0.237 OA
ATOM     76  O   UNL A   1      42.904  18.675  24.753  1.00  0.00    -0.237 OA
ATOM     77  O   UNL A   1      42.534  18.125  27.125  1.00  0.00    -0.744 OA
ENDBRANCH  73  74
ENDBRANCH  45  68
BRANCH  57  78
ATOM     78  C   UNL A   1      49.384  26.774  26.683  1.00  0.00    -0.014 A 
ATOM     79  C   UNL A   1      50.330  26.325  27.620  1.00  0.00     0.010 A 
ATOM     80  C   UNL A   1      49.718  26.789  25.317  1.00  0.00     0.010 A 
ATOM     81  C   UNL A   1      51.596  25.912  27.199  1.00  0.00     0.020 A 
ATOM     82  C   UNL A   1      50.973  26.353  24.889  1.00  0.00     0.020 A 
ATOM     83  C   UNL A   1      51.908  25.925  25.835  1.00  0.00     0.054 A 
BRANCH  83  84
ATOM     84  S   UNL A   1      53.535  25.320  25.308  1.00  0.00     0.124 S 
ATOM     85  O   UNL A   1      54.412  25.878  26.334  1.00  0.00    -0.237 OA
ATOM     86  O   UNL A   1      53.366  23.870  25.346  1.00  0.00    -0.237 OA
ATOM     87  O   UNL A   1      53.698  25.889  23.972  1.00  0.00    -0.744 OA
ENDBRANCH  83  84
ENDBRANCH  57  78
ENDBRANCH  31  32
ENDBRANCH  23  26
ENDBRANCH  21  22
ENDBRANCH   1  21
TORSDOF 15
ENDMDL
MODEL 3
REMARK VINA RESULT:     -11.5      6.609     12.109
REMARK SMILES C[C@@H]1CCC[C@@](Cc2ncccn2)(C(=O)NCCCNC(=O)c2ccc(-c3c4nc(c(-c5ccc(S(=O)(=O)[O-])cc5)c5ccc([nH]5)c(-c5ccc(S(=O)(=O)[O-])cc5)c5nc(c(-c6ccc(S(=O)(=O)[O-])cc6)c6ccc3[nH]6)C=C5)C=C4)cc2)C1
REMARK SMILES IDX 18 1 17 2 16 3 14 4 15 5 6 7 1 8 2 9 3 10 83 11 4 12 5 13
REMARK SMILES IDX 7 14 8 15 9 16 13 17 10 18 12 19 11 20 19 21 20 22 21 23
REMARK SMILES IDX 22 25 23 26 24 27 82 28 25 29 81 30 26 31 27 32 28 33 75 34
REMARK SMILES IDX 29 35 80 36 74 37 76 38 30 39 79 40 73 41 72 42 31 44 61 45
REMARK SMILES IDX 42 46 60 47 43 48 46 49 59 50 77 51 44 52 45 53 58 55 78 56
REMARK SMILES IDX 47 57 32 58 33 59 41 60 34 61 40 62 35 63 36 64 37 65 38 66
REMARK SMILES IDX 39 67 62 68 63 69 71 70 64 71 70 72 65 73 66 74 67 75 68 76
REMARK SMILES IDX 69 77 48 78 49 79 57 80 50 81 56 82 51 83 52 84 53 85 54 86
REMARK SMILES IDX 55 87
REMARK H PARENT 16 6 20 24 76 43 46 54
REMARK Flexibility Score: inf
ROOT
ATOM      1  C   UNL A   1      34.885  29.488  27.270  1.00  0.00     0.042 C 
ENDROOT
BRANCH   1   2
ATOM      2  C   UNL A   1      33.559  29.955  26.711  1.00  0.00     0.117 C 
BRANCH   2   3
ATOM      3  N   UNL A   1      32.395  29.413  27.375  1.00  0.00    -0.356 N 
ATOM      4  C   UNL A   1      31.759  28.223  27.211  1.00  0.00     0.226 C 
ATOM      5  O   UNL A   1      31.045  27.880  28.163  1.00  0.00    -0.274 OA
ATOM      6  H   UNL A   1      31.999  30.002  28.057  1.00  0.00     0.163 HD
BRANCH   4   7
ATOM      7  C   UNL A   1      31.882  27.333  25.937  1.00  0.00     0.056 C 
ATOM      8  C   UNL A   1      33.935  25.493  23.922  1.00  0.00     0.007 C 
ATOM      9  C   UNL A   1      33.352  25.188  25.304  1.00  0.00    -0.013 C 
ATOM     10  C   UNL A   1      32.071  24.362  25.209  1.00  0.00     0.003 C 
ATOM     11  C   UNL A   1      33.150  26.428  26.195  1.00  0.00     0.020 C 
ATOM     12  C   UNL A   1      30.863  25.211  24.846  1.00  0.00     0.001 C 
ATOM     13  C   UNL A   1      30.671  26.373  25.816  1.00  0.00     0.017 C 
BRANCH   7  14
ATOM     14  C   UNL A   1      32.192  28.219  24.694  1.00  0.00     0.094 C 
BRANCH  14  15
ATOM     15  C   UNL A   1      31.075  28.932  23.983  1.00  0.00     0.129 A 
ATOM     16  N   UNL A   1      30.592  30.060  24.543  1.00  0.00    -0.241 NA
ATOM     17  N   UNL A   1      30.629  28.414  22.821  1.00  0.00    -0.241 NA
ATOM     18  C   UNL A   1      29.635  30.716  23.855  1.00  0.00     0.115 A 
ATOM     19  C   UNL A   1      29.665  29.106  22.180  1.00  0.00     0.115 A 
ATOM     20  C   UNL A   1      29.138  30.285  22.648  1.00  0.00     0.040 A 
ENDBRANCH  14  15
ENDBRANCH   7  14
ENDBRANCH   4   7
ENDBRANCH   2   3
ENDBRANCH   1   2
BRANCH   1  21
ATOM     21  C   UNL A   1      35.668  30.607  27.936  1.00  0.00     0.118 C 
BRANCH  21  22
ATOM     22  N   UNL A   1      35.523  30.612  29.395  1.00  0.00    -0.352 N 
ATOM     23  C   UNL A   1      36.425  30.332  30.393  1.00  0.00     0.251 C 
ATOM     24  H   UNL A   1      34.625  30.857  29.714  1.00  0.00     0.163 HD
ATOM     25  O   UNL A   1      36.024  30.153  31.541  1.00  0.00    -0.269 OA
BRANCH  23  26
ATOM     26  C   UNL A   1      37.864  30.216  30.080  1.00  0.00     0.039 A 
ATOM     27  C   UNL A   1      38.778  29.952  31.104  1.00  0.00     0.014 A 
ATOM     28  C   UNL A   1      38.311  30.342  28.765  1.00  0.00     0.014 A 
ATOM     29  C   UNL A   1      40.115  29.693  30.788  1.00  0.00     0.010 A 
ATOM     30  C   UNL A   1      39.607  29.968  28.439  1.00  0.00     0.010 A 
ATOM     31  C   UNL A   1      40.523  29.630  29.445  1.00  0.00    -0.014 A 
BRANCH  31  32
ATOM     32  C   UNL A   1      41.884  29.185  29.050  1.00  0.00     0.031 A 
ATOM     33  C   UNL A   1      42.996  30.193  28.923  1.00  0.00     0.074 A 
ATOM     34  C   UNL A   1      42.080  27.903  28.676  1.00  0.00     0.049 A 
ATOM     35  N   UNL A   1      44.200  30.032  28.440  1.00  0.00    -0.248 NA
ATOM     36  C   UNL A   1      42.703  31.572  29.352  1.00  0.00     0.031 C 
ATOM     37  C   UNL A   1      41.062  26.848  28.683  1.00  0.00     0.029 A 
ATOM     38  N   UNL A   1      43.200  27.274  28.191  1.00  0.00    -0.354 N 
ATOM     39  C   UNL A   1      44.789  31.291  28.466  1.00  0.00     0.074 A 
ATOM     40  C   UNL A   1      43.800  32.214  28.975  1.00  0.00     0.031 C 
ATOM     41  C   UNL A   1      41.608  25.703  28.242  1.00  0.00     0.029 A 
ATOM     42  C   UNL A   1      42.997  25.950  27.873  1.00  0.00     0.049 A 
ATOM     43  H   UNL A   1      44.067  27.727  28.079  1.00  0.00     0.167 HD
ATOM     44  C   UNL A   1      46.046  31.644  28.110  1.00  0.00     0.031 A 
ATOM     45  C   UNL A   1      43.827  25.040  27.326  1.00  0.00     0.031 A 
ATOM     46  C   UNL A   1      47.042  30.712  27.656  1.00  0.00     0.049 A 
ATOM     47  C   UNL A   1      45.230  25.453  26.976  1.00  0.00     0.074 A 
ATOM     48  C   UNL A   1      48.378  30.948  27.389  1.00  0.00     0.029 A 
ATOM     49  N   UNL A   1      46.810  29.370  27.402  1.00  0.00    -0.354 N 
ATOM     50  N   UNL A   1      45.800  26.626  27.111  1.00  0.00    -0.248 NA
ATOM     51  C   UNL A   1      46.104  24.420  26.402  1.00  0.00     0.031 C 
ATOM     52  C   UNL A   1      48.943  29.759  26.920  1.00  0.00     0.029 A 
ATOM     53  C   UNL A   1      47.973  28.771  26.945  1.00  0.00     0.049 A 
ATOM     54  H   UNL A   1      45.949  28.910  27.526  1.00  0.00     0.167 HD
ATOM     55  C   UNL A   1      47.103  26.468  26.655  1.00  0.00     0.074 A 
ATOM     56  C   UNL A   1      47.245  25.081  26.261  1.00  0.00     0.031 C 
ATOM     57  C   UNL A   1      48.092  27.389  26.563  1.00  0.00     0.031 A 
BRANCH  44  58
ATOM     58  C   UNL A   1      46.427  33.097  28.203  1.00  0.00    -0.014 A 
ATOM     59  C   UNL A   1      46.284  33.959  27.102  1.00  0.00     0.010 A 
ATOM     60  C   UNL A   1      46.865  33.624  29.433  1.00  0.00     0.010 A 
ATOM     61  C   UNL A   1      46.596  35.316  27.221  1.00  0.00     0.020 A 
ATOM     62  C   UNL A   1      47.153  34.985  29.563  1.00  0.00     0.020 A 
ATOM     63  C   UNL A   1      47.026  35.821  28.452  1.00  0.00     0.054 A 
BRANCH  63  64
ATOM     64  S   UNL A   1      47.370  37.597  28.591  1.00  0.00     0.124 S 
ATOM     65  O   UNL A   1      46.689  38.127  27.413  1.00  0.00    -0.237 OA
ATOM     66  O   UNL A   1      46.763  37.940  29.874  1.00  0.00    -0.237 OA
ATOM     67  O   UNL A   1      48.828  37.672  28.553  1.00  0.00    -0.744 OA
ENDBRANCH  63  64
ENDBRANCH  44  58
BRANCH  45  68
ATOM     68  C   UNL A   1      43.354  23.654  27.062  1.00  0.00    -0.014 A 
ATOM     69  C   UNL A   1      42.898  23.286  25.783  1.00  0.00     0.010 A 
ATOM     70  C   UNL A   1      43.347  22.694  28.092  1.00  0.00     0.010 A 
ATOM     71  C   UNL A   1      42.416  21.994  25.547  1.00  0.00     0.020 A 
ATOM     72  C   UNL A   1      42.892  21.394  27.852  1.00  0.00     0.020 A 
ATOM     73  C   UNL A   1      42.413  21.058  26.584  1.00  0.00     0.054 A 
BRANCH  73  74
ATOM     74  S   UNL A   1      41.809  19.380  26.250  1.00  0.00     0.124 S 
ATOM     75  O   UNL A   1      42.145  18.686  27.488  1.00  0.00    -0.237 OA
ATOM     76  O   UNL A   1      40.384  19.598  26.011  1.00  0.00    -0.237 OA
ATOM     77  O   UNL A   1      42.574  18.971  25.073  1.00  0.00    -0.744 OA
ENDBRANCH  73  74
ENDBRANCH  45  68
BRANCH  57  78
ATOM     78  C   UNL A   1      49.422  26.929  26.033  1.00  0.00    -0.014 A 
ATOM     79  C   UNL A   1      49.781  27.154  24.694  1.00  0.00     0.010 A 
ATOM     80  C   UNL A   1      50.352  26.335  26.907  1.00  0.00     0.010 A 
ATOM     81  C   UNL A   1      51.044  26.777  24.231  1.00  0.00     0.020 A 
ATOM     82  C   UNL A   1      51.624  25.981  26.454  1.00  0.00     0.020 A 
ATOM     83  C   UNL A   1      51.959  26.197  25.115  1.00  0.00     0.054 A 
BRANCH  83  84
ATOM     84  S   UNL A   1      53.615  25.778  24.505  1.00  0.00     0.124 S 
ATOM     85  O   UNL A   1      53.491  26.056  23.077  1.00  0.00    -0.237 OA
ATOM     86  O   UNL A   1      54.472  26.694  25.252  1.00  0.00    -0.237 OA
ATOM     87  O   UNL A   1      53.765  24.367  24.855  1.00  0.00    -0.744 OA
ENDBRANCH  83  84
ENDBRANCH  57  78
ENDBRANCH  31  32
ENDBRANCH  23  26
ENDBRANCH  21  22
ENDBRANCH   1  21
TORSDOF 15
ENDMDL
