MODEL 1
REMARK VINA RESULT:     -10.3      0.000      0.000
REMARK SMILES O=C(CCC(=O)Nc1cc(Cl)cc(Cl)c1)NCCCNC(=O)c1ccc(-c2c3nc(c(-c4ccc(S(=O)(=O)[O-])cc4)c4ccc([nH]4)c(-c4ccc(S(=O)(=O)[O-])cc4)c4nc(c(-c5ccc(S(=O)(=O)[O-])cc5)c5ccc2[nH]5)C=C4)C=C3)cc1
REMARK SMILES IDX 18 1 17 2 16 3 1 4 2 5 3 7 4 8 5 9 6 10 7 11 8 13 9 14 15 15
REMARK SMILES IDX 10 16 13 17 11 18 12 19 14 20 19 21 20 22 21 23 22 25 23 26
REMARK SMILES IDX 24 27 82 28 25 29 81 30 26 31 27 32 28 33 75 34 29 35 80 36
REMARK SMILES IDX 74 37 76 38 30 39 79 40 73 41 72 42 31 44 61 45 42 46 60 47
REMARK SMILES IDX 43 48 46 49 59 50 77 51 44 52 45 53 58 55 78 56 47 57 32 58
REMARK SMILES IDX 33 59 41 60 34 61 40 62 35 63 36 64 37 65 38 66 39 67 62 68
REMARK SMILES IDX 63 69 71 70 64 71 70 72 65 73 66 74 67 75 68 76 69 77 48 78
REMARK SMILES IDX 49 79 57 80 50 81 56 82 51 83 52 84 53 85 54 86 55 87
REMARK H PARENT 16 6 7 12 20 24 76 43 46 54
REMARK Flexibility Score: inf
ROOT
ATOM      1  C   UNL A   1      40.904  21.131  27.432  1.00  0.00     0.042 C 
ENDROOT
BRANCH   1   2
ATOM      2  C   UNL A   1      41.296  19.677  27.263  1.00  0.00     0.117 C 
BRANCH   2   3
ATOM      3  N   UNL A   1      42.694  19.470  26.935  1.00  0.00    -0.356 N 
ATOM      4  O   UNL A   1      42.389  17.524  25.743  1.00  0.00    -0.275 OA
ATOM      5  C   UNL A   1      43.104  18.451  26.105  1.00  0.00     0.220 C 
ATOM      6  H   UNL A   1      43.368  20.076  27.318  1.00  0.00     0.163 HD
BRANCH   5   7
ATOM      7  C   UNL A   1      44.496  18.639  25.549  1.00  0.00     0.110 C 
BRANCH   7   8
ATOM      8  C   UNL A   1      44.553  19.862  24.635  1.00  0.00     0.110 C 
BRANCH   8   9
ATOM      9  C   UNL A   1      45.889  20.557  24.713  1.00  0.00     0.224 C 
ATOM     10  O   UNL A   1      46.907  19.917  24.415  1.00  0.00    -0.275 OA
ATOM     11  N   UNL A   1      46.085  21.834  25.134  1.00  0.00    -0.326 N 
ATOM     12  H   UNL A   1      47.010  22.130  24.975  1.00  0.00     0.169 HD
BRANCH  11  13
ATOM     13  C   UNL A   1      45.310  22.845  25.735  1.00  0.00     0.044 A 
ATOM     14  C   UNL A   1      44.892  24.034  25.139  1.00  0.00     0.046 A 
ATOM     15  C   UNL A   1      44.840  22.559  27.029  1.00  0.00     0.046 A 
ATOM     16  C   UNL A   1      43.981  24.877  25.790  1.00  0.00     0.044 A 
ATOM     17  C   UNL A   1      43.938  23.411  27.674  1.00  0.00     0.044 A 
ATOM     18  Cl  UNL A   1      43.426  26.302  24.997  1.00  0.00    -0.084 Cl
ATOM     19  C   UNL A   1      43.491  24.568  27.052  1.00  0.00     0.041 A 
ATOM     20  Cl  UNL A   1      43.351  23.006  29.239  1.00  0.00    -0.084 Cl
ENDBRANCH  11  13
ENDBRANCH   8   9
ENDBRANCH   7   8
ENDBRANCH   5   7
ENDBRANCH   2   3
ENDBRANCH   1   2
BRANCH   1  21
ATOM     21  C   UNL A   1      40.704  21.899  26.135  1.00  0.00     0.118 C 
BRANCH  21  22
ATOM     22  N   UNL A   1      39.324  22.254  25.830  1.00  0.00    -0.352 N 
ATOM     23  C   UNL A   1      38.646  23.418  26.133  1.00  0.00     0.251 C 
ATOM     24  H   UNL A   1      38.806  21.574  25.341  1.00  0.00     0.163 HD
ATOM     25  O   UNL A   1      37.463  23.532  25.822  1.00  0.00    -0.269 OA
BRANCH  23  26
ATOM     26  C   UNL A   1      39.335  24.495  26.883  1.00  0.00     0.039 A 
ATOM     27  C   UNL A   1      40.040  25.471  26.175  1.00  0.00     0.014 A 
ATOM     28  C   UNL A   1      39.221  24.590  28.271  1.00  0.00     0.014 A 
ATOM     29  C   UNL A   1      40.536  26.593  26.849  1.00  0.00     0.010 A 
ATOM     30  C   UNL A   1      39.613  25.757  28.919  1.00  0.00     0.010 A 
ATOM     31  C   UNL A   1      40.274  26.775  28.218  1.00  0.00    -0.014 A 
BRANCH  31  32
ATOM     32  C   UNL A   1      40.671  28.022  28.929  1.00  0.00     0.031 A 
ATOM     33  C   UNL A   1      42.035  28.138  29.561  1.00  0.00     0.074 A 
ATOM     34  C   UNL A   1      39.778  29.023  29.076  1.00  0.00     0.049 A 
ATOM     35  N   UNL A   1      42.539  29.123  30.260  1.00  0.00    -0.248 NA
ATOM     36  C   UNL A   1      42.936  26.983  29.425  1.00  0.00     0.031 C 
ATOM     37  C   UNL A   1      38.397  29.012  28.584  1.00  0.00     0.029 A 
ATOM     38  N   UNL A   1      39.899  30.249  29.684  1.00  0.00    -0.354 N 
ATOM     39  C   UNL A   1      43.798  28.696  30.667  1.00  0.00     0.074 A 
ATOM     40  C   UNL A   1      43.957  27.341  30.189  1.00  0.00     0.031 C 
ATOM     41  C   UNL A   1      37.817  30.190  28.869  1.00  0.00     0.029 A 
ATOM     42  C   UNL A   1      38.768  31.027  29.592  1.00  0.00     0.049 A 
ATOM     43  H   UNL A   1      40.720  30.544  30.141  1.00  0.00     0.167 HD
ATOM     44  C   UNL A   1      44.751  29.375  31.348  1.00  0.00     0.031 A 
ATOM     45  C   UNL A   1      38.524  32.277  30.034  1.00  0.00     0.031 A 
ATOM     46  C   UNL A   1      44.610  30.736  31.792  1.00  0.00     0.049 A 
ATOM     47  C   UNL A   1      39.614  33.032  30.742  1.00  0.00     0.074 A 
ATOM     48  C   UNL A   1      45.544  31.537  32.425  1.00  0.00     0.029 A 
ATOM     49  N   UNL A   1      43.464  31.501  31.640  1.00  0.00    -0.354 N 
ATOM     50  N   UNL A   1      40.826  32.633  31.050  1.00  0.00    -0.248 NA
ATOM     51  C   UNL A   1      39.310  34.411  31.146  1.00  0.00     0.031 C 
ATOM     52  C   UNL A   1      44.951  32.776  32.688  1.00  0.00     0.029 A 
ATOM     53  C   UNL A   1      43.664  32.761  32.176  1.00  0.00     0.049 A 
ATOM     54  H   UNL A   1      42.632  31.193  31.214  1.00  0.00     0.167 HD
ATOM     55  C   UNL A   1      41.437  33.722  31.660  1.00  0.00     0.074 A 
ATOM     56  C   UNL A   1      40.468  34.799  31.662  1.00  0.00     0.031 C 
ATOM     57  C   UNL A   1      42.689  33.822  32.172  1.00  0.00     0.031 A 
BRANCH  44  58
ATOM     58  C   UNL A   1      46.040  28.653  31.641  1.00  0.00    -0.014 A 
ATOM     59  C   UNL A   1      47.134  28.739  30.759  1.00  0.00     0.010 A 
ATOM     60  C   UNL A   1      46.170  27.896  32.819  1.00  0.00     0.010 A 
ATOM     61  C   UNL A   1      48.315  28.042  31.025  1.00  0.00     0.020 A 
ATOM     62  C   UNL A   1      47.361  27.222  33.104  1.00  0.00     0.020 A 
ATOM     63  C   UNL A   1      48.419  27.282  32.193  1.00  0.00     0.054 A 
BRANCH  63  64
ATOM     64  S   UNL A   1      49.969  26.398  32.521  1.00  0.00     0.124 S 
ATOM     65  O   UNL A   1      49.496  25.030  32.720  1.00  0.00    -0.237 OA
ATOM     66  O   UNL A   1      50.733  26.625  31.297  1.00  0.00    -0.237 OA
ATOM     67  O   UNL A   1      50.497  27.055  33.713  1.00  0.00    -0.744 OA
ENDBRANCH  63  64
ENDBRANCH  44  58
BRANCH  45  68
ATOM     68  C   UNL A   1      37.203  32.913  29.774  1.00  0.00    -0.014 A 
ATOM     69  C   UNL A   1      36.249  33.013  30.803  1.00  0.00     0.010 A 
ATOM     70  C   UNL A   1      36.895  33.432  28.504  1.00  0.00     0.010 A 
ATOM     71  C   UNL A   1      35.003  33.599  30.561  1.00  0.00     0.020 A 
ATOM     72  C   UNL A   1      35.658  34.043  28.266  1.00  0.00     0.020 A 
ATOM     73  C   UNL A   1      34.717  34.112  29.293  1.00  0.00     0.054 A 
BRANCH  73  74
ATOM     74  S   UNL A   1      33.113  34.917  29.016  1.00  0.00     0.124 S 
ATOM     75  O   UNL A   1      33.515  36.217  28.488  1.00  0.00    -0.237 OA
ATOM     76  O   UNL A   1      32.468  34.019  28.063  1.00  0.00    -0.237 OA
ATOM     77  O   UNL A   1      32.509  34.939  30.347  1.00  0.00    -0.744 OA
ENDBRANCH  73  74
ENDBRANCH  45  68
BRANCH  57  78
ATOM     78  C   UNL A   1      43.093  35.153  32.747  1.00  0.00    -0.014 A 
ATOM     79  C   UNL A   1      42.798  35.492  34.078  1.00  0.00     0.010 A 
ATOM     80  C   UNL A   1      43.809  36.063  31.948  1.00  0.00     0.010 A 
ATOM     81  C   UNL A   1      43.173  36.737  34.589  1.00  0.00     0.020 A 
ATOM     82  C   UNL A   1      44.210  37.298  32.463  1.00  0.00     0.020 A 
ATOM     83  C   UNL A   1      43.873  37.634  33.777  1.00  0.00     0.054 A 
BRANCH  83  84
ATOM     84  S   UNL A   1      44.371  39.236  34.466  1.00  0.00     0.124 S 
ATOM     85  O   UNL A   1      44.470  38.934  35.892  1.00  0.00    -0.237 OA
ATOM     86  O   UNL A   1      45.640  39.498  33.790  1.00  0.00    -0.237 OA
ATOM     87  O   UNL A   1      43.277  40.129  34.092  1.00  0.00    -0.744 OA
ENDBRANCH  83  84
ENDBRANCH  57  78
ENDBRANCH  31  32
ENDBRANCH  23  26
ENDBRANCH  21  22
ENDBRANCH   1  21
TORSDOF 16
ENDMDL
MODEL 2
REMARK VINA RESULT:      -9.8      5.837     12.343
REMARK SMILES O=C(CCC(=O)Nc1cc(Cl)cc(Cl)c1)NCCCNC(=O)c1ccc(-c2c3nc(c(-c4ccc(S(=O)(=O)[O-])cc4)c4ccc([nH]4)c(-c4ccc(S(=O)(=O)[O-])cc4)c4nc(c(-c5ccc(S(=O)(=O)[O-])cc5)c5ccc2[nH]5)C=C4)C=C3)cc1
REMARK SMILES IDX 18 1 17 2 16 3 1 4 2 5 3 7 4 8 5 9 6 10 7 11 8 13 9 14 15 15
REMARK SMILES IDX 10 16 13 17 11 18 12 19 14 20 19 21 20 22 21 23 22 25 23 26
REMARK SMILES IDX 24 27 82 28 25 29 81 30 26 31 27 32 28 33 75 34 29 35 80 36
REMARK SMILES IDX 74 37 76 38 30 39 79 40 73 41 72 42 31 44 61 45 42 46 60 47
REMARK SMILES IDX 43 48 46 49 59 50 77 51 44 52 45 53 58 55 78 56 47 57 32 58
REMARK SMILES IDX 33 59 41 60 34 61 40 62 35 63 36 64 37 65 38 66 39 67 62 68
REMARK SMILES IDX 63 69 71 70 64 71 70 72 65 73 66 74 67 75 68 76 69 77 48 78
REMARK SMILES IDX 49 79 57 80 50 81 56 82 51 83 52 84 53 85 54 86 55 87
REMARK H PARENT 16 6 7 12 20 24 76 43 46 54
REMARK Flexibility Score: inf
ROOT
ATOM      1  C   UNL A   1      34.577  32.418  27.914  1.00  0.00     0.042 C 
ENDROOT
BRANCH   1   2
ATOM      2  C   UNL A   1      33.518  31.348  27.744  1.00  0.00     0.117 C 
BRANCH   2   3
ATOM      3  N   UNL A   1      33.663  30.550  26.541  1.00  0.00    -0.356 N 
ATOM      4  O   UNL A   1      34.851  28.836  27.515  1.00  0.00    -0.275 OA
ATOM      5  C   UNL A   1      34.236  29.299  26.561  1.00  0.00     0.220 C 
ATOM      6  H   UNL A   1      33.341  30.916  25.685  1.00  0.00     0.163 HD
BRANCH   5   7
ATOM      7  C   UNL A   1      33.926  28.465  25.340  1.00  0.00     0.110 C 
BRANCH   7   8
ATOM      8  C   UNL A   1      33.187  29.295  24.291  1.00  0.00     0.110 C 
BRANCH   8   9
ATOM      9  C   UNL A   1      33.179  28.615  22.945  1.00  0.00     0.224 C 
ATOM     10  O   UNL A   1      34.255  28.466  22.352  1.00  0.00    -0.275 OA
ATOM     11  N   UNL A   1      32.069  28.184  22.292  1.00  0.00    -0.326 N 
ATOM     12  H   UNL A   1      32.299  27.649  21.498  1.00  0.00     0.169 HD
BRANCH  11  13
ATOM     13  C   UNL A   1      30.674  28.300  22.454  1.00  0.00     0.044 A 
ATOM     14  C   UNL A   1      29.835  27.391  23.095  1.00  0.00     0.046 A 
ATOM     15  C   UNL A   1      30.110  29.508  22.004  1.00  0.00     0.046 A 
ATOM     16  C   UNL A   1      28.491  27.708  23.339  1.00  0.00     0.044 A 
ATOM     17  C   UNL A   1      28.767  29.811  22.244  1.00  0.00     0.044 A 
ATOM     18  Cl  UNL A   1      27.498  26.593  24.200  1.00  0.00    -0.084 Cl
ATOM     19  C   UNL A   1      27.952  28.919  22.926  1.00  0.00     0.041 A 
ATOM     20  Cl  UNL A   1      28.124  31.317  21.718  1.00  0.00    -0.084 Cl
ENDBRANCH  11  13
ENDBRANCH   8   9
ENDBRANCH   7   8
ENDBRANCH   5   7
ENDBRANCH   2   3
ENDBRANCH   1   2
BRANCH   1  21
ATOM     21  C   UNL A   1      35.830  31.973  28.650  1.00  0.00     0.118 C 
BRANCH  21  22
ATOM     22  N   UNL A   1      35.601  31.102  29.797  1.00  0.00    -0.352 N 
ATOM     23  C   UNL A   1      36.493  30.264  30.434  1.00  0.00     0.251 C 
ATOM     24  H   UNL A   1      34.688  31.114  30.166  1.00  0.00     0.163 HD
ATOM     25  O   UNL A   1      36.113  29.572  31.375  1.00  0.00    -0.269 OA
BRANCH  23  26
ATOM     26  C   UNL A   1      37.887  30.162  29.940  1.00  0.00     0.039 A 
ATOM     27  C   UNL A   1      38.938  30.195  30.861  1.00  0.00     0.014 A 
ATOM     28  C   UNL A   1      38.157  29.955  28.587  1.00  0.00     0.014 A 
ATOM     29  C   UNL A   1      40.241  29.914  30.435  1.00  0.00     0.010 A 
ATOM     30  C   UNL A   1      39.431  29.566  28.187  1.00  0.00     0.010 A 
ATOM     31  C   UNL A   1      40.490  29.538  29.104  1.00  0.00    -0.014 A 
BRANCH  31  32
ATOM     32  C   UNL A   1      41.842  29.102  28.656  1.00  0.00     0.031 A 
ATOM     33  C   UNL A   1      42.972  30.097  28.565  1.00  0.00     0.074 A 
ATOM     34  C   UNL A   1      42.038  27.828  28.257  1.00  0.00     0.049 A 
ATOM     35  N   UNL A   1      44.200  29.913  28.152  1.00  0.00    -0.248 NA
ATOM     36  C   UNL A   1      42.674  31.486  28.949  1.00  0.00     0.031 C 
ATOM     37  C   UNL A   1      41.013  26.780  28.218  1.00  0.00     0.029 A 
ATOM     38  N   UNL A   1      43.170  27.196  27.805  1.00  0.00    -0.354 N 
ATOM     39  C   UNL A   1      44.808  31.162  28.201  1.00  0.00     0.074 A 
ATOM     40  C   UNL A   1      43.798  32.106  28.624  1.00  0.00     0.031 C 
ATOM     41  C   UNL A   1      41.573  25.629  27.812  1.00  0.00     0.029 A 
ATOM     42  C   UNL A   1      42.986  25.860  27.529  1.00  0.00     0.049 A 
ATOM     43  H   UNL A   1      44.034  27.654  27.691  1.00  0.00     0.167 HD
ATOM     44  C   UNL A   1      46.096  31.495  27.949  1.00  0.00     0.031 A 
ATOM     45  C   UNL A   1      43.856  24.923  27.102  1.00  0.00     0.031 A 
ATOM     46  C   UNL A   1      47.112  30.552  27.563  1.00  0.00     0.049 A 
ATOM     47  C   UNL A   1      45.292  25.304  26.878  1.00  0.00     0.074 A 
ATOM     48  C   UNL A   1      48.462  30.778  27.356  1.00  0.00     0.029 A 
ATOM     49  N   UNL A   1      46.892  29.203  27.337  1.00  0.00    -0.354 N 
ATOM     50  N   UNL A   1      45.862  26.479  27.004  1.00  0.00    -0.248 NA
ATOM     51  C   UNL A   1      46.207  24.228  26.472  1.00  0.00     0.031 C 
ATOM     52  C   UNL A   1      49.052  29.569  26.969  1.00  0.00     0.029 A 
ATOM     53  C   UNL A   1      48.078  28.584  26.982  1.00  0.00     0.049 A 
ATOM     54  H   UNL A   1      46.021  28.752  27.417  1.00  0.00     0.167 HD
ATOM     55  C   UNL A   1      47.208  26.277  26.718  1.00  0.00     0.074 A 
ATOM     56  C   UNL A   1      47.368  24.866  26.430  1.00  0.00     0.031 C 
ATOM     57  C   UNL A   1      48.221  27.179  26.697  1.00  0.00     0.031 A 
BRANCH  44  58
ATOM     58  C   UNL A   1      46.479  32.944  28.097  1.00  0.00    -0.014 A 
ATOM     59  C   UNL A   1      46.454  33.816  26.992  1.00  0.00     0.010 A 
ATOM     60  C   UNL A   1      46.848  33.448  29.358  1.00  0.00     0.010 A 
ATOM     61  C   UNL A   1      46.839  35.151  27.134  1.00  0.00     0.020 A 
ATOM     62  C   UNL A   1      47.205  34.792  29.510  1.00  0.00     0.020 A 
ATOM     63  C   UNL A   1      47.218  35.629  28.392  1.00  0.00     0.054 A 
BRANCH  63  64
ATOM     64  S   UNL A   1      47.700  37.371  28.551  1.00  0.00     0.124 S 
ATOM     65  O   UNL A   1      48.226  37.412  29.913  1.00  0.00    -0.237 OA
ATOM     66  O   UNL A   1      48.693  37.528  27.491  1.00  0.00    -0.237 OA
ATOM     67  O   UNL A   1      46.450  38.097  28.343  1.00  0.00    -0.744 OA
ENDBRANCH  63  64
ENDBRANCH  44  58
BRANCH  45  68
ATOM     68  C   UNL A   1      43.401  23.519  26.906  1.00  0.00    -0.014 A 
ATOM     69  C   UNL A   1      43.030  23.065  25.628  1.00  0.00     0.010 A 
ATOM     70  C   UNL A   1      43.345  22.626  27.991  1.00  0.00     0.010 A 
ATOM     71  C   UNL A   1      42.592  21.751  25.440  1.00  0.00     0.020 A 
ATOM     72  C   UNL A   1      42.931  21.302  27.802  1.00  0.00     0.020 A 
ATOM     73  C   UNL A   1      42.547  20.877  26.530  1.00  0.00     0.054 A 
BRANCH  73  74
ATOM     74  S   UNL A   1      42.025  19.160  26.254  1.00  0.00     0.124 S 
ATOM     75  O   UNL A   1      40.651  19.332  25.794  1.00  0.00    -0.237 OA
ATOM     76  O   UNL A   1      42.977  18.698  25.248  1.00  0.00    -0.237 OA
ATOM     77  O   UNL A   1      42.174  18.544  27.571  1.00  0.00    -0.744 OA
ENDBRANCH  73  74
ENDBRANCH  45  68
BRANCH  57  78
ATOM     78  C   UNL A   1      49.598  26.659  26.384  1.00  0.00    -0.014 A 
ATOM     79  C   UNL A   1      50.392  26.055  27.374  1.00  0.00     0.010 A 
ATOM     80  C   UNL A   1      50.089  26.749  25.069  1.00  0.00     0.010 A 
ATOM     81  C   UNL A   1      51.672  25.589  27.064  1.00  0.00     0.020 A 
ATOM     82  C   UNL A   1      51.358  26.259  24.749  1.00  0.00     0.020 A 
ATOM     83  C   UNL A   1      52.149  25.698  25.754  1.00  0.00     0.054 A 
BRANCH  83  84
ATOM     84  S   UNL A   1      53.804  25.066  25.368  1.00  0.00     0.124 S 
ATOM     85  O   UNL A   1      54.055  25.657  24.056  1.00  0.00    -0.237 OA
ATOM     86  O   UNL A   1      54.615  25.596  26.462  1.00  0.00    -0.237 OA
ATOM     87  O   UNL A   1      53.631  23.616  25.376  1.00  0.00    -0.744 OA
ENDBRANCH  83  84
ENDBRANCH  57  78
ENDBRANCH  31  32
ENDBRANCH  23  26
ENDBRANCH  21  22
ENDBRANCH   1  21
TORSDOF 16
ENDMDL
MODEL 3
REMARK VINA RESULT:      -9.8      4.170     10.885
REMARK SMILES O=C(CCC(=O)Nc1cc(Cl)cc(Cl)c1)NCCCNC(=O)c1ccc(-c2c3nc(c(-c4ccc(S(=O)(=O)[O-])cc4)c4ccc([nH]4)c(-c4ccc(S(=O)(=O)[O-])cc4)c4nc(c(-c5ccc(S(=O)(=O)[O-])cc5)c5ccc2[nH]5)C=C4)C=C3)cc1
REMARK SMILES IDX 18 1 17 2 16 3 1 4 2 5 3 7 4 8 5 9 6 10 7 11 8 13 9 14 15 15
REMARK SMILES IDX 10 16 13 17 11 18 12 19 14 20 19 21 20 22 21 23 22 25 23 26
REMARK SMILES IDX 24 27 82 28 25 29 81 30 26 31 27 32 28 33 75 34 29 35 80 36
REMARK SMILES IDX 74 37 76 38 30 39 79 40 73 41 72 42 31 44 61 45 42 46 60 47
REMARK SMILES IDX 43 48 46 49 59 50 77 51 44 52 45 53 58 55 78 56 47 57 32 58
REMARK SMILES IDX 33 59 41 60 34 61 40 62 35 63 36 64 37 65 38 66 39 67 62 68
REMARK SMILES IDX 63 69 71 70 64 71 70 72 65 73 66 74 67 75 68 76 69 77 48 78
REMARK SMILES IDX 49 79 57 80 50 81 56 82 51 83 52 84 53 85 54 86 55 87
REMARK H PARENT 16 6 7 12 20 24 76 43 46 54
REMARK Flexibility Score: inf
ROOT
ATOM      1  C   UNL A   1      33.593  28.783  25.509  1.00  0.00     0.042 C 
ENDROOT
BRANCH   1   2
ATOM      2  C   UNL A   1      32.285  28.999  24.775  1.00  0.00     0.117 C 
BRANCH   2   3
ATOM      3  N   UNL A   1      31.243  28.050  25.119  1.00  0.00    -0.356 N 
ATOM      4  O   UNL A   1      30.894  27.270  22.982  1.00  0.00    -0.275 OA
ATOM      5  C   UNL A   1      30.708  27.186  24.191  1.00  0.00     0.220 C 
ATOM      6  H   UNL A   1      30.909  28.025  26.045  1.00  0.00     0.163 HD
BRANCH   5   7
ATOM      7  C   UNL A   1      29.968  26.019  24.798  1.00  0.00     0.110 C 
BRANCH   7   8
ATOM      8  C   UNL A   1      30.872  24.791  24.887  1.00  0.00     0.110 C 
BRANCH   8   9
ATOM      9  C   UNL A   1      31.641  24.756  26.184  1.00  0.00     0.224 C 
ATOM     10  O   UNL A   1      31.411  25.628  27.032  1.00  0.00    -0.275 OA
ATOM     11  N   UNL A   1      32.615  23.861  26.494  1.00  0.00    -0.326 N 
ATOM     12  H   UNL A   1      32.886  23.931  27.438  1.00  0.00     0.169 HD
BRANCH  11  13
ATOM     13  C   UNL A   1      33.337  22.856  25.818  1.00  0.00     0.044 A 
ATOM     14  C   UNL A   1      34.582  22.997  25.210  1.00  0.00     0.046 A 
ATOM     15  C   UNL A   1      32.770  21.570  25.863  1.00  0.00     0.046 A 
ATOM     16  C   UNL A   1      35.270  21.877  24.722  1.00  0.00     0.044 A 
ATOM     17  C   UNL A   1      33.460  20.460  25.365  1.00  0.00     0.044 A 
ATOM     18  Cl  UNL A   1      36.840  22.074  24.042  1.00  0.00    -0.084 Cl
ATOM     19  C   UNL A   1      34.720  20.605  24.805  1.00  0.00     0.041 A 
ATOM     20  Cl  UNL A   1      32.753  18.895  25.477  1.00  0.00    -0.084 Cl
ENDBRANCH  11  13
ENDBRANCH   8   9
ENDBRANCH   7   8
ENDBRANCH   5   7
ENDBRANCH   2   3
ENDBRANCH   1   2
BRANCH   1  21
ATOM     21  C   UNL A   1      33.489  28.796  27.025  1.00  0.00     0.118 C 
BRANCH  21  22
ATOM     22  N   UNL A   1      33.475  30.120  27.636  1.00  0.00    -0.352 N 
ATOM     23  C   UNL A   1      34.499  30.782  28.282  1.00  0.00     0.251 C 
ATOM     24  H   UNL A   1      32.620  30.606  27.579  1.00  0.00     0.163 HD
ATOM     25  O   UNL A   1      34.295  31.892  28.768  1.00  0.00    -0.269 OA
BRANCH  23  26
ATOM     26  C   UNL A   1      35.818  30.124  28.434  1.00  0.00     0.039 A 
ATOM     27  C   UNL A   1      36.726  30.170  27.373  1.00  0.00     0.014 A 
ATOM     28  C   UNL A   1      36.193  29.535  29.642  1.00  0.00     0.014 A 
ATOM     29  C   UNL A   1      38.038  29.722  27.563  1.00  0.00     0.010 A 
ATOM     30  C   UNL A   1      37.523  29.195  29.864  1.00  0.00     0.010 A 
ATOM     31  C   UNL A   1      38.465  29.285  28.829  1.00  0.00    -0.014 A 
BRANCH  31  32
ATOM     32  C   UNL A   1      39.887  28.931  29.095  1.00  0.00     0.031 A 
ATOM     33  C   UNL A   1      40.821  29.942  29.710  1.00  0.00     0.074 A 
ATOM     34  C   UNL A   1      40.361  27.727  28.713  1.00  0.00     0.049 A 
ATOM     35  N   UNL A   1      42.099  29.831  29.971  1.00  0.00    -0.248 NA
ATOM     36  C   UNL A   1      40.258  31.261  30.040  1.00  0.00     0.031 C 
ATOM     37  C   UNL A   1      39.587  26.683  28.034  1.00  0.00     0.029 A 
ATOM     38  N   UNL A   1      41.613  27.177  28.840  1.00  0.00    -0.354 N 
ATOM     39  C   UNL A   1      42.494  31.069  30.466  1.00  0.00     0.074 A 
ATOM     40  C   UNL A   1      41.337  31.933  30.413  1.00  0.00     0.031 C 
ATOM     41  C   UNL A   1      40.367  25.605  27.848  1.00  0.00     0.029 A 
ATOM     42  C   UNL A   1      41.704  25.890  28.360  1.00  0.00     0.049 A 
ATOM     43  H   UNL A   1      42.374  27.656  29.239  1.00  0.00     0.167 HD
ATOM     44  C   UNL A   1      43.700  31.448  30.952  1.00  0.00     0.031 A 
ATOM     45  C   UNL A   1      42.743  25.032  28.339  1.00  0.00     0.031 A 
ATOM     46  C   UNL A   1      44.844  30.581  31.040  1.00  0.00     0.049 A 
ATOM     47  C   UNL A   1      44.058  25.456  28.930  1.00  0.00     0.074 A 
ATOM     48  C   UNL A   1      46.088  30.848  31.584  1.00  0.00     0.029 A 
ATOM     49  N   UNL A   1      44.879  29.273  30.583  1.00  0.00    -0.354 N 
ATOM     50  N   UNL A   1      44.387  26.609  29.463  1.00  0.00    -0.248 NA
ATOM     51  C   UNL A   1      45.136  24.457  28.935  1.00  0.00     0.031 C 
ATOM     52  C   UNL A   1      46.888  29.712  31.423  1.00  0.00     0.029 A 
ATOM     53  C   UNL A   1      46.127  28.723  30.822  1.00  0.00     0.049 A 
ATOM     54  H   UNL A   1      44.128  28.805  30.152  1.00  0.00     0.167 HD
ATOM     55  C   UNL A   1      45.703  26.465  29.890  1.00  0.00     0.074 A 
ATOM     56  C   UNL A   1      46.100  25.109  29.569  1.00  0.00     0.031 C 
ATOM     57  C   UNL A   1      46.508  27.372  30.495  1.00  0.00     0.031 A 
BRANCH  44  58
ATOM     58  C   UNL A   1      43.835  32.868  31.438  1.00  0.00    -0.014 A 
ATOM     59  C   UNL A   1      44.299  33.885  30.583  1.00  0.00     0.010 A 
ATOM     60  C   UNL A   1      43.475  33.196  32.758  1.00  0.00     0.010 A 
ATOM     61  C   UNL A   1      44.448  35.192  31.052  1.00  0.00     0.020 A 
ATOM     62  C   UNL A   1      43.594  34.510  33.222  1.00  0.00     0.020 A 
ATOM     63  C   UNL A   1      44.101  35.495  32.372  1.00  0.00     0.054 A 
BRANCH  63  64
ATOM     64  S   UNL A   1      44.292  37.204  32.951  1.00  0.00     0.124 S 
ATOM     65  O   UNL A   1      43.318  37.261  34.038  1.00  0.00    -0.237 OA
ATOM     66  O   UNL A   1      45.693  37.249  33.362  1.00  0.00    -0.237 OA
ATOM     67  O   UNL A   1      43.964  38.006  31.776  1.00  0.00    -0.744 OA
ENDBRANCH  63  64
ENDBRANCH  44  58
BRANCH  45  68
ATOM     68  C   UNL A   1      42.566  23.663  27.780  1.00  0.00    -0.014 A 
ATOM     69  C   UNL A   1      42.791  23.420  26.413  1.00  0.00     0.010 A 
ATOM     70  C   UNL A   1      42.184  22.594  28.610  1.00  0.00     0.010 A 
ATOM     71  C   UNL A   1      42.616  22.139  25.881  1.00  0.00     0.020 A 
ATOM     72  C   UNL A   1      42.034  21.305  28.086  1.00  0.00     0.020 A 
ATOM     73  C   UNL A   1      42.239  21.089  26.722  1.00  0.00     0.054 A 
BRANCH  73  74
ATOM     74  S   UNL A   1      42.070  19.423  26.021  1.00  0.00     0.124 S 
ATOM     75  O   UNL A   1      42.614  18.589  27.088  1.00  0.00    -0.237 OA
ATOM     76  O   UNL A   1      40.630  19.315  25.806  1.00  0.00    -0.237 OA
ATOM     77  O   UNL A   1      42.871  19.485  24.801  1.00  0.00    -0.744 OA
ENDBRANCH  73  74
ENDBRANCH  45  68
BRANCH  57  78
ATOM     78  C   UNL A   1      47.890  26.918  30.879  1.00  0.00    -0.014 A 
ATOM     79  C   UNL A   1      48.994  27.152  30.041  1.00  0.00     0.010 A 
ATOM     80  C   UNL A   1      48.089  26.276  32.115  1.00  0.00     0.010 A 
ATOM     81  C   UNL A   1      50.267  26.713  30.412  1.00  0.00     0.020 A 
ATOM     82  C   UNL A   1      49.365  25.860  32.502  1.00  0.00     0.020 A 
ATOM     83  C   UNL A   1      50.444  26.065  31.638  1.00  0.00     0.054 A 
BRANCH  83  84
ATOM     84  S   UNL A   1      52.109  25.523  32.111  1.00  0.00     0.124 S 
ATOM     85  O   UNL A   1      52.884  25.847  30.916  1.00  0.00    -0.237 OA
ATOM     86  O   UNL A   1      52.394  26.344  33.286  1.00  0.00    -0.237 OA
ATOM     87  O   UNL A   1      51.945  24.097  32.380  1.00  0.00    -0.744 OA
ENDBRANCH  83  84
ENDBRANCH  57  78
ENDBRANCH  31  32
ENDBRANCH  23  26
ENDBRANCH  21  22
ENDBRANCH   1  21
TORSDOF 16
ENDMDL
