MODEL 1
REMARK VINA RESULT:     -11.0      0.000      0.000
REMARK SMILES O=C(CCc1cccnc1)Nc1ccsc1C(=O)NCCCNC(=O)c1ccc(-c2c3nc(c(-c4ccc(S(=O)(=O)[O-])cc4)c4ccc([nH]4)c(-c4ccc(S(=O)(=O)[O-])cc4)c4nc(c(-c5ccc(S(=O)(=O)[O-])cc5)c5ccc2[nH]5)C=C4)C=C3)cc1
REMARK SMILES IDX 20 1 19 2 17 3 18 4 16 6 12 7 13 8 14 9 15 10 11 11 1 12
REMARK SMILES IDX 2 13 3 15 4 16 5 17 6 18 10 19 7 20 9 21 8 22 21 23 22 24
REMARK SMILES IDX 23 25 24 26 25 28 26 29 27 30 85 31 28 32 84 33 29 34 30 35
REMARK SMILES IDX 31 36 78 37 32 38 83 39 77 40 79 41 33 42 82 43 76 44 75 45
REMARK SMILES IDX 34 47 64 48 45 49 63 50 46 51 49 52 62 53 80 54 47 55 48 56
REMARK SMILES IDX 61 58 81 59 50 60 35 61 36 62 44 63 37 64 43 65 38 66 39 67
REMARK SMILES IDX 40 68 41 69 42 70 65 71 66 72 74 73 67 74 73 75 68 76 69 77
REMARK SMILES IDX 70 78 71 79 72 80 51 81 52 82 60 83 53 84 59 85 54 86 55 87
REMARK SMILES IDX 56 88 57 89 58 90
REMARK H PARENT 19 5 11 14 23 27 79 46 49 57
REMARK Flexibility Score: inf
ROOT
ATOM      1  C   UNL A   1      36.508  21.969  25.102  1.00  0.00     0.118 C 
ENDROOT
BRANCH   1   2
ATOM      2  N   UNL A   1      35.685  21.791  26.280  1.00  0.00    -0.351 N 
ATOM      3  C   UNL A   1      34.366  21.362  26.358  1.00  0.00     0.263 C 
ATOM      4  O   UNL A   1      33.893  21.284  27.494  1.00  0.00    -0.268 OA
ATOM      5  H   UNL A   1      36.117  22.001  27.140  1.00  0.00     0.163 HD
BRANCH   3   6
ATOM      6  C   UNL A   1      33.604  21.061  25.150  1.00  0.00     0.115 A 
ATOM      7  C   UNL A   1      32.917  21.869  24.252  1.00  0.00     0.065 A 
ATOM      8  C   UNL A   1      32.177  21.101  23.302  1.00  0.00     0.038 A 
ATOM      9  C   UNL A   1      32.435  19.754  23.402  1.00  0.00     0.068 A 
ATOM     10  S   UNL A   1      33.498  19.404  24.688  1.00  0.00    -0.137 S 
BRANCH   7  11
ATOM     11  N   UNL A   1      32.998  23.253  24.279  1.00  0.00    -0.325 N 
ATOM     12  O   UNL A   1      34.471  23.599  22.542  1.00  0.00    -0.275 OA
ATOM     13  C   UNL A   1      33.766  24.037  23.450  1.00  0.00     0.224 C 
ATOM     14  H   UNL A   1      32.455  23.719  24.956  1.00  0.00     0.169 HD
BRANCH  13  15
ATOM     15  C   UNL A   1      33.717  25.541  23.721  1.00  0.00     0.105 C 
BRANCH  15  16
ATOM     16  C   UNL A   1      34.262  26.079  25.051  1.00  0.00     0.047 C 
BRANCH  16  17
ATOM     17  C   UNL A   1      33.271  26.828  25.909  1.00  0.00    -0.029 A 
ATOM     18  C   UNL A   1      33.559  28.076  26.476  1.00  0.00     0.007 A 
ATOM     19  C   UNL A   1      32.012  26.309  26.176  1.00  0.00     0.114 A 
ATOM     20  C   UNL A   1      32.627  28.738  27.262  1.00  0.00     0.020 A 
ATOM     21  N   UNL A   1      31.071  26.936  26.920  1.00  0.00    -0.264 NA
ATOM     22  C   UNL A   1      31.405  28.131  27.454  1.00  0.00     0.111 A 
ENDBRANCH  16  17
ENDBRANCH  15  16
ENDBRANCH  13  15
ENDBRANCH   7  11
ENDBRANCH   3   6
ENDBRANCH   1   2
BRANCH   1  23
ATOM     23  C   UNL A   1      37.977  21.586  25.218  1.00  0.00     0.042 C 
BRANCH  23  24
ATOM     24  C   UNL A   1      38.890  22.329  26.200  1.00  0.00     0.118 C 
BRANCH  24  25
ATOM     25  N   UNL A   1      40.299  22.473  25.858  1.00  0.00    -0.352 N 
ATOM     26  C   UNL A   1      41.272  23.418  26.126  1.00  0.00     0.251 C 
ATOM     27  H   UNL A   1      40.635  21.726  25.313  1.00  0.00     0.163 HD
ATOM     28  O   UNL A   1      42.413  23.202  25.758  1.00  0.00    -0.269 OA
BRANCH  26  29
ATOM     29  C   UNL A   1      40.943  24.709  26.765  1.00  0.00     0.039 A 
ATOM     30  C   UNL A   1      40.083  24.701  27.872  1.00  0.00     0.014 A 
ATOM     31  C   UNL A   1      41.520  25.899  26.343  1.00  0.00     0.014 A 
ATOM     32  C   UNL A   1      39.974  25.839  28.670  1.00  0.00     0.010 A 
ATOM     33  C   UNL A   1      41.513  26.989  27.196  1.00  0.00     0.010 A 
ATOM     34  C   UNL A   1      40.781  26.948  28.392  1.00  0.00    -0.014 A 
BRANCH  34  35
ATOM     35  C   UNL A   1      40.970  28.051  29.361  1.00  0.00     0.031 A 
ATOM     36  C   UNL A   1      42.050  27.944  30.395  1.00  0.00     0.074 A 
ATOM     37  C   UNL A   1      40.047  29.034  29.411  1.00  0.00     0.049 A 
ATOM     38  N   UNL A   1      42.225  28.647  31.480  1.00  0.00    -0.248 NA
ATOM     39  C   UNL A   1      43.029  26.858  30.211  1.00  0.00     0.031 C 
ATOM     40  C   UNL A   1      38.913  29.187  28.491  1.00  0.00     0.029 A 
ATOM     41  N   UNL A   1      39.892  30.073  30.292  1.00  0.00    -0.354 N 
ATOM     42  C   UNL A   1      43.300  28.059  32.136  1.00  0.00     0.074 A 
ATOM     43  C   UNL A   1      43.711  26.921  31.344  1.00  0.00     0.031 C 
ATOM     44  C   UNL A   1      38.193  30.262  28.847  1.00  0.00     0.029 A 
ATOM     45  C   UNL A   1      38.778  30.844  30.046  1.00  0.00     0.049 A 
ATOM     46  H   UNL A   1      40.518  30.252  31.030  1.00  0.00     0.167 HD
ATOM     47  C   UNL A   1      43.891  28.443  33.290  1.00  0.00     0.031 A 
ATOM     48  C   UNL A   1      38.273  31.889  30.728  1.00  0.00     0.031 A 
ATOM     49  C   UNL A   1      43.483  29.600  34.039  1.00  0.00     0.049 A 
ATOM     50  C   UNL A   1      38.984  32.336  31.972  1.00  0.00     0.074 A 
ATOM     51  C   UNL A   1      44.054  30.140  35.176  1.00  0.00     0.029 A 
ATOM     52  N   UNL A   1      42.398  30.403  33.712  1.00  0.00    -0.354 N 
ATOM     53  N   UNL A   1      40.039  31.806  32.547  1.00  0.00    -0.248 NA
ATOM     54  C   UNL A   1      38.445  33.515  32.659  1.00  0.00     0.031 C 
ATOM     55  C   UNL A   1      43.296  31.254  35.554  1.00  0.00     0.029 A 
ATOM     56  C   UNL A   1      42.274  31.429  34.631  1.00  0.00     0.049 A 
ATOM     57  H   UNL A   1      41.805  30.263  32.939  1.00  0.00     0.167 HD
ATOM     58  C   UNL A   1      40.296  32.593  33.661  1.00  0.00     0.074 A 
ATOM     59  C   UNL A   1      39.300  33.647  33.665  1.00  0.00     0.031 C 
ATOM     60  C   UNL A   1      41.263  32.456  34.602  1.00  0.00     0.031 A 
BRANCH  47  61
ATOM     61  C   UNL A   1      45.026  27.594  33.798  1.00  0.00    -0.014 A 
ATOM     62  C   UNL A   1      44.794  26.520  34.677  1.00  0.00     0.010 A 
ATOM     63  C   UNL A   1      46.347  27.886  33.411  1.00  0.00     0.010 A 
ATOM     64  C   UNL A   1      45.863  25.796  35.211  1.00  0.00     0.020 A 
ATOM     65  C   UNL A   1      47.418  27.144  33.920  1.00  0.00     0.020 A 
ATOM     66  C   UNL A   1      47.170  26.121  34.837  1.00  0.00     0.054 A 
BRANCH  66  67
ATOM     67  S   UNL A   1      48.541  25.177  35.557  1.00  0.00     0.124 S 
ATOM     68  O   UNL A   1      48.304  23.842  35.012  1.00  0.00    -0.237 OA
ATOM     69  O   UNL A   1      49.718  25.867  35.035  1.00  0.00    -0.237 OA
ATOM     70  O   UNL A   1      48.333  25.308  36.996  1.00  0.00    -0.744 OA
ENDBRANCH  66  67
ENDBRANCH  47  61
BRANCH  48  71
ATOM     71  C   UNL A   1      37.050  32.580  30.236  1.00  0.00    -0.014 A 
ATOM     72  C   UNL A   1      35.825  32.411  30.904  1.00  0.00     0.010 A 
ATOM     73  C   UNL A   1      37.109  33.450  29.130  1.00  0.00     0.010 A 
ATOM     74  C   UNL A   1      34.681  33.090  30.473  1.00  0.00     0.020 A 
ATOM     75  C   UNL A   1      35.972  34.149  28.710  1.00  0.00     0.020 A 
ATOM     76  C   UNL A   1      34.762  33.958  29.381  1.00  0.00     0.054 A 
BRANCH  76  77
ATOM     77  S   UNL A   1      33.280  34.884  28.886  1.00  0.00     0.124 S 
ATOM     78  O   UNL A   1      33.853  36.130  28.387  1.00  0.00    -0.237 OA
ATOM     79  O   UNL A   1      32.685  34.011  27.876  1.00  0.00    -0.237 OA
ATOM     80  O   UNL A   1      32.518  34.997  30.127  1.00  0.00    -0.744 OA
ENDBRANCH  76  77
ENDBRANCH  48  71
BRANCH  60  81
ATOM     81  C   UNL A   1      41.285  33.474  35.705  1.00  0.00    -0.014 A 
ATOM     82  C   UNL A   1      40.585  33.248  36.902  1.00  0.00     0.010 A 
ATOM     83  C   UNL A   1      42.070  34.632  35.567  1.00  0.00     0.010 A 
ATOM     84  C   UNL A   1      40.657  34.176  37.942  1.00  0.00     0.020 A 
ATOM     85  C   UNL A   1      42.161  35.551  36.613  1.00  0.00     0.020 A 
ATOM     86  C   UNL A   1      41.445  35.321  37.790  1.00  0.00     0.054 A 
BRANCH  86  87
ATOM     87  S   UNL A   1      41.574  36.481  39.179  1.00  0.00     0.124 S 
ATOM     88  O   UNL A   1      42.796  37.209  38.851  1.00  0.00    -0.237 OA
ATOM     89  O   UNL A   1      40.336  37.248  39.072  1.00  0.00    -0.237 OA
ATOM     90  O   UNL A   1      41.661  35.609  40.348  1.00  0.00    -0.744 OA
ENDBRANCH  86  87
ENDBRANCH  60  81
ENDBRANCH  34  35
ENDBRANCH  26  29
ENDBRANCH  24  25
ENDBRANCH  23  24
ENDBRANCH   1  23
TORSDOF 17
ENDMDL
MODEL 2
REMARK VINA RESULT:     -11.0      1.742      3.784
REMARK SMILES O=C(CCc1cccnc1)Nc1ccsc1C(=O)NCCCNC(=O)c1ccc(-c2c3nc(c(-c4ccc(S(=O)(=O)[O-])cc4)c4ccc([nH]4)c(-c4ccc(S(=O)(=O)[O-])cc4)c4nc(c(-c5ccc(S(=O)(=O)[O-])cc5)c5ccc2[nH]5)C=C4)C=C3)cc1
REMARK SMILES IDX 20 1 19 2 17 3 18 4 16 6 12 7 13 8 14 9 15 10 11 11 1 12
REMARK SMILES IDX 2 13 3 15 4 16 5 17 6 18 10 19 7 20 9 21 8 22 21 23 22 24
REMARK SMILES IDX 23 25 24 26 25 28 26 29 27 30 85 31 28 32 84 33 29 34 30 35
REMARK SMILES IDX 31 36 78 37 32 38 83 39 77 40 79 41 33 42 82 43 76 44 75 45
REMARK SMILES IDX 34 47 64 48 45 49 63 50 46 51 49 52 62 53 80 54 47 55 48 56
REMARK SMILES IDX 61 58 81 59 50 60 35 61 36 62 44 63 37 64 43 65 38 66 39 67
REMARK SMILES IDX 40 68 41 69 42 70 65 71 66 72 74 73 67 74 73 75 68 76 69 77
REMARK SMILES IDX 70 78 71 79 72 80 51 81 52 82 60 83 53 84 59 85 54 86 55 87
REMARK SMILES IDX 56 88 57 89 58 90
REMARK H PARENT 19 5 11 14 23 27 79 46 49 57
REMARK Flexibility Score: inf
ROOT
ATOM      1  C   UNL A   1      35.551  23.919  24.651  1.00  0.00     0.118 C 
ENDROOT
BRANCH   1   2
ATOM      2  N   UNL A   1      34.896  24.316  23.422  1.00  0.00    -0.351 N 
ATOM      3  C   UNL A   1      33.635  24.874  23.254  1.00  0.00     0.263 C 
ATOM      4  O   UNL A   1      33.312  25.133  22.092  1.00  0.00    -0.268 OA
ATOM      5  H   UNL A   1      35.412  24.172  22.596  1.00  0.00     0.163 HD
BRANCH   3   6
ATOM      6  C   UNL A   1      32.757  25.098  24.398  1.00  0.00     0.115 A 
ATOM      7  C   UNL A   1      31.851  24.275  25.058  1.00  0.00     0.065 A 
ATOM      8  C   UNL A   1      31.091  24.990  26.033  1.00  0.00     0.038 A 
ATOM      9  C   UNL A   1      31.536  26.281  26.198  1.00  0.00     0.068 A 
ATOM     10  S   UNL A   1      32.805  26.660  25.125  1.00  0.00    -0.137 S 
BRANCH   7  11
ATOM     11  N   UNL A   1      31.753  22.915  24.801  1.00  0.00    -0.325 N 
ATOM     12  O   UNL A   1      33.180  22.103  26.415  1.00  0.00    -0.275 OA
ATOM     13  C   UNL A   1      32.419  21.915  25.468  1.00  0.00     0.224 C 
ATOM     14  H   UNL A   1      31.150  22.641  24.072  1.00  0.00     0.169 HD
BRANCH  13  15
ATOM     15  C   UNL A   1      32.175  20.495  24.955  1.00  0.00     0.105 C 
BRANCH  15  16
ATOM     16  C   UNL A   1      33.315  19.750  24.247  1.00  0.00     0.047 C 
BRANCH  16  17
ATOM     17  C   UNL A   1      33.485  18.298  24.630  1.00  0.00    -0.029 A 
ATOM     18  C   UNL A   1      34.602  17.546  24.249  1.00  0.00     0.007 A 
ATOM     19  C   UNL A   1      32.529  17.638  25.391  1.00  0.00     0.114 A 
ATOM     20  C   UNL A   1      34.727  16.213  24.615  1.00  0.00     0.020 A 
ATOM     21  N   UNL A   1      32.629  16.346  25.783  1.00  0.00    -0.264 NA
ATOM     22  C   UNL A   1      33.720  15.662  25.377  1.00  0.00     0.111 A 
ENDBRANCH  16  17
ENDBRANCH  15  16
ENDBRANCH  13  15
ENDBRANCH   7  11
ENDBRANCH   3   6
ENDBRANCH   1   2
BRANCH   1  23
ATOM     23  C   UNL A   1      36.950  23.330  24.531  1.00  0.00     0.042 C 
BRANCH  23  24
ATOM     24  C   UNL A   1      37.496  22.415  25.633  1.00  0.00     0.118 C 
BRANCH  24  25
ATOM     25  N   UNL A   1      38.929  22.154  25.667  1.00  0.00    -0.352 N 
ATOM     26  C   UNL A   1      40.026  22.820  26.181  1.00  0.00     0.251 C 
ATOM     27  H   UNL A   1      39.171  21.310  25.223  1.00  0.00     0.163 HD
ATOM     28  O   UNL A   1      41.117  22.283  26.118  1.00  0.00    -0.269 OA
BRANCH  26  29
ATOM     29  C   UNL A   1      39.917  24.192  26.719  1.00  0.00     0.039 A 
ATOM     30  C   UNL A   1      39.146  24.393  27.873  1.00  0.00     0.014 A 
ATOM     31  C   UNL A   1      40.613  25.253  26.157  1.00  0.00     0.014 A 
ATOM     32  C   UNL A   1      39.247  25.596  28.570  1.00  0.00     0.010 A 
ATOM     33  C   UNL A   1      40.812  26.399  26.906  1.00  0.00     0.010 A 
ATOM     34  C   UNL A   1      40.170  26.558  28.143  1.00  0.00    -0.014 A 
BRANCH  34  35
ATOM     35  C   UNL A   1      40.572  27.700  28.995  1.00  0.00     0.031 A 
ATOM     36  C   UNL A   1      41.796  27.580  29.853  1.00  0.00     0.074 A 
ATOM     37  C   UNL A   1      39.726  28.742  29.122  1.00  0.00     0.049 A 
ATOM     38  N   UNL A   1      42.181  28.332  30.848  1.00  0.00    -0.248 NA
ATOM     39  C   UNL A   1      42.670  26.424  29.591  1.00  0.00     0.031 C 
ATOM     40  C   UNL A   1      38.470  28.917  28.382  1.00  0.00     0.029 A 
ATOM     41  N   UNL A   1      39.771  29.838  29.944  1.00  0.00    -0.354 N 
ATOM     42  C   UNL A   1      43.312  27.713  31.366  1.00  0.00     0.074 A 
ATOM     43  C   UNL A   1      43.527  26.506  30.598  1.00  0.00     0.031 C 
ATOM     44  C   UNL A   1      37.877  30.055  28.772  1.00  0.00     0.029 A 
ATOM     45  C   UNL A   1      38.677  30.665  29.824  1.00  0.00     0.049 A 
ATOM     46  H   UNL A   1      40.517  30.018  30.562  1.00  0.00     0.167 HD
ATOM     47  C   UNL A   1      44.100  28.123  32.386  1.00  0.00     0.031 A 
ATOM     48  C   UNL A   1      38.347  31.779  30.505  1.00  0.00     0.031 A 
ATOM     49  C   UNL A   1      43.882  29.345  33.110  1.00  0.00     0.049 A 
ATOM     50  C   UNL A   1      39.271  32.248  31.590  1.00  0.00     0.074 A 
ATOM     51  C   UNL A   1      44.657  29.910  34.105  1.00  0.00     0.029 A 
ATOM     52  N   UNL A   1      42.806  30.198  32.903  1.00  0.00    -0.354 N 
ATOM     53  N   UNL A   1      40.374  31.684  32.028  1.00  0.00    -0.248 NA
ATOM     54  C   UNL A   1      38.916  33.498  32.272  1.00  0.00     0.031 C 
ATOM     55  C   UNL A   1      44.032  31.092  34.521  1.00  0.00     0.029 A 
ATOM     56  C   UNL A   1      42.887  31.281  33.759  1.00  0.00     0.049 A 
ATOM     57  H   UNL A   1      42.090  30.053  32.242  1.00  0.00     0.167 HD
ATOM     58  C   UNL A   1      40.848  32.515  33.033  1.00  0.00     0.074 A 
ATOM     59  C   UNL A   1      39.926  33.631  33.122  1.00  0.00     0.031 C 
ATOM     60  C   UNL A   1      41.943  32.368  33.819  1.00  0.00     0.031 A 
BRANCH  47  61
ATOM     61  C   UNL A   1      45.252  27.231  32.767  1.00  0.00    -0.014 A 
ATOM     62  C   UNL A   1      45.058  26.099  33.580  1.00  0.00     0.010 A 
ATOM     63  C   UNL A   1      46.552  27.540  32.326  1.00  0.00     0.010 A 
ATOM     64  C   UNL A   1      46.147  25.331  33.999  1.00  0.00     0.020 A 
ATOM     65  C   UNL A   1      47.642  26.756  32.720  1.00  0.00     0.020 A 
ATOM     66  C   UNL A   1      47.435  25.673  33.575  1.00  0.00     0.054 A 
BRANCH  66  67
ATOM     67  S   UNL A   1      48.834  24.669  34.146  1.00  0.00     0.124 S 
ATOM     68  O   UNL A   1      49.555  25.617  34.993  1.00  0.00    -0.237 OA
ATOM     69  O   UNL A   1      48.178  23.571  34.852  1.00  0.00    -0.237 OA
ATOM     70  O   UNL A   1      49.515  24.292  32.911  1.00  0.00    -0.744 OA
ENDBRANCH  66  67
ENDBRANCH  47  61
BRANCH  48  71
ATOM     71  C   UNL A   1      37.102  32.520  30.163  1.00  0.00    -0.014 A 
ATOM     72  C   UNL A   1      35.938  32.337  30.930  1.00  0.00     0.010 A 
ATOM     73  C   UNL A   1      37.082  33.448  29.106  1.00  0.00     0.010 A 
ATOM     74  C   UNL A   1      34.776  33.060  30.642  1.00  0.00     0.020 A 
ATOM     75  C   UNL A   1      35.930  34.191  28.829  1.00  0.00     0.020 A 
ATOM     76  C   UNL A   1      34.780  33.986  29.596  1.00  0.00     0.054 A 
BRANCH  76  77
ATOM     77  S   UNL A   1      33.283  34.967  29.288  1.00  0.00     0.124 S 
ATOM     78  O   UNL A   1      32.676  35.018  30.614  1.00  0.00    -0.237 OA
ATOM     79  O   UNL A   1      33.828  36.228  28.792  1.00  0.00    -0.237 OA
ATOM     80  O   UNL A   1      32.557  34.178  28.295  1.00  0.00    -0.744 OA
ENDBRANCH  76  77
ENDBRANCH  48  71
BRANCH  60  81
ATOM     81  C   UNL A   1      42.198  33.444  34.834  1.00  0.00    -0.014 A 
ATOM     82  C   UNL A   1      42.891  34.614  34.480  1.00  0.00     0.010 A 
ATOM     83  C   UNL A   1      41.678  33.312  36.134  1.00  0.00     0.010 A 
ATOM     84  C   UNL A   1      43.075  35.631  35.417  1.00  0.00     0.020 A 
ATOM     85  C   UNL A   1      41.841  34.336  37.066  1.00  0.00     0.020 A 
ATOM     86  C   UNL A   1      42.548  35.486  36.704  1.00  0.00     0.054 A 
BRANCH  86  87
ATOM     87  S   UNL A   1      42.743  36.848  37.886  1.00  0.00     0.124 S 
ATOM     88  O   UNL A   1      43.516  36.215  38.950  1.00  0.00    -0.237 OA
ATOM     89  O   UNL A   1      43.457  37.853  37.102  1.00  0.00    -0.237 OA
ATOM     90  O   UNL A   1      41.370  37.200  38.235  1.00  0.00    -0.744 OA
ENDBRANCH  86  87
ENDBRANCH  60  81
ENDBRANCH  34  35
ENDBRANCH  26  29
ENDBRANCH  24  25
ENDBRANCH  23  24
ENDBRANCH   1  23
TORSDOF 17
ENDMDL
MODEL 3
REMARK VINA RESULT:     -10.9      4.727     10.589
REMARK SMILES O=C(CCc1cccnc1)Nc1ccsc1C(=O)NCCCNC(=O)c1ccc(-c2c3nc(c(-c4ccc(S(=O)(=O)[O-])cc4)c4ccc([nH]4)c(-c4ccc(S(=O)(=O)[O-])cc4)c4nc(c(-c5ccc(S(=O)(=O)[O-])cc5)c5ccc2[nH]5)C=C4)C=C3)cc1
REMARK SMILES IDX 20 1 19 2 17 3 18 4 16 6 12 7 13 8 14 9 15 10 11 11 1 12
REMARK SMILES IDX 2 13 3 15 4 16 5 17 6 18 10 19 7 20 9 21 8 22 21 23 22 24
REMARK SMILES IDX 23 25 24 26 25 28 26 29 27 30 85 31 28 32 84 33 29 34 30 35
REMARK SMILES IDX 31 36 78 37 32 38 83 39 77 40 79 41 33 42 82 43 76 44 75 45
REMARK SMILES IDX 34 47 64 48 45 49 63 50 46 51 49 52 62 53 80 54 47 55 48 56
REMARK SMILES IDX 61 58 81 59 50 60 35 61 36 62 44 63 37 64 43 65 38 66 39 67
REMARK SMILES IDX 40 68 41 69 42 70 65 71 66 72 74 73 67 74 73 75 68 76 69 77
REMARK SMILES IDX 70 78 71 79 72 80 51 81 52 82 60 83 53 84 59 85 54 86 55 87
REMARK SMILES IDX 56 88 57 89 58 90
REMARK H PARENT 19 5 11 14 23 27 79 46 49 57
REMARK Flexibility Score: inf
ROOT
ATOM      1  C   UNL A   1      31.989  29.864  25.942  1.00  0.00     0.118 C 
ENDROOT
BRANCH   1   2
ATOM      2  N   UNL A   1      32.632  29.663  24.661  1.00  0.00    -0.351 N 
ATOM      3  C   UNL A   1      32.126  29.041  23.526  1.00  0.00     0.263 C 
ATOM      4  O   UNL A   1      32.880  29.009  22.551  1.00  0.00    -0.268 OA
ATOM      5  H   UNL A   1      33.550  30.011  24.583  1.00  0.00     0.163 HD
BRANCH   3   6
ATOM      6  C   UNL A   1      30.794  28.446  23.529  1.00  0.00     0.115 A 
ATOM      7  C   UNL A   1      30.349  27.149  23.754  1.00  0.00     0.065 A 
ATOM      8  C   UNL A   1      28.953  27.009  23.487  1.00  0.00     0.038 A 
ATOM      9  C   UNL A   1      28.348  28.214  23.219  1.00  0.00     0.068 A 
ATOM     10  S   UNL A   1      29.469  29.499  23.204  1.00  0.00    -0.137 S 
BRANCH   7  11
ATOM     11  N   UNL A   1      31.183  26.144  24.221  1.00  0.00    -0.325 N 
ATOM     12  O   UNL A   1      31.095  26.575  26.482  1.00  0.00    -0.275 OA
ATOM     13  C   UNL A   1      31.521  25.917  25.535  1.00  0.00     0.224 C 
ATOM     14  H   UNL A   1      31.570  25.536  23.550  1.00  0.00     0.169 HD
BRANCH  13  15
ATOM     15  C   UNL A   1      32.504  24.771  25.782  1.00  0.00     0.105 C 
BRANCH  15  16
ATOM     16  C   UNL A   1      33.771  24.675  24.922  1.00  0.00     0.047 C 
BRANCH  16  17
ATOM     17  C   UNL A   1      34.618  23.444  25.140  1.00  0.00    -0.029 A 
ATOM     18  C   UNL A   1      34.220  22.172  24.711  1.00  0.00     0.007 A 
ATOM     19  C   UNL A   1      35.846  23.519  25.782  1.00  0.00     0.114 A 
ATOM     20  C   UNL A   1      35.020  21.059  24.928  1.00  0.00     0.020 A 
ATOM     21  N   UNL A   1      36.661  22.458  25.993  1.00  0.00    -0.264 NA
ATOM     22  C   UNL A   1      36.224  21.253  25.571  1.00  0.00     0.111 A 
ENDBRANCH  16  17
ENDBRANCH  15  16
ENDBRANCH  13  15
ENDBRANCH   7  11
ENDBRANCH   3   6
ENDBRANCH   1   2
BRANCH   1  23
ATOM     23  C   UNL A   1      32.874  29.801  27.180  1.00  0.00     0.042 C 
BRANCH  23  24
ATOM     24  C   UNL A   1      34.026  30.796  27.352  1.00  0.00     0.118 C 
BRANCH  24  25
ATOM     25  N   UNL A   1      34.231  31.395  28.665  1.00  0.00    -0.352 N 
ATOM     26  C   UNL A   1      35.257  31.378  29.591  1.00  0.00     0.251 C 
ATOM     27  H   UNL A   1      33.463  31.935  28.959  1.00  0.00     0.163 HD
ATOM     28  O   UNL A   1      35.155  32.071  30.588  1.00  0.00    -0.269 OA
BRANCH  26  29
ATOM     29  C   UNL A   1      36.422  30.482  29.440  1.00  0.00     0.039 A 
ATOM     30  C   UNL A   1      37.052  30.417  28.189  1.00  0.00     0.014 A 
ATOM     31  C   UNL A   1      36.940  29.773  30.515  1.00  0.00     0.014 A 
ATOM     32  C   UNL A   1      38.305  29.817  28.078  1.00  0.00     0.010 A 
ATOM     33  C   UNL A   1      38.234  29.287  30.439  1.00  0.00     0.010 A 
ATOM     34  C   UNL A   1      38.945  29.351  29.232  1.00  0.00    -0.014 A 
BRANCH  34  35
ATOM     35  C   UNL A   1      40.385  29.009  29.254  1.00  0.00     0.031 A 
ATOM     36  C   UNL A   1      41.394  30.091  29.496  1.00  0.00     0.074 A 
ATOM     37  C   UNL A   1      40.762  27.773  28.867  1.00  0.00     0.049 A 
ATOM     38  N   UNL A   1      42.685  30.072  29.304  1.00  0.00    -0.248 NA
ATOM     39  C   UNL A   1      40.867  31.386  29.961  1.00  0.00     0.031 C 
ATOM     40  C   UNL A   1      39.854  26.667  28.539  1.00  0.00     0.029 A 
ATOM     41  N   UNL A   1      42.008  27.243  28.649  1.00  0.00    -0.354 N 
ATOM     42  C   UNL A   1      43.119  31.365  29.573  1.00  0.00     0.074 A 
ATOM     43  C   UNL A   1      41.949  32.147  29.905  1.00  0.00     0.031 C 
ATOM     44  C   UNL A   1      40.571  25.593  28.178  1.00  0.00     0.029 A 
ATOM     45  C   UNL A   1      41.984  25.943  28.197  1.00  0.00     0.049 A 
ATOM     46  H   UNL A   1      42.841  27.745  28.802  1.00  0.00     0.167 HD
ATOM     47  C   UNL A   1      44.383  31.847  29.550  1.00  0.00     0.031 A 
ATOM     48  C   UNL A   1      42.991  25.133  27.818  1.00  0.00     0.031 A 
ATOM     49  C   UNL A   1      45.531  31.036  29.249  1.00  0.00     0.049 A 
ATOM     50  C   UNL A   1      44.391  25.672  27.861  1.00  0.00     0.074 A 
ATOM     51  C   UNL A   1      46.868  31.388  29.276  1.00  0.00     0.029 A 
ATOM     52  N   UNL A   1      45.472  29.700  28.874  1.00  0.00    -0.354 N 
ATOM     53  N   UNL A   1      44.794  26.882  28.179  1.00  0.00    -0.248 NA
ATOM     54  C   UNL A   1      45.472  24.747  27.501  1.00  0.00     0.031 C 
ATOM     55  C   UNL A   1      47.616  30.270  28.887  1.00  0.00     0.029 A 
ATOM     56  C   UNL A   1      46.747  29.213  28.655  1.00  0.00     0.049 A 
ATOM     57  H   UNL A   1      44.644  29.177  28.780  1.00  0.00     0.167 HD
ATOM     58  C   UNL A   1      46.176  26.861  28.064  1.00  0.00     0.074 A 
ATOM     59  C   UNL A   1      46.541  25.513  27.670  1.00  0.00     0.031 C 
ATOM     60  C   UNL A   1      47.067  27.865  28.258  1.00  0.00     0.031 A 
BRANCH  47  61
ATOM     61  C   UNL A   1      44.567  33.310  29.850  1.00  0.00    -0.014 A 
ATOM     62  C   UNL A   1      44.553  34.272  28.822  1.00  0.00     0.010 A 
ATOM     63  C   UNL A   1      44.779  33.732  31.176  1.00  0.00     0.010 A 
ATOM     64  C   UNL A   1      44.813  35.615  29.103  1.00  0.00     0.020 A 
ATOM     65  C   UNL A   1      45.011  35.081  31.465  1.00  0.00     0.020 A 
ATOM     66  C   UNL A   1      45.052  36.009  30.423  1.00  0.00     0.054 A 
BRANCH  66  67
ATOM     67  S   UNL A   1      45.404  37.757  30.759  1.00  0.00     0.124 S 
ATOM     68  O   UNL A   1      46.154  38.145  29.567  1.00  0.00    -0.237 OA
ATOM     69  O   UNL A   1      44.069  38.338  30.878  1.00  0.00    -0.237 OA
ATOM     70  O   UNL A   1      46.177  37.721  31.998  1.00  0.00    -0.744 OA
ENDBRANCH  66  67
ENDBRANCH  47  61
BRANCH  48  71
ATOM     71  C   UNL A   1      42.704  23.739  27.385  1.00  0.00    -0.014 A 
ATOM     72  C   UNL A   1      42.814  23.382  26.030  1.00  0.00     0.010 A 
ATOM     73  C   UNL A   1      42.368  22.747  28.326  1.00  0.00     0.010 A 
ATOM     74  C   UNL A   1      42.587  22.064  25.621  1.00  0.00     0.020 A 
ATOM     75  C   UNL A   1      42.162  21.422  27.925  1.00  0.00     0.020 A 
ATOM     76  C   UNL A   1      42.266  21.091  26.572  1.00  0.00     0.054 A 
BRANCH  76  77
ATOM     77  S   UNL A   1      42.048  19.372  26.026  1.00  0.00     0.124 S 
ATOM     78  O   UNL A   1      40.616  19.322  25.749  1.00  0.00    -0.237 OA
ATOM     79  O   UNL A   1      42.922  19.298  24.859  1.00  0.00    -0.237 OA
ATOM     80  O   UNL A   1      42.492  18.590  27.177  1.00  0.00    -0.744 OA
ENDBRANCH  76  77
ENDBRANCH  48  71
BRANCH  60  81
ATOM     81  C   UNL A   1      48.516  27.535  28.050  1.00  0.00    -0.014 A 
ATOM     82  C   UNL A   1      49.335  27.189  29.138  1.00  0.00     0.010 A 
ATOM     83  C   UNL A   1      49.043  27.503  26.747  1.00  0.00     0.010 A 
ATOM     84  C   UNL A   1      50.667  26.831  28.927  1.00  0.00     0.020 A 
ATOM     85  C   UNL A   1      50.368  27.125  26.531  1.00  0.00     0.020 A 
ATOM     86  C   UNL A   1      51.175  26.801  27.624  1.00  0.00     0.054 A 
BRANCH  86  87
ATOM     87  S   UNL A   1      52.891  26.271  27.369  1.00  0.00     0.124 S 
ATOM     88  O   UNL A   1      53.420  27.352  26.544  1.00  0.00    -0.237 OA
ATOM     89  O   UNL A   1      53.412  26.205  28.732  1.00  0.00    -0.237 OA
ATOM     90  O   UNL A   1      52.756  24.981  26.697  1.00  0.00    -0.744 OA
ENDBRANCH  86  87
ENDBRANCH  60  81
ENDBRANCH  34  35
ENDBRANCH  26  29
ENDBRANCH  24  25
ENDBRANCH  23  24
ENDBRANCH   1  23
TORSDOF 17
ENDMDL
