MODEL 1
REMARK VINA RESULT:     -12.3      0.000      0.000
REMARK SMILES C[C@H](C(=O)NCCCNC(=O)c1ccc(-c2c3nc(c(-c4ccc(S(=O)(=O)[O-])cc4)c4ccc([nH]4)c(-c4ccc(S(=O)(=O)[O-])cc4)c4nc(c(-c5ccc(S(=O)(=O)[O-])cc5)c5ccc2[nH]5)C=C4)C=C3)cc1)c1ccc2c3cc(Cl)ccc3n(C(=O)c3cocn3)c2c1
REMARK SMILES IDX 7 1 6 2 5 3 3 4 4 5 2 7 1 8 72 9 73 10 92 11 74 12 91 13
REMARK SMILES IDX 75 14 83 15 76 16 82 17 77 18 81 19 78 20 80 21 79 22 84 23
REMARK SMILES IDX 85 24 86 25 87 26 90 27 88 28 89 29 8 30 9 31 10 32 11 34
REMARK SMILES IDX 12 35 13 36 71 37 14 38 70 39 15 40 16 41 17 42 64 43 18 44
REMARK SMILES IDX 69 45 63 46 65 47 19 48 68 49 62 50 61 51 20 53 50 54 31 55
REMARK SMILES IDX 49 56 32 57 35 58 48 59 66 60 33 61 34 62 47 64 67 65 36 66
REMARK SMILES IDX 21 67 22 68 30 69 23 70 29 71 24 72 25 73 26 74 27 75 28 76
REMARK SMILES IDX 51 77 52 78 60 79 53 80 59 81 54 82 55 83 56 84 57 85 58 86
REMARK SMILES IDX 37 87 38 88 46 89 39 90 45 91 40 92 41 93 42 94 43 95 44 96
REMARK H PARENT 5 6 9 33 65 52 35 63
REMARK Flexibility Score: inf
ROOT
ATOM      1  C   UNL A   1      33.824  28.345  25.755  1.00  0.00     0.042 C 
ENDROOT
BRANCH   1   2
ATOM      2  C   UNL A   1      32.542  28.598  24.967  1.00  0.00     0.117 C 
BRANCH   2   3
ATOM      3  N   UNL A   1      32.317  27.609  23.926  1.00  0.00    -0.356 N 
ATOM      4  C   UNL A   1      31.906  26.308  24.027  1.00  0.00     0.227 C 
ATOM      5  O   UNL A   1      31.762  25.669  22.982  1.00  0.00    -0.274 OA
ATOM      6  H   UNL A   1      32.486  27.924  23.009  1.00  0.00     0.163 HD
BRANCH   4   7
ATOM      7  C   UNL A   1      31.649  25.691  25.408  1.00  0.00     0.105 C 
ATOM      8  C   UNL A   1      30.221  25.979  25.880  1.00  0.00     0.023 C 
BRANCH   7   9
ATOM      9  C   UNL A   1      31.962  24.200  25.400  1.00  0.00    -0.034 A 
ATOM     10  C   UNL A   1      30.962  23.240  25.551  1.00  0.00     0.005 A 
ATOM     11  C   UNL A   1      33.280  23.782  25.155  1.00  0.00     0.032 A 
ATOM     12  C   UNL A   1      31.254  21.877  25.426  1.00  0.00     0.011 A 
ATOM     13  C   UNL A   1      33.570  22.412  24.980  1.00  0.00     0.058 A 
ATOM     14  C   UNL A   1      32.566  21.458  25.116  1.00  0.00     0.008 A 
ATOM     15  N   UNL A   1      34.758  21.755  24.595  1.00  0.00    -0.274 N 
ATOM     16  C   UNL A   1      33.160  20.182  24.921  1.00  0.00     0.009 A 
ATOM     17  C   UNL A   1      34.530  20.372  24.686  1.00  0.00     0.057 A 
ATOM     18  C   UNL A   1      32.631  18.874  24.971  1.00  0.00     0.031 A 
ATOM     19  C   UNL A   1      35.392  19.257  24.616  1.00  0.00     0.029 A 
ATOM     20  C   UNL A   1      33.483  17.780  24.837  1.00  0.00     0.041 A 
ATOM     21  C   UNL A   1      34.848  17.966  24.677  1.00  0.00     0.023 A 
ATOM     22  Cl  UNL A   1      32.830  16.190  24.918  1.00  0.00    -0.084 Cl
BRANCH  15  23
ATOM     23  C   UNL A   1      35.948  22.435  24.192  1.00  0.00     0.284 C 
ATOM     24  O   UNL A   1      35.952  22.868  23.032  1.00  0.00    -0.266 OA
BRANCH  23  25
ATOM     25  C   UNL A   1      37.156  22.623  24.985  1.00  0.00     0.167 A 
ATOM     26  C   UNL A   1      37.560  23.707  25.735  1.00  0.00     0.231 A 
ATOM     27  N   UNL A   1      38.046  21.577  25.214  1.00  0.00    -0.211 NA
ATOM     28  O   UNL A   1      38.697  23.366  26.407  1.00  0.00    -0.451 OA
ATOM     29  C   UNL A   1      38.926  22.078  26.046  1.00  0.00     0.308 A 
ENDBRANCH  23  25
ENDBRANCH  15  23
ENDBRANCH   7   9
ENDBRANCH   4   7
ENDBRANCH   2   3
ENDBRANCH   1   2
BRANCH   1  30
ATOM     30  C   UNL A   1      33.686  28.557  27.259  1.00  0.00     0.118 C 
BRANCH  30  31
ATOM     31  N   UNL A   1      33.663  29.965  27.635  1.00  0.00    -0.352 N 
ATOM     32  C   UNL A   1      34.624  30.728  28.256  1.00  0.00     0.251 C 
ATOM     33  H   UNL A   1      32.832  30.444  27.409  1.00  0.00     0.163 HD
ATOM     34  O   UNL A   1      34.356  31.865  28.624  1.00  0.00    -0.269 OA
BRANCH  32  35
ATOM     35  C   UNL A   1      35.971  30.167  28.502  1.00  0.00     0.039 A 
ATOM     36  C   UNL A   1      36.902  30.152  27.459  1.00  0.00     0.014 A 
ATOM     37  C   UNL A   1      36.312  29.654  29.755  1.00  0.00     0.014 A 
ATOM     38  C   UNL A   1      38.202  29.696  27.694  1.00  0.00     0.010 A 
ATOM     39  C   UNL A   1      37.624  29.264  30.006  1.00  0.00     0.010 A 
ATOM     40  C   UNL A   1      38.584  29.286  28.980  1.00  0.00    -0.014 A 
BRANCH  40  41
ATOM     41  C   UNL A   1      39.976  28.881  29.301  1.00  0.00     0.031 A 
ATOM     42  C   UNL A   1      40.946  29.897  29.833  1.00  0.00     0.074 A 
ATOM     43  C   UNL A   1      40.401  27.641  28.992  1.00  0.00     0.049 A 
ATOM     44  N   UNL A   1      42.240  29.801  29.994  1.00  0.00    -0.248 NA
ATOM     45  C   UNL A   1      40.387  31.208  30.201  1.00  0.00     0.031 C 
ATOM     46  C   UNL A   1      39.567  26.571  28.441  1.00  0.00     0.029 A 
ATOM     47  N   UNL A   1      41.653  27.082  29.066  1.00  0.00    -0.354 N 
ATOM     48  C   UNL A   1      42.657  31.048  30.446  1.00  0.00     0.074 A 
ATOM     49  C   UNL A   1      41.482  31.891  30.499  1.00  0.00     0.031 C 
ATOM     50  C   UNL A   1      40.332  25.491  28.216  1.00  0.00     0.029 A 
ATOM     51  C   UNL A   1      41.716  25.805  28.561  1.00  0.00     0.049 A 
ATOM     52  H   UNL A   1      42.432  27.551  29.443  1.00  0.00     0.167 HD
ATOM     53  C   UNL A   1      43.903  31.451  30.791  1.00  0.00     0.031 A 
ATOM     54  C   UNL A   1      42.768  24.987  28.364  1.00  0.00     0.031 A 
ATOM     55  C   UNL A   1      45.066  30.607  30.740  1.00  0.00     0.049 A 
ATOM     56  C   UNL A   1      44.145  25.448  28.752  1.00  0.00     0.074 A 
ATOM     57  C   UNL A   1      46.364  30.903  31.119  1.00  0.00     0.029 A 
ATOM     58  N   UNL A   1      45.075  29.300  30.271  1.00  0.00    -0.354 N 
ATOM     59  N   UNL A   1      44.514  26.611  29.232  1.00  0.00    -0.248 NA
ATOM     60  C   UNL A   1      45.243  24.486  28.583  1.00  0.00     0.031 C 
ATOM     61  C   UNL A   1      47.164  29.791  30.837  1.00  0.00     0.029 A 
ATOM     62  C   UNL A   1      46.356  28.783  30.335  1.00  0.00     0.049 A 
ATOM     63  H   UNL A   1      44.285  28.813  29.943  1.00  0.00     0.167 HD
ATOM     64  C   UNL A   1      45.884  26.514  29.448  1.00  0.00     0.074 A 
ATOM     65  C   UNL A   1      46.277  25.177  29.049  1.00  0.00     0.031 C 
ATOM     66  C   UNL A   1      46.734  27.448  29.940  1.00  0.00     0.031 A 
BRANCH  53  67
ATOM     67  C   UNL A   1      44.065  32.885  31.224  1.00  0.00    -0.014 A 
ATOM     68  C   UNL A   1      44.301  33.909  30.286  1.00  0.00     0.010 A 
ATOM     69  C   UNL A   1      43.995  33.214  32.590  1.00  0.00     0.010 A 
ATOM     70  C   UNL A   1      44.537  35.217  30.713  1.00  0.00     0.020 A 
ATOM     71  C   UNL A   1      44.197  34.528  33.019  1.00  0.00     0.020 A 
ATOM     72  C   UNL A   1      44.498  35.516  32.079  1.00  0.00     0.054 A 
BRANCH  72  73
ATOM     73  S   UNL A   1      44.843  37.215  32.610  1.00  0.00     0.124 S 
ATOM     74  O   UNL A   1      43.619  37.907  32.212  1.00  0.00    -0.237 OA
ATOM     75  O   UNL A   1      45.041  37.069  34.050  1.00  0.00    -0.237 OA
ATOM     76  O   UNL A   1      46.039  37.579  31.854  1.00  0.00    -0.744 OA
ENDBRANCH  72  73
ENDBRANCH  53  67
BRANCH  54  77
ATOM     77  C   UNL A   1      42.538  23.647  27.760  1.00  0.00    -0.014 A 
ATOM     78  C   UNL A   1      42.730  23.441  26.384  1.00  0.00     0.010 A 
ATOM     79  C   UNL A   1      42.208  22.551  28.580  1.00  0.00     0.010 A 
ATOM     80  C   UNL A   1      42.614  22.158  25.839  1.00  0.00     0.020 A 
ATOM     81  C   UNL A   1      42.112  21.265  28.042  1.00  0.00     0.020 A 
ATOM     82  C   UNL A   1      42.319  21.076  26.675  1.00  0.00     0.054 A 
BRANCH  82  83
ATOM     83  S   UNL A   1      42.298  19.402  25.974  1.00  0.00     0.124 S 
ATOM     84  O   UNL A   1      43.244  19.521  24.871  1.00  0.00    -0.237 OA
ATOM     85  O   UNL A   1      42.739  18.583  27.102  1.00  0.00    -0.237 OA
ATOM     86  O   UNL A   1      40.900  19.213  25.591  1.00  0.00    -0.744 OA
ENDBRANCH  82  83
ENDBRANCH  54  77
BRANCH  66  87
ATOM     87  C   UNL A   1      48.177  27.060  30.122  1.00  0.00    -0.014 A 
ATOM     88  C   UNL A   1      49.128  27.292  29.114  1.00  0.00     0.010 A 
ATOM     89  C   UNL A   1      48.602  26.558  31.366  1.00  0.00     0.010 A 
ATOM     90  C   UNL A   1      50.481  27.028  29.347  1.00  0.00     0.020 A 
ATOM     91  C   UNL A   1      49.955  26.314  31.611  1.00  0.00     0.020 A 
ATOM     92  C   UNL A   1      50.887  26.548  30.597  1.00  0.00     0.054 A 
BRANCH  92  93
ATOM     93  S   UNL A   1      52.657  26.301  30.907  1.00  0.00     0.124 S 
ATOM     94  O   UNL A   1      52.663  25.053  31.664  1.00  0.00    -0.237 OA
ATOM     95  O   UNL A   1      53.211  26.220  29.558  1.00  0.00    -0.237 OA
ATOM     96  O   UNL A   1      53.047  27.490  31.662  1.00  0.00    -0.744 OA
ENDBRANCH  92  93
ENDBRANCH  66  87
ENDBRANCH  40  41
ENDBRANCH  32  35
ENDBRANCH  30  31
ENDBRANCH   1  30
TORSDOF 16
ENDMDL
MODEL 2
REMARK VINA RESULT:     -12.0      3.115      9.686
REMARK SMILES C[C@H](C(=O)NCCCNC(=O)c1ccc(-c2c3nc(c(-c4ccc(S(=O)(=O)[O-])cc4)c4ccc([nH]4)c(-c4ccc(S(=O)(=O)[O-])cc4)c4nc(c(-c5ccc(S(=O)(=O)[O-])cc5)c5ccc2[nH]5)C=C4)C=C3)cc1)c1ccc2c3cc(Cl)ccc3n(C(=O)c3cocn3)c2c1
REMARK SMILES IDX 7 1 6 2 5 3 3 4 4 5 2 7 1 8 72 9 73 10 92 11 74 12 91 13
REMARK SMILES IDX 75 14 83 15 76 16 82 17 77 18 81 19 78 20 80 21 79 22 84 23
REMARK SMILES IDX 85 24 86 25 87 26 90 27 88 28 89 29 8 30 9 31 10 32 11 34
REMARK SMILES IDX 12 35 13 36 71 37 14 38 70 39 15 40 16 41 17 42 64 43 18 44
REMARK SMILES IDX 69 45 63 46 65 47 19 48 68 49 62 50 61 51 20 53 50 54 31 55
REMARK SMILES IDX 49 56 32 57 35 58 48 59 66 60 33 61 34 62 47 64 67 65 36 66
REMARK SMILES IDX 21 67 22 68 30 69 23 70 29 71 24 72 25 73 26 74 27 75 28 76
REMARK SMILES IDX 51 77 52 78 60 79 53 80 59 81 54 82 55 83 56 84 57 85 58 86
REMARK SMILES IDX 37 87 38 88 46 89 39 90 45 91 40 92 41 93 42 94 43 95 44 96
REMARK H PARENT 5 6 9 33 65 52 35 63
REMARK Flexibility Score: inf
ROOT
ATOM      1  C   UNL A   1      35.381  22.963  26.388  1.00  0.00     0.042 C 
ENDROOT
BRANCH   1   2
ATOM      2  C   UNL A   1      34.655  21.829  25.669  1.00  0.00     0.117 C 
BRANCH   2   3
ATOM      3  N   UNL A   1      33.234  22.088  25.502  1.00  0.00    -0.356 N 
ATOM      4  C   UNL A   1      32.592  22.925  24.633  1.00  0.00     0.227 C 
ATOM      5  O   UNL A   1      31.359  22.953  24.666  1.00  0.00    -0.274 OA
ATOM      6  H   UNL A   1      32.645  21.582  26.107  1.00  0.00     0.163 HD
BRANCH   4   7
ATOM      7  C   UNL A   1      33.405  23.797  23.667  1.00  0.00     0.105 C 
ATOM      8  C   UNL A   1      33.781  23.013  22.407  1.00  0.00     0.023 C 
BRANCH   7   9
ATOM      9  C   UNL A   1      32.659  25.085  23.341  1.00  0.00    -0.034 A 
ATOM     10  C   UNL A   1      31.992  25.260  22.129  1.00  0.00     0.005 A 
ATOM     11  C   UNL A   1      32.574  26.088  24.320  1.00  0.00     0.032 A 
ATOM     12  C   UNL A   1      31.218  26.402  21.898  1.00  0.00     0.011 A 
ATOM     13  C   UNL A   1      31.756  27.219  24.110  1.00  0.00     0.058 A 
ATOM     14  C   UNL A   1      31.080  27.382  22.905  1.00  0.00     0.008 A 
ATOM     15  N   UNL A   1      31.395  28.278  24.969  1.00  0.00    -0.274 N 
ATOM     16  C   UNL A   1      30.376  28.615  22.974  1.00  0.00     0.009 A 
ATOM     17  C   UNL A   1      30.648  29.201  24.219  1.00  0.00     0.057 A 
ATOM     18  C   UNL A   1      29.559  29.292  22.042  1.00  0.00     0.031 A 
ATOM     19  C   UNL A   1      30.200  30.511  24.491  1.00  0.00     0.029 A 
ATOM     20  C   UNL A   1      29.071  30.561  22.347  1.00  0.00     0.041 A 
ATOM     21  C   UNL A   1      29.398  31.170  23.548  1.00  0.00     0.023 A 
ATOM     22  Cl  UNL A   1      28.090  31.384  21.197  1.00  0.00    -0.084 Cl
BRANCH  15  23
ATOM     23  C   UNL A   1      31.756  28.341  26.349  1.00  0.00     0.284 C 
ATOM     24  O   UNL A   1      31.091  27.627  27.111  1.00  0.00    -0.266 OA
BRANCH  23  25
ATOM     25  C   UNL A   1      32.785  29.185  26.945  1.00  0.00     0.167 A 
ATOM     26  C   UNL A   1      34.120  28.924  27.171  1.00  0.00     0.231 A 
ATOM     27  N   UNL A   1      32.544  30.525  27.241  1.00  0.00    -0.211 NA
ATOM     28  O   UNL A   1      34.710  30.067  27.626  1.00  0.00    -0.451 OA
ATOM     29  C   UNL A   1      33.706  30.980  27.642  1.00  0.00     0.308 A 
ENDBRANCH  23  25
ENDBRANCH  15  23
ENDBRANCH   7   9
ENDBRANCH   4   7
ENDBRANCH   2   3
ENDBRANCH   1   2
BRANCH   1  30
ATOM     30  C   UNL A   1      36.679  23.398  25.717  1.00  0.00     0.118 C 
BRANCH  30  31
ATOM     31  N   UNL A   1      37.791  22.496  25.992  1.00  0.00    -0.352 N 
ATOM     32  C   UNL A   1      39.044  22.767  26.490  1.00  0.00     0.251 C 
ATOM     33  H   UNL A   1      37.619  21.548  25.789  1.00  0.00     0.163 HD
ATOM     34  O   UNL A   1      39.896  21.887  26.508  1.00  0.00    -0.269 OA
BRANCH  32  35
ATOM     35  C   UNL A   1      39.369  24.125  26.980  1.00  0.00     0.039 A 
ATOM     36  C   UNL A   1      39.018  24.478  28.287  1.00  0.00     0.014 A 
ATOM     37  C   UNL A   1      40.015  25.046  26.154  1.00  0.00     0.014 A 
ATOM     38  C   UNL A   1      39.385  25.729  28.792  1.00  0.00     0.010 A 
ATOM     39  C   UNL A   1      40.438  26.263  26.677  1.00  0.00     0.010 A 
ATOM     40  C   UNL A   1      40.133  26.616  28.003  1.00  0.00    -0.014 A 
BRANCH  40  41
ATOM     41  C   UNL A   1      40.625  27.916  28.524  1.00  0.00     0.031 A 
ATOM     42  C   UNL A   1      42.018  28.021  29.075  1.00  0.00     0.074 A 
ATOM     43  C   UNL A   1      39.781  28.961  28.621  1.00  0.00     0.049 A 
ATOM     44  N   UNL A   1      42.572  28.998  29.745  1.00  0.00    -0.248 NA
ATOM     45  C   UNL A   1      42.893  26.855  28.874  1.00  0.00     0.031 C 
ATOM     46  C   UNL A   1      38.394  28.979  28.151  1.00  0.00     0.029 A 
ATOM     47  N   UNL A   1      39.958  30.203  29.181  1.00  0.00    -0.354 N 
ATOM     48  C   UNL A   1      43.846  28.553  30.078  1.00  0.00     0.074 A 
ATOM     49  C   UNL A   1      43.967  27.204  29.566  1.00  0.00     0.031 C 
ATOM     50  C   UNL A   1      37.844  30.165  28.453  1.00  0.00     0.029 A 
ATOM     51  C   UNL A   1      38.821  30.974  29.178  1.00  0.00     0.049 A 
ATOM     52  H   UNL A   1      40.817  30.510  29.551  1.00  0.00     0.167 HD
ATOM     53  C   UNL A   1      44.826  29.208  30.744  1.00  0.00     0.031 A 
ATOM     54  C   UNL A   1      38.574  32.182  29.723  1.00  0.00     0.031 A 
ATOM     55  C   UNL A   1      44.700  30.549  31.248  1.00  0.00     0.049 A 
ATOM     56  C   UNL A   1      39.671  32.897  30.459  1.00  0.00     0.074 A 
ATOM     57  C   UNL A   1      45.652  31.323  31.887  1.00  0.00     0.029 A 
ATOM     58  N   UNL A   1      43.544  31.316  31.175  1.00  0.00    -0.354 N 
ATOM     59  N   UNL A   1      40.890  32.485  30.716  1.00  0.00    -0.248 NA
ATOM     60  C   UNL A   1      39.368  34.242  30.968  1.00  0.00     0.031 C 
ATOM     61  C   UNL A   1      45.059  32.539  32.242  1.00  0.00     0.029 A 
ATOM     62  C   UNL A   1      43.754  32.545  31.774  1.00  0.00     0.049 A 
ATOM     63  H   UNL A   1      42.701  31.027  30.758  1.00  0.00     0.167 HD
ATOM     64  C   UNL A   1      41.508  33.529  31.394  1.00  0.00     0.074 A 
ATOM     65  C   UNL A   1      40.530  34.593  31.505  1.00  0.00     0.031 C 
ATOM     66  C   UNL A   1      42.774  33.599  31.873  1.00  0.00     0.031 A 
BRANCH  53  67
ATOM     67  C   UNL A   1      46.109  28.459  30.989  1.00  0.00    -0.014 A 
ATOM     68  C   UNL A   1      47.128  28.416  30.018  1.00  0.00     0.010 A 
ATOM     69  C   UNL A   1      46.296  27.773  32.204  1.00  0.00     0.010 A 
ATOM     70  C   UNL A   1      48.272  27.644  30.227  1.00  0.00     0.020 A 
ATOM     71  C   UNL A   1      47.455  27.026  32.430  1.00  0.00     0.020 A 
ATOM     72  C   UNL A   1      48.422  26.941  31.426  1.00  0.00     0.054 A 
BRANCH  72  73
ATOM     73  S   UNL A   1      49.900  25.916  31.658  1.00  0.00     0.124 S 
ATOM     74  O   UNL A   1      49.463  24.995  32.704  1.00  0.00    -0.237 OA
ATOM     75  O   UNL A   1      50.090  25.321  30.338  1.00  0.00    -0.237 OA
ATOM     76  O   UNL A   1      50.927  26.875  32.060  1.00  0.00    -0.744 OA
ENDBRANCH  72  73
ENDBRANCH  53  67
BRANCH  54  77
ATOM     77  C   UNL A   1      37.215  32.772  29.586  1.00  0.00    -0.014 A 
ATOM     78  C   UNL A   1      36.353  32.844  30.693  1.00  0.00     0.010 A 
ATOM     79  C   UNL A   1      36.814  33.343  28.364  1.00  0.00     0.010 A 
ATOM     80  C   UNL A   1      35.119  33.493  30.585  1.00  0.00     0.020 A 
ATOM     81  C   UNL A   1      35.592  34.010  28.259  1.00  0.00     0.020 A 
ATOM     82  C   UNL A   1      34.753  34.084  29.372  1.00  0.00     0.054 A 
BRANCH  82  83
ATOM     83  S   UNL A   1      33.207  35.032  29.284  1.00  0.00     0.124 S 
ATOM     84  O   UNL A   1      33.682  36.353  28.889  1.00  0.00    -0.237 OA
ATOM     85  O   UNL A   1      32.446  34.302  28.273  1.00  0.00    -0.237 OA
ATOM     86  O   UNL A   1      32.673  34.933  30.642  1.00  0.00    -0.744 OA
ENDBRANCH  82  83
ENDBRANCH  54  77
BRANCH  66  87
ATOM     87  C   UNL A   1      43.209  34.881  32.530  1.00  0.00    -0.014 A 
ATOM     88  C   UNL A   1      43.760  35.935  31.781  1.00  0.00     0.010 A 
ATOM     89  C   UNL A   1      42.957  35.071  33.902  1.00  0.00     0.010 A 
ATOM     90  C   UNL A   1      44.052  37.157  32.393  1.00  0.00     0.020 A 
ATOM     91  C   UNL A   1      43.228  36.298  34.513  1.00  0.00     0.020 A 
ATOM     92  C   UNL A   1      43.777  37.333  33.754  1.00  0.00     0.054 A 
BRANCH  92  93
ATOM     93  S   UNL A   1      44.077  38.957  34.505  1.00  0.00     0.124 S 
ATOM     94  O   UNL A   1      44.013  38.650  35.930  1.00  0.00    -0.237 OA
ATOM     95  O   UNL A   1      45.401  39.306  33.996  1.00  0.00    -0.237 OA
ATOM     96  O   UNL A   1      42.984  39.783  33.995  1.00  0.00    -0.744 OA
ENDBRANCH  92  93
ENDBRANCH  66  87
ENDBRANCH  40  41
ENDBRANCH  32  35
ENDBRANCH  30  31
ENDBRANCH   1  30
TORSDOF 16
ENDMDL
MODEL 3
REMARK VINA RESULT:     -11.3      3.121      9.408
REMARK SMILES C[C@H](C(=O)NCCCNC(=O)c1ccc(-c2c3nc(c(-c4ccc(S(=O)(=O)[O-])cc4)c4ccc([nH]4)c(-c4ccc(S(=O)(=O)[O-])cc4)c4nc(c(-c5ccc(S(=O)(=O)[O-])cc5)c5ccc2[nH]5)C=C4)C=C3)cc1)c1ccc2c3cc(Cl)ccc3n(C(=O)c3cocn3)c2c1
REMARK SMILES IDX 7 1 6 2 5 3 3 4 4 5 2 7 1 8 72 9 73 10 92 11 74 12 91 13
REMARK SMILES IDX 75 14 83 15 76 16 82 17 77 18 81 19 78 20 80 21 79 22 84 23
REMARK SMILES IDX 85 24 86 25 87 26 90 27 88 28 89 29 8 30 9 31 10 32 11 34
REMARK SMILES IDX 12 35 13 36 71 37 14 38 70 39 15 40 16 41 17 42 64 43 18 44
REMARK SMILES IDX 69 45 63 46 65 47 19 48 68 49 62 50 61 51 20 53 50 54 31 55
REMARK SMILES IDX 49 56 32 57 35 58 48 59 66 60 33 61 34 62 47 64 67 65 36 66
REMARK SMILES IDX 21 67 22 68 30 69 23 70 29 71 24 72 25 73 26 74 27 75 28 76
REMARK SMILES IDX 51 77 52 78 60 79 53 80 59 81 54 82 55 83 56 84 57 85 58 86
REMARK SMILES IDX 37 87 38 88 46 89 39 90 45 91 40 92 41 93 42 94 43 95 44 96
REMARK H PARENT 5 6 9 33 65 52 35 63
REMARK Flexibility Score: inf
ROOT
ATOM      1  C   UNL A   1      35.825  23.740  26.125  1.00  0.00     0.042 C 
ENDROOT
BRANCH   1   2
ATOM      2  C   UNL A   1      35.176  22.501  26.735  1.00  0.00     0.117 C 
BRANCH   2   3
ATOM      3  N   UNL A   1      33.907  22.792  27.382  1.00  0.00    -0.356 N 
ATOM      4  C   UNL A   1      32.654  22.905  26.845  1.00  0.00     0.227 C 
ATOM      5  O   UNL A   1      31.718  23.136  27.614  1.00  0.00    -0.274 OA
ATOM      6  H   UNL A   1      33.957  22.928  28.356  1.00  0.00     0.163 HD
BRANCH   4   7
ATOM      7  C   UNL A   1      32.454  22.753  25.331  1.00  0.00     0.105 C 
ATOM      8  C   UNL A   1      31.601  21.521  25.013  1.00  0.00     0.023 C 
BRANCH   7   9
ATOM      9  C   UNL A   1      31.869  24.026  24.733  1.00  0.00    -0.034 A 
ATOM     10  C   UNL A   1      31.019  23.994  23.628  1.00  0.00     0.005 A 
ATOM     11  C   UNL A   1      32.131  25.255  25.360  1.00  0.00     0.032 A 
ATOM     12  C   UNL A   1      30.403  25.163  23.166  1.00  0.00     0.011 A 
ATOM     13  C   UNL A   1      31.474  26.427  24.928  1.00  0.00     0.058 A 
ATOM     14  C   UNL A   1      30.614  26.389  23.835  1.00  0.00     0.008 A 
ATOM     15  N   UNL A   1      31.454  27.733  25.463  1.00  0.00    -0.274 N 
ATOM     16  C   UNL A   1      30.138  27.710  23.619  1.00  0.00     0.009 A 
ATOM     17  C   UNL A   1      30.730  28.547  24.576  1.00  0.00     0.057 A 
ATOM     18  C   UNL A   1      29.274  28.258  22.646  1.00  0.00     0.031 A 
ATOM     19  C   UNL A   1      30.554  29.944  24.493  1.00  0.00     0.029 A 
ATOM     20  C   UNL A   1      29.057  29.633  22.612  1.00  0.00     0.041 A 
ATOM     21  C   UNL A   1      29.699  30.469  23.513  1.00  0.00     0.023 A 
ATOM     22  Cl  UNL A   1      28.016  30.292  21.411  1.00  0.00    -0.084 Cl
BRANCH  15  23
ATOM     23  C   UNL A   1      32.078  28.097  26.695  1.00  0.00     0.284 C 
ATOM     24  O   UNL A   1      31.609  27.566  27.711  1.00  0.00    -0.266 OA
BRANCH  23  25
ATOM     25  C   UNL A   1      33.164  29.052  26.875  1.00  0.00     0.167 A 
ATOM     26  C   UNL A   1      33.118  30.421  27.033  1.00  0.00     0.231 A 
ATOM     27  N   UNL A   1      34.477  28.631  27.076  1.00  0.00    -0.211 NA
ATOM     28  O   UNL A   1      34.380  30.865  27.303  1.00  0.00    -0.451 OA
ATOM     29  C   UNL A   1      35.137  29.738  27.312  1.00  0.00     0.308 A 
ENDBRANCH  23  25
ENDBRANCH  15  23
ENDBRANCH   7   9
ENDBRANCH   4   7
ENDBRANCH   2   3
ENDBRANCH   1   2
BRANCH   1  30
ATOM     30  C   UNL A   1      37.037  23.444  25.249  1.00  0.00     0.118 C 
BRANCH  30  31
ATOM     31  N   UNL A   1      37.957  22.489  25.856  1.00  0.00    -0.352 N 
ATOM     32  C   UNL A   1      39.122  22.709  26.553  1.00  0.00     0.251 C 
ATOM     33  H   UNL A   1      37.706  21.543  25.750  1.00  0.00     0.163 HD
ATOM     34  O   UNL A   1      39.839  21.762  26.856  1.00  0.00    -0.269 OA
BRANCH  32  35
ATOM     35  C   UNL A   1      39.523  24.087  26.913  1.00  0.00     0.039 A 
ATOM     36  C   UNL A   1      39.300  24.540  28.217  1.00  0.00     0.014 A 
ATOM     37  C   UNL A   1      40.111  24.930  25.968  1.00  0.00     0.014 A 
ATOM     38  C   UNL A   1      39.740  25.812  28.596  1.00  0.00     0.010 A 
ATOM     39  C   UNL A   1      40.608  26.168  26.363  1.00  0.00     0.010 A 
ATOM     40  C   UNL A   1      40.433  26.620  27.682  1.00  0.00    -0.014 A 
BRANCH  40  41
ATOM     41  C   UNL A   1      41.001  27.938  28.062  1.00  0.00     0.031 A 
ATOM     42  C   UNL A   1      42.488  28.146  28.040  1.00  0.00     0.074 A 
ATOM     43  C   UNL A   1      40.193  28.899  28.550  1.00  0.00     0.049 A 
ATOM     44  N   UNL A   1      43.192  29.142  28.512  1.00  0.00    -0.248 NA
ATOM     45  C   UNL A   1      43.292  27.070  27.437  1.00  0.00     0.031 C 
ATOM     46  C   UNL A   1      38.735  28.811  28.653  1.00  0.00     0.029 A 
ATOM     47  N   UNL A   1      40.491  30.129  29.084  1.00  0.00    -0.354 N 
ATOM     48  C   UNL A   1      44.522  28.799  28.296  1.00  0.00     0.074 A 
ATOM     49  C   UNL A   1      44.524  27.487  27.684  1.00  0.00     0.031 C 
ATOM     50  C   UNL A   1      38.268  29.931  29.226  1.00  0.00     0.029 A 
ATOM     51  C   UNL A   1      39.393  30.795  29.573  1.00  0.00     0.049 A 
ATOM     52  H   UNL A   1      41.403  30.498  29.115  1.00  0.00     0.167 HD
ATOM     53  C   UNL A   1      45.638  29.514  28.577  1.00  0.00     0.031 A 
ATOM     54  C   UNL A   1      39.298  31.955  30.254  1.00  0.00     0.031 A 
ATOM     55  C   UNL A   1      45.628  30.818  29.183  1.00  0.00     0.049 A 
ATOM     56  C   UNL A   1      40.544  32.737  30.558  1.00  0.00     0.074 A 
ATOM     57  C   UNL A   1      46.700  31.648  29.458  1.00  0.00     0.029 A 
ATOM     58  N   UNL A   1      44.487  31.480  29.615  1.00  0.00    -0.354 N 
ATOM     59  N   UNL A   1      41.791  32.425  30.296  1.00  0.00    -0.248 NA
ATOM     60  C   UNL A   1      40.373  34.028  31.238  1.00  0.00     0.031 C 
ATOM     61  C   UNL A   1      46.211  32.792  30.098  1.00  0.00     0.029 A 
ATOM     62  C   UNL A   1      44.830  32.700  30.170  1.00  0.00     0.049 A 
ATOM     63  H   UNL A   1      43.569  31.134  29.536  1.00  0.00     0.167 HD
ATOM     64  C   UNL A   1      42.553  33.494  30.755  1.00  0.00     0.074 A 
ATOM     65  C   UNL A   1      41.626  34.461  31.308  1.00  0.00     0.031 C 
ATOM     66  C   UNL A   1      43.898  33.658  30.713  1.00  0.00     0.031 A 
BRANCH  53  67
ATOM     67  C   UNL A   1      46.962  28.872  28.256  1.00  0.00    -0.014 A 
ATOM     68  C   UNL A   1      47.651  28.100  29.211  1.00  0.00     0.010 A 
ATOM     69  C   UNL A   1      47.536  29.055  26.984  1.00  0.00     0.010 A 
ATOM     70  C   UNL A   1      48.918  27.587  28.925  1.00  0.00     0.020 A 
ATOM     71  C   UNL A   1      48.789  28.516  26.683  1.00  0.00     0.020 A 
ATOM     72  C   UNL A   1      49.486  27.811  27.667  1.00  0.00     0.054 A 
BRANCH  72  73
ATOM     73  S   UNL A   1      51.147  27.166  27.332  1.00  0.00     0.124 S 
ATOM     74  O   UNL A   1      51.446  27.768  26.036  1.00  0.00    -0.237 OA
ATOM     75  O   UNL A   1      51.925  27.680  28.457  1.00  0.00    -0.237 OA
ATOM     76  O   UNL A   1      50.960  25.717  27.319  1.00  0.00    -0.744 OA
ENDBRANCH  72  73
ENDBRANCH  53  67
BRANCH  54  77
ATOM     77  C   UNL A   1      37.957  32.427  30.693  1.00  0.00    -0.014 A 
ATOM     78  C   UNL A   1      37.460  32.087  31.962  1.00  0.00     0.010 A 
ATOM     79  C   UNL A   1      37.209  33.291  29.871  1.00  0.00     0.010 A 
ATOM     80  C   UNL A   1      36.246  32.618  32.411  1.00  0.00     0.020 A 
ATOM     81  C   UNL A   1      36.008  33.840  30.324  1.00  0.00     0.020 A 
ATOM     82  C   UNL A   1      35.535  33.502  31.594  1.00  0.00     0.054 A 
BRANCH  82  83
ATOM     83  S   UNL A   1      34.028  34.281  32.240  1.00  0.00     0.124 S 
ATOM     84  O   UNL A   1      33.288  34.575  31.018  1.00  0.00    -0.237 OA
ATOM     85  O   UNL A   1      33.466  33.229  33.085  1.00  0.00    -0.237 OA
ATOM     86  O   UNL A   1      34.535  35.443  32.968  1.00  0.00    -0.744 OA
ENDBRANCH  82  83
ENDBRANCH  54  77
BRANCH  66  87
ATOM     87  C   UNL A   1      44.466  34.948  31.239  1.00  0.00    -0.014 A 
ATOM     88  C   UNL A   1      44.577  36.085  30.421  1.00  0.00     0.010 A 
ATOM     89  C   UNL A   1      44.792  35.050  32.605  1.00  0.00     0.010 A 
ATOM     90  C   UNL A   1      45.002  37.302  30.960  1.00  0.00     0.020 A 
ATOM     91  C   UNL A   1      45.197  36.269  33.152  1.00  0.00     0.020 A 
ATOM     92  C   UNL A   1      45.302  37.388  32.324  1.00  0.00     0.054 A 
BRANCH  92  93
ATOM     93  S   UNL A   1      45.762  39.000  33.019  1.00  0.00     0.124 S 
ATOM     94  O   UNL A   1      46.530  38.614  34.199  1.00  0.00    -0.237 OA
ATOM     95  O   UNL A   1      46.534  39.607  31.937  1.00  0.00    -0.237 OA
ATOM     96  O   UNL A   1      44.477  39.640  33.293  1.00  0.00    -0.744 OA
ENDBRANCH  92  93
ENDBRANCH  66  87
ENDBRANCH  40  41
ENDBRANCH  32  35
ENDBRANCH  30  31
ENDBRANCH   1  30
TORSDOF 16
ENDMDL
