MODEL 1
REMARK VINA RESULT:     -11.3      0.000      0.000
REMARK SMILES Nc1ccc(C(=O)NC[C@@H]2CC[C@@H](C(=O)NCCCNC(=O)c3ccc(-c4c5nc(c(-c6ccc(S(=O)(=O)[O-])cc6)c6ccc([nH]6)c(-c6ccc(S(=O)(=O)[O-])cc6)c6nc(c(-c7ccc(S(=O)(=O)[O-])cc7)c7ccc4[nH]7)C=C6)C=C5)cc3)O2)cc1Cl
REMARK SMILES IDX 17 1 16 2 14 3 15 4 13 6 10 7 11 8 83 9 12 10 9 11 8 12 6 13
REMARK SMILES IDX 7 14 5 16 2 17 3 18 85 19 4 20 84 21 86 22 1 23 18 26 19 27
REMARK SMILES IDX 20 28 21 29 22 31 23 32 24 33 82 34 25 35 81 36 26 37 27 38
REMARK SMILES IDX 28 39 75 40 29 41 80 42 74 43 76 44 30 45 79 46 73 47 72 48
REMARK SMILES IDX 31 50 61 51 42 52 60 53 43 54 46 55 59 56 77 57 44 58 45 59
REMARK SMILES IDX 58 61 78 62 47 63 32 64 33 65 41 66 34 67 40 68 35 69 36 70
REMARK SMILES IDX 37 71 38 72 39 73 62 74 63 75 71 76 64 77 70 78 65 79 66 80
REMARK SMILES IDX 67 81 68 82 69 83 48 84 49 85 57 86 50 87 56 88 51 89 52 90
REMARK SMILES IDX 53 91 54 92 55 93
REMARK H PARENT 16 5 8 15 1 24 1 25 20 30 76 49 46 60
REMARK Flexibility Score: inf
ROOT
ATOM      1  C   UNL A   1      31.544  27.964  25.740  1.00  0.00     0.117 C 
ENDROOT
BRANCH   1   2
ATOM      2  N   UNL A   1      32.363  28.705  24.798  1.00  0.00    -0.354 N 
ATOM      3  C   UNL A   1      33.033  28.268  23.692  1.00  0.00     0.249 C 
ATOM      4  O   UNL A   1      33.646  29.110  23.030  1.00  0.00    -0.272 OA
ATOM      5  H   UNL A   1      32.448  29.668  24.986  1.00  0.00     0.163 HD
BRANCH   3   6
ATOM      6  C   UNL A   1      33.066  26.766  23.348  1.00  0.00     0.207 C 
ATOM      7  C   UNL A   1      31.271  25.329  22.907  1.00  0.00     0.138 C 
ATOM      8  C   UNL A   1      32.243  25.217  21.748  1.00  0.00     0.037 C 
ATOM      9  O   UNL A   1      32.002  26.003  23.942  1.00  0.00    -0.363 OA
ATOM     10  C   UNL A   1      32.970  26.535  21.841  1.00  0.00     0.045 C 
BRANCH   7  11
ATOM     11  C   UNL A   1      30.652  24.024  23.439  1.00  0.00     0.148 C 
BRANCH  11  12
ATOM     12  N   UNL A   1      30.388  24.015  24.868  1.00  0.00    -0.349 N 
ATOM     13  C   UNL A   1      31.053  23.620  25.994  1.00  0.00     0.251 C 
ATOM     14  O   UNL A   1      30.412  23.746  27.043  1.00  0.00    -0.269 OA
ATOM     15  H   UNL A   1      29.502  24.388  25.079  1.00  0.00     0.163 HD
BRANCH  13  16
ATOM     16  C   UNL A   1      32.443  23.080  26.067  1.00  0.00     0.041 A 
ATOM     17  C   UNL A   1      34.984  21.787  26.140  1.00  0.00     0.050 A 
ATOM     18  C   UNL A   1      34.813  23.083  26.634  1.00  0.00     0.028 A 
ATOM     19  C   UNL A   1      33.876  21.166  25.549  1.00  0.00     0.064 A 
ATOM     20  C   UNL A   1      33.559  23.722  26.602  1.00  0.00     0.016 A 
ATOM     21  C   UNL A   1      32.628  21.794  25.527  1.00  0.00     0.036 A 
ATOM     22  Cl  UNL A   1      34.010  19.592  24.846  1.00  0.00    -0.082 Cl
BRANCH  17  23
ATOM     23  N   UNL A   1      36.251  21.218  26.121  1.00  0.00    -0.398 N 
ATOM     24  H   UNL A   1      36.932  21.510  26.770  1.00  0.00     0.156 HD
ATOM     25  H   UNL A   1      36.468  20.523  25.458  1.00  0.00     0.156 HD
ENDBRANCH  17  23
ENDBRANCH  13  16
ENDBRANCH  11  12
ENDBRANCH   7  11
ENDBRANCH   3   6
ENDBRANCH   1   2
BRANCH   1  26
ATOM     26  C   UNL A   1      31.968  28.184  27.186  1.00  0.00     0.042 C 
BRANCH  26  27
ATOM     27  C   UNL A   1      33.399  28.679  27.362  1.00  0.00     0.118 C 
BRANCH  27  28
ATOM     28  N   UNL A   1      33.479  30.097  27.684  1.00  0.00    -0.352 N 
ATOM     29  C   UNL A   1      34.503  30.833  28.238  1.00  0.00     0.251 C 
ATOM     30  H   UNL A   1      32.669  30.615  27.471  1.00  0.00     0.163 HD
ATOM     31  O   UNL A   1      34.301  31.993  28.570  1.00  0.00    -0.269 OA
BRANCH  29  32
ATOM     32  C   UNL A   1      35.831  30.216  28.466  1.00  0.00     0.039 A 
ATOM     33  C   UNL A   1      36.751  30.194  27.414  1.00  0.00     0.014 A 
ATOM     34  C   UNL A   1      36.173  29.666  29.704  1.00  0.00     0.014 A 
ATOM     35  C   UNL A   1      38.046  29.717  27.633  1.00  0.00     0.010 A 
ATOM     36  C   UNL A   1      37.485  29.262  29.943  1.00  0.00     0.010 A 
ATOM     37  C   UNL A   1      38.441  29.301  28.916  1.00  0.00    -0.014 A 
BRANCH  37  38
ATOM     38  C   UNL A   1      39.856  28.965  29.221  1.00  0.00     0.031 A 
ATOM     39  C   UNL A   1      40.785  30.001  29.790  1.00  0.00     0.074 A 
ATOM     40  C   UNL A   1      40.326  27.743  28.899  1.00  0.00     0.049 A 
ATOM     41  N   UNL A   1      42.070  29.915  30.023  1.00  0.00    -0.248 NA
ATOM     42  C   UNL A   1      40.200  31.310  30.120  1.00  0.00     0.031 C 
ATOM     43  C   UNL A   1      39.537  26.659  28.307  1.00  0.00     0.029 A 
ATOM     44  N   UNL A   1      41.588  27.211  29.005  1.00  0.00    -0.354 N 
ATOM     45  C   UNL A   1      42.452  31.158  30.511  1.00  0.00     0.074 A 
ATOM     46  C   UNL A   1      41.269  31.994  30.504  1.00  0.00     0.031 C 
ATOM     47  C   UNL A   1      40.326  25.590  28.120  1.00  0.00     0.029 A 
ATOM     48  C   UNL A   1      41.686  25.924  28.527  1.00  0.00     0.049 A 
ATOM     49  H   UNL A   1      42.350  27.704  29.386  1.00  0.00     0.167 HD
ATOM     50  C   UNL A   1      43.672  31.563  30.939  1.00  0.00     0.031 A 
ATOM     51  C   UNL A   1      42.753  25.110  28.406  1.00  0.00     0.031 A 
ATOM     52  C   UNL A   1      44.845  30.730  30.945  1.00  0.00     0.049 A 
ATOM     53  C   UNL A   1      44.104  25.596  28.853  1.00  0.00     0.074 A 
ATOM     54  C   UNL A   1      46.112  31.034  31.415  1.00  0.00     0.029 A 
ATOM     55  N   UNL A   1      44.903  29.436  30.451  1.00  0.00    -0.354 N 
ATOM     56  N   UNL A   1      44.429  26.753  29.379  1.00  0.00    -0.248 NA
ATOM     57  C   UNL A   1      45.230  24.666  28.692  1.00  0.00     0.031 C 
ATOM     58  C   UNL A   1      46.949  29.945  31.150  1.00  0.00     0.029 A 
ATOM     59  C   UNL A   1      46.192  28.941  30.569  1.00  0.00     0.049 A 
ATOM     60  H   UNL A   1      44.141  28.943  30.070  1.00  0.00     0.167 HD
ATOM     61  C   UNL A   1      45.795  26.684  29.625  1.00  0.00     0.074 A 
ATOM     62  C   UNL A   1      46.231  25.366  29.212  1.00  0.00     0.031 C 
ATOM     63  C   UNL A   1      46.616  27.631  30.144  1.00  0.00     0.031 A 
BRANCH  50  64
ATOM     64  C   UNL A   1      43.804  32.983  31.427  1.00  0.00    -0.014 A 
ATOM     65  C   UNL A   1      44.137  34.026  30.544  1.00  0.00     0.010 A 
ATOM     66  C   UNL A   1      43.543  33.285  32.775  1.00  0.00     0.010 A 
ATOM     67  C   UNL A   1      44.245  35.340  31.010  1.00  0.00     0.020 A 
ATOM     68  C   UNL A   1      43.623  34.602  33.240  1.00  0.00     0.020 A 
ATOM     69  C   UNL A   1      43.990  35.619  32.356  1.00  0.00     0.054 A 
BRANCH  69  70
ATOM     70  S   UNL A   1      44.114  37.336  32.926  1.00  0.00     0.124 S 
ATOM     71  O   UNL A   1      45.438  37.353  33.543  1.00  0.00    -0.237 OA
ATOM     72  O   UNL A   1      43.991  38.095  31.684  1.00  0.00    -0.237 OA
ATOM     73  O   UNL A   1      42.994  37.478  33.853  1.00  0.00    -0.744 OA
ENDBRANCH  69  70
ENDBRANCH  50  64
BRANCH  51  74
ATOM     74  C   UNL A   1      42.586  23.750  27.826  1.00  0.00    -0.014 A 
ATOM     75  C   UNL A   1      42.796  23.529  26.453  1.00  0.00     0.010 A 
ATOM     76  C   UNL A   1      42.232  22.664  28.648  1.00  0.00     0.010 A 
ATOM     77  C   UNL A   1      42.643  22.249  25.912  1.00  0.00     0.020 A 
ATOM     78  C   UNL A   1      42.107  21.379  28.115  1.00  0.00     0.020 A 
ATOM     79  C   UNL A   1      42.306  21.182  26.747  1.00  0.00     0.054 A 
BRANCH  79  80
ATOM     80  S   UNL A   1      42.182  19.517  26.036  1.00  0.00     0.124 S 
ATOM     81  O   UNL A   1      40.753  19.410  25.762  1.00  0.00    -0.237 OA
ATOM     82  O   UNL A   1      43.049  19.610  24.865  1.00  0.00    -0.237 OA
ATOM     83  O   UNL A   1      42.685  18.654  27.104  1.00  0.00    -0.744 OA
ENDBRANCH  79  80
ENDBRANCH  51  74
BRANCH  63  84
ATOM     84  C   UNL A   1      48.069  27.273  30.306  1.00  0.00    -0.014 A 
ATOM     85  C   UNL A   1      49.005  27.567  29.299  1.00  0.00     0.010 A 
ATOM     86  C   UNL A   1      48.514  26.688  31.506  1.00  0.00     0.010 A 
ATOM     87  C   UNL A   1      50.356  27.258  29.478  1.00  0.00     0.020 A 
ATOM     88  C   UNL A   1      49.868  26.403  31.700  1.00  0.00     0.020 A 
ATOM     89  C   UNL A   1      50.780  26.680  30.679  1.00  0.00     0.054 A 
BRANCH  89  90
ATOM     90  S   UNL A   1      52.546  26.339  30.907  1.00  0.00     0.124 S 
ATOM     91  O   UNL A   1      52.997  27.533  31.618  1.00  0.00    -0.237 OA
ATOM     92  O   UNL A   1      52.536  25.106  31.692  1.00  0.00    -0.237 OA
ATOM     93  O   UNL A   1      53.051  26.199  29.543  1.00  0.00    -0.744 OA
ENDBRANCH  89  90
ENDBRANCH  63  84
ENDBRANCH  37  38
ENDBRANCH  29  32
ENDBRANCH  27  28
ENDBRANCH  26  27
ENDBRANCH   1  26
TORSDOF 17
ENDMDL
MODEL 2
REMARK VINA RESULT:     -11.3      5.050      9.954
REMARK SMILES Nc1ccc(C(=O)NC[C@@H]2CC[C@@H](C(=O)NCCCNC(=O)c3ccc(-c4c5nc(c(-c6ccc(S(=O)(=O)[O-])cc6)c6ccc([nH]6)c(-c6ccc(S(=O)(=O)[O-])cc6)c6nc(c(-c7ccc(S(=O)(=O)[O-])cc7)c7ccc4[nH]7)C=C6)C=C5)cc3)O2)cc1Cl
REMARK SMILES IDX 17 1 16 2 14 3 15 4 13 6 10 7 11 8 83 9 12 10 9 11 8 12 6 13
REMARK SMILES IDX 7 14 5 16 2 17 3 18 85 19 4 20 84 21 86 22 1 23 18 26 19 27
REMARK SMILES IDX 20 28 21 29 22 31 23 32 24 33 82 34 25 35 81 36 26 37 27 38
REMARK SMILES IDX 28 39 75 40 29 41 80 42 74 43 76 44 30 45 79 46 73 47 72 48
REMARK SMILES IDX 31 50 61 51 42 52 60 53 43 54 46 55 59 56 77 57 44 58 45 59
REMARK SMILES IDX 58 61 78 62 47 63 32 64 33 65 41 66 34 67 40 68 35 69 36 70
REMARK SMILES IDX 37 71 38 72 39 73 62 74 63 75 71 76 64 77 70 78 65 79 66 80
REMARK SMILES IDX 67 81 68 82 69 83 48 84 49 85 57 86 50 87 56 88 51 89 52 90
REMARK SMILES IDX 53 91 54 92 55 93
REMARK H PARENT 16 5 8 15 1 24 1 25 20 30 76 49 46 60
REMARK Flexibility Score: inf
ROOT
ATOM      1  C   UNL A   1      37.782  22.424  25.648  1.00  0.00     0.117 C 
ENDROOT
BRANCH   1   2
ATOM      2  N   UNL A   1      37.418  22.657  24.262  1.00  0.00    -0.354 N 
ATOM      3  C   UNL A   1      36.186  22.827  23.700  1.00  0.00     0.249 C 
ATOM      4  O   UNL A   1      36.140  23.040  22.485  1.00  0.00    -0.272 OA
ATOM      5  H   UNL A   1      38.174  22.699  23.633  1.00  0.00     0.163 HD
BRANCH   3   6
ATOM      6  C   UNL A   1      34.915  22.681  24.559  1.00  0.00     0.207 C 
ATOM      7  C   UNL A   1      32.684  22.557  23.861  1.00  0.00     0.138 C 
ATOM      8  C   UNL A   1      32.953  21.357  24.749  1.00  0.00     0.037 C 
ATOM      9  O   UNL A   1      33.791  23.441  24.085  1.00  0.00    -0.363 OA
ATOM     10  C   UNL A   1      34.450  21.226  24.628  1.00  0.00     0.045 C 
BRANCH   7  11
ATOM     11  C   UNL A   1      31.348  23.296  24.056  1.00  0.00     0.148 C 
BRANCH  11  12
ATOM     12  N   UNL A   1      31.277  24.116  25.253  1.00  0.00    -0.349 N 
ATOM     13  C   UNL A   1      31.190  25.450  25.535  1.00  0.00     0.251 C 
ATOM     14  O   UNL A   1      31.212  25.726  26.739  1.00  0.00    -0.269 OA
ATOM     15  H   UNL A   1      31.297  23.571  26.072  1.00  0.00     0.163 HD
BRANCH  13  16
ATOM     16  C   UNL A   1      31.063  26.564  24.549  1.00  0.00     0.041 A 
ATOM     17  C   UNL A   1      31.094  28.769  22.740  1.00  0.00     0.050 A 
ATOM     18  C   UNL A   1      29.907  28.101  23.053  1.00  0.00     0.028 A 
ATOM     19  C   UNL A   1      32.281  28.279  23.300  1.00  0.00     0.064 A 
ATOM     20  C   UNL A   1      29.889  27.014  23.947  1.00  0.00     0.016 A 
ATOM     21  C   UNL A   1      32.264  27.209  24.198  1.00  0.00     0.036 A 
ATOM     22  Cl  UNL A   1      33.807  28.997  22.916  1.00  0.00    -0.082 Cl
BRANCH  17  23
ATOM     23  N   UNL A   1      31.084  29.788  21.798  1.00  0.00    -0.398 N 
ATOM     24  H   UNL A   1      30.433  29.769  21.058  1.00  0.00     0.156 HD
ATOM     25  H   UNL A   1      31.727  30.530  21.869  1.00  0.00     0.156 HD
ENDBRANCH  17  23
ENDBRANCH  13  16
ENDBRANCH  11  12
ENDBRANCH   7  11
ENDBRANCH   3   6
ENDBRANCH   1   2
BRANCH   1  26
ATOM     26  C   UNL A   1      38.069  23.714  26.404  1.00  0.00     0.042 C 
BRANCH  26  27
ATOM     27  C   UNL A   1      39.514  23.875  26.863  1.00  0.00     0.118 C 
BRANCH  27  28
ATOM     28  N   UNL A   1      40.308  24.707  25.970  1.00  0.00    -0.352 N 
ATOM     29  C   UNL A   1      40.864  25.952  26.165  1.00  0.00     0.251 C 
ATOM     30  H   UNL A   1      40.476  24.316  25.082  1.00  0.00     0.163 HD
ATOM     31  O   UNL A   1      41.367  26.542  25.218  1.00  0.00    -0.269 OA
BRANCH  29  32
ATOM     32  C   UNL A   1      40.822  26.592  27.500  1.00  0.00     0.039 A 
ATOM     33  C   UNL A   1      41.824  27.505  27.839  1.00  0.00     0.014 A 
ATOM     34  C   UNL A   1      39.805  26.302  28.413  1.00  0.00     0.014 A 
ATOM     35  C   UNL A   1      41.749  28.202  29.048  1.00  0.00     0.010 A 
ATOM     36  C   UNL A   1      39.689  27.051  29.582  1.00  0.00     0.010 A 
ATOM     37  C   UNL A   1      40.649  28.023  29.903  1.00  0.00    -0.014 A 
BRANCH  37  38
ATOM     38  C   UNL A   1      40.448  28.882  31.099  1.00  0.00     0.031 A 
ATOM     39  C   UNL A   1      39.410  29.970  31.097  1.00  0.00     0.074 A 
ATOM     40  C   UNL A   1      41.269  28.736  32.159  1.00  0.00     0.049 A 
ATOM     41  N   UNL A   1      39.166  30.875  32.010  1.00  0.00    -0.248 NA
ATOM     42  C   UNL A   1      38.549  30.066  29.908  1.00  0.00     0.031 C 
ATOM     43  C   UNL A   1      42.341  27.743  32.272  1.00  0.00     0.029 A 
ATOM     44  N   UNL A   1      41.344  29.436  33.338  1.00  0.00    -0.354 N 
ATOM     45  C   UNL A   1      38.136  31.658  31.503  1.00  0.00     0.074 A 
ATOM     46  C   UNL A   1      37.828  31.144  30.184  1.00  0.00     0.031 C 
ATOM     47  C   UNL A   1      42.953  27.886  33.457  1.00  0.00     0.029 A 
ATOM     48  C   UNL A   1      42.355  29.010  34.169  1.00  0.00     0.049 A 
ATOM     49  H   UNL A   1      40.734  30.173  33.567  1.00  0.00     0.167 HD
ATOM     50  C   UNL A   1      37.497  32.700  32.086  1.00  0.00     0.031 A 
ATOM     51  C   UNL A   1      42.773  29.484  35.360  1.00  0.00     0.031 A 
ATOM     52  C   UNL A   1      37.805  33.208  33.397  1.00  0.00     0.049 A 
ATOM     53  C   UNL A   1      42.072  30.665  35.969  1.00  0.00     0.074 A 
ATOM     54  C   UNL A   1      37.172  34.222  34.096  1.00  0.00     0.029 A 
ATOM     55  N   UNL A   1      38.836  32.752  34.203  1.00  0.00    -0.354 N 
ATOM     56  N   UNL A   1      41.053  31.347  35.503  1.00  0.00    -0.248 NA
ATOM     57  C   UNL A   1      42.576  31.140  37.265  1.00  0.00     0.031 C 
ATOM     58  C   UNL A   1      37.858  34.418  35.299  1.00  0.00     0.029 A 
ATOM     59  C   UNL A   1      38.882  33.488  35.376  1.00  0.00     0.049 A 
ATOM     60  H   UNL A   1      39.447  32.014  33.975  1.00  0.00     0.167 HD
ATOM     61  C   UNL A   1      40.784  32.322  36.456  1.00  0.00     0.074 A 
ATOM     62  C   UNL A   1      41.732  32.128  37.534  1.00  0.00     0.031 C 
ATOM     63  C   UNL A   1      39.838  33.293  36.437  1.00  0.00     0.031 A 
BRANCH  50  64
ATOM     64  C   UNL A   1      36.402  33.374  31.301  1.00  0.00    -0.014 A 
ATOM     65  C   UNL A   1      35.125  33.575  31.859  1.00  0.00     0.010 A 
ATOM     66  C   UNL A   1      36.666  33.860  30.008  1.00  0.00     0.010 A 
ATOM     67  C   UNL A   1      34.124  34.213  31.123  1.00  0.00     0.020 A 
ATOM     68  C   UNL A   1      35.674  34.523  29.279  1.00  0.00     0.020 A 
ATOM     69  C   UNL A   1      34.404  34.681  29.835  1.00  0.00     0.054 A 
BRANCH  69  70
ATOM     70  S   UNL A   1      33.090  35.526  28.913  1.00  0.00     0.124 S 
ATOM     71  O   UNL A   1      32.271  36.073  29.992  1.00  0.00    -0.237 OA
ATOM     72  O   UNL A   1      33.831  36.510  28.129  1.00  0.00    -0.237 OA
ATOM     73  O   UNL A   1      32.465  34.457  28.138  1.00  0.00    -0.744 OA
ENDBRANCH  69  70
ENDBRANCH  50  64
BRANCH  51  74
ATOM     74  C   UNL A   1      43.926  28.842  36.049  1.00  0.00    -0.014 A 
ATOM     75  C   UNL A   1      43.724  27.744  36.905  1.00  0.00     0.010 A 
ATOM     76  C   UNL A   1      45.234  29.314  35.837  1.00  0.00     0.010 A 
ATOM     77  C   UNL A   1      44.809  27.140  37.546  1.00  0.00     0.020 A 
ATOM     78  C   UNL A   1      46.324  28.693  36.454  1.00  0.00     0.020 A 
ATOM     79  C   UNL A   1      46.102  27.615  37.312  1.00  0.00     0.054 A 
BRANCH  79  80
ATOM     80  S   UNL A   1      47.502  26.771  38.099  1.00  0.00     0.124 S 
ATOM     81  O   UNL A   1      48.104  27.846  38.880  1.00  0.00    -0.237 OA
ATOM     82  O   UNL A   1      46.842  25.718  38.869  1.00  0.00    -0.237 OA
ATOM     83  O   UNL A   1      48.293  26.296  36.965  1.00  0.00    -0.744 OA
ENDBRANCH  79  80
ENDBRANCH  51  74
BRANCH  63  84
ATOM     84  C   UNL A   1      39.771  34.217  37.624  1.00  0.00    -0.014 A 
ATOM     85  C   UNL A   1      39.065  33.855  38.785  1.00  0.00     0.010 A 
ATOM     86  C   UNL A   1      40.472  35.437  37.600  1.00  0.00     0.010 A 
ATOM     87  C   UNL A   1      39.039  34.708  39.891  1.00  0.00     0.020 A 
ATOM     88  C   UNL A   1      40.471  36.280  38.714  1.00  0.00     0.020 A 
ATOM     89  C   UNL A   1      39.745  35.916  39.849  1.00  0.00     0.054 A 
BRANCH  89  90
ATOM     90  S   UNL A   1      39.739  36.980  41.317  1.00  0.00     0.124 S 
ATOM     91  O   UNL A   1      38.933  36.201  42.254  1.00  0.00    -0.237 OA
ATOM     92  O   UNL A   1      41.159  37.083  41.645  1.00  0.00    -0.237 OA
ATOM     93  O   UNL A   1      39.123  38.218  40.846  1.00  0.00    -0.744 OA
ENDBRANCH  89  90
ENDBRANCH  63  84
ENDBRANCH  37  38
ENDBRANCH  29  32
ENDBRANCH  27  28
ENDBRANCH  26  27
ENDBRANCH   1  26
TORSDOF 17
ENDMDL
MODEL 3
REMARK VINA RESULT:     -11.1      2.698      3.376
REMARK SMILES Nc1ccc(C(=O)NC[C@@H]2CC[C@@H](C(=O)NCCCNC(=O)c3ccc(-c4c5nc(c(-c6ccc(S(=O)(=O)[O-])cc6)c6ccc([nH]6)c(-c6ccc(S(=O)(=O)[O-])cc6)c6nc(c(-c7ccc(S(=O)(=O)[O-])cc7)c7ccc4[nH]7)C=C6)C=C5)cc3)O2)cc1Cl
REMARK SMILES IDX 17 1 16 2 14 3 15 4 13 6 10 7 11 8 83 9 12 10 9 11 8 12 6 13
REMARK SMILES IDX 7 14 5 16 2 17 3 18 85 19 4 20 84 21 86 22 1 23 18 26 19 27
REMARK SMILES IDX 20 28 21 29 22 31 23 32 24 33 82 34 25 35 81 36 26 37 27 38
REMARK SMILES IDX 28 39 75 40 29 41 80 42 74 43 76 44 30 45 79 46 73 47 72 48
REMARK SMILES IDX 31 50 61 51 42 52 60 53 43 54 46 55 59 56 77 57 44 58 45 59
REMARK SMILES IDX 58 61 78 62 47 63 32 64 33 65 41 66 34 67 40 68 35 69 36 70
REMARK SMILES IDX 37 71 38 72 39 73 62 74 63 75 71 76 64 77 70 78 65 79 66 80
REMARK SMILES IDX 67 81 68 82 69 83 48 84 49 85 57 86 50 87 56 88 51 89 52 90
REMARK SMILES IDX 53 91 54 92 55 93
REMARK H PARENT 16 5 8 15 1 24 1 25 20 30 76 49 46 60
REMARK Flexibility Score: inf
ROOT
ATOM      1  C   UNL A   1      32.846  29.308  27.238  1.00  0.00     0.117 C 
ENDROOT
BRANCH   1   2
ATOM      2  N   UNL A   1      31.848  29.559  26.214  1.00  0.00    -0.354 N 
ATOM      3  C   UNL A   1      31.835  29.193  24.899  1.00  0.00     0.249 C 
ATOM      4  O   UNL A   1      30.846  29.508  24.231  1.00  0.00    -0.272 OA
ATOM      5  H   UNL A   1      31.062  30.072  26.514  1.00  0.00     0.163 HD
BRANCH   3   6
ATOM      6  C   UNL A   1      33.053  28.479  24.282  1.00  0.00     0.207 C 
ATOM      7  C   UNL A   1      33.105  26.518  23.005  1.00  0.00     0.138 C 
ATOM      8  C   UNL A   1      33.829  27.595  22.219  1.00  0.00     0.037 C 
ATOM      9  O   UNL A   1      32.985  27.045  24.334  1.00  0.00    -0.363 OA
ATOM     10  C   UNL A   1      33.230  28.847  22.809  1.00  0.00     0.045 C 
BRANCH   7  11
ATOM     11  C   UNL A   1      33.739  25.115  23.031  1.00  0.00     0.148 C 
BRANCH  11  12
ATOM     12  N   UNL A   1      33.243  24.243  24.083  1.00  0.00    -0.349 N 
ATOM     13  C   UNL A   1      33.788  23.383  24.992  1.00  0.00     0.251 C 
ATOM     14  O   UNL A   1      32.965  22.779  25.689  1.00  0.00    -0.269 OA
ATOM     15  H   UNL A   1      32.263  24.283  24.159  1.00  0.00     0.163 HD
BRANCH  13  16
ATOM     16  C   UNL A   1      35.241  23.125  25.218  1.00  0.00     0.041 A 
ATOM     17  C   UNL A   1      37.952  22.346  25.639  1.00  0.00     0.050 A 
ATOM     18  C   UNL A   1      37.534  23.664  25.841  1.00  0.00     0.028 A 
ATOM     19  C   UNL A   1      37.005  21.430  25.163  1.00  0.00     0.064 A 
ATOM     20  C   UNL A   1      36.196  24.050  25.637  1.00  0.00     0.016 A 
ATOM     21  C   UNL A   1      35.674  21.808  24.971  1.00  0.00     0.036 A 
ATOM     22  Cl  UNL A   1      37.446  19.795  24.815  1.00  0.00    -0.082 Cl
BRANCH  17  23
ATOM     23  N   UNL A   1      39.295  22.019  25.779  1.00  0.00    -0.398 N 
ATOM     24  H   UNL A   1      39.857  21.894  24.980  1.00  0.00     0.156 HD
ATOM     25  H   UNL A   1      39.684  21.913  26.677  1.00  0.00     0.156 HD
ENDBRANCH  17  23
ENDBRANCH  13  16
ENDBRANCH  11  12
ENDBRANCH   7  11
ENDBRANCH   3   6
ENDBRANCH   1   2
BRANCH   1  26
ATOM     26  C   UNL A   1      33.934  30.373  27.271  1.00  0.00     0.042 C 
BRANCH  26  27
ATOM     27  C   UNL A   1      35.196  29.972  28.025  1.00  0.00     0.118 C 
BRANCH  27  28
ATOM     28  N   UNL A   1      35.374  30.700  29.274  1.00  0.00    -0.352 N 
ATOM     29  C   UNL A   1      36.444  30.747  30.138  1.00  0.00     0.251 C 
ATOM     30  H   UNL A   1      34.602  31.248  29.545  1.00  0.00     0.163 HD
ATOM     31  O   UNL A   1      36.322  31.305  31.220  1.00  0.00    -0.269 OA
BRANCH  29  32
ATOM     32  C   UNL A   1      37.725  30.094  29.782  1.00  0.00     0.039 A 
ATOM     33  C   UNL A   1      38.121  30.080  28.441  1.00  0.00     0.014 A 
ATOM     34  C   UNL A   1      38.535  29.502  30.754  1.00  0.00     0.014 A 
ATOM     35  C   UNL A   1      39.373  29.567  28.091  1.00  0.00     0.010 A 
ATOM     36  C   UNL A   1      39.813  29.061  30.417  1.00  0.00     0.010 A 
ATOM     37  C   UNL A   1      40.254  29.107  29.085  1.00  0.00    -0.014 A 
BRANCH  37  38
ATOM     38  C   UNL A   1      41.655  28.730  28.765  1.00  0.00     0.031 A 
ATOM     39  C   UNL A   1      42.737  29.773  28.713  1.00  0.00     0.074 A 
ATOM     40  C   UNL A   1      41.934  27.454  28.432  1.00  0.00     0.049 A 
ATOM     41  N   UNL A   1      43.989  29.642  28.355  1.00  0.00    -0.248 NA
ATOM     42  C   UNL A   1      42.359  31.144  29.092  1.00  0.00     0.031 C 
ATOM     43  C   UNL A   1      40.967  26.352  28.408  1.00  0.00     0.029 A 
ATOM     44  N   UNL A   1      43.110  26.867  28.031  1.00  0.00    -0.354 N 
ATOM     45  C   UNL A   1      44.545  30.912  28.449  1.00  0.00     0.074 A 
ATOM     46  C   UNL A   1      43.484  31.806  28.862  1.00  0.00     0.031 C 
ATOM     47  C   UNL A   1      41.590  25.225  28.031  1.00  0.00     0.029 A 
ATOM     48  C   UNL A   1      42.986  25.529  27.737  1.00  0.00     0.049 A 
ATOM     49  H   UNL A   1      43.959  27.358  27.961  1.00  0.00     0.167 HD
ATOM     50  C   UNL A   1      45.825  31.296  28.226  1.00  0.00     0.031 A 
ATOM     51  C   UNL A   1      43.887  24.646  27.261  1.00  0.00     0.031 A 
ATOM     52  C   UNL A   1      46.879  30.404  27.817  1.00  0.00     0.049 A 
ATOM     53  C   UNL A   1      45.292  25.105  26.986  1.00  0.00     0.074 A 
ATOM     54  C   UNL A   1      48.220  30.690  27.625  1.00  0.00     0.029 A 
ATOM     55  N   UNL A   1      46.712  29.059  27.527  1.00  0.00    -0.354 N 
ATOM     56  N   UNL A   1      45.815  26.297  27.150  1.00  0.00    -0.248 NA
ATOM     57  C   UNL A   1      46.227  24.100  26.462  1.00  0.00     0.031 C 
ATOM     58  C   UNL A   1      48.851  29.531  27.160  1.00  0.00     0.029 A 
ATOM     59  C   UNL A   1      47.917  28.509  27.120  1.00  0.00     0.049 A 
ATOM     60  H   UNL A   1      45.862  28.567  27.598  1.00  0.00     0.167 HD
ATOM     61  C   UNL A   1      47.145  26.181  26.764  1.00  0.00     0.074 A 
ATOM     62  C   UNL A   1      47.352  24.799  26.380  1.00  0.00     0.031 C 
ATOM     63  C   UNL A   1      48.108  27.135  26.729  1.00  0.00     0.031 A 
BRANCH  50  64
ATOM     64  C   UNL A   1      46.159  32.754  28.409  1.00  0.00    -0.014 A 
ATOM     65  C   UNL A   1      46.143  33.645  27.320  1.00  0.00     0.010 A 
ATOM     66  C   UNL A   1      46.442  33.250  29.694  1.00  0.00     0.010 A 
ATOM     67  C   UNL A   1      46.443  34.996  27.507  1.00  0.00     0.020 A 
ATOM     68  C   UNL A   1      46.716  34.607  29.890  1.00  0.00     0.020 A 
ATOM     69  C   UNL A   1      46.731  35.469  28.792  1.00  0.00     0.054 A 
BRANCH  69  70
ATOM     70  S   UNL A   1      47.093  37.234  29.008  1.00  0.00     0.124 S 
ATOM     71  O   UNL A   1      48.251  37.196  29.896  1.00  0.00    -0.237 OA
ATOM     72  O   UNL A   1      47.364  37.674  27.642  1.00  0.00    -0.237 OA
ATOM     73  O   UNL A   1      45.870  37.769  29.601  1.00  0.00    -0.744 OA
ENDBRANCH  69  70
ENDBRANCH  50  64
BRANCH  51  74
ATOM     74  C   UNL A   1      43.480  23.238  27.004  1.00  0.00    -0.014 A 
ATOM     75  C   UNL A   1      43.059  22.413  28.061  1.00  0.00     0.010 A 
ATOM     76  C   UNL A   1      43.495  22.721  25.695  1.00  0.00     0.010 A 
ATOM     77  C   UNL A   1      42.672  21.092  27.817  1.00  0.00     0.020 A 
ATOM     78  C   UNL A   1      43.080  21.411  25.443  1.00  0.00     0.020 A 
ATOM     79  C   UNL A   1      42.680  20.602  26.508  1.00  0.00     0.054 A 
BRANCH  79  80
ATOM     80  S   UNL A   1      42.106  18.908  26.203  1.00  0.00     0.124 S 
ATOM     81  O   UNL A   1      40.728  19.126  25.778  1.00  0.00    -0.237 OA
ATOM     82  O   UNL A   1      43.026  18.445  25.167  1.00  0.00    -0.237 OA
ATOM     83  O   UNL A   1      42.270  18.256  27.502  1.00  0.00    -0.744 OA
ENDBRANCH  79  80
ENDBRANCH  51  74
BRANCH  63  84
ATOM     84  C   UNL A   1      49.479  26.717  26.269  1.00  0.00    -0.014 A 
ATOM     85  C   UNL A   1      49.894  26.928  24.942  1.00  0.00     0.010 A 
ATOM     86  C   UNL A   1      50.385  26.161  27.191  1.00  0.00     0.010 A 
ATOM     87  C   UNL A   1      51.181  26.564  24.538  1.00  0.00     0.020 A 
ATOM     88  C   UNL A   1      51.682  25.822  26.798  1.00  0.00     0.020 A 
ATOM     89  C   UNL A   1      52.069  26.015  25.470  1.00  0.00     0.054 A 
BRANCH  89  90
ATOM     90  S   UNL A   1      53.751  25.602  24.933  1.00  0.00     0.124 S 
ATOM     91  O   UNL A   1      53.819  24.172  25.221  1.00  0.00    -0.237 OA
ATOM     92  O   UNL A   1      53.732  25.958  23.516  1.00  0.00    -0.237 OA
ATOM     93  O   UNL A   1      54.600  26.447  25.770  1.00  0.00    -0.744 OA
ENDBRANCH  89  90
ENDBRANCH  63  84
ENDBRANCH  37  38
ENDBRANCH  29  32
ENDBRANCH  27  28
ENDBRANCH  26  27
ENDBRANCH   1  26
TORSDOF 17
ENDMDL
