MODEL 1
REMARK VINA RESULT:     -10.7      0.000      0.000
REMARK SMILES N#Cc1ccc(C(=O)NC[C@H]2CC[C@H](C(=O)NCCCNC(=O)c3ccc(-c4c5nc(c(-c6ccc(S(=O)(=O)[O-])cc6)c6ccc([nH]6)c(-c6ccc(S(=O)(=O)[O-])cc6)c6nc(c(-c7ccc(S(=O)(=O)[O-])cc7)c7ccc4[nH]7)C=C6)C=C5)cc3)O2)cc1
REMARK SMILES IDX 18 1 17 2 15 3 16 4 14 6 11 7 12 8 84 9 13 10 10 11 9 12
REMARK SMILES IDX 7 13 8 14 6 16 3 17 4 18 86 19 5 20 85 21 2 22 1 23 19 24
REMARK SMILES IDX 20 25 21 26 22 27 23 29 24 30 25 31 83 32 26 33 82 34 27 35
REMARK SMILES IDX 28 36 29 37 76 38 30 39 81 40 75 41 77 42 31 43 80 44 74 45
REMARK SMILES IDX 73 46 32 48 62 49 43 50 61 51 44 52 47 53 60 54 78 55 45 56
REMARK SMILES IDX 46 57 59 59 79 60 48 61 33 62 34 63 42 64 35 65 41 66 36 67
REMARK SMILES IDX 37 68 38 69 39 70 40 71 63 72 64 73 72 74 65 75 71 76 66 77
REMARK SMILES IDX 67 78 68 79 69 80 70 81 49 82 50 83 58 84 51 85 57 86 52 87
REMARK SMILES IDX 53 88 54 89 55 90 56 91
REMARK H PARENT 17 5 9 15 21 28 77 47 47 58
REMARK Flexibility Score: inf
ROOT
ATOM      1  C   UNL A   1      34.791  22.639  24.316  1.00  0.00     0.117 C 
ENDROOT
BRANCH   1   2
ATOM      2  N   UNL A   1      34.437  22.755  22.919  1.00  0.00    -0.354 N 
ATOM      3  C   UNL A   1      33.547  23.588  22.309  1.00  0.00     0.249 C 
ATOM      4  O   UNL A   1      33.415  23.478  21.085  1.00  0.00    -0.272 OA
ATOM      5  H   UNL A   1      34.912  22.139  22.315  1.00  0.00     0.163 HD
BRANCH   3   6
ATOM      6  C   UNL A   1      32.701  24.603  23.106  1.00  0.00     0.207 C 
ATOM      7  C   UNL A   1      30.713  25.768  22.632  1.00  0.00     0.138 C 
ATOM      8  C   UNL A   1      31.871  26.649  22.180  1.00  0.00     0.037 C 
ATOM      9  O   UNL A   1      31.289  24.478  22.928  1.00  0.00    -0.363 OA
ATOM     10  C   UNL A   1      33.084  26.050  22.847  1.00  0.00     0.045 C 
BRANCH   7  11
ATOM     11  C   UNL A   1      29.894  26.233  23.853  1.00  0.00     0.148 C 
BRANCH  11  12
ATOM     12  N   UNL A   1      30.048  25.392  25.019  1.00  0.00    -0.349 N 
ATOM     13  C   UNL A   1      30.865  25.429  26.117  1.00  0.00     0.251 C 
ATOM     14  O   UNL A   1      30.790  24.460  26.874  1.00  0.00    -0.269 OA
ATOM     15  H   UNL A   1      29.429  24.624  25.025  1.00  0.00     0.163 HD
BRANCH  13  16
ATOM     16  C   UNL A   1      31.791  26.553  26.472  1.00  0.00     0.039 A 
ATOM     17  C   UNL A   1      33.271  28.892  27.071  1.00  0.00     0.052 A 
ATOM     18  C   UNL A   1      31.920  28.817  27.403  1.00  0.00     0.020 A 
ATOM     19  C   UNL A   1      33.897  27.779  26.506  1.00  0.00     0.020 A 
ATOM     20  C   UNL A   1      31.192  27.659  27.104  1.00  0.00     0.015 A 
ATOM     21  C   UNL A   1      33.166  26.611  26.228  1.00  0.00     0.015 A 
BRANCH  17  22
ATOM     22  C   UNL A   1      34.001  30.109  27.274  1.00  0.00     0.099 C 
ATOM     23  N   UNL A   1      34.564  31.118  27.403  1.00  0.00    -0.192 NA
ENDBRANCH  17  22
ENDBRANCH  13  16
ENDBRANCH  11  12
ENDBRANCH   7  11
ENDBRANCH   3   6
ENDBRANCH   1   2
BRANCH   1  24
ATOM     24  C   UNL A   1      35.784  23.714  24.736  1.00  0.00     0.042 C 
BRANCH  24  25
ATOM     25  C   UNL A   1      36.345  23.481  26.127  1.00  0.00     0.118 C 
BRANCH  25  26
ATOM     26  N   UNL A   1      37.505  22.599  26.094  1.00  0.00    -0.352 N 
ATOM     27  C   UNL A   1      38.832  22.885  26.283  1.00  0.00     0.251 C 
ATOM     28  H   UNL A   1      37.305  21.653  25.906  1.00  0.00     0.163 HD
ATOM     29  O   UNL A   1      39.681  22.067  25.942  1.00  0.00    -0.269 OA
BRANCH  27  30
ATOM     30  C   UNL A   1      39.230  24.172  26.887  1.00  0.00     0.039 A 
ATOM     31  C   UNL A   1      38.874  24.440  28.209  1.00  0.00     0.014 A 
ATOM     32  C   UNL A   1      39.938  25.120  26.142  1.00  0.00     0.014 A 
ATOM     33  C   UNL A   1      39.275  25.637  28.799  1.00  0.00     0.010 A 
ATOM     34  C   UNL A   1      40.425  26.262  26.762  1.00  0.00     0.010 A 
ATOM     35  C   UNL A   1      40.085  26.540  28.091  1.00  0.00    -0.014 A 
BRANCH  35  36
ATOM     36  C   UNL A   1      40.584  27.784  28.726  1.00  0.00     0.031 A 
ATOM     37  C   UNL A   1      41.979  27.842  29.284  1.00  0.00     0.074 A 
ATOM     38  C   UNL A   1      39.754  28.837  28.856  1.00  0.00     0.049 A 
ATOM     39  N   UNL A   1      42.575  28.824  29.909  1.00  0.00    -0.248 NA
ATOM     40  C   UNL A   1      42.804  26.629  29.148  1.00  0.00     0.031 C 
ATOM     41  C   UNL A   1      38.362  28.878  28.399  1.00  0.00     0.029 A 
ATOM     42  N   UNL A   1      39.955  30.072  29.417  1.00  0.00    -0.354 N 
ATOM     43  C   UNL A   1      43.831  28.342  30.260  1.00  0.00     0.074 A 
ATOM     44  C   UNL A   1      43.891  26.964  29.827  1.00  0.00     0.031 C 
ATOM     45  C   UNL A   1      37.846  30.086  28.670  1.00  0.00     0.029 A 
ATOM     46  C   UNL A   1      38.847  30.885  29.370  1.00  0.00     0.049 A 
ATOM     47  H   UNL A   1      40.811  30.350  29.816  1.00  0.00     0.167 HD
ATOM     48  C   UNL A   1      44.846  28.994  30.876  1.00  0.00     0.031 A 
ATOM     49  C   UNL A   1      38.650  32.127  29.852  1.00  0.00     0.031 A 
ATOM     50  C   UNL A   1      44.769  30.364  31.306  1.00  0.00     0.049 A 
ATOM     51  C   UNL A   1      39.784  32.828  30.544  1.00  0.00     0.074 A 
ATOM     52  C   UNL A   1      45.762  31.141  31.876  1.00  0.00     0.029 A 
ATOM     53  N   UNL A   1      43.632  31.158  31.235  1.00  0.00    -0.354 N 
ATOM     54  N   UNL A   1      40.997  32.388  30.786  1.00  0.00    -0.248 NA
ATOM     55  C   UNL A   1      39.531  34.195  31.015  1.00  0.00     0.031 C 
ATOM     56  C   UNL A   1      45.201  32.373  32.228  1.00  0.00     0.029 A 
ATOM     57  C   UNL A   1      43.885  32.400  31.792  1.00  0.00     0.049 A 
ATOM     58  H   UNL A   1      42.772  30.879  30.844  1.00  0.00     0.167 HD
ATOM     59  C   UNL A   1      41.660  33.434  31.418  1.00  0.00     0.074 A 
ATOM     60  C   UNL A   1      40.718  34.532  31.502  1.00  0.00     0.031 C 
ATOM     61  C   UNL A   1      42.933  33.481  31.883  1.00  0.00     0.031 A 
BRANCH  48  62
ATOM     62  C   UNL A   1      46.109  28.217  31.153  1.00  0.00    -0.014 A 
ATOM     63  C   UNL A   1      46.291  27.505  32.354  1.00  0.00     0.010 A 
ATOM     64  C   UNL A   1      47.124  28.181  30.181  1.00  0.00     0.010 A 
ATOM     65  C   UNL A   1      47.487  26.823  32.599  1.00  0.00     0.020 A 
ATOM     66  C   UNL A   1      48.306  27.468  30.405  1.00  0.00     0.020 A 
ATOM     67  C   UNL A   1      48.487  26.811  31.623  1.00  0.00     0.054 A 
BRANCH  67  68
ATOM     68  S   UNL A   1      50.025  25.913  31.967  1.00  0.00     0.124 S 
ATOM     69  O   UNL A   1      50.363  25.380  30.650  1.00  0.00    -0.237 OA
ATOM     70  O   UNL A   1      50.906  26.967  32.462  1.00  0.00    -0.237 OA
ATOM     71  O   UNL A   1      49.631  24.915  32.959  1.00  0.00    -0.744 OA
ENDBRANCH  67  68
ENDBRANCH  48  62
BRANCH  49  72
ATOM     72  C   UNL A   1      37.316  32.769  29.695  1.00  0.00    -0.014 A 
ATOM     73  C   UNL A   1      36.341  32.666  30.702  1.00  0.00     0.010 A 
ATOM     74  C   UNL A   1      37.036  33.535  28.548  1.00  0.00     0.010 A 
ATOM     75  C   UNL A   1      35.110  33.317  30.564  1.00  0.00     0.020 A 
ATOM     76  C   UNL A   1      35.821  34.213  28.422  1.00  0.00     0.020 A 
ATOM     77  C   UNL A   1      34.863  34.096  29.429  1.00  0.00     0.054 A 
BRANCH  77  78
ATOM     78  S   UNL A   1      33.295  34.999  29.312  1.00  0.00     0.124 S 
ATOM     79  O   UNL A   1      32.815  34.955  30.691  1.00  0.00    -0.237 OA
ATOM     80  O   UNL A   1      33.725  36.309  28.832  1.00  0.00    -0.237 OA
ATOM     81  O   UNL A   1      32.519  34.216  28.353  1.00  0.00    -0.744 OA
ENDBRANCH  77  78
ENDBRANCH  49  72
BRANCH  61  82
ATOM     82  C   UNL A   1      43.402  34.774  32.500  1.00  0.00    -0.014 A 
ATOM     83  C   UNL A   1      44.031  35.771  31.734  1.00  0.00     0.010 A 
ATOM     84  C   UNL A   1      43.150  35.018  33.864  1.00  0.00     0.010 A 
ATOM     85  C   UNL A   1      44.426  36.973  32.326  1.00  0.00     0.020 A 
ATOM     86  C   UNL A   1      43.510  36.232  34.452  1.00  0.00     0.020 A 
ATOM     87  C   UNL A   1      44.159  37.197  33.680  1.00  0.00     0.054 A 
BRANCH  87  88
ATOM     88  S   UNL A   1      44.639  38.786  34.411  1.00  0.00     0.124 S 
ATOM     89  O   UNL A   1      45.708  39.223  33.516  1.00  0.00    -0.237 OA
ATOM     90  O   UNL A   1      43.401  39.557  34.336  1.00  0.00    -0.237 OA
ATOM     91  O   UNL A   1      45.066  38.432  35.763  1.00  0.00    -0.744 OA
ENDBRANCH  87  88
ENDBRANCH  61  82
ENDBRANCH  35  36
ENDBRANCH  27  30
ENDBRANCH  25  26
ENDBRANCH  24  25
ENDBRANCH   1  24
TORSDOF 17
ENDMDL
MODEL 2
REMARK VINA RESULT:     -10.4      2.922      9.258
REMARK SMILES N#Cc1ccc(C(=O)NC[C@H]2CC[C@H](C(=O)NCCCNC(=O)c3ccc(-c4c5nc(c(-c6ccc(S(=O)(=O)[O-])cc6)c6ccc([nH]6)c(-c6ccc(S(=O)(=O)[O-])cc6)c6nc(c(-c7ccc(S(=O)(=O)[O-])cc7)c7ccc4[nH]7)C=C6)C=C5)cc3)O2)cc1
REMARK SMILES IDX 18 1 17 2 15 3 16 4 14 6 11 7 12 8 84 9 13 10 10 11 9 12
REMARK SMILES IDX 7 13 8 14 6 16 3 17 4 18 86 19 5 20 85 21 2 22 1 23 19 24
REMARK SMILES IDX 20 25 21 26 22 27 23 29 24 30 25 31 83 32 26 33 82 34 27 35
REMARK SMILES IDX 28 36 29 37 76 38 30 39 81 40 75 41 77 42 31 43 80 44 74 45
REMARK SMILES IDX 73 46 32 48 62 49 43 50 61 51 44 52 47 53 60 54 78 55 45 56
REMARK SMILES IDX 46 57 59 59 79 60 48 61 33 62 34 63 42 64 35 65 41 66 36 67
REMARK SMILES IDX 37 68 38 69 39 70 40 71 63 72 64 73 72 74 65 75 71 76 66 77
REMARK SMILES IDX 67 78 68 79 69 80 70 81 49 82 50 83 58 84 51 85 57 86 52 87
REMARK SMILES IDX 53 88 54 89 55 90 56 91
REMARK H PARENT 17 5 9 15 21 28 77 47 47 58
REMARK Flexibility Score: inf
ROOT
ATOM      1  C   UNL A   1      32.444  27.593  24.452  1.00  0.00     0.117 C 
ENDROOT
BRANCH   1   2
ATOM      2  N   UNL A   1      31.380  27.206  25.352  1.00  0.00    -0.354 N 
ATOM      3  C   UNL A   1      31.016  25.969  25.794  1.00  0.00     0.249 C 
ATOM      4  O   UNL A   1      30.048  25.903  26.560  1.00  0.00    -0.272 OA
ATOM      5  H   UNL A   1      30.837  27.950  25.701  1.00  0.00     0.163 HD
BRANCH   3   6
ATOM      6  C   UNL A   1      31.746  24.690  25.333  1.00  0.00     0.207 C 
ATOM      7  C   UNL A   1      31.305  22.396  25.608  1.00  0.00     0.138 C 
ATOM      8  C   UNL A   1      32.188  22.828  26.772  1.00  0.00     0.037 C 
ATOM      9  O   UNL A   1      30.887  23.612  24.954  1.00  0.00    -0.363 OA
ATOM     10  C   UNL A   1      32.747  24.163  26.346  1.00  0.00     0.045 C 
BRANCH   7  11
ATOM     11  C   UNL A   1      31.922  21.457  24.552  1.00  0.00     0.148 C 
BRANCH  11  12
ATOM     12  N   UNL A   1      32.522  22.147  23.430  1.00  0.00    -0.349 N 
ATOM     13  C   UNL A   1      33.781  22.615  23.166  1.00  0.00     0.251 C 
ATOM     14  O   UNL A   1      33.903  23.265  22.127  1.00  0.00    -0.269 OA
ATOM     15  H   UNL A   1      31.886  22.317  22.698  1.00  0.00     0.163 HD
BRANCH  13  16
ATOM     16  C   UNL A   1      34.995  22.365  24.009  1.00  0.00     0.039 A 
ATOM     17  C   UNL A   1      37.470  22.064  25.353  1.00  0.00     0.052 A 
ATOM     18  C   UNL A   1      37.190  23.240  24.659  1.00  0.00     0.020 A 
ATOM     19  C   UNL A   1      36.490  21.072  25.435  1.00  0.00     0.020 A 
ATOM     20  C   UNL A   1      35.967  23.384  23.995  1.00  0.00     0.015 A 
ATOM     21  C   UNL A   1      35.255  21.231  24.785  1.00  0.00     0.015 A 
BRANCH  17  22
ATOM     22  C   UNL A   1      38.759  21.862  25.946  1.00  0.00     0.099 C 
ATOM     23  N   UNL A   1      39.821  21.737  26.401  1.00  0.00    -0.192 NA
ENDBRANCH  17  22
ENDBRANCH  13  16
ENDBRANCH  11  12
ENDBRANCH   7  11
ENDBRANCH   3   6
ENDBRANCH   1   2
BRANCH   1  24
ATOM     24  C   UNL A   1      33.783  27.686  25.171  1.00  0.00     0.042 C 
BRANCH  24  25
ATOM     25  C   UNL A   1      33.644  28.165  26.605  1.00  0.00     0.118 C 
BRANCH  25  26
ATOM     26  N   UNL A   1      33.565  29.619  26.676  1.00  0.00    -0.352 N 
ATOM     27  C   UNL A   1      34.310  30.504  27.409  1.00  0.00     0.251 C 
ATOM     28  H   UNL A   1      32.868  30.026  26.112  1.00  0.00     0.163 HD
ATOM     29  O   UNL A   1      33.914  31.657  27.548  1.00  0.00    -0.269 OA
BRANCH  27  30
ATOM     30  C   UNL A   1      35.576  30.067  28.029  1.00  0.00     0.039 A 
ATOM     31  C   UNL A   1      36.753  30.125  27.282  1.00  0.00     0.014 A 
ATOM     32  C   UNL A   1      35.598  29.582  29.340  1.00  0.00     0.014 A 
ATOM     33  C   UNL A   1      37.960  29.746  27.869  1.00  0.00     0.010 A 
ATOM     34  C   UNL A   1      36.811  29.307  29.956  1.00  0.00     0.010 A 
ATOM     35  C   UNL A   1      38.002  29.370  29.222  1.00  0.00    -0.014 A 
BRANCH  35  36
ATOM     36  C   UNL A   1      39.286  29.036  29.885  1.00  0.00     0.031 A 
ATOM     37  C   UNL A   1      39.765  29.848  31.057  1.00  0.00     0.074 A 
ATOM     38  C   UNL A   1      40.046  28.042  29.388  1.00  0.00     0.049 A 
ATOM     39  N   UNL A   1      40.876  29.733  31.737  1.00  0.00    -0.248 NA
ATOM     40  C   UNL A   1      38.899  30.952  31.504  1.00  0.00     0.031 C 
ATOM     41  C   UNL A   1      39.706  27.219  28.224  1.00  0.00     0.029 A 
ATOM     42  N   UNL A   1      41.264  27.559  29.791  1.00  0.00    -0.354 N 
ATOM     43  C   UNL A   1      40.853  30.759  32.674  1.00  0.00     0.074 A 
ATOM     44  C   UNL A   1      39.646  31.519  32.440  1.00  0.00     0.031 C 
ATOM     45  C   UNL A   1      40.677  26.315  28.027  1.00  0.00     0.029 A 
ATOM     46  C   UNL A   1      41.733  26.529  29.011  1.00  0.00     0.049 A 
ATOM     47  H   UNL A   1      41.756  27.916  30.566  1.00  0.00     0.167 HD
ATOM     48  C   UNL A   1      41.751  31.034  33.650  1.00  0.00     0.031 A 
ATOM     49  C   UNL A   1      42.891  25.843  29.067  1.00  0.00     0.031 A 
ATOM     50  C   UNL A   1      42.952  30.272  33.867  1.00  0.00     0.049 A 
ATOM     51  C   UNL A   1      43.880  26.173  30.149  1.00  0.00     0.074 A 
ATOM     52  C   UNL A   1      43.894  30.422  34.870  1.00  0.00     0.029 A 
ATOM     53  N   UNL A   1      43.390  29.230  33.061  1.00  0.00    -0.354 N 
ATOM     54  N   UNL A   1      43.800  27.088  31.086  1.00  0.00    -0.248 NA
ATOM     55  C   UNL A   1      45.109  25.370  30.192  1.00  0.00     0.031 C 
ATOM     56  C   UNL A   1      44.941  29.530  34.619  1.00  0.00     0.029 A 
ATOM     57  C   UNL A   1      44.610  28.759  33.515  1.00  0.00     0.049 A 
ATOM     58  H   UNL A   1      42.903  28.877  32.280  1.00  0.00     0.167 HD
ATOM     59  C   UNL A   1      44.956  26.956  31.845  1.00  0.00     0.074 A 
ATOM     60  C   UNL A   1      45.709  25.861  31.268  1.00  0.00     0.031 C 
ATOM     61  C   UNL A   1      45.357  27.676  32.923  1.00  0.00     0.031 A 
BRANCH  48  62
ATOM     62  C   UNL A   1      41.485  32.232  34.528  1.00  0.00    -0.014 A 
ATOM     63  C   UNL A   1      40.753  32.123  35.726  1.00  0.00     0.010 A 
ATOM     64  C   UNL A   1      41.997  33.488  34.157  1.00  0.00     0.010 A 
ATOM     65  C   UNL A   1      40.491  33.256  36.501  1.00  0.00     0.020 A 
ATOM     66  C   UNL A   1      41.771  34.617  34.949  1.00  0.00     0.020 A 
ATOM     67  C   UNL A   1      41.000  34.496  36.106  1.00  0.00     0.054 A 
BRANCH  67  68
ATOM     68  S   UNL A   1      40.648  35.947  37.135  1.00  0.00     0.124 S 
ATOM     69  O   UNL A   1      39.933  35.352  38.261  1.00  0.00    -0.237 OA
ATOM     70  O   UNL A   1      41.983  36.455  37.438  1.00  0.00    -0.237 OA
ATOM     71  O   UNL A   1      39.840  36.802  36.268  1.00  0.00    -0.744 OA
ENDBRANCH  67  68
ENDBRANCH  48  62
BRANCH  49  72
ATOM     72  C   UNL A   1      43.165  24.786  28.056  1.00  0.00    -0.014 A 
ATOM     73  C   UNL A   1      43.818  25.091  26.849  1.00  0.00     0.010 A 
ATOM     74  C   UNL A   1      42.815  23.449  28.324  1.00  0.00     0.010 A 
ATOM     75  C   UNL A   1      44.115  24.079  25.930  1.00  0.00     0.020 A 
ATOM     76  C   UNL A   1      43.140  22.431  27.424  1.00  0.00     0.020 A 
ATOM     77  C   UNL A   1      43.783  22.754  26.229  1.00  0.00     0.054 A 
BRANCH  77  78
ATOM     78  S   UNL A   1      44.255  21.449  25.061  1.00  0.00     0.124 S 
ATOM     79  O   UNL A   1      43.212  20.452  25.280  1.00  0.00    -0.237 OA
ATOM     80  O   UNL A   1      44.208  22.147  23.779  1.00  0.00    -0.237 OA
ATOM     81  O   UNL A   1      45.594  21.062  25.503  1.00  0.00    -0.744 OA
ENDBRANCH  77  78
ENDBRANCH  49  72
BRANCH  61  82
ATOM     82  C   UNL A   1      46.658  27.285  33.577  1.00  0.00    -0.014 A 
ATOM     83  C   UNL A   1      46.707  26.324  34.602  1.00  0.00     0.010 A 
ATOM     84  C   UNL A   1      47.860  27.848  33.109  1.00  0.00     0.010 A 
ATOM     85  C   UNL A   1      47.930  25.958  35.169  1.00  0.00     0.020 A 
ATOM     86  C   UNL A   1      49.089  27.458  33.647  1.00  0.00     0.020 A 
ATOM     87  C   UNL A   1      49.114  26.524  34.684  1.00  0.00     0.054 A 
BRANCH  87  88
ATOM     88  S   UNL A   1      50.691  25.994  35.404  1.00  0.00     0.124 S 
ATOM     89  O   UNL A   1      51.382  27.267  35.596  1.00  0.00    -0.237 OA
ATOM     90  O   UNL A   1      50.270  25.315  36.627  1.00  0.00    -0.237 OA
ATOM     91  O   UNL A   1      51.266  25.123  34.381  1.00  0.00    -0.744 OA
ENDBRANCH  87  88
ENDBRANCH  61  82
ENDBRANCH  35  36
ENDBRANCH  27  30
ENDBRANCH  25  26
ENDBRANCH  24  25
ENDBRANCH   1  24
TORSDOF 17
ENDMDL
MODEL 3
REMARK VINA RESULT:     -10.3      3.586      9.555
REMARK SMILES N#Cc1ccc(C(=O)NC[C@H]2CC[C@H](C(=O)NCCCNC(=O)c3ccc(-c4c5nc(c(-c6ccc(S(=O)(=O)[O-])cc6)c6ccc([nH]6)c(-c6ccc(S(=O)(=O)[O-])cc6)c6nc(c(-c7ccc(S(=O)(=O)[O-])cc7)c7ccc4[nH]7)C=C6)C=C5)cc3)O2)cc1
REMARK SMILES IDX 18 1 17 2 15 3 16 4 14 6 11 7 12 8 84 9 13 10 10 11 9 12
REMARK SMILES IDX 7 13 8 14 6 16 3 17 4 18 86 19 5 20 85 21 2 22 1 23 19 24
REMARK SMILES IDX 20 25 21 26 22 27 23 29 24 30 25 31 83 32 26 33 82 34 27 35
REMARK SMILES IDX 28 36 29 37 76 38 30 39 81 40 75 41 77 42 31 43 80 44 74 45
REMARK SMILES IDX 73 46 32 48 62 49 43 50 61 51 44 52 47 53 60 54 78 55 45 56
REMARK SMILES IDX 46 57 59 59 79 60 48 61 33 62 34 63 42 64 35 65 41 66 36 67
REMARK SMILES IDX 37 68 38 69 39 70 40 71 63 72 64 73 72 74 65 75 71 76 66 77
REMARK SMILES IDX 67 78 68 79 69 80 70 81 49 82 50 83 58 84 51 85 57 86 52 87
REMARK SMILES IDX 53 88 54 89 55 90 56 91
REMARK H PARENT 17 5 9 15 21 28 77 47 47 58
REMARK Flexibility Score: inf
ROOT
ATOM      1  C   UNL A   1      31.746  30.797  26.100  1.00  0.00     0.117 C 
ENDROOT
BRANCH   1   2
ATOM      2  N   UNL A   1      31.555  29.754  27.082  1.00  0.00    -0.354 N 
ATOM      3  C   UNL A   1      31.805  28.417  26.997  1.00  0.00     0.249 C 
ATOM      4  O   UNL A   1      31.539  27.726  27.986  1.00  0.00    -0.272 OA
ATOM      5  H   UNL A   1      31.190  30.055  27.946  1.00  0.00     0.163 HD
BRANCH   3   6
ATOM      6  C   UNL A   1      32.359  27.771  25.710  1.00  0.00     0.207 C 
ATOM      7  C   UNL A   1      32.444  25.554  24.928  1.00  0.00     0.138 C 
ATOM      8  C   UNL A   1      33.733  25.809  25.700  1.00  0.00     0.037 C 
ATOM      9  O   UNL A   1      31.586  26.680  25.205  1.00  0.00    -0.363 OA
ATOM     10  C   UNL A   1      33.801  27.310  25.832  1.00  0.00     0.045 C 
BRANCH   7  11
ATOM     11  C   UNL A   1      32.548  25.379  23.399  1.00  0.00     0.148 C 
BRANCH  11  12
ATOM     12  N   UNL A   1      32.295  24.029  22.943  1.00  0.00    -0.349 N 
ATOM     13  C   UNL A   1      32.993  22.855  23.019  1.00  0.00     0.251 C 
ATOM     14  O   UNL A   1      32.506  21.902  22.408  1.00  0.00    -0.269 OA
ATOM     15  H   UNL A   1      31.432  23.936  22.476  1.00  0.00     0.163 HD
BRANCH  13  16
ATOM     16  C   UNL A   1      34.252  22.642  23.805  1.00  0.00     0.039 A 
ATOM     17  C   UNL A   1      36.793  22.206  24.977  1.00  0.00     0.052 A 
ATOM     18  C   UNL A   1      36.685  22.941  23.798  1.00  0.00     0.020 A 
ATOM     19  C   UNL A   1      35.632  21.751  25.605  1.00  0.00     0.020 A 
ATOM     20  C   UNL A   1      35.427  23.153  23.221  1.00  0.00     0.015 A 
ATOM     21  C   UNL A   1      34.370  21.985  25.033  1.00  0.00     0.015 A 
BRANCH  17  22
ATOM     22  C   UNL A   1      38.082  21.891  25.520  1.00  0.00     0.099 C 
ATOM     23  N   UNL A   1      39.135  21.606  25.920  1.00  0.00    -0.192 NA
ENDBRANCH  17  22
ENDBRANCH  13  16
ENDBRANCH  11  12
ENDBRANCH   7  11
ENDBRANCH   3   6
ENDBRANCH   1   2
BRANCH   1  24
ATOM     24  C   UNL A   1      31.626  32.183  26.720  1.00  0.00     0.042 C 
BRANCH  24  25
ATOM     25  C   UNL A   1      32.925  32.656  27.349  1.00  0.00     0.118 C 
BRANCH  25  26
ATOM     26  N   UNL A   1      32.798  34.007  27.883  1.00  0.00    -0.352 N 
ATOM     27  C   UNL A   1      33.405  34.583  28.968  1.00  0.00     0.251 C 
ATOM     28  H   UNL A   1      32.181  34.594  27.389  1.00  0.00     0.163 HD
ATOM     29  O   UNL A   1      32.963  35.634  29.420  1.00  0.00    -0.269 OA
BRANCH  27  30
ATOM     30  C   UNL A   1      34.578  33.935  29.587  1.00  0.00     0.039 A 
ATOM     31  C   UNL A   1      35.857  34.309  29.173  1.00  0.00     0.014 A 
ATOM     32  C   UNL A   1      34.414  32.946  30.562  1.00  0.00     0.014 A 
ATOM     33  C   UNL A   1      36.972  33.728  29.776  1.00  0.00     0.010 A 
ATOM     34  C   UNL A   1      35.522  32.448  31.234  1.00  0.00     0.010 A 
ATOM     35  C   UNL A   1      36.812  32.821  30.836  1.00  0.00    -0.014 A 
BRANCH  35  36
ATOM     36  C   UNL A   1      37.985  32.249  31.540  1.00  0.00     0.031 A 
ATOM     37  C   UNL A   1      38.416  32.806  32.868  1.00  0.00     0.074 A 
ATOM     38  C   UNL A   1      38.698  31.271  30.948  1.00  0.00     0.049 A 
ATOM     39  N   UNL A   1      39.437  32.466  33.611  1.00  0.00    -0.248 NA
ATOM     40  C   UNL A   1      37.614  33.912  33.421  1.00  0.00     0.031 C 
ATOM     41  C   UNL A   1      38.403  30.686  29.637  1.00  0.00     0.029 A 
ATOM     42  N   UNL A   1      39.819  30.602  31.365  1.00  0.00    -0.354 N 
ATOM     43  C   UNL A   1      39.413  33.326  34.703  1.00  0.00     0.074 A 
ATOM     44  C   UNL A   1      38.311  34.238  34.499  1.00  0.00     0.031 C 
ATOM     45  C   UNL A   1      39.302  29.726  29.373  1.00  0.00     0.029 A 
ATOM     46  C   UNL A   1      40.268  29.665  30.465  1.00  0.00     0.049 A 
ATOM     47  H   UNL A   1      40.260  30.775  32.228  1.00  0.00     0.167 HD
ATOM     48  C   UNL A   1      40.230  33.343  35.784  1.00  0.00     0.031 A 
ATOM     49  C   UNL A   1      41.346  28.858  30.502  1.00  0.00     0.031 A 
ATOM     50  C   UNL A   1      41.327  32.431  35.970  1.00  0.00     0.049 A 
ATOM     51  C   UNL A   1      42.246  28.903  31.704  1.00  0.00     0.074 A 
ATOM     52  C   UNL A   1      42.172  32.317  37.060  1.00  0.00     0.029 A 
ATOM     53  N   UNL A   1      41.746  31.491  35.039  1.00  0.00    -0.354 N 
ATOM     54  N   UNL A   1      42.156  29.661  32.772  1.00  0.00    -0.248 NA
ATOM     55  C   UNL A   1      43.385  27.976  31.715  1.00  0.00     0.031 C 
ATOM     56  C   UNL A   1      43.153  31.370  36.751  1.00  0.00     0.029 A 
ATOM     57  C   UNL A   1      42.865  30.825  35.509  1.00  0.00     0.049 A 
ATOM     58  H   UNL A   1      41.311  31.322  34.172  1.00  0.00     0.167 HD
ATOM     59  C   UNL A   1      43.213  29.286  33.593  1.00  0.00     0.074 A 
ATOM     60  C   UNL A   1      43.916  28.221  32.906  1.00  0.00     0.031 C 
ATOM     61  C   UNL A   1      43.566  29.777  34.807  1.00  0.00     0.031 A 
BRANCH  48  62
ATOM     62  C   UNL A   1      39.987  34.407  36.826  1.00  0.00    -0.014 A 
ATOM     63  C   UNL A   1      40.632  35.657  36.772  1.00  0.00     0.010 A 
ATOM     64  C   UNL A   1      39.075  34.157  37.868  1.00  0.00     0.010 A 
ATOM     65  C   UNL A   1      40.414  36.611  37.770  1.00  0.00     0.020 A 
ATOM     66  C   UNL A   1      38.825  35.122  38.847  1.00  0.00     0.020 A 
ATOM     67  C   UNL A   1      39.514  36.335  38.803  1.00  0.00     0.054 A 
BRANCH  67  68
ATOM     68  S   UNL A   1      39.248  37.594  40.081  1.00  0.00     0.124 S 
ATOM     69  O   UNL A   1      38.905  36.776  41.242  1.00  0.00    -0.237 OA
ATOM     70  O   UNL A   1      40.544  38.263  40.145  1.00  0.00    -0.237 OA
ATOM     71  O   UNL A   1      38.155  38.406  39.549  1.00  0.00    -0.744 OA
ENDBRANCH  67  68
ENDBRANCH  48  62
BRANCH  49  72
ATOM     72  C   UNL A   1      41.623  27.954  29.354  1.00  0.00    -0.014 A 
ATOM     73  C   UNL A   1      42.534  28.319  28.348  1.00  0.00     0.010 A 
ATOM     74  C   UNL A   1      41.006  26.689  29.291  1.00  0.00     0.010 A 
ATOM     75  C   UNL A   1      42.823  27.437  27.301  1.00  0.00     0.020 A 
ATOM     76  C   UNL A   1      41.318  25.793  28.265  1.00  0.00     0.020 A 
ATOM     77  C   UNL A   1      42.221  26.175  27.273  1.00  0.00     0.054 A 
BRANCH  77  78
ATOM     78  S   UNL A   1      42.677  25.017  25.953  1.00  0.00     0.124 S 
ATOM     79  O   UNL A   1      42.527  25.843  24.759  1.00  0.00    -0.237 OA
ATOM     80  O   UNL A   1      44.046  24.661  26.312  1.00  0.00    -0.237 OA
ATOM     81  O   UNL A   1      41.702  23.937  26.094  1.00  0.00    -0.744 OA
ENDBRANCH  77  78
ENDBRANCH  49  72
BRANCH  61  82
ATOM     82  C   UNL A   1      44.752  29.149  35.494  1.00  0.00    -0.014 A 
ATOM     83  C   UNL A   1      44.612  28.023  36.325  1.00  0.00     0.010 A 
ATOM     84  C   UNL A   1      46.040  29.660  35.249  1.00  0.00     0.010 A 
ATOM     85  C   UNL A   1      45.733  27.443  36.924  1.00  0.00     0.020 A 
ATOM     86  C   UNL A   1      47.168  29.061  35.815  1.00  0.00     0.020 A 
ATOM     87  C   UNL A   1      47.004  27.962  36.661  1.00  0.00     0.054 A 
BRANCH  87  88
ATOM     88  S   UNL A   1      48.446  27.159  37.411  1.00  0.00     0.124 S 
ATOM     89  O   UNL A   1      47.823  26.203  38.323  1.00  0.00    -0.237 OA
ATOM     90  O   UNL A   1      49.122  26.576  36.255  1.00  0.00    -0.237 OA
ATOM     91  O   UNL A   1      49.161  28.258  38.056  1.00  0.00    -0.744 OA
ENDBRANCH  87  88
ENDBRANCH  61  82
ENDBRANCH  35  36
ENDBRANCH  27  30
ENDBRANCH  25  26
ENDBRANCH  24  25
ENDBRANCH   1  24
TORSDOF 17
ENDMDL
