MODEL 1
REMARK VINA RESULT:     -12.8      0.000      0.000
REMARK SMILES C[NH+]1CCC([NH+]2CCC(Oc3ccc4ccccc4c3)(C(=O)NCCCNC(=O)c3ccc(-c4c5nc(c(-c6ccc(S(=O)(=O)[O-])cc6)c6ccc([nH]6)c(-c6ccc(S(=O)(=O)[O-])cc6)c6nc(c(-c7ccc(S(=O)(=O)[O-])cc7)c7ccc4[nH]7)C=C6)C=C5)cc3)CC2)CC1
REMARK SMILES IDX 25 1 24 2 23 3 21 4 22 5 9 7 6 8 7 9 91 10 8 12 90 13 5 14
REMARK SMILES IDX 1 15 2 16 3 17 93 18 4 20 92 21 10 22 11 23 12 24 20 25
REMARK SMILES IDX 13 26 19 27 14 28 18 29 15 30 17 31 16 32 26 33 27 34 28 35
REMARK SMILES IDX 29 37 30 38 31 39 89 40 32 41 88 42 33 43 34 44 35 45 82 46
REMARK SMILES IDX 36 47 87 48 81 49 83 50 37 51 86 52 80 53 79 54 38 56 68 57
REMARK SMILES IDX 49 58 67 59 50 60 53 61 66 62 84 63 51 64 52 65 65 67 85 68
REMARK SMILES IDX 54 69 39 70 40 71 48 72 41 73 47 74 42 75 43 76 44 77 45 78
REMARK SMILES IDX 46 79 69 80 70 81 78 82 71 83 77 84 72 85 73 86 74 87 75 88
REMARK SMILES IDX 76 89 55 90 56 91 64 92 57 93 63 94 58 95 59 96 60 97 61 98
REMARK SMILES IDX 62 99
REMARK H PARENT 23 6 6 11 2 19 27 36 83 55 53 66
REMARK Flexibility Score: inf
ROOT
ATOM      1  C   UNL A   1      34.327  31.155  27.632  1.00  0.00     0.042 C 
ENDROOT
BRANCH   1   2
ATOM      2  C   UNL A   1      34.220  29.638  27.500  1.00  0.00     0.118 C 
BRANCH   2   3
ATOM      3  N   UNL A   1      32.897  29.145  27.844  1.00  0.00    -0.353 N 
ATOM      4  C   UNL A   1      32.128  28.173  27.268  1.00  0.00     0.264 C 
ATOM      5  O   UNL A   1      31.090  27.882  27.872  1.00  0.00    -0.270 OA
ATOM      6  H   UNL A   1      32.485  29.586  28.622  1.00  0.00     0.163 HD
BRANCH   4   7
ATOM      7  C   UNL A   1      32.539  27.482  25.932  1.00  0.00     0.197 C 
ATOM      8  N   UNL A   1      30.786  28.690  23.892  1.00  0.00    -0.332 N 
ATOM      9  C   UNL A   1      31.858  29.463  24.528  1.00  0.00     0.267 C 
ATOM     10  C   UNL A   1      30.240  27.677  24.812  1.00  0.00     0.267 C 
ATOM     11  H   UNL A   1      31.214  28.195  23.109  1.00  0.00     0.348 HD
ATOM     12  C   UNL A   1      32.994  28.520  24.901  1.00  0.00     0.120 C 
ATOM     13  C   UNL A   1      31.326  26.725  25.347  1.00  0.00     0.120 C 
BRANCH   8  14
ATOM     14  C   UNL A   1      29.729  29.532  23.275  1.00  0.00     0.195 C 
ATOM     15  C   UNL A   1      27.871  32.752  21.082  1.00  0.00     0.332 C 
ATOM     16  N   UNL A   1      28.807  31.869  21.774  1.00  0.00    -0.337 N 
ATOM     17  C   UNL A   1      28.887  30.564  21.110  1.00  0.00     0.268 C 
ATOM     18  C   UNL A   1      28.444  31.715  23.186  1.00  0.00     0.268 C 
ATOM     19  H   UNL A   1      29.729  32.301  21.734  1.00  0.00     0.347 HD
ATOM     20  C   UNL A   1      29.966  29.699  21.759  1.00  0.00     0.126 C 
ATOM     21  C   UNL A   1      29.508  30.907  23.931  1.00  0.00     0.126 C 
ENDBRANCH   8  14
BRANCH   7  22
ATOM     22  O   UNL A   1      33.567  26.574  26.404  1.00  0.00    -0.477 OA
BRANCH  22  23
ATOM     23  C   UNL A   1      34.077  25.636  25.559  1.00  0.00     0.121 A 
ATOM     24  C   UNL A   1      33.740  25.574  24.213  1.00  0.00     0.047 A 
ATOM     25  C   UNL A   1      35.106  24.833  26.052  1.00  0.00     0.055 A 
ATOM     26  C   UNL A   1      34.339  24.626  23.382  1.00  0.00     0.012 A 
ATOM     27  C   UNL A   1      35.750  23.902  25.222  1.00  0.00    -0.015 A 
ATOM     28  C   UNL A   1      35.340  23.779  23.874  1.00  0.00    -0.018 A 
ATOM     29  C   UNL A   1      36.797  23.095  25.693  1.00  0.00     0.009 A 
ATOM     30  C   UNL A   1      35.960  22.832  23.047  1.00  0.00     0.009 A 
ATOM     31  C   UNL A   1      37.417  22.168  24.853  1.00  0.00     0.001 A 
ATOM     32  C   UNL A   1      36.993  22.029  23.534  1.00  0.00     0.001 A 
ENDBRANCH  22  23
ENDBRANCH   7  22
ENDBRANCH   4   7
ENDBRANCH   2   3
ENDBRANCH   1   2
BRANCH   1  33
ATOM     33  C   UNL A   1      35.539  31.634  28.420  1.00  0.00     0.118 C 
BRANCH  33  34
ATOM     34  N   UNL A   1      35.457  31.298  29.834  1.00  0.00    -0.352 N 
ATOM     35  C   UNL A   1      36.340  30.628  30.640  1.00  0.00     0.251 C 
ATOM     36  H   UNL A   1      34.636  31.601  30.283  1.00  0.00     0.163 HD
ATOM     37  O   UNL A   1      35.977  30.282  31.766  1.00  0.00    -0.269 OA
BRANCH  35  38
ATOM     38  C   UNL A   1      37.706  30.299  30.176  1.00  0.00     0.039 A 
ATOM     39  C   UNL A   1      38.717  30.136  31.128  1.00  0.00     0.014 A 
ATOM     40  C   UNL A   1      38.012  30.193  28.816  1.00  0.00     0.014 A 
ATOM     41  C   UNL A   1      40.014  29.811  30.721  1.00  0.00     0.010 A 
ATOM     42  C   UNL A   1      39.287  29.796  28.416  1.00  0.00     0.010 A 
ATOM     43  C   UNL A   1      40.303  29.605  29.363  1.00  0.00    -0.014 A 
BRANCH  43  44
ATOM     44  C   UNL A   1      41.659  29.184  28.922  1.00  0.00     0.031 A 
ATOM     45  C   UNL A   1      42.782  30.183  28.841  1.00  0.00     0.074 A 
ATOM     46  C   UNL A   1      41.865  27.907  28.540  1.00  0.00     0.049 A 
ATOM     47  N   UNL A   1      44.016  30.004  28.442  1.00  0.00    -0.248 NA
ATOM     48  C   UNL A   1      42.474  31.567  29.236  1.00  0.00     0.031 C 
ATOM     49  C   UNL A   1      40.849  26.853  28.527  1.00  0.00     0.029 A 
ATOM     50  N   UNL A   1      42.997  27.282  28.081  1.00  0.00    -0.354 N 
ATOM     51  C   UNL A   1      44.624  31.253  28.519  1.00  0.00     0.074 A 
ATOM     52  C   UNL A   1      43.612  32.187  28.961  1.00  0.00     0.031 C 
ATOM     53  C   UNL A   1      41.408  25.707  28.106  1.00  0.00     0.029 A 
ATOM     54  C   UNL A   1      42.811  25.952  27.784  1.00  0.00     0.049 A 
ATOM     55  H   UNL A   1      43.860  27.742  27.974  1.00  0.00     0.167 HD
ATOM     56  C   UNL A   1      45.912  31.588  28.262  1.00  0.00     0.031 A 
ATOM     57  C   UNL A   1      43.668  25.032  27.300  1.00  0.00     0.031 A 
ATOM     58  C   UNL A   1      46.920  30.655  27.835  1.00  0.00     0.049 A 
ATOM     59  C   UNL A   1      45.093  25.426  27.028  1.00  0.00     0.074 A 
ATOM     60  C   UNL A   1      48.267  30.886  27.610  1.00  0.00     0.029 A 
ATOM     61  N   UNL A   1      46.695  29.314  27.561  1.00  0.00    -0.354 N 
ATOM     62  N   UNL A   1      45.665  26.597  27.177  1.00  0.00    -0.248 NA
ATOM     63  C   UNL A   1      45.990  24.372  26.535  1.00  0.00     0.031 C 
ATOM     64  C   UNL A   1      48.845  29.696  27.154  1.00  0.00     0.029 A 
ATOM     65  C   UNL A   1      47.871  28.711  27.147  1.00  0.00     0.049 A 
ATOM     66  H   UNL A   1      45.827  28.858  27.648  1.00  0.00     0.167 HD
ATOM     67  C   UNL A   1      46.997  26.414  26.818  1.00  0.00     0.074 A 
ATOM     68  C   UNL A   1      47.145  25.018  26.462  1.00  0.00     0.031 C 
ATOM     69  C   UNL A   1      48.004  27.321  26.787  1.00  0.00     0.031 A 
BRANCH  56  70
ATOM     70  C   UNL A   1      46.301  33.034  28.430  1.00  0.00    -0.014 A 
ATOM     71  C   UNL A   1      46.192  33.946  27.364  1.00  0.00     0.010 A 
ATOM     72  C   UNL A   1      46.747  33.498  29.682  1.00  0.00     0.010 A 
ATOM     73  C   UNL A   1      46.567  35.282  27.533  1.00  0.00     0.020 A 
ATOM     74  C   UNL A   1      47.096  34.839  29.863  1.00  0.00     0.020 A 
ATOM     75  C   UNL A   1      47.021  35.719  28.781  1.00  0.00     0.054 A 
BRANCH  75  76
ATOM     76  S   UNL A   1      47.487  37.461  28.976  1.00  0.00     0.124 S 
ATOM     77  O   UNL A   1      47.660  37.883  27.589  1.00  0.00    -0.237 OA
ATOM     78  O   UNL A   1      46.330  38.028  29.664  1.00  0.00    -0.237 OA
ATOM     79  O   UNL A   1      48.713  37.406  29.768  1.00  0.00    -0.744 OA
ENDBRANCH  75  76
ENDBRANCH  56  70
BRANCH  57  80
ATOM     80  C   UNL A   1      43.198  23.641  27.056  1.00  0.00    -0.014 A 
ATOM     81  C   UNL A   1      42.940  23.192  25.749  1.00  0.00     0.010 A 
ATOM     82  C   UNL A   1      43.028  22.750  28.132  1.00  0.00     0.010 A 
ATOM     83  C   UNL A   1      42.508  21.883  25.523  1.00  0.00     0.020 A 
ATOM     84  C   UNL A   1      42.622  21.432  27.907  1.00  0.00     0.020 A 
ATOM     85  C   UNL A   1      42.353  21.009  26.603  1.00  0.00     0.054 A 
BRANCH  85  86
ATOM     86  S   UNL A   1      41.848  19.296  26.281  1.00  0.00     0.124 S 
ATOM     87  O   UNL A   1      42.584  18.988  25.060  1.00  0.00    -0.237 OA
ATOM     88  O   UNL A   1      42.299  18.603  27.485  1.00  0.00    -0.237 OA
ATOM     89  O   UNL A   1      40.397  19.392  26.133  1.00  0.00    -0.744 OA
ENDBRANCH  85  86
ENDBRANCH  57  80
BRANCH  69  90
ATOM     90  C   UNL A   1      49.365  26.827  26.377  1.00  0.00    -0.014 A 
ATOM     91  C   UNL A   1      49.771  26.844  25.030  1.00  0.00     0.010 A 
ATOM     92  C   UNL A   1      50.266  26.375  27.358  1.00  0.00     0.010 A 
ATOM     93  C   UNL A   1      51.041  26.384  24.670  1.00  0.00     0.020 A 
ATOM     94  C   UNL A   1      51.545  25.940  27.005  1.00  0.00     0.020 A 
ATOM     95  C   UNL A   1      51.919  25.932  25.660  1.00  0.00     0.054 A 
BRANCH  95  96
ATOM     96  S   UNL A   1      53.573  25.371  25.171  1.00  0.00     0.124 S 
ATOM     97  O   UNL A   1      54.432  26.133  26.073  1.00  0.00    -0.237 OA
ATOM     98  O   UNL A   1      53.513  23.934  25.425  1.00  0.00    -0.237 OA
ATOM     99  O   UNL A   1      53.662  25.744  23.761  1.00  0.00    -0.744 OA
ENDBRANCH  95  96
ENDBRANCH  69  90
ENDBRANCH  43  44
ENDBRANCH  35  38
ENDBRANCH  33  34
ENDBRANCH   1  33
TORSDOF 16
ENDMDL
MODEL 2
REMARK VINA RESULT:     -12.7      1.082      7.991
REMARK SMILES C[NH+]1CCC([NH+]2CCC(Oc3ccc4ccccc4c3)(C(=O)NCCCNC(=O)c3ccc(-c4c5nc(c(-c6ccc(S(=O)(=O)[O-])cc6)c6ccc([nH]6)c(-c6ccc(S(=O)(=O)[O-])cc6)c6nc(c(-c7ccc(S(=O)(=O)[O-])cc7)c7ccc4[nH]7)C=C6)C=C5)cc3)CC2)CC1
REMARK SMILES IDX 25 1 24 2 23 3 21 4 22 5 9 7 6 8 7 9 91 10 8 12 90 13 5 14
REMARK SMILES IDX 1 15 2 16 3 17 93 18 4 20 92 21 10 22 11 23 12 24 20 25
REMARK SMILES IDX 13 26 19 27 14 28 18 29 15 30 17 31 16 32 26 33 27 34 28 35
REMARK SMILES IDX 29 37 30 38 31 39 89 40 32 41 88 42 33 43 34 44 35 45 82 46
REMARK SMILES IDX 36 47 87 48 81 49 83 50 37 51 86 52 80 53 79 54 38 56 68 57
REMARK SMILES IDX 49 58 67 59 50 60 53 61 66 62 84 63 51 64 52 65 65 67 85 68
REMARK SMILES IDX 54 69 39 70 40 71 48 72 41 73 47 74 42 75 43 76 44 77 45 78
REMARK SMILES IDX 46 79 69 80 70 81 78 82 71 83 77 84 72 85 73 86 74 87 75 88
REMARK SMILES IDX 76 89 55 90 56 91 64 92 57 93 63 94 58 95 59 96 60 97 61 98
REMARK SMILES IDX 62 99
REMARK H PARENT 23 6 6 11 2 19 27 36 83 55 53 66
REMARK Flexibility Score: inf
ROOT
ATOM      1  C   UNL A   1      34.552  30.987  27.652  1.00  0.00     0.042 C 
ENDROOT
BRANCH   1   2
ATOM      2  C   UNL A   1      34.388  29.480  27.477  1.00  0.00     0.118 C 
BRANCH   2   3
ATOM      3  N   UNL A   1      33.065  29.019  27.863  1.00  0.00    -0.353 N 
ATOM      4  C   UNL A   1      32.252  28.070  27.309  1.00  0.00     0.264 C 
ATOM      5  O   UNL A   1      31.227  27.803  27.946  1.00  0.00    -0.270 OA
ATOM      6  H   UNL A   1      32.691  29.466  28.657  1.00  0.00     0.163 HD
BRANCH   4   7
ATOM      7  C   UNL A   1      32.600  27.377  25.956  1.00  0.00     0.197 C 
ATOM      8  N   UNL A   1      30.829  28.662  23.979  1.00  0.00    -0.332 N 
ATOM      9  C   UNL A   1      31.946  29.392  24.587  1.00  0.00     0.267 C 
ATOM     10  C   UNL A   1      30.277  27.660  24.906  1.00  0.00     0.267 C 
ATOM     11  H   UNL A   1      31.217  28.159  23.179  1.00  0.00     0.348 HD
ATOM     12  C   UNL A   1      33.059  28.408  24.919  1.00  0.00     0.120 C 
ATOM     13  C   UNL A   1      31.345  26.667  25.402  1.00  0.00     0.120 C 
BRANCH   8  14
ATOM     14  C   UNL A   1      29.784  29.544  23.399  1.00  0.00     0.195 C 
ATOM     15  C   UNL A   1      27.970  32.749  21.149  1.00  0.00     0.332 C 
ATOM     16  N   UNL A   1      28.899  31.841  21.817  1.00  0.00    -0.337 N 
ATOM     17  C   UNL A   1      28.814  30.491  21.249  1.00  0.00     0.268 C 
ATOM     18  C   UNL A   1      28.666  31.814  23.264  1.00  0.00     0.268 C 
ATOM     19  H   UNL A   1      29.843  32.191  21.659  1.00  0.00     0.347 HD
ATOM     20  C   UNL A   1      29.883  29.586  21.860  1.00  0.00     0.126 C 
ATOM     21  C   UNL A   1      29.734  30.974  23.966  1.00  0.00     0.126 C 
ENDBRANCH   8  14
BRANCH   7  22
ATOM     22  O   UNL A   1      33.610  26.432  26.390  1.00  0.00    -0.477 OA
BRANCH  22  23
ATOM     23  C   UNL A   1      33.749  25.246  25.735  1.00  0.00     0.121 A 
ATOM     24  C   UNL A   1      34.866  24.937  24.970  1.00  0.00     0.047 A 
ATOM     25  C   UNL A   1      32.800  24.259  26.004  1.00  0.00     0.055 A 
ATOM     26  C   UNL A   1      34.980  23.683  24.368  1.00  0.00     0.012 A 
ATOM     27  C   UNL A   1      32.919  22.978  25.442  1.00  0.00    -0.015 A 
ATOM     28  C   UNL A   1      34.011  22.696  24.590  1.00  0.00    -0.018 A 
ATOM     29  C   UNL A   1      31.984  21.966  25.713  1.00  0.00     0.009 A 
ATOM     30  C   UNL A   1      34.120  21.427  24.004  1.00  0.00     0.009 A 
ATOM     31  C   UNL A   1      32.115  20.702  25.135  1.00  0.00     0.001 A 
ATOM     32  C   UNL A   1      33.176  20.435  24.273  1.00  0.00     0.001 A 
ENDBRANCH  22  23
ENDBRANCH   7  22
ENDBRANCH   4   7
ENDBRANCH   2   3
ENDBRANCH   1   2
BRANCH   1  33
ATOM     33  C   UNL A   1      35.724  31.395  28.535  1.00  0.00     0.118 C 
BRANCH  33  34
ATOM     34  N   UNL A   1      35.659  30.802  29.863  1.00  0.00    -0.352 N 
ATOM     35  C   UNL A   1      36.554  30.000  30.522  1.00  0.00     0.251 C 
ATOM     36  H   UNL A   1      34.841  31.010  30.368  1.00  0.00     0.163 HD
ATOM     37  O   UNL A   1      36.204  29.449  31.568  1.00  0.00    -0.269 OA
BRANCH  35  38
ATOM     38  C   UNL A   1      37.916  29.772  29.993  1.00  0.00     0.039 A 
ATOM     39  C   UNL A   1      38.992  29.769  30.886  1.00  0.00     0.014 A 
ATOM     40  C   UNL A   1      38.152  29.607  28.624  1.00  0.00     0.014 A 
ATOM     41  C   UNL A   1      40.289  29.542  30.418  1.00  0.00     0.010 A 
ATOM     42  C   UNL A   1      39.435  29.306  28.168  1.00  0.00     0.010 A 
ATOM     43  C   UNL A   1      40.518  29.276  29.059  1.00  0.00    -0.014 A 
BRANCH  43  44
ATOM     44  C   UNL A   1      41.881  28.957  28.558  1.00  0.00     0.031 A 
ATOM     45  C   UNL A   1      42.226  27.560  28.117  1.00  0.00     0.074 A 
ATOM     46  C   UNL A   1      42.828  29.917  28.553  1.00  0.00     0.049 A 
ATOM     47  N   UNL A   1      43.371  27.090  27.689  1.00  0.00    -0.248 NA
ATOM     48  C   UNL A   1      41.154  26.554  28.187  1.00  0.00     0.031 C 
ATOM     49  C   UNL A   1      42.634  31.299  29.000  1.00  0.00     0.029 A 
ATOM     50  N   UNL A   1      44.144  29.875  28.167  1.00  0.00    -0.354 N 
ATOM     51  C   UNL A   1      43.163  25.735  27.459  1.00  0.00     0.074 A 
ATOM     52  C   UNL A   1      41.796  25.449  27.835  1.00  0.00     0.031 C 
ATOM     53  C   UNL A   1      43.781  31.978  28.839  1.00  0.00     0.029 A 
ATOM     54  C   UNL A   1      44.801  31.074  28.315  1.00  0.00     0.049 A 
ATOM     55  H   UNL A   1      44.576  29.064  27.817  1.00  0.00     0.167 HD
ATOM     56  C   UNL A   1      44.026  24.815  26.963  1.00  0.00     0.031 A 
ATOM     57  C   UNL A   1      46.081  31.410  28.065  1.00  0.00     0.031 A 
ATOM     58  C   UNL A   1      45.382  25.104  26.577  1.00  0.00     0.049 A 
ATOM     59  C   UNL A   1      47.019  30.375  27.510  1.00  0.00     0.074 A 
ATOM     60  C   UNL A   1      46.314  24.254  26.006  1.00  0.00     0.029 A 
ATOM     61  N   UNL A   1      46.005  26.334  26.728  1.00  0.00    -0.354 N 
ATOM     62  N   UNL A   1      46.780  29.115  27.231  1.00  0.00    -0.248 NA
ATOM     63  C   UNL A   1      48.393  30.809  27.224  1.00  0.00     0.031 C 
ATOM     64  C   UNL A   1      47.514  24.957  25.856  1.00  0.00     0.029 A 
ATOM     65  C   UNL A   1      47.314  26.260  26.283  1.00  0.00     0.049 A 
ATOM     66  H   UNL A   1      45.578  27.141  27.097  1.00  0.00     0.167 HD
ATOM     67  C   UNL A   1      47.970  28.612  26.714  1.00  0.00     0.074 A 
ATOM     68  C   UNL A   1      48.917  29.708  26.704  1.00  0.00     0.031 C 
ATOM     69  C   UNL A   1      48.250  27.356  26.286  1.00  0.00     0.031 A 
BRANCH  56  70
ATOM     70  C   UNL A   1      43.527  23.401  26.817  1.00  0.00    -0.014 A 
ATOM     71  C   UNL A   1      43.234  22.611  27.944  1.00  0.00     0.010 A 
ATOM     72  C   UNL A   1      43.312  22.864  25.533  1.00  0.00     0.010 A 
ATOM     73  C   UNL A   1      42.782  21.298  27.793  1.00  0.00     0.020 A 
ATOM     74  C   UNL A   1      42.832  21.560  25.377  1.00  0.00     0.020 A 
ATOM     75  C   UNL A   1      42.588  20.779  26.509  1.00  0.00     0.054 A 
BRANCH  75  76
ATOM     76  S   UNL A   1      41.987  19.076  26.341  1.00  0.00     0.124 S 
ATOM     77  O   UNL A   1      42.064  18.592  27.717  1.00  0.00    -0.237 OA
ATOM     78  O   UNL A   1      40.636  19.263  25.817  1.00  0.00    -0.237 OA
ATOM     79  O   UNL A   1      42.933  18.464  25.411  1.00  0.00    -0.744 OA
ENDBRANCH  75  76
ENDBRANCH  56  70
BRANCH  57  80
ATOM     80  C   UNL A   1      46.545  32.801  28.327  1.00  0.00    -0.014 A 
ATOM     81  C   UNL A   1      46.912  33.200  29.624  1.00  0.00     0.010 A 
ATOM     82  C   UNL A   1      46.642  33.727  27.273  1.00  0.00     0.010 A 
ATOM     83  C   UNL A   1      47.354  34.503  29.864  1.00  0.00     0.020 A 
ATOM     84  C   UNL A   1      47.110  35.023  27.505  1.00  0.00     0.020 A 
ATOM     85  C   UNL A   1      47.453  35.407  28.803  1.00  0.00     0.054 A 
BRANCH  85  86
ATOM     86  S   UNL A   1      48.087  37.076  29.128  1.00  0.00     0.124 S 
ATOM     87  O   UNL A   1      48.620  37.457  27.824  1.00  0.00    -0.237 OA
ATOM     88  O   UNL A   1      46.888  37.791  29.556  1.00  0.00    -0.237 OA
ATOM     89  O   UNL A   1      49.083  36.863  30.175  1.00  0.00    -0.744 OA
ENDBRANCH  85  86
ENDBRANCH  57  80
BRANCH  69  90
ATOM     90  C   UNL A   1      49.633  27.104  25.747  1.00  0.00    -0.014 A 
ATOM     91  C   UNL A   1      50.635  26.529  26.550  1.00  0.00     0.010 A 
ATOM     92  C   UNL A   1      49.922  27.410  24.405  1.00  0.00     0.010 A 
ATOM     93  C   UNL A   1      51.911  26.300  26.029  1.00  0.00     0.020 A 
ATOM     94  C   UNL A   1      51.188  27.156  23.873  1.00  0.00     0.020 A 
ATOM     95  C   UNL A   1      52.181  26.617  24.694  1.00  0.00     0.054 A 
BRANCH  95  96
ATOM     96  S   UNL A   1      53.835  26.280  24.032  1.00  0.00     0.124 S 
ATOM     97  O   UNL A   1      53.576  26.195  22.597  1.00  0.00    -0.237 OA
ATOM     98  O   UNL A   1      54.599  27.446  24.465  1.00  0.00    -0.237 OA
ATOM     99  O   UNL A   1      54.214  25.021  24.672  1.00  0.00    -0.744 OA
ENDBRANCH  95  96
ENDBRANCH  69  90
ENDBRANCH  43  44
ENDBRANCH  35  38
ENDBRANCH  33  34
ENDBRANCH   1  33
TORSDOF 16
ENDMDL
MODEL 3
REMARK VINA RESULT:     -12.7      3.565      6.174
REMARK SMILES C[NH+]1CCC([NH+]2CCC(Oc3ccc4ccccc4c3)(C(=O)NCCCNC(=O)c3ccc(-c4c5nc(c(-c6ccc(S(=O)(=O)[O-])cc6)c6ccc([nH]6)c(-c6ccc(S(=O)(=O)[O-])cc6)c6nc(c(-c7ccc(S(=O)(=O)[O-])cc7)c7ccc4[nH]7)C=C6)C=C5)cc3)CC2)CC1
REMARK SMILES IDX 25 1 24 2 23 3 21 4 22 5 9 7 6 8 7 9 91 10 8 12 90 13 5 14
REMARK SMILES IDX 1 15 2 16 3 17 93 18 4 20 92 21 10 22 11 23 12 24 20 25
REMARK SMILES IDX 13 26 19 27 14 28 18 29 15 30 17 31 16 32 26 33 27 34 28 35
REMARK SMILES IDX 29 37 30 38 31 39 89 40 32 41 88 42 33 43 34 44 35 45 82 46
REMARK SMILES IDX 36 47 87 48 81 49 83 50 37 51 86 52 80 53 79 54 38 56 68 57
REMARK SMILES IDX 49 58 67 59 50 60 53 61 66 62 84 63 51 64 52 65 65 67 85 68
REMARK SMILES IDX 54 69 39 70 40 71 48 72 41 73 47 74 42 75 43 76 44 77 45 78
REMARK SMILES IDX 46 79 69 80 70 81 78 82 71 83 77 84 72 85 73 86 74 87 75 88
REMARK SMILES IDX 76 89 55 90 56 91 64 92 57 93 63 94 58 95 59 96 60 97 61 98
REMARK SMILES IDX 62 99
REMARK H PARENT 23 6 6 11 2 19 27 36 83 55 53 66
REMARK Flexibility Score: inf
ROOT
ATOM      1  C   UNL A   1      33.691  27.730  26.289  1.00  0.00     0.042 C 
ENDROOT
BRANCH   1   2
ATOM      2  C   UNL A   1      33.279  26.267  26.152  1.00  0.00     0.118 C 
BRANCH   2   3
ATOM      3  N   UNL A   1      34.251  25.487  25.405  1.00  0.00    -0.353 N 
ATOM      4  C   UNL A   1      34.159  24.871  24.188  1.00  0.00     0.264 C 
ATOM      5  O   UNL A   1      35.208  24.388  23.750  1.00  0.00    -0.270 OA
ATOM      6  H   UNL A   1      35.123  25.383  25.852  1.00  0.00     0.163 HD
BRANCH   4   7
ATOM      7  C   UNL A   1      32.810  24.785  23.410  1.00  0.00     0.197 C 
ATOM      8  N   UNL A   1      32.116  21.918  23.432  1.00  0.00    -0.332 N 
ATOM      9  C   UNL A   1      32.056  22.725  24.655  1.00  0.00     0.267 C 
ATOM     10  C   UNL A   1      33.167  22.405  22.522  1.00  0.00     0.267 C 
ATOM     11  H   UNL A   1      31.219  22.045  22.960  1.00  0.00     0.348 HD
ATOM     12  C   UNL A   1      31.717  24.162  24.285  1.00  0.00     0.120 C 
ATOM     13  C   UNL A   1      32.991  23.892  22.163  1.00  0.00     0.120 C 
BRANCH   8  14
ATOM     14  C   UNL A   1      32.207  20.457  23.683  1.00  0.00     0.195 C 
ATOM     15  C   UNL A   1      33.822  16.458  23.830  1.00  0.00     0.332 C 
ATOM     16  N   UNL A   1      33.589  17.879  23.589  1.00  0.00    -0.337 N 
ATOM     17  C   UNL A   1      33.519  18.622  24.853  1.00  0.00     0.268 C 
ATOM     18  C   UNL A   1      32.377  18.090  22.792  1.00  0.00     0.268 C 
ATOM     19  H   UNL A   1      34.380  18.238  23.056  1.00  0.00     0.347 HD
ATOM     20  C   UNL A   1      33.412  20.122  24.586  1.00  0.00     0.126 C 
ATOM     21  C   UNL A   1      32.223  19.568  22.427  1.00  0.00     0.126 C 
ENDBRANCH   8  14
BRANCH   7  22
ATOM     22  O   UNL A   1      32.614  26.177  23.056  1.00  0.00    -0.477 OA
BRANCH  22  23
ATOM     23  C   UNL A   1      31.358  26.702  23.060  1.00  0.00     0.121 A 
ATOM     24  C   UNL A   1      30.297  26.109  23.733  1.00  0.00     0.047 A 
ATOM     25  C   UNL A   1      31.201  27.972  22.505  1.00  0.00     0.055 A 
ATOM     26  C   UNL A   1      29.044  26.724  23.750  1.00  0.00     0.012 A 
ATOM     27  C   UNL A   1      29.959  28.626  22.548  1.00  0.00    -0.015 A 
ATOM     28  C   UNL A   1      28.859  27.979  23.156  1.00  0.00    -0.018 A 
ATOM     29  C   UNL A   1      29.784  29.911  22.010  1.00  0.00     0.009 A 
ATOM     30  C   UNL A   1      27.609  28.614  23.177  1.00  0.00     0.009 A 
ATOM     31  C   UNL A   1      28.538  30.538  22.054  1.00  0.00     0.001 A 
ATOM     32  C   UNL A   1      27.449  29.887  22.627  1.00  0.00     0.001 A 
ENDBRANCH  22  23
ENDBRANCH   7  22
ENDBRANCH   4   7
ENDBRANCH   2   3
ENDBRANCH   1   2
BRANCH   1  33
ATOM     33  C   UNL A   1      33.284  28.378  27.607  1.00  0.00     0.118 C 
BRANCH  33  34
ATOM     34  N   UNL A   1      33.275  29.832  27.537  1.00  0.00    -0.352 N 
ATOM     35  C   UNL A   1      34.231  30.744  27.901  1.00  0.00     0.251 C 
ATOM     36  H   UNL A   1      32.449  30.222  27.171  1.00  0.00     0.163 HD
ATOM     37  O   UNL A   1      33.932  31.940  27.938  1.00  0.00    -0.269 OA
BRANCH  35  38
ATOM     38  C   UNL A   1      35.600  30.319  28.264  1.00  0.00     0.039 A 
ATOM     39  C   UNL A   1      36.583  30.298  27.269  1.00  0.00     0.014 A 
ATOM     40  C   UNL A   1      35.917  29.898  29.559  1.00  0.00     0.014 A 
ATOM     41  C   UNL A   1      37.889  29.915  27.585  1.00  0.00     0.010 A 
ATOM     42  C   UNL A   1      37.236  29.588  29.890  1.00  0.00     0.010 A 
ATOM     43  C   UNL A   1      38.235  29.588  28.906  1.00  0.00    -0.014 A 
BRANCH  43  44
ATOM     44  C   UNL A   1      39.636  29.253  29.272  1.00  0.00     0.031 A 
ATOM     45  C   UNL A   1      40.516  30.274  29.942  1.00  0.00     0.074 A 
ATOM     46  C   UNL A   1      40.135  28.042  28.949  1.00  0.00     0.049 A 
ATOM     47  N   UNL A   1      41.772  30.171  30.298  1.00  0.00    -0.248 NA
ATOM     48  C   UNL A   1      39.917  31.587  30.228  1.00  0.00     0.031 C 
ATOM     49  C   UNL A   1      39.400  26.981  28.257  1.00  0.00     0.029 A 
ATOM     50  N   UNL A   1      41.380  27.503  29.154  1.00  0.00    -0.354 N 
ATOM     51  C   UNL A   1      42.118  31.409  30.830  1.00  0.00     0.074 A 
ATOM     52  C   UNL A   1      40.953  32.258  30.710  1.00  0.00     0.031 C 
ATOM     53  C   UNL A   1      40.199  25.912  28.117  1.00  0.00     0.029 A 
ATOM     54  C   UNL A   1      41.513  26.222  28.673  1.00  0.00     0.049 A 
ATOM     55  H   UNL A   1      42.110  27.989  29.602  1.00  0.00     0.167 HD
ATOM     56  C   UNL A   1      43.292  31.798  31.384  1.00  0.00     0.031 A 
ATOM     57  C   UNL A   1      42.572  25.390  28.672  1.00  0.00     0.031 A 
ATOM     58  C   UNL A   1      44.446  30.947  31.514  1.00  0.00     0.049 A 
ATOM     59  C   UNL A   1      43.862  25.841  29.297  1.00  0.00     0.074 A 
ATOM     60  C   UNL A   1      45.660  31.230  32.117  1.00  0.00     0.029 A 
ATOM     61  N   UNL A   1      44.534  29.651  31.029  1.00  0.00    -0.354 N 
ATOM     62  N   UNL A   1      44.145  26.991  29.861  1.00  0.00    -0.248 NA
ATOM     63  C   UNL A   1      44.971  24.877  29.299  1.00  0.00     0.031 C 
ATOM     64  C   UNL A   1      46.498  30.122  31.954  1.00  0.00     0.029 A 
ATOM     65  C   UNL A   1      45.788  29.129  31.297  1.00  0.00     0.049 A 
ATOM     66  H   UNL A   1      43.811  29.172  30.562  1.00  0.00     0.167 HD
ATOM     67  C   UNL A   1      45.459  26.881  30.304  1.00  0.00     0.074 A 
ATOM     68  C   UNL A   1      45.906  25.547  29.959  1.00  0.00     0.031 C 
ATOM     69  C   UNL A   1      46.224  27.802  30.940  1.00  0.00     0.031 A 
BRANCH  56  70
ATOM     70  C   UNL A   1      43.388  33.215  31.886  1.00  0.00    -0.014 A 
ATOM     71  C   UNL A   1      43.176  33.524  33.242  1.00  0.00     0.010 A 
ATOM     72  C   UNL A   1      43.731  34.251  30.996  1.00  0.00     0.010 A 
ATOM     73  C   UNL A   1      43.258  34.845  33.690  1.00  0.00     0.020 A 
ATOM     74  C   UNL A   1      43.843  35.570  31.445  1.00  0.00     0.020 A 
ATOM     75  C   UNL A   1      43.587  35.861  32.786  1.00  0.00     0.054 A 
BRANCH  75  76
ATOM     76  S   UNL A   1      43.701  37.565  33.397  1.00  0.00     0.124 S 
ATOM     77  O   UNL A   1      44.928  37.519  34.188  1.00  0.00    -0.237 OA
ATOM     78  O   UNL A   1      43.779  38.344  32.164  1.00  0.00    -0.237 OA
ATOM     79  O   UNL A   1      42.471  37.742  34.165  1.00  0.00    -0.744 OA
ENDBRANCH  75  76
ENDBRANCH  56  70
BRANCH  57  80
ATOM     80  C   UNL A   1      42.447  24.035  28.068  1.00  0.00    -0.014 A 
ATOM     81  C   UNL A   1      42.132  22.922  28.868  1.00  0.00     0.010 A 
ATOM     82  C   UNL A   1      42.620  23.855  26.683  1.00  0.00     0.010 A 
ATOM     83  C   UNL A   1      42.007  21.653  28.297  1.00  0.00     0.020 A 
ATOM     84  C   UNL A   1      42.469  22.592  26.105  1.00  0.00     0.020 A 
ATOM     85  C   UNL A   1      42.174  21.495  26.919  1.00  0.00     0.054 A 
BRANCH  85  86
ATOM     86  S   UNL A   1      41.948  19.849  26.190  1.00  0.00     0.124 S 
ATOM     87  O   UNL A   1      42.875  19.886  25.064  1.00  0.00    -0.237 OA
ATOM     88  O   UNL A   1      42.322  18.963  27.290  1.00  0.00    -0.237 OA
ATOM     89  O   UNL A   1      40.531  19.826  25.835  1.00  0.00    -0.744 OA
ENDBRANCH  85  86
ENDBRANCH  57  80
BRANCH  69  90
ATOM     90  C   UNL A   1      47.619  27.391  31.328  1.00  0.00    -0.014 A 
ATOM     91  C   UNL A   1      47.881  26.780  32.568  1.00  0.00     0.010 A 
ATOM     92  C   UNL A   1      48.677  27.581  30.421  1.00  0.00     0.010 A 
ATOM     93  C   UNL A   1      49.183  26.401  32.907  1.00  0.00     0.020 A 
ATOM     94  C   UNL A   1      49.975  27.179  30.746  1.00  0.00     0.020 A 
ATOM     95  C   UNL A   1      50.222  26.606  31.995  1.00  0.00     0.054 A 
BRANCH  95  96
ATOM     96  S   UNL A   1      51.898  26.076  32.445  1.00  0.00     0.124 S 
ATOM     97  O   UNL A   1      51.791  24.623  32.355  1.00  0.00    -0.237 OA
ATOM     98  O   UNL A   1      52.722  26.711  31.421  1.00  0.00    -0.237 OA
ATOM     99  O   UNL A   1      52.076  26.606  33.796  1.00  0.00    -0.744 OA
ENDBRANCH  95  96
ENDBRANCH  69  90
ENDBRANCH  43  44
ENDBRANCH  35  38
ENDBRANCH  33  34
ENDBRANCH   1  33
TORSDOF 16
ENDMDL
