MODEL 1
REMARK VINA RESULT:      -9.2      0.000      0.000
REMARK SMILES COCc1cccc(C[NH2+][C@H](C)[C@H](C)C(=O)NCCCNC(=O)c2ccc(-c3c4nc(c(-c5ccc(S(=O)(=O)[O-])cc5)c5ccc([nH]5)c(-c5ccc(S(=O)(=O)[O-])cc5)c5nc(c(-c6ccc(S(=O)(=O)[O-])cc6)c6ccc3[nH]6)C=C5)C=C4)cc2)c1
REMARK SMILES IDX 15 1 16 2 17 3 13 5 14 6 11 7 12 8 10 9 9 12 8 13 4 14 5 15
REMARK SMILES IDX 84 16 6 17 7 18 3 19 2 20 1 21 18 22 19 23 20 24 21 25 22 26
REMARK SMILES IDX 23 28 24 29 25 30 83 31 26 32 82 33 27 34 28 35 29 36 76 37
REMARK SMILES IDX 30 38 81 39 75 40 77 41 31 42 80 43 74 44 73 45 32 47 62 48
REMARK SMILES IDX 43 49 61 50 44 51 47 52 60 53 78 54 45 55 46 56 59 58 79 59
REMARK SMILES IDX 48 60 33 61 34 62 42 63 35 64 41 65 36 66 37 67 38 68 39 69
REMARK SMILES IDX 40 70 63 71 64 72 72 73 65 74 71 75 66 76 67 77 68 78 69 79
REMARK SMILES IDX 70 80 49 81 50 82 58 83 51 84 57 85 52 86 53 87 54 88 55 89
REMARK SMILES IDX 56 90
REMARK H PARENT 17 4 10 10 10 11 21 27 77 46 47 57
REMARK Flexibility Score: inf
ROOT
ATOM      1  C   UNL A   1      41.759  20.918  26.322  1.00  0.00     0.228 C 
ATOM      2  O   UNL A   1      41.687  19.706  26.087  1.00  0.00    -0.275 OA
ATOM      3  N   UNL A   1      42.645  21.618  25.575  1.00  0.00    -0.356 N 
ATOM      4  H   UNL A   1      43.123  21.074  24.906  1.00  0.00     0.163 HD
ENDROOT
BRANCH   1   5
ATOM      5  C   UNL A   1      40.852  21.554  27.375  1.00  0.00     0.133 C 
ATOM      6  C   UNL A   1      41.640  22.289  28.464  1.00  0.00     0.024 C 
BRANCH   5   7
ATOM      7  C   UNL A   1      39.643  22.371  26.830  1.00  0.00     0.191 C 
ATOM      8  C   UNL A   1      39.715  23.897  26.970  1.00  0.00     0.076 C 
BRANCH   7   9
ATOM      9  N   UNL A   1      39.229  22.038  25.450  1.00  0.00    -0.340 N 
ATOM     10  H   UNL A   1      38.920  22.898  24.996  1.00  0.00     0.346 HD
ATOM     11  H   UNL A   1      40.041  21.613  25.003  1.00  0.00     0.346 HD
BRANCH   9  12
ATOM     12  C   UNL A   1      38.144  21.057  25.349  1.00  0.00     0.297 C 
BRANCH  12  13
ATOM     13  C   UNL A   1      36.826  21.722  25.023  1.00  0.00     0.006 A 
ATOM     14  C   UNL A   1      34.459  21.481  24.462  1.00  0.00    -0.022 A 
ATOM     15  C   UNL A   1      34.380  22.872  24.302  1.00  0.00     0.006 A 
ATOM     16  C   UNL A   1      35.683  20.926  24.851  1.00  0.00     0.015 A 
ATOM     17  C   UNL A   1      35.496  23.682  24.524  1.00  0.00     0.001 A 
ATOM     18  C   UNL A   1      36.714  23.110  24.883  1.00  0.00     0.009 A 
BRANCH  14  19
ATOM     19  C   UNL A   1      33.238  20.631  24.185  1.00  0.00     0.195 C 
BRANCH  19  20
ATOM     20  O   UNL A   1      32.602  20.120  25.359  1.00  0.00    -0.380 OA
ATOM     21  C   UNL A   1      32.713  18.707  25.486  1.00  0.00     0.195 C 
ENDBRANCH  19  20
ENDBRANCH  14  19
ENDBRANCH  12  13
ENDBRANCH   9  12
ENDBRANCH   7   9
ENDBRANCH   5   7
ENDBRANCH   1   5
BRANCH   3  22
ATOM     22  C   UNL A   1      43.024  23.017  25.575  1.00  0.00     0.117 C 
BRANCH  22  23
ATOM     23  C   UNL A   1      44.210  23.290  26.482  1.00  0.00     0.042 C 
BRANCH  23  24
ATOM     24  C   UNL A   1      44.637  24.749  26.486  1.00  0.00     0.118 C 
BRANCH  24  25
ATOM     25  N   UNL A   1      44.025  25.518  25.407  1.00  0.00    -0.352 N 
ATOM     26  C   UNL A   1      43.190  26.610  25.468  1.00  0.00     0.251 C 
ATOM     27  H   UNL A   1      44.243  25.209  24.497  1.00  0.00     0.163 HD
ATOM     28  O   UNL A   1      42.613  27.001  24.462  1.00  0.00    -0.269 OA
BRANCH  26  29
ATOM     29  C   UNL A   1      42.978  27.284  26.766  1.00  0.00     0.039 A 
ATOM     30  C   UNL A   1      43.672  28.462  27.053  1.00  0.00     0.014 A 
ATOM     31  C   UNL A   1      42.063  26.765  27.681  1.00  0.00     0.014 A 
ATOM     32  C   UNL A   1      43.376  29.166  28.223  1.00  0.00     0.010 A 
ATOM     33  C   UNL A   1      41.692  27.520  28.783  1.00  0.00     0.010 A 
ATOM     34  C   UNL A   1      42.350  28.724  29.073  1.00  0.00    -0.014 A 
BRANCH  34  35
ATOM     35  C   UNL A   1      41.948  29.474  30.291  1.00  0.00     0.031 A 
ATOM     36  C   UNL A   1      42.756  29.321  31.552  1.00  0.00     0.074 A 
ATOM     37  C   UNL A   1      40.810  30.197  30.296  1.00  0.00     0.049 A 
ATOM     38  N   UNL A   1      42.494  29.754  32.759  1.00  0.00    -0.248 NA
ATOM     39  C   UNL A   1      44.000  28.539  31.453  1.00  0.00     0.031 C 
ATOM     40  C   UNL A   1      39.916  30.388  29.150  1.00  0.00     0.029 A 
ATOM     41  N   UNL A   1      40.202  30.896  31.308  1.00  0.00    -0.354 N 
ATOM     42  C   UNL A   1      43.509  29.253  33.565  1.00  0.00     0.074 A 
ATOM     43  C   UNL A   1      44.365  28.448  32.722  1.00  0.00     0.031 C 
ATOM     44  C   UNL A   1      38.896  31.182  29.516  1.00  0.00     0.029 A 
ATOM     45  C   UNL A   1      39.034  31.515  30.929  1.00  0.00     0.049 A 
ATOM     46  H   UNL A   1      40.568  30.948  32.220  1.00  0.00     0.167 HD
ATOM     47  C   UNL A   1      43.721  29.458  34.886  1.00  0.00     0.031 A 
ATOM     48  C   UNL A   1      38.170  32.263  31.643  1.00  0.00     0.031 A 
ATOM     49  C   UNL A   1      42.897  30.301  35.707  1.00  0.00     0.049 A 
ATOM     50  C   UNL A   1      38.444  32.507  33.101  1.00  0.00     0.074 A 
ATOM     51  C   UNL A   1      43.074  30.646  37.035  1.00  0.00     0.029 A 
ATOM     52  N   UNL A   1      41.747  30.941  35.273  1.00  0.00    -0.354 N 
ATOM     53  N   UNL A   1      39.441  32.070  33.835  1.00  0.00    -0.248 NA
ATOM     54  C   UNL A   1      37.483  33.350  33.825  1.00  0.00     0.031 C 
ATOM     55  C   UNL A   1      42.007  31.467  37.415  1.00  0.00     0.029 A 
ATOM     56  C   UNL A   1      41.194  31.670  36.311  1.00  0.00     0.049 A 
ATOM     57  H   UNL A   1      41.378  30.885  34.363  1.00  0.00     0.167 HD
ATOM     58  C   UNL A   1      39.244  32.614  35.099  1.00  0.00     0.074 A 
ATOM     59  C   UNL A   1      38.038  33.413  35.030  1.00  0.00     0.031 C 
ATOM     60  C   UNL A   1      40.000  32.469  36.216  1.00  0.00     0.031 A 
BRANCH  47  61
ATOM     61  C   UNL A   1      44.891  28.750  35.519  1.00  0.00    -0.014 A 
ATOM     62  C   UNL A   1      44.752  27.469  36.083  1.00  0.00     0.010 A 
ATOM     63  C   UNL A   1      46.152  29.372  35.537  1.00  0.00     0.010 A 
ATOM     64  C   UNL A   1      45.838  26.848  36.705  1.00  0.00     0.020 A 
ATOM     65  C   UNL A   1      47.250  28.741  36.131  1.00  0.00     0.020 A 
ATOM     66  C   UNL A   1      47.079  27.492  36.731  1.00  0.00     0.054 A 
BRANCH  66  67
ATOM     67  S   UNL A   1      48.473  26.662  37.542  1.00  0.00     0.124 S 
ATOM     68  O   UNL A   1      48.074  25.260  37.463  1.00  0.00    -0.237 OA
ATOM     69  O   UNL A   1      49.606  27.040  36.699  1.00  0.00    -0.237 OA
ATOM     70  O   UNL A   1      48.482  27.235  38.886  1.00  0.00    -0.744 OA
ENDBRANCH  66  67
ENDBRANCH  47  61
BRANCH  48  71
ATOM     71  C   UNL A   1      36.986  32.869  30.976  1.00  0.00    -0.014 A 
ATOM     72  C   UNL A   1      35.740  32.218  31.028  1.00  0.00     0.010 A 
ATOM     73  C   UNL A   1      37.085  34.103  30.308  1.00  0.00     0.010 A 
ATOM     74  C   UNL A   1      34.618  32.784  30.416  1.00  0.00     0.020 A 
ATOM     75  C   UNL A   1      35.960  34.683  29.715  1.00  0.00     0.020 A 
ATOM     76  C   UNL A   1      34.735  34.015  29.765  1.00  0.00     0.054 A 
BRANCH  76  77
ATOM     77  S   UNL A   1      33.250  34.758  29.031  1.00  0.00     0.124 S 
ATOM     78  O   UNL A   1      32.711  33.649  28.250  1.00  0.00    -0.237 OA
ATOM     79  O   UNL A   1      32.474  35.141  30.207  1.00  0.00    -0.237 OA
ATOM     80  O   UNL A   1      33.779  35.876  28.253  1.00  0.00    -0.744 OA
ENDBRANCH  76  77
ENDBRANCH  48  71
BRANCH  60  81
ATOM     81  C   UNL A   1      39.577  33.228  37.443  1.00  0.00    -0.014 A 
ATOM     82  C   UNL A   1      38.786  32.625  38.435  1.00  0.00     0.010 A 
ATOM     83  C   UNL A   1      40.053  34.537  37.640  1.00  0.00     0.010 A 
ATOM     84  C   UNL A   1      38.462  33.329  39.599  1.00  0.00     0.020 A 
ATOM     85  C   UNL A   1      39.751  35.233  38.812  1.00  0.00     0.020 A 
ATOM     86  C   UNL A   1      38.949  34.628  39.781  1.00  0.00     0.054 A 
BRANCH  86  87
ATOM     87  S   UNL A   1      38.572  35.495  41.329  1.00  0.00     0.124 S 
ATOM     88  O   UNL A   1      39.672  35.069  42.189  1.00  0.00    -0.237 OA
ATOM     89  O   UNL A   1      38.596  36.898  40.925  1.00  0.00    -0.237 OA
ATOM     90  O   UNL A   1      37.256  34.982  41.701  1.00  0.00    -0.744 OA
ENDBRANCH  86  87
ENDBRANCH  60  81
ENDBRANCH  34  35
ENDBRANCH  26  29
ENDBRANCH  24  25
ENDBRANCH  23  24
ENDBRANCH  22  23
ENDBRANCH   3  22
TORSDOF 19
ENDMDL
MODEL 2
REMARK VINA RESULT:      -8.5      3.823      4.931
REMARK SMILES COCc1cccc(C[NH2+][C@H](C)[C@H](C)C(=O)NCCCNC(=O)c2ccc(-c3c4nc(c(-c5ccc(S(=O)(=O)[O-])cc5)c5ccc([nH]5)c(-c5ccc(S(=O)(=O)[O-])cc5)c5nc(c(-c6ccc(S(=O)(=O)[O-])cc6)c6ccc3[nH]6)C=C5)C=C4)cc2)c1
REMARK SMILES IDX 15 1 16 2 17 3 13 5 14 6 11 7 12 8 10 9 9 12 8 13 4 14 5 15
REMARK SMILES IDX 84 16 6 17 7 18 3 19 2 20 1 21 18 22 19 23 20 24 21 25 22 26
REMARK SMILES IDX 23 28 24 29 25 30 83 31 26 32 82 33 27 34 28 35 29 36 76 37
REMARK SMILES IDX 30 38 81 39 75 40 77 41 31 42 80 43 74 44 73 45 32 47 62 48
REMARK SMILES IDX 43 49 61 50 44 51 47 52 60 53 78 54 45 55 46 56 59 58 79 59
REMARK SMILES IDX 48 60 33 61 34 62 42 63 35 64 41 65 36 66 37 67 38 68 39 69
REMARK SMILES IDX 40 70 63 71 64 72 72 73 65 74 71 75 66 76 67 77 68 78 69 79
REMARK SMILES IDX 70 80 49 81 50 82 58 83 51 84 57 85 52 86 53 87 54 88 55 89
REMARK SMILES IDX 56 90
REMARK H PARENT 17 4 10 10 10 11 21 27 77 46 47 57
REMARK Flexibility Score: inf
ROOT
ATOM      1  C   UNL A   1      43.557  24.907  26.206  1.00  0.00     0.228 C 
ATOM      2  O   UNL A   1      42.501  25.155  25.613  1.00  0.00    -0.275 OA
ATOM      3  N   UNL A   1      44.624  24.612  25.425  1.00  0.00    -0.356 N 
ATOM      4  H   UNL A   1      44.435  24.651  24.459  1.00  0.00     0.163 HD
ENDROOT
BRANCH   1   5
ATOM      5  C   UNL A   1      43.621  24.980  27.731  1.00  0.00     0.133 C 
ATOM      6  C   UNL A   1      42.732  26.088  28.305  1.00  0.00     0.024 C 
BRANCH   5   7
ATOM      7  C   UNL A   1      43.481  23.624  28.486  1.00  0.00     0.191 C 
ATOM      8  C   UNL A   1      44.279  23.468  29.786  1.00  0.00     0.076 C 
BRANCH   7   9
ATOM      9  N   UNL A   1      42.092  23.175  28.723  1.00  0.00    -0.340 N 
ATOM     10  H   UNL A   1      42.051  22.748  29.648  1.00  0.00     0.346 HD
ATOM     11  H   UNL A   1      41.505  24.003  28.631  1.00  0.00     0.346 HD
BRANCH   9  12
ATOM     12  C   UNL A   1      41.583  22.202  27.751  1.00  0.00     0.297 C 
BRANCH  12  13
ATOM     13  C   UNL A   1      40.257  22.641  27.173  1.00  0.00     0.006 A 
ATOM     14  C   UNL A   1      38.305  22.100  25.803  1.00  0.00    -0.022 A 
ATOM     15  C   UNL A   1      37.849  23.416  25.977  1.00  0.00     0.006 A 
ATOM     16  C   UNL A   1      39.496  21.723  26.433  1.00  0.00     0.015 A 
ATOM     17  C   UNL A   1      38.567  24.325  26.757  1.00  0.00     0.001 A 
ATOM     18  C   UNL A   1      39.766  23.940  27.353  1.00  0.00     0.009 A 
BRANCH  14  19
ATOM     19  C   UNL A   1      37.517  21.151  24.928  1.00  0.00     0.195 C 
BRANCH  19  20
ATOM     20  O   UNL A   1      36.419  21.759  24.246  1.00  0.00    -0.380 OA
ATOM     21  C   UNL A   1      35.152  21.313  24.714  1.00  0.00     0.195 C 
ENDBRANCH  19  20
ENDBRANCH  14  19
ENDBRANCH  12  13
ENDBRANCH   9  12
ENDBRANCH   7   9
ENDBRANCH   5   7
ENDBRANCH   1   5
BRANCH   3  22
ATOM     22  C   UNL A   1      45.991  24.251  25.744  1.00  0.00     0.117 C 
BRANCH  22  23
ATOM     23  C   UNL A   1      46.896  24.298  24.527  1.00  0.00     0.042 C 
BRANCH  23  24
ATOM     24  C   UNL A   1      48.012  25.323  24.653  1.00  0.00     0.118 C 
BRANCH  24  25
ATOM     25  N   UNL A   1      47.891  26.411  23.688  1.00  0.00    -0.352 N 
ATOM     26  C   UNL A   1      47.296  27.644  23.824  1.00  0.00     0.251 C 
ATOM     27  H   UNL A   1      48.295  26.236  22.807  1.00  0.00     0.163 HD
ATOM     28  O   UNL A   1      47.114  28.352  22.842  1.00  0.00    -0.269 OA
BRANCH  26  29
ATOM     29  C   UNL A   1      46.856  28.090  25.162  1.00  0.00     0.039 A 
ATOM     30  C   UNL A   1      47.776  28.691  26.026  1.00  0.00     0.014 A 
ATOM     31  C   UNL A   1      45.523  27.945  25.544  1.00  0.00     0.014 A 
ATOM     32  C   UNL A   1      47.332  29.226  27.237  1.00  0.00     0.010 A 
ATOM     33  C   UNL A   1      45.065  28.574  26.691  1.00  0.00     0.010 A 
ATOM     34  C   UNL A   1      45.965  29.214  27.557  1.00  0.00    -0.014 A 
BRANCH  34  35
ATOM     35  C   UNL A   1      45.433  29.834  28.798  1.00  0.00     0.031 A 
ATOM     36  C   UNL A   1      45.360  29.015  30.059  1.00  0.00     0.074 A 
ATOM     37  C   UNL A   1      44.919  31.080  28.765  1.00  0.00     0.049 A 
ATOM     38  N   UNL A   1      44.790  29.304  31.201  1.00  0.00    -0.248 NA
ATOM     39  C   UNL A   1      45.969  27.674  30.017  1.00  0.00     0.031 C 
ATOM     40  C   UNL A   1      44.891  31.961  27.594  1.00  0.00     0.029 A 
ATOM     41  N   UNL A   1      44.309  31.818  29.748  1.00  0.00    -0.354 N 
ATOM     42  C   UNL A   1      44.927  28.166  31.987  1.00  0.00     0.074 A 
ATOM     43  C   UNL A   1      45.592  27.168  31.180  1.00  0.00     0.031 C 
ATOM     44  C   UNL A   1      44.326  33.130  27.937  1.00  0.00     0.029 A 
ATOM     45  C   UNL A   1      43.908  33.066  29.333  1.00  0.00     0.049 A 
ATOM     46  H   UNL A   1      44.169  31.484  30.663  1.00  0.00     0.167 HD
ATOM     47  C   UNL A   1      44.548  27.974  33.273  1.00  0.00     0.031 A 
ATOM     48  C   UNL A   1      43.271  34.048  30.003  1.00  0.00     0.031 A 
ATOM     49  C   UNL A   1      43.935  28.988  34.086  1.00  0.00     0.049 A 
ATOM     50  C   UNL A   1      42.893  33.825  31.440  1.00  0.00     0.074 A 
ATOM     51  C   UNL A   1      43.592  28.925  35.425  1.00  0.00     0.029 A 
ATOM     52  N   UNL A   1      43.584  30.251  33.637  1.00  0.00    -0.354 N 
ATOM     53  N   UNL A   1      43.080  32.761  32.186  1.00  0.00    -0.248 NA
ATOM     54  C   UNL A   1      42.223  34.937  32.130  1.00  0.00     0.031 C 
ATOM     55  C   UNL A   1      42.998  30.141  35.777  1.00  0.00     0.029 A 
ATOM     56  C   UNL A   1      43.015  30.976  34.670  1.00  0.00     0.049 A 
ATOM     57  H   UNL A   1      43.718  30.584  32.721  1.00  0.00     0.167 HD
ATOM     58  C   UNL A   1      42.583  33.088  33.442  1.00  0.00     0.074 A 
ATOM     59  C   UNL A   1      42.089  34.448  33.357  1.00  0.00     0.031 C 
ATOM     60  C   UNL A   1      42.544  32.332  34.567  1.00  0.00     0.031 A 
BRANCH  47  61
ATOM     61  C   UNL A   1      44.788  26.612  33.870  1.00  0.00    -0.014 A 
ATOM     62  C   UNL A   1      43.742  25.681  34.007  1.00  0.00     0.010 A 
ATOM     63  C   UNL A   1      46.082  26.254  34.289  1.00  0.00     0.010 A 
ATOM     64  C   UNL A   1      43.975  24.439  34.604  1.00  0.00     0.020 A 
ATOM     65  C   UNL A   1      46.325  25.001  34.858  1.00  0.00     0.020 A 
ATOM     66  C   UNL A   1      45.264  24.110  35.033  1.00  0.00     0.054 A 
BRANCH  66  67
ATOM     67  S   UNL A   1      45.540  22.491  35.802  1.00  0.00     0.124 S 
ATOM     68  O   UNL A   1      45.257  22.774  37.206  1.00  0.00    -0.237 OA
ATOM     69  O   UNL A   1      44.563  21.642  35.124  1.00  0.00    -0.237 OA
ATOM     70  O   UNL A   1      46.938  22.196  35.493  1.00  0.00    -0.744 OA
ENDBRANCH  66  67
ENDBRANCH  47  61
BRANCH  48  71
ATOM     71  C   UNL A   1      42.991  35.345  29.330  1.00  0.00    -0.014 A 
ATOM     72  C   UNL A   1      43.855  36.437  29.521  1.00  0.00     0.010 A 
ATOM     73  C   UNL A   1      41.880  35.492  28.479  1.00  0.00     0.010 A 
ATOM     74  C   UNL A   1      43.609  37.657  28.884  1.00  0.00     0.020 A 
ATOM     75  C   UNL A   1      41.644  36.704  27.822  1.00  0.00     0.020 A 
ATOM     76  C   UNL A   1      42.506  37.781  28.037  1.00  0.00     0.054 A 
BRANCH  76  77
ATOM     77  S   UNL A   1      42.242  39.356  27.172  1.00  0.00     0.124 S 
ATOM     78  O   UNL A   1      43.550  39.592  26.569  1.00  0.00    -0.237 OA
ATOM     79  O   UNL A   1      41.165  39.030  26.242  1.00  0.00    -0.237 OA
ATOM     80  O   UNL A   1      41.870  40.275  28.246  1.00  0.00    -0.744 OA
ENDBRANCH  76  77
ENDBRANCH  48  71
BRANCH  60  81
ATOM     81  C   UNL A   1      41.996  32.969  35.814  1.00  0.00    -0.014 A 
ATOM     82  C   UNL A   1      42.817  33.721  36.670  1.00  0.00     0.010 A 
ATOM     83  C   UNL A   1      40.617  32.879  36.082  1.00  0.00     0.010 A 
ATOM     84  C   UNL A   1      42.270  34.359  37.786  1.00  0.00     0.020 A 
ATOM     85  C   UNL A   1      40.065  33.535  37.184  1.00  0.00     0.020 A 
ATOM     86  C   UNL A   1      40.897  34.264  38.035  1.00  0.00     0.054 A 
BRANCH  86  87
ATOM     87  S   UNL A   1      40.200  35.157  39.451  1.00  0.00     0.124 S 
ATOM     88  O   UNL A   1      41.200  34.911  40.486  1.00  0.00    -0.237 OA
ATOM     89  O   UNL A   1      40.128  36.531  38.961  1.00  0.00    -0.237 OA
ATOM     90  O   UNL A   1      38.908  34.510  39.666  1.00  0.00    -0.744 OA
ENDBRANCH  86  87
ENDBRANCH  60  81
ENDBRANCH  34  35
ENDBRANCH  26  29
ENDBRANCH  24  25
ENDBRANCH  23  24
ENDBRANCH  22  23
ENDBRANCH   3  22
TORSDOF 19
ENDMDL
MODEL 3
REMARK VINA RESULT:      -8.4     10.711     17.516
REMARK SMILES COCc1cccc(C[NH2+][C@H](C)[C@H](C)C(=O)NCCCNC(=O)c2ccc(-c3c4nc(c(-c5ccc(S(=O)(=O)[O-])cc5)c5ccc([nH]5)c(-c5ccc(S(=O)(=O)[O-])cc5)c5nc(c(-c6ccc(S(=O)(=O)[O-])cc6)c6ccc3[nH]6)C=C5)C=C4)cc2)c1
REMARK SMILES IDX 15 1 16 2 17 3 13 5 14 6 11 7 12 8 10 9 9 12 8 13 4 14 5 15
REMARK SMILES IDX 84 16 6 17 7 18 3 19 2 20 1 21 18 22 19 23 20 24 21 25 22 26
REMARK SMILES IDX 23 28 24 29 25 30 83 31 26 32 82 33 27 34 28 35 29 36 76 37
REMARK SMILES IDX 30 38 81 39 75 40 77 41 31 42 80 43 74 44 73 45 32 47 62 48
REMARK SMILES IDX 43 49 61 50 44 51 47 52 60 53 78 54 45 55 46 56 59 58 79 59
REMARK SMILES IDX 48 60 33 61 34 62 42 63 35 64 41 65 36 66 37 67 38 68 39 69
REMARK SMILES IDX 40 70 63 71 64 72 72 73 65 74 71 75 66 76 67 77 68 78 69 79
REMARK SMILES IDX 70 80 49 81 50 82 58 83 51 84 57 85 52 86 53 87 54 88 55 89
REMARK SMILES IDX 56 90
REMARK H PARENT 17 4 10 10 10 11 21 27 77 46 47 57
REMARK Flexibility Score: inf
ROOT
ATOM      1  C   UNL A   1      45.233  41.677  24.820  1.00  0.00     0.228 C 
ATOM      2  O   UNL A   1      46.102  41.722  23.941  1.00  0.00    -0.275 OA
ATOM      3  N   UNL A   1      45.159  40.524  25.525  1.00  0.00    -0.356 N 
ATOM      4  H   UNL A   1      45.830  39.851  25.265  1.00  0.00     0.163 HD
ENDROOT
BRANCH   1   5
ATOM      5  C   UNL A   1      44.344  42.891  25.088  1.00  0.00     0.133 C 
ATOM      6  C   UNL A   1      44.940  43.837  26.136  1.00  0.00     0.024 C 
BRANCH   5   7
ATOM      7  C   UNL A   1      43.799  43.629  23.830  1.00  0.00     0.191 C 
ATOM      8  C   UNL A   1      44.241  45.085  23.631  1.00  0.00     0.076 C 
BRANCH   7   9
ATOM      9  N   UNL A   1      43.966  42.903  22.552  1.00  0.00    -0.340 N 
ATOM     10  H   UNL A   1      44.536  43.478  21.933  1.00  0.00     0.346 HD
ATOM     11  H   UNL A   1      44.396  42.009  22.786  1.00  0.00     0.346 HD
BRANCH   9  12
ATOM     12  C   UNL A   1      42.716  42.586  21.854  1.00  0.00     0.297 C 
BRANCH  12  13
ATOM     13  C   UNL A   1      42.576  43.389  20.580  1.00  0.00     0.006 A 
ATOM     14  C   UNL A   1      43.589  44.926  18.971  1.00  0.00    -0.022 A 
ATOM     15  C   UNL A   1      42.361  44.990  18.296  1.00  0.00     0.006 A 
ATOM     16  C   UNL A   1      43.686  44.097  20.094  1.00  0.00     0.015 A 
ATOM     17  C   UNL A   1      41.263  44.246  18.736  1.00  0.00     0.001 A 
ATOM     18  C   UNL A   1      41.370  43.449  19.873  1.00  0.00     0.009 A 
BRANCH  14  19
ATOM     19  C   UNL A   1      44.748  45.767  18.483  1.00  0.00     0.195 C 
BRANCH  19  20
ATOM     20  O   UNL A   1      44.775  47.092  19.017  1.00  0.00    -0.380 OA
ATOM     21  C   UNL A   1      45.867  47.867  18.539  1.00  0.00     0.195 C 
ENDBRANCH  19  20
ENDBRANCH  14  19
ENDBRANCH  12  13
ENDBRANCH   9  12
ENDBRANCH   7   9
ENDBRANCH   5   7
ENDBRANCH   1   5
BRANCH   3  22
ATOM     22  C   UNL A   1      44.276  40.092  26.591  1.00  0.00     0.117 C 
BRANCH  22  23
ATOM     23  C   UNL A   1      44.250  38.582  26.739  1.00  0.00     0.042 C 
BRANCH  23  24
ATOM     24  C   UNL A   1      43.759  38.124  28.103  1.00  0.00     0.118 C 
BRANCH  24  25
ATOM     25  N   UNL A   1      42.430  37.524  28.051  1.00  0.00    -0.352 N 
ATOM     26  C   UNL A   1      42.051  36.257  27.672  1.00  0.00     0.251 C 
ATOM     27  H   UNL A   1      41.693  38.116  28.330  1.00  0.00     0.163 HD
ATOM     28  O   UNL A   1      40.868  35.994  27.501  1.00  0.00    -0.269 OA
BRANCH  26  29
ATOM     29  C   UNL A   1      43.089  35.230  27.448  1.00  0.00     0.039 A 
ATOM     30  C   UNL A   1      43.501  34.938  26.146  1.00  0.00     0.014 A 
ATOM     31  C   UNL A   1      43.679  34.585  28.535  1.00  0.00     0.014 A 
ATOM     32  C   UNL A   1      44.571  34.061  25.944  1.00  0.00     0.010 A 
ATOM     33  C   UNL A   1      44.808  33.805  28.340  1.00  0.00     0.010 A 
ATOM     34  C   UNL A   1      45.263  33.526  27.042  1.00  0.00    -0.014 A 
BRANCH  34  35
ATOM     35  C   UNL A   1      46.449  32.647  26.882  1.00  0.00     0.031 A 
ATOM     36  C   UNL A   1      47.812  33.268  26.728  1.00  0.00     0.074 A 
ATOM     37  C   UNL A   1      46.292  31.313  26.766  1.00  0.00     0.049 A 
ATOM     38  N   UNL A   1      48.950  32.699  26.421  1.00  0.00    -0.248 NA
ATOM     39  C   UNL A   1      47.899  34.729  26.897  1.00  0.00     0.031 C 
ATOM     40  C   UNL A   1      45.019  30.592  26.854  1.00  0.00     0.029 A 
ATOM     41  N   UNL A   1      47.215  30.324  26.534  1.00  0.00    -0.354 N 
ATOM     42  C   UNL A   1      49.869  33.736  26.309  1.00  0.00     0.074 A 
ATOM     43  C   UNL A   1      49.150  34.969  26.537  1.00  0.00     0.031 C 
ATOM     44  C   UNL A   1      45.248  29.276  26.713  1.00  0.00     0.029 A 
ATOM     45  C   UNL A   1      46.671  29.063  26.476  1.00  0.00     0.049 A 
ATOM     46  H   UNL A   1      48.177  30.502  26.418  1.00  0.00     0.167 HD
ATOM     47  C   UNL A   1      51.197  33.667  26.057  1.00  0.00     0.031 A 
ATOM     48  C   UNL A   1      47.255  27.868  26.253  1.00  0.00     0.031 A 
ATOM     49  C   UNL A   1      51.916  32.435  25.883  1.00  0.00     0.049 A 
ATOM     50  C   UNL A   1      48.737  27.812  26.010  1.00  0.00     0.074 A 
ATOM     51  C   UNL A   1      53.276  32.249  25.710  1.00  0.00     0.029 A 
ATOM     52  N   UNL A   1      51.331  31.178  25.873  1.00  0.00    -0.354 N 
ATOM     53  N   UNL A   1      49.601  28.799  25.963  1.00  0.00    -0.248 NA
ATOM     54  C   UNL A   1      49.325  26.482  25.798  1.00  0.00     0.031 C 
ATOM     55  C   UNL A   1      53.510  30.879  25.557  1.00  0.00     0.029 A 
ATOM     56  C   UNL A   1      52.302  30.210  25.683  1.00  0.00     0.049 A 
ATOM     57  H   UNL A   1      50.370  31.000  25.983  1.00  0.00     0.167 HD
ATOM     58  C   UNL A   1      50.840  28.205  25.751  1.00  0.00     0.074 A 
ATOM     59  C   UNL A   1      50.614  26.776  25.680  1.00  0.00     0.031 C 
ATOM     60  C   UNL A   1      52.057  28.792  25.630  1.00  0.00     0.031 A 
BRANCH  47  61
ATOM     61  C   UNL A   1      51.951  34.966  25.951  1.00  0.00    -0.014 A 
ATOM     62  C   UNL A   1      52.669  35.486  27.044  1.00  0.00     0.010 A 
ATOM     63  C   UNL A   1      51.952  35.673  24.735  1.00  0.00     0.010 A 
ATOM     64  C   UNL A   1      53.324  36.715  26.940  1.00  0.00     0.020 A 
ATOM     65  C   UNL A   1      52.633  36.888  24.617  1.00  0.00     0.020 A 
ATOM     66  C   UNL A   1      53.296  37.412  25.728  1.00  0.00     0.054 A 
BRANCH  66  67
ATOM     67  S   UNL A   1      54.158  39.004  25.619  1.00  0.00     0.124 S 
ATOM     68  O   UNL A   1      53.680  39.687  26.818  1.00  0.00    -0.237 OA
ATOM     69  O   UNL A   1      55.565  38.610  25.640  1.00  0.00    -0.237 OA
ATOM     70  O   UNL A   1      53.690  39.564  24.353  1.00  0.00    -0.744 OA
ENDBRANCH  66  67
ENDBRANCH  47  61
BRANCH  48  71
ATOM     71  C   UNL A   1      46.438  26.625  26.291  1.00  0.00    -0.014 A 
ATOM     72  C   UNL A   1      46.155  26.008  27.522  1.00  0.00     0.010 A 
ATOM     73  C   UNL A   1      45.920  26.064  25.109  1.00  0.00     0.010 A 
ATOM     74  C   UNL A   1      45.378  24.847  27.571  1.00  0.00     0.020 A 
ATOM     75  C   UNL A   1      45.124  24.916  25.157  1.00  0.00     0.020 A 
ATOM     76  C   UNL A   1      44.865  24.309  26.388  1.00  0.00     0.054 A 
BRANCH  76  77
ATOM     77  S   UNL A   1      43.809  22.836  26.484  1.00  0.00     0.124 S 
ATOM     78  O   UNL A   1      43.685  22.645  27.925  1.00  0.00    -0.237 OA
ATOM     79  O   UNL A   1      42.596  23.272  25.796  1.00  0.00    -0.237 OA
ATOM     80  O   UNL A   1      44.582  21.816  25.779  1.00  0.00    -0.744 OA
ENDBRANCH  76  77
ENDBRANCH  48  71
BRANCH  60  81
ATOM     81  C   UNL A   1      53.248  27.891  25.461  1.00  0.00    -0.014 A 
ATOM     82  C   UNL A   1      53.771  27.607  24.188  1.00  0.00     0.010 A 
ATOM     83  C   UNL A   1      53.901  27.392  26.603  1.00  0.00     0.010 A 
ATOM     84  C   UNL A   1      54.920  26.821  24.061  1.00  0.00     0.020 A 
ATOM     85  C   UNL A   1      55.062  26.627  26.479  1.00  0.00     0.020 A 
ATOM     86  C   UNL A   1      55.560  26.338  25.207  1.00  0.00     0.054 A 
BRANCH  86  87
ATOM     87  S   UNL A   1      57.087  25.379  25.019  1.00  0.00     0.124 S 
ATOM     88  O   UNL A   1      57.912  25.907  26.101  1.00  0.00    -0.237 OA
ATOM     89  O   UNL A   1      56.627  24.004  25.192  1.00  0.00    -0.237 OA
ATOM     90  O   UNL A   1      57.541  25.712  23.670  1.00  0.00    -0.744 OA
ENDBRANCH  86  87
ENDBRANCH  60  81
ENDBRANCH  34  35
ENDBRANCH  26  29
ENDBRANCH  24  25
ENDBRANCH  23  24
ENDBRANCH  22  23
ENDBRANCH   3  22
TORSDOF 19
ENDMDL
