MODEL 1
REMARK VINA RESULT:     -11.7      0.000      0.000
REMARK SMILES C=C(C)COc1cc2oc(=O)c(CC(=O)N3CCC[C@H](C(=O)NCCCNC(=O)c4ccc(-c5c6nc(c(-c7ccc(S(=O)(=O)[O-])cc7)c7ccc([nH]7)c(-c7ccc(S(=O)(=O)[O-])cc7)c7nc(c(-c8ccc(S(=O)(=O)[O-])cc8)c8ccc5[nH]8)C=C7)C=C6)cc4)C3)c(C)c2cc1Cl
REMARK SMILES IDX 21 1 22 2 23 3 20 5 16 6 17 7 90 8 18 9 19 10 14 11 15 12
REMARK SMILES IDX 13 13 12 14 6 15 7 16 95 17 8 18 94 19 96 20 9 21 93 22
REMARK SMILES IDX 10 23 91 24 11 25 92 26 5 27 4 28 2 29 1 30 3 31 24 32 25 33
REMARK SMILES IDX 26 34 27 35 28 36 29 38 30 39 31 40 89 41 32 42 88 43 33 44
REMARK SMILES IDX 34 45 35 46 82 47 36 48 87 49 81 50 83 51 37 52 86 53 80 54
REMARK SMILES IDX 79 55 38 57 68 58 49 59 67 60 50 61 53 62 66 63 84 64 51 65
REMARK SMILES IDX 52 66 65 68 85 69 54 70 39 71 40 72 48 73 41 74 47 75 42 76
REMARK SMILES IDX 43 77 44 78 45 79 46 80 69 81 70 82 78 83 71 84 77 85 72 86
REMARK SMILES IDX 73 87 74 88 75 89 76 90 55 91 56 92 64 93 57 94 63 95 58 96
REMARK SMILES IDX 59 97 60 98 61 99 62 100
REMARK H PARENT 23 4 27 37 83 56 53 67
REMARK Flexibility Score: inf
ROOT
ATOM      1  C   UNL A   1      35.574  22.979  26.138  1.00  0.00     0.224 C 
ATOM      2  O   UNL A   1      35.794  24.197  26.190  1.00  0.00    -0.275 OA
ATOM      3  N   UNL A   1      36.467  22.249  25.425  1.00  0.00    -0.356 N 
ATOM      4  H   UNL A   1      37.117  22.792  24.924  1.00  0.00     0.163 HD
ENDROOT
BRANCH   1   5
ATOM      5  C   UNL A   1      34.369  22.410  26.898  1.00  0.00     0.098 C 
ATOM      6  N   UNL A   1      32.617  21.483  25.354  1.00  0.00    -0.342 N 
ATOM      7  C   UNL A   1      31.576  22.319  25.968  1.00  0.00     0.119 C 
ATOM      8  C   UNL A   1      33.741  21.188  26.232  1.00  0.00     0.133 C 
ATOM      9  C   UNL A   1      32.107  23.599  26.608  1.00  0.00     0.022 C 
ATOM     10  C   UNL A   1      33.362  23.410  27.450  1.00  0.00     0.017 C 
BRANCH   6  11
ATOM     11  C   UNL A   1      32.429  21.059  24.043  1.00  0.00     0.227 C 
ATOM     12  O   UNL A   1      32.151  19.871  23.819  1.00  0.00    -0.275 OA
BRANCH  11  13
ATOM     13  C   UNL A   1      32.628  21.951  22.796  1.00  0.00     0.143 C 
BRANCH  13  14
ATOM     14  C   UNL A   1      32.780  23.440  22.909  1.00  0.00     0.051 A 
ATOM     15  C   UNL A   1      32.754  28.307  24.235  1.00  0.00     0.142 A 
ATOM     16  C   UNL A   1      33.745  27.343  24.074  1.00  0.00     0.096 A 
ATOM     17  C   UNL A   1      31.446  28.028  23.830  1.00  0.00     0.083 A 
ATOM     18  C   UNL A   1      33.391  26.080  23.599  1.00  0.00     0.142 A 
ATOM     19  C   UNL A   1      31.105  26.741  23.395  1.00  0.00     0.036 A 
ATOM     20  Cl  UNL A   1      30.207  29.229  23.832  1.00  0.00    -0.080 Cl
ATOM     21  O   UNL A   1      34.440  25.166  23.428  1.00  0.00    -0.422 OA
ATOM     22  C   UNL A   1      32.074  25.733  23.304  1.00  0.00     0.023 A 
ATOM     23  C   UNL A   1      34.203  23.884  22.966  1.00  0.00     0.340 A 
ATOM     24  C   UNL A   1      31.759  24.322  23.006  1.00  0.00    -0.029 A 
ATOM     25  O   UNL A   1      35.133  23.130  22.701  1.00  0.00    -0.246 OA
ATOM     26  C   UNL A   1      30.301  23.931  22.993  1.00  0.00     0.046 C 
BRANCH  15  27
ATOM     27  O   UNL A   1      33.109  29.534  24.731  1.00  0.00    -0.488 OA
BRANCH  27  28
ATOM     28  C   UNL A   1      32.337  29.868  25.901  1.00  0.00     0.260 C 
BRANCH  28  29
ATOM     29  C   UNL A   1      32.732  28.989  27.064  1.00  0.00    -0.043 C 
ATOM     30  C   UNL A   1      31.844  28.192  27.683  1.00  0.00     0.011 C 
ATOM     31  C   UNL A   1      34.181  29.020  27.462  1.00  0.00     0.042 C 
ENDBRANCH  28  29
ENDBRANCH  27  28
ENDBRANCH  15  27
ENDBRANCH  13  14
ENDBRANCH  11  13
ENDBRANCH   6  11
ENDBRANCH   1   5
BRANCH   3  32
ATOM     32  C   UNL A   1      36.646  20.820  25.262  1.00  0.00     0.117 C 
BRANCH  32  33
ATOM     33  C   UNL A   1      38.046  20.442  24.809  1.00  0.00     0.042 C 
BRANCH  33  34
ATOM     34  C   UNL A   1      39.092  20.637  25.892  1.00  0.00     0.118 C 
BRANCH  34  35
ATOM     35  N   UNL A   1      40.026  19.516  25.981  1.00  0.00    -0.352 N 
ATOM     36  C   UNL A   1      41.392  19.490  26.157  1.00  0.00     0.251 C 
ATOM     37  H   UNL A   1      39.608  18.628  25.903  1.00  0.00     0.163 HD
ATOM     38  O   UNL A   1      41.993  18.424  26.048  1.00  0.00    -0.269 OA
BRANCH  36  39
ATOM     39  C   UNL A   1      42.140  20.736  26.437  1.00  0.00     0.039 A 
ATOM     40  C   UNL A   1      42.451  21.099  27.744  1.00  0.00     0.014 A 
ATOM     41  C   UNL A   1      42.527  21.564  25.378  1.00  0.00     0.014 A 
ATOM     42  C   UNL A   1      42.915  22.379  28.010  1.00  0.00     0.010 A 
ATOM     43  C   UNL A   1      43.127  22.801  25.643  1.00  0.00     0.010 A 
ATOM     44  C   UNL A   1      43.270  23.248  26.965  1.00  0.00    -0.014 A 
BRANCH  44  45
ATOM     45  C   UNL A   1      43.800  24.598  27.296  1.00  0.00     0.031 A 
ATOM     46  C   UNL A   1      45.220  24.983  26.970  1.00  0.00     0.074 A 
ATOM     47  C   UNL A   1      42.965  25.510  27.834  1.00  0.00     0.049 A 
ATOM     48  N   UNL A   1      45.817  26.133  27.150  1.00  0.00    -0.248 NA
ATOM     49  C   UNL A   1      46.083  23.951  26.373  1.00  0.00     0.031 C 
ATOM     50  C   UNL A   1      41.563  25.260  28.181  1.00  0.00     0.029 A 
ATOM     51  N   UNL A   1      43.148  26.836  28.140  1.00  0.00    -0.354 N 
ATOM     52  C   UNL A   1      47.130  25.954  26.730  1.00  0.00     0.074 A 
ATOM     53  C   UNL A   1      47.249  24.579  26.298  1.00  0.00     0.031 C 
ATOM     54  C   UNL A   1      40.990  26.410  28.555  1.00  0.00     0.029 A 
ATOM     55  C   UNL A   1      42.002  27.462  28.572  1.00  0.00     0.049 A 
ATOM     56  H   UNL A   1      44.015  27.295  28.056  1.00  0.00     0.167 HD
ATOM     57  C   UNL A   1      48.141  26.855  26.703  1.00  0.00     0.031 A 
ATOM     58  C   UNL A   1      41.777  28.735  28.954  1.00  0.00     0.031 A 
ATOM     59  C   UNL A   1      48.002  28.231  27.104  1.00  0.00     0.049 A 
ATOM     60  C   UNL A   1      42.912  29.712  28.934  1.00  0.00     0.074 A 
ATOM     61  C   UNL A   1      48.957  29.232  27.067  1.00  0.00     0.029 A 
ATOM     62  N   UNL A   1      46.844  28.802  27.612  1.00  0.00    -0.354 N 
ATOM     63  N   UNL A   1      44.144  29.522  28.527  1.00  0.00    -0.248 NA
ATOM     64  C   UNL A   1      42.639  31.064  29.433  1.00  0.00     0.031 C 
ATOM     65  C   UNL A   1      48.398  30.389  27.616  1.00  0.00     0.029 A 
ATOM     66  C   UNL A   1      47.072  30.131  27.929  1.00  0.00     0.049 A 
ATOM     67  H   UNL A   1      45.987  28.333  27.732  1.00  0.00     0.167 HD
ATOM     68  C   UNL A   1      44.799  30.729  28.727  1.00  0.00     0.074 A 
ATOM     69  C   UNL A   1      43.820  31.652  29.267  1.00  0.00     0.031 C 
ATOM     70  C   UNL A   1      46.096  31.038  28.487  1.00  0.00     0.031 A 
BRANCH  57  71
ATOM     71  C   UNL A   1      49.502  26.391  26.250  1.00  0.00    -0.014 A 
ATOM     72  C   UNL A   1      50.386  25.826  27.189  1.00  0.00     0.010 A 
ATOM     73  C   UNL A   1      49.947  26.593  24.932  1.00  0.00     0.010 A 
ATOM     74  C   UNL A   1      51.692  25.484  26.825  1.00  0.00     0.020 A 
ATOM     75  C   UNL A   1      51.244  26.226  24.555  1.00  0.00     0.020 A 
ATOM     76  C   UNL A   1      52.114  25.691  25.509  1.00  0.00     0.054 A 
BRANCH  76  77
ATOM     77  S   UNL A   1      53.808  25.232  25.048  1.00  0.00     0.124 S 
ATOM     78  O   UNL A   1      54.027  26.030  23.845  1.00  0.00    -0.237 OA
ATOM     79  O   UNL A   1      54.581  25.632  26.222  1.00  0.00    -0.237 OA
ATOM     80  O   UNL A   1      53.722  23.789  24.835  1.00  0.00    -0.744 OA
ENDBRANCH  76  77
ENDBRANCH  57  71
BRANCH  58  81
ATOM     81  C   UNL A   1      40.397  29.117  29.361  1.00  0.00    -0.014 A 
ATOM     82  C   UNL A   1      39.491  29.620  28.406  1.00  0.00     0.010 A 
ATOM     83  C   UNL A   1      40.046  29.151  30.721  1.00  0.00     0.010 A 
ATOM     84  C   UNL A   1      38.307  30.239  28.811  1.00  0.00     0.020 A 
ATOM     85  C   UNL A   1      38.846  29.742  31.127  1.00  0.00     0.020 A 
ATOM     86  C   UNL A   1      38.007  30.321  30.172  1.00  0.00     0.054 A 
BRANCH  86  87
ATOM     87  S   UNL A   1      36.534  31.248  30.684  1.00  0.00     0.124 S 
ATOM     88  O   UNL A   1      35.911  30.321  31.625  1.00  0.00    -0.237 OA
ATOM     89  O   UNL A   1      37.104  32.456  31.274  1.00  0.00    -0.237 OA
ATOM     90  O   UNL A   1      35.807  31.452  29.433  1.00  0.00    -0.744 OA
ENDBRANCH  86  87
ENDBRANCH  58  81
BRANCH  70  91
ATOM     91  C   UNL A   1      46.566  32.427  28.823  1.00  0.00    -0.014 A 
ATOM     92  C   UNL A   1      47.014  32.718  30.124  1.00  0.00     0.010 A 
ATOM     93  C   UNL A   1      46.430  33.473  27.893  1.00  0.00     0.010 A 
ATOM     94  C   UNL A   1      47.277  34.035  30.504  1.00  0.00     0.020 A 
ATOM     95  C   UNL A   1      46.719  34.789  28.262  1.00  0.00     0.020 A 
ATOM     96  C   UNL A   1      47.115  35.064  29.573  1.00  0.00     0.054 A 
BRANCH  96  97
ATOM     97  S   UNL A   1      47.419  36.774  30.098  1.00  0.00     0.124 S 
ATOM     98  O   UNL A   1      48.875  36.863  30.026  1.00  0.00    -0.237 OA
ATOM     99  O   UNL A   1      46.691  37.551  29.098  1.00  0.00    -0.237 OA
ATOM    100  O   UNL A   1      46.855  36.824  31.445  1.00  0.00    -0.744 OA
ENDBRANCH  96  97
ENDBRANCH  70  91
ENDBRANCH  44  45
ENDBRANCH  36  39
ENDBRANCH  34  35
ENDBRANCH  33  34
ENDBRANCH  32  33
ENDBRANCH   3  32
TORSDOF 19
ENDMDL
MODEL 2
REMARK VINA RESULT:     -11.7      2.736      9.040
REMARK SMILES C=C(C)COc1cc2oc(=O)c(CC(=O)N3CCC[C@H](C(=O)NCCCNC(=O)c4ccc(-c5c6nc(c(-c7ccc(S(=O)(=O)[O-])cc7)c7ccc([nH]7)c(-c7ccc(S(=O)(=O)[O-])cc7)c7nc(c(-c8ccc(S(=O)(=O)[O-])cc8)c8ccc5[nH]8)C=C7)C=C6)cc4)C3)c(C)c2cc1Cl
REMARK SMILES IDX 21 1 22 2 23 3 20 5 16 6 17 7 90 8 18 9 19 10 14 11 15 12
REMARK SMILES IDX 13 13 12 14 6 15 7 16 95 17 8 18 94 19 96 20 9 21 93 22
REMARK SMILES IDX 10 23 91 24 11 25 92 26 5 27 4 28 2 29 1 30 3 31 24 32 25 33
REMARK SMILES IDX 26 34 27 35 28 36 29 38 30 39 31 40 89 41 32 42 88 43 33 44
REMARK SMILES IDX 34 45 35 46 82 47 36 48 87 49 81 50 83 51 37 52 86 53 80 54
REMARK SMILES IDX 79 55 38 57 68 58 49 59 67 60 50 61 53 62 66 63 84 64 51 65
REMARK SMILES IDX 52 66 65 68 85 69 54 70 39 71 40 72 48 73 41 74 47 75 42 76
REMARK SMILES IDX 43 77 44 78 45 79 46 80 69 81 70 82 78 83 71 84 77 85 72 86
REMARK SMILES IDX 73 87 74 88 75 89 76 90 55 91 56 92 64 93 57 94 63 95 58 96
REMARK SMILES IDX 59 97 60 98 61 99 62 100
REMARK H PARENT 23 4 27 37 83 56 53 67
REMARK Flexibility Score: inf
ROOT
ATOM      1  C   UNL A   1      33.518  28.954  24.395  1.00  0.00     0.224 C 
ATOM      2  O   UNL A   1      34.131  28.632  23.368  1.00  0.00    -0.275 OA
ATOM      3  N   UNL A   1      34.279  29.129  25.504  1.00  0.00    -0.356 N 
ATOM      4  H   UNL A   1      35.216  28.853  25.392  1.00  0.00     0.163 HD
ENDROOT
BRANCH   1   5
ATOM      5  C   UNL A   1      32.000  29.166  24.318  1.00  0.00     0.098 C 
ATOM      6  N   UNL A   1      30.716  27.120  25.011  1.00  0.00    -0.342 N 
ATOM      7  C   UNL A   1      29.959  27.120  23.752  1.00  0.00     0.119 C 
ATOM      8  C   UNL A   1      31.220  28.429  25.405  1.00  0.00     0.133 C 
ATOM      9  C   UNL A   1      30.691  27.784  22.588  1.00  0.00     0.022 C 
ATOM     10  C   UNL A   1      31.361  29.106  22.937  1.00  0.00     0.017 C 
BRANCH   6  11
ATOM     11  C   UNL A   1      30.863  25.915  25.689  1.00  0.00     0.227 C 
ATOM     12  O   UNL A   1      29.968  25.535  26.460  1.00  0.00    -0.275 OA
BRANCH  11  13
ATOM     13  C   UNL A   1      32.123  25.021  25.625  1.00  0.00     0.143 C 
BRANCH  13  14
ATOM     14  C   UNL A   1      32.036  23.559  25.302  1.00  0.00     0.051 A 
ATOM     15  C   UNL A   1      32.688  18.825  23.687  1.00  0.00     0.142 A 
ATOM     16  C   UNL A   1      32.684  19.439  24.935  1.00  0.00     0.096 A 
ATOM     17  C   UNL A   1      32.292  19.548  22.558  1.00  0.00     0.083 A 
ATOM     18  C   UNL A   1      32.376  20.797  25.021  1.00  0.00     0.142 A 
ATOM     19  C   UNL A   1      32.027  20.920  22.661  1.00  0.00     0.036 A 
ATOM     20  Cl  UNL A   1      32.101  18.807  21.012  1.00  0.00    -0.080 Cl
ATOM     21  O   UNL A   1      32.357  21.348  26.310  1.00  0.00    -0.422 OA
ATOM     22  C   UNL A   1      32.098  21.574  23.898  1.00  0.00     0.023 A 
ATOM     23  C   UNL A   1      32.068  22.686  26.512  1.00  0.00     0.340 A 
ATOM     24  C   UNL A   1      31.987  23.038  24.054  1.00  0.00    -0.029 A 
ATOM     25  O   UNL A   1      31.931  23.135  27.644  1.00  0.00    -0.246 OA
ATOM     26  C   UNL A   1      31.991  23.866  22.793  1.00  0.00     0.046 C 
BRANCH  15  27
ATOM     27  O   UNL A   1      33.022  17.498  23.611  1.00  0.00    -0.488 OA
BRANCH  27  28
ATOM     28  C   UNL A   1      34.416  17.291  23.909  1.00  0.00     0.260 C 
BRANCH  28  29
ATOM     29  C   UNL A   1      34.578  16.239  24.981  1.00  0.00    -0.043 C 
ATOM     30  C   UNL A   1      35.779  15.941  25.506  1.00  0.00     0.011 C 
ATOM     31  C   UNL A   1      33.318  15.577  25.462  1.00  0.00     0.042 C 
ENDBRANCH  28  29
ENDBRANCH  27  28
ENDBRANCH  15  27
ENDBRANCH  13  14
ENDBRANCH  11  13
ENDBRANCH   6  11
ENDBRANCH   1   5
BRANCH   3  32
ATOM     32  C   UNL A   1      33.972  29.646  26.823  1.00  0.00     0.117 C 
BRANCH  32  33
ATOM     33  C   UNL A   1      35.160  29.609  27.769  1.00  0.00     0.042 C 
BRANCH  33  34
ATOM     34  C   UNL A   1      35.541  30.982  28.294  1.00  0.00     0.118 C 
BRANCH  34  35
ATOM     35  N   UNL A   1      35.427  31.080  29.748  1.00  0.00    -0.352 N 
ATOM     36  C   UNL A   1      36.347  30.840  30.744  1.00  0.00     0.251 C 
ATOM     37  H   UNL A   1      34.542  31.367  30.071  1.00  0.00     0.163 HD
ATOM     38  O   UNL A   1      35.980  30.841  31.917  1.00  0.00    -0.269 OA
BRANCH  36  39
ATOM     39  C   UNL A   1      37.759  30.544  30.412  1.00  0.00     0.039 A 
ATOM     40  C   UNL A   1      38.373  31.149  29.320  1.00  0.00     0.014 A 
ATOM     41  C   UNL A   1      38.479  29.636  31.196  1.00  0.00     0.014 A 
ATOM     42  C   UNL A   1      39.596  30.673  28.868  1.00  0.00     0.010 A 
ATOM     43  C   UNL A   1      39.773  29.260  30.816  1.00  0.00     0.010 A 
ATOM     44  C   UNL A   1      40.320  29.729  29.613  1.00  0.00    -0.014 A 
BRANCH  44  45
ATOM     45  C   UNL A   1      41.646  29.276  29.111  1.00  0.00     0.031 A 
ATOM     46  C   UNL A   1      42.861  30.162  29.200  1.00  0.00     0.074 A 
ATOM     47  C   UNL A   1      41.765  28.019  28.634  1.00  0.00     0.049 A 
ATOM     48  N   UNL A   1      44.095  29.896  28.852  1.00  0.00    -0.248 NA
ATOM     49  C   UNL A   1      42.674  31.519  29.740  1.00  0.00     0.031 C 
ATOM     50  C   UNL A   1      40.662  27.062  28.512  1.00  0.00     0.029 A 
ATOM     51  N   UNL A   1      42.863  27.313  28.210  1.00  0.00    -0.354 N 
ATOM     52  C   UNL A   1      44.819  31.058  29.090  1.00  0.00     0.074 A 
ATOM     53  C   UNL A   1      43.887  32.038  29.599  1.00  0.00     0.031 C 
ATOM     54  C   UNL A   1      41.151  25.873  28.142  1.00  0.00     0.029 A 
ATOM     55  C   UNL A   1      42.585  26.001  27.903  1.00  0.00     0.049 A 
ATOM     56  H   UNL A   1      43.762  27.707  28.133  1.00  0.00     0.167 HD
ATOM     57  C   UNL A   1      46.142  31.283  28.905  1.00  0.00     0.031 A 
ATOM     58  C   UNL A   1      43.381  25.005  27.466  1.00  0.00     0.031 A 
ATOM     59  C   UNL A   1      47.068  30.288  28.429  1.00  0.00     0.049 A 
ATOM     60  C   UNL A   1      44.837  25.279  27.250  1.00  0.00     0.074 A 
ATOM     61  C   UNL A   1      48.435  30.408  28.254  1.00  0.00     0.029 A 
ATOM     62  N   UNL A   1      46.730  28.996  28.053  1.00  0.00    -0.354 N 
ATOM     63  N   UNL A   1      45.503  26.384  27.488  1.00  0.00    -0.248 NA
ATOM     64  C   UNL A   1      45.648  24.188  26.698  1.00  0.00     0.031 C 
ATOM     65  C   UNL A   1      48.912  29.213  27.709  1.00  0.00     0.029 A 
ATOM     66  C   UNL A   1      47.856  28.322  27.610  1.00  0.00     0.049 A 
ATOM     67  H   UNL A   1      45.823  28.615  28.093  1.00  0.00     0.167 HD
ATOM     68  C   UNL A   1      46.813  26.126  27.108  1.00  0.00     0.074 A 
ATOM     69  C   UNL A   1      46.852  24.751  26.649  1.00  0.00     0.031 C 
ATOM     70  C   UNL A   1      47.882  26.959  27.135  1.00  0.00     0.031 A 
BRANCH  57  71
ATOM     71  C   UNL A   1      46.680  32.662  29.190  1.00  0.00    -0.014 A 
ATOM     72  C   UNL A   1      46.792  33.590  28.137  1.00  0.00     0.010 A 
ATOM     73  C   UNL A   1      47.160  33.017  30.463  1.00  0.00     0.010 A 
ATOM     74  C   UNL A   1      47.386  34.838  28.344  1.00  0.00     0.020 A 
ATOM     75  C   UNL A   1      47.729  34.276  30.683  1.00  0.00     0.020 A 
ATOM     76  C   UNL A   1      47.855  35.172  29.617  1.00  0.00     0.054 A 
BRANCH  76  77
ATOM     77  S   UNL A   1      48.612  36.801  29.875  1.00  0.00     0.124 S 
ATOM     78  O   UNL A   1      47.459  37.625  30.223  1.00  0.00    -0.237 OA
ATOM     79  O   UNL A   1      49.560  36.548  30.958  1.00  0.00    -0.237 OA
ATOM     80  O   UNL A   1      49.225  37.097  28.582  1.00  0.00    -0.744 OA
ENDBRANCH  76  77
ENDBRANCH  57  71
BRANCH  58  81
ATOM     81  C   UNL A   1      42.775  23.666  27.235  1.00  0.00    -0.014 A 
ATOM     82  C   UNL A   1      42.917  22.649  28.200  1.00  0.00     0.010 A 
ATOM     83  C   UNL A   1      42.216  23.349  25.985  1.00  0.00     0.010 A 
ATOM     84  C   UNL A   1      42.605  21.325  27.885  1.00  0.00     0.020 A 
ATOM     85  C   UNL A   1      41.873  22.029  25.678  1.00  0.00     0.020 A 
ATOM     86  C   UNL A   1      42.112  21.021  26.614  1.00  0.00     0.054 A 
BRANCH  86  87
ATOM     87  S   UNL A   1      41.844  19.280  26.180  1.00  0.00     0.124 S 
ATOM     88  O   UNL A   1      42.726  19.121  25.027  1.00  0.00    -0.237 OA
ATOM     89  O   UNL A   1      42.259  18.579  27.392  1.00  0.00    -0.237 OA
ATOM     90  O   UNL A   1      40.414  19.217  25.885  1.00  0.00    -0.744 OA
ENDBRANCH  86  87
ENDBRANCH  58  81
BRANCH  70  91
ATOM     91  C   UNL A   1      49.200  26.433  26.634  1.00  0.00    -0.014 A 
ATOM     92  C   UNL A   1      50.033  25.698  27.498  1.00  0.00     0.010 A 
ATOM     93  C   UNL A   1      49.674  26.788  25.359  1.00  0.00     0.010 A 
ATOM     94  C   UNL A   1      51.332  25.363  27.112  1.00  0.00     0.020 A 
ATOM     95  C   UNL A   1      50.964  26.430  24.960  1.00  0.00     0.020 A 
ATOM     96  C   UNL A   1      51.794  25.743  25.850  1.00  0.00     0.054 A 
BRANCH  96  97
ATOM     97  S   UNL A   1      53.500  25.337  25.384  1.00  0.00     0.124 S 
ATOM     98  O   UNL A   1      53.491  23.878  25.431  1.00  0.00    -0.237 OA
ATOM     99  O   UNL A   1      53.616  25.923  24.051  1.00  0.00    -0.237 OA
ATOM    100  O   UNL A   1      54.301  25.992  26.416  1.00  0.00    -0.744 OA
ENDBRANCH  96  97
ENDBRANCH  70  91
ENDBRANCH  44  45
ENDBRANCH  36  39
ENDBRANCH  34  35
ENDBRANCH  33  34
ENDBRANCH  32  33
ENDBRANCH   3  32
TORSDOF 19
ENDMDL
MODEL 3
REMARK VINA RESULT:     -11.2      0.801      7.816
REMARK SMILES C=C(C)COc1cc2oc(=O)c(CC(=O)N3CCC[C@H](C(=O)NCCCNC(=O)c4ccc(-c5c6nc(c(-c7ccc(S(=O)(=O)[O-])cc7)c7ccc([nH]7)c(-c7ccc(S(=O)(=O)[O-])cc7)c7nc(c(-c8ccc(S(=O)(=O)[O-])cc8)c8ccc5[nH]8)C=C7)C=C6)cc4)C3)c(C)c2cc1Cl
REMARK SMILES IDX 21 1 22 2 23 3 20 5 16 6 17 7 90 8 18 9 19 10 14 11 15 12
REMARK SMILES IDX 13 13 12 14 6 15 7 16 95 17 8 18 94 19 96 20 9 21 93 22
REMARK SMILES IDX 10 23 91 24 11 25 92 26 5 27 4 28 2 29 1 30 3 31 24 32 25 33
REMARK SMILES IDX 26 34 27 35 28 36 29 38 30 39 31 40 89 41 32 42 88 43 33 44
REMARK SMILES IDX 34 45 35 46 82 47 36 48 87 49 81 50 83 51 37 52 86 53 80 54
REMARK SMILES IDX 79 55 38 57 68 58 49 59 67 60 50 61 53 62 66 63 84 64 51 65
REMARK SMILES IDX 52 66 65 68 85 69 54 70 39 71 40 72 48 73 41 74 47 75 42 76
REMARK SMILES IDX 43 77 44 78 45 79 46 80 69 81 70 82 78 83 71 84 77 85 72 86
REMARK SMILES IDX 73 87 74 88 75 89 76 90 55 91 56 92 64 93 57 94 63 95 58 96
REMARK SMILES IDX 59 97 60 98 61 99 62 100
REMARK H PARENT 23 4 27 37 83 56 53 67
REMARK Flexibility Score: inf
ROOT
ATOM      1  C   UNL A   1      36.035  22.378  26.031  1.00  0.00     0.224 C 
ATOM      2  O   UNL A   1      36.463  23.535  26.140  1.00  0.00    -0.275 OA
ATOM      3  N   UNL A   1      36.718  21.575  25.177  1.00  0.00    -0.356 N 
ATOM      4  H   UNL A   1      37.398  22.047  24.645  1.00  0.00     0.163 HD
ENDROOT
BRANCH   1   5
ATOM      5  C   UNL A   1      34.831  21.949  26.880  1.00  0.00     0.098 C 
ATOM      6  N   UNL A   1      32.871  21.252  25.472  1.00  0.00    -0.342 N 
ATOM      7  C   UNL A   1      31.986  22.200  26.163  1.00  0.00     0.119 C 
ATOM      8  C   UNL A   1      34.014  20.817  26.263  1.00  0.00     0.133 C 
ATOM      9  C   UNL A   1      32.712  23.402  26.761  1.00  0.00     0.022 C 
ATOM     10  C   UNL A   1      33.995  23.057  27.506  1.00  0.00     0.017 C 
BRANCH   6  11
ATOM     11  C   UNL A   1      32.536  20.865  24.179  1.00  0.00     0.227 C 
ATOM     12  O   UNL A   1      32.067  19.734  23.982  1.00  0.00    -0.275 OA
BRANCH  11  13
ATOM     13  C   UNL A   1      32.786  21.721  22.916  1.00  0.00     0.143 C 
BRANCH  13  14
ATOM     14  C   UNL A   1      32.844  23.219  22.978  1.00  0.00     0.051 A 
ATOM     15  C   UNL A   1      32.530  28.116  24.149  1.00  0.00     0.142 A 
ATOM     16  C   UNL A   1      33.578  27.213  23.999  1.00  0.00     0.096 A 
ATOM     17  C   UNL A   1      31.235  27.741  23.780  1.00  0.00     0.083 A 
ATOM     18  C   UNL A   1      33.297  25.915  23.571  1.00  0.00     0.142 A 
ATOM     19  C   UNL A   1      30.970  26.421  23.393  1.00  0.00     0.036 A 
ATOM     20  Cl  UNL A   1      29.922  28.860  23.770  1.00  0.00    -0.080 Cl
ATOM     21  O   UNL A   1      34.399  25.064  23.408  1.00  0.00    -0.422 OA
ATOM     22  C   UNL A   1      32.000  25.475  23.314  1.00  0.00     0.023 A 
ATOM     23  C   UNL A   1      34.237  23.754  22.992  1.00  0.00     0.340 A 
ATOM     24  C   UNL A   1      31.770  24.037  23.068  1.00  0.00    -0.029 A 
ATOM     25  O   UNL A   1      35.208  23.053  22.732  1.00  0.00    -0.246 OA
ATOM     26  C   UNL A   1      30.341  23.554  23.097  1.00  0.00     0.046 C 
BRANCH  15  27
ATOM     27  O   UNL A   1      32.814  29.378  24.599  1.00  0.00    -0.488 OA
BRANCH  27  28
ATOM     28  C   UNL A   1      33.767  29.347  25.679  1.00  0.00     0.260 C 
BRANCH  28  29
ATOM     29  C   UNL A   1      33.140  29.867  26.952  1.00  0.00    -0.043 C 
ATOM     30  C   UNL A   1      33.710  30.848  27.673  1.00  0.00     0.011 C 
ATOM     31  C   UNL A   1      31.822  29.261  27.343  1.00  0.00     0.042 C 
ENDBRANCH  28  29
ENDBRANCH  27  28
ENDBRANCH  15  27
ENDBRANCH  13  14
ENDBRANCH  11  13
ENDBRANCH   6  11
ENDBRANCH   1   5
BRANCH   3  32
ATOM     32  C   UNL A   1      36.635  20.155  24.901  1.00  0.00     0.117 C 
BRANCH  32  33
ATOM     33  C   UNL A   1      37.994  19.480  24.840  1.00  0.00     0.042 C 
BRANCH  33  34
ATOM     34  C   UNL A   1      39.052  20.201  25.657  1.00  0.00     0.118 C 
BRANCH  34  35
ATOM     35  N   UNL A   1      40.197  19.349  25.973  1.00  0.00    -0.352 N 
ATOM     36  C   UNL A   1      41.480  19.668  26.360  1.00  0.00     0.251 C 
ATOM     37  H   UNL A   1      40.023  18.383  25.896  1.00  0.00     0.163 HD
ATOM     38  O   UNL A   1      42.328  18.781  26.425  1.00  0.00    -0.269 OA
BRANCH  36  39
ATOM     39  C   UNL A   1      41.851  21.069  26.661  1.00  0.00     0.039 A 
ATOM     40  C   UNL A   1      41.780  22.049  25.676  1.00  0.00     0.014 A 
ATOM     41  C   UNL A   1      42.291  21.408  27.945  1.00  0.00     0.014 A 
ATOM     42  C   UNL A   1      42.371  23.286  25.893  1.00  0.00     0.010 A 
ATOM     43  C   UNL A   1      42.758  22.703  28.202  1.00  0.00     0.010 A 
ATOM     44  C   UNL A   1      42.860  23.637  27.161  1.00  0.00    -0.014 A 
BRANCH  44  45
ATOM     45  C   UNL A   1      43.451  24.989  27.359  1.00  0.00     0.031 A 
ATOM     46  C   UNL A   1      42.684  26.083  28.053  1.00  0.00     0.074 A 
ATOM     47  C   UNL A   1      44.724  25.205  26.968  1.00  0.00     0.049 A 
ATOM     48  N   UNL A   1      43.076  27.298  28.346  1.00  0.00    -0.248 NA
ATOM     49  C   UNL A   1      41.303  25.787  28.469  1.00  0.00     0.031 C 
ATOM     50  C   UNL A   1      45.573  24.217  26.297  1.00  0.00     0.029 A 
ATOM     51  N   UNL A   1      45.542  26.297  27.115  1.00  0.00    -0.354 N 
ATOM     52  C   UNL A   1      41.984  27.921  28.938  1.00  0.00     0.074 A 
ATOM     53  C   UNL A   1      40.906  26.957  28.953  1.00  0.00     0.031 C 
ATOM     54  C   UNL A   1      46.812  24.708  26.181  1.00  0.00     0.029 A 
ATOM     55  C   UNL A   1      46.828  26.081  26.677  1.00  0.00     0.049 A 
ATOM     56  H   UNL A   1      45.239  27.152  27.498  1.00  0.00     0.167 HD
ATOM     57  C   UNL A   1      41.891  29.180  29.429  1.00  0.00     0.031 A 
ATOM     58  C   UNL A   1      47.906  26.890  26.658  1.00  0.00     0.031 A 
ATOM     59  C   UNL A   1      42.982  30.121  29.440  1.00  0.00     0.049 A 
ATOM     60  C   UNL A   1      47.778  28.284  27.189  1.00  0.00     0.074 A 
ATOM     61  C   UNL A   1      42.997  31.403  29.959  1.00  0.00     0.029 A 
ATOM     62  N   UNL A   1      44.243  29.888  28.912  1.00  0.00    -0.354 N 
ATOM     63  N   UNL A   1      46.738  28.851  27.751  1.00  0.00    -0.248 NA
ATOM     64  C   UNL A   1      48.955  29.154  27.075  1.00  0.00     0.031 C 
ATOM     65  C   UNL A   1      44.245  31.969  29.684  1.00  0.00     0.029 A 
ATOM     66  C   UNL A   1      45.033  31.016  29.059  1.00  0.00     0.049 A 
ATOM     67  H   UNL A   1      44.534  29.045  28.494  1.00  0.00     0.167 HD
ATOM     68  C   UNL A   1      47.130  30.148  28.053  1.00  0.00     0.074 A 
ATOM     69  C   UNL A   1      48.512  30.275  27.635  1.00  0.00     0.031 C 
ATOM     70  C   UNL A   1      46.403  31.141  28.620  1.00  0.00     0.031 A 
BRANCH  57  71
ATOM     71  C   UNL A   1      40.563  29.639  29.976  1.00  0.00    -0.014 A 
ATOM     72  C   UNL A   1      39.653  30.289  29.122  1.00  0.00     0.010 A 
ATOM     73  C   UNL A   1      40.249  29.518  31.341  1.00  0.00     0.010 A 
ATOM     74  C   UNL A   1      38.460  30.822  29.622  1.00  0.00     0.020 A 
ATOM     75  C   UNL A   1      39.043  30.024  31.841  1.00  0.00     0.020 A 
ATOM     76  C   UNL A   1      38.165  30.689  30.981  1.00  0.00     0.054 A 
BRANCH  76  77
ATOM     77  S   UNL A   1      36.608  31.375  31.613  1.00  0.00     0.124 S 
ATOM     78  O   UNL A   1      35.807  31.488  30.398  1.00  0.00    -0.237 OA
ATOM     79  O   UNL A   1      36.172  30.358  32.567  1.00  0.00    -0.237 OA
ATOM     80  O   UNL A   1      37.017  32.643  32.213  1.00  0.00    -0.744 OA
ENDBRANCH  76  77
ENDBRANCH  57  71
BRANCH  58  81
ATOM     81  C   UNL A   1      49.186  26.349  26.125  1.00  0.00    -0.014 A 
ATOM     82  C   UNL A   1      50.030  25.583  26.953  1.00  0.00     0.010 A 
ATOM     83  C   UNL A   1      49.648  26.746  24.859  1.00  0.00     0.010 A 
ATOM     84  C   UNL A   1      51.344  25.309  26.567  1.00  0.00     0.020 A 
ATOM     85  C   UNL A   1      50.952  26.446  24.456  1.00  0.00     0.020 A 
ATOM     86  C   UNL A   1      51.804  25.769  25.331  1.00  0.00     0.054 A 
BRANCH  86  87
ATOM     87  S   UNL A   1      53.551  25.523  24.908  1.00  0.00     0.124 S 
ATOM     88  O   UNL A   1      54.197  26.577  25.685  1.00  0.00    -0.237 OA
ATOM     89  O   UNL A   1      53.803  24.159  25.366  1.00  0.00    -0.237 OA
ATOM     90  O   UNL A   1      53.582  25.706  23.459  1.00  0.00    -0.744 OA
ENDBRANCH  86  87
ENDBRANCH  58  81
BRANCH  70  91
ATOM     91  C   UNL A   1      47.064  32.478  28.814  1.00  0.00    -0.014 A 
ATOM     92  C   UNL A   1      47.025  33.434  27.781  1.00  0.00     0.010 A 
ATOM     93  C   UNL A   1      47.843  32.734  29.956  1.00  0.00     0.010 A 
ATOM     94  C   UNL A   1      47.784  34.602  27.869  1.00  0.00     0.020 A 
ATOM     95  C   UNL A   1      48.582  33.914  30.059  1.00  0.00     0.020 A 
ATOM     96  C   UNL A   1      48.569  34.828  29.002  1.00  0.00     0.054 A 
BRANCH  96  97
ATOM     97  S   UNL A   1      49.584  36.330  29.077  1.00  0.00     0.124 S 
ATOM     98  O   UNL A   1      49.139  37.060  27.893  1.00  0.00    -0.237 OA
ATOM     99  O   UNL A   1      49.197  36.915  30.359  1.00  0.00    -0.237 OA
ATOM    100  O   UNL A   1      50.952  35.822  29.022  1.00  0.00    -0.744 OA
ENDBRANCH  96  97
ENDBRANCH  70  91
ENDBRANCH  44  45
ENDBRANCH  36  39
ENDBRANCH  34  35
ENDBRANCH  33  34
ENDBRANCH  32  33
ENDBRANCH   3  32
TORSDOF 19
ENDMDL
