MODEL 1
REMARK VINA RESULT:     -12.5      0.000      0.000
REMARK SMILES Cc1cc(/C=C2/C(=O)NC(=S)[NH+]=C2NCCCNC(=O)c2ccc(-c3c4nc(c(-c5ccc(S(=O)(=O)[O-])cc5)c5ccc([nH]5)c(-c5ccc(S(=O)(=O)[O-])cc5)c5nc(c(-c6ccc(S(=O)(=O)[O-])cc6)c6ccc3[nH]6)C=C5)C=C4)cc2)c(C)n1-c1cccc(C(=O)[O-])c1
REMARK SMILES IDX 16 1 15 2 14 3 5 4 6 5 7 6 13 7 8 8 9 9 12 10 10 11 11 15
REMARK SMILES IDX 4 16 1 17 2 18 3 19 83 20 81 21 82 22 84 23 85 24 92 25
REMARK SMILES IDX 86 26 88 27 87 28 89 29 90 30 91 31 17 32 18 33 19 34 20 36
REMARK SMILES IDX 21 37 22 38 80 39 23 40 79 41 24 42 25 43 26 44 73 45 27 46
REMARK SMILES IDX 78 47 72 48 74 49 28 50 77 51 71 52 70 53 29 55 59 56 40 57
REMARK SMILES IDX 58 58 41 59 44 60 57 61 75 62 42 63 43 64 56 66 76 67 45 68
REMARK SMILES IDX 30 69 31 70 39 71 32 72 38 73 33 74 34 75 35 76 36 77 37 78
REMARK SMILES IDX 60 79 61 80 69 81 62 82 68 83 63 84 64 85 65 86 66 87 67 88
REMARK SMILES IDX 46 89 47 90 55 91 48 92 54 93 49 94 50 95 51 96 52 97 53 98
REMARK H PARENT 9 12 12 13 14 14 18 35 74 54 44 65
REMARK Flexibility Score: inf
ROOT
ATOM      1  C   UNL A   1      42.492  32.923  33.744  1.00  0.00     0.059 C 
ENDROOT
BRANCH   1   2
ATOM      2  C   UNL A   1      41.151  32.802  34.340  1.00  0.00     0.195 C 
BRANCH   2   3
ATOM      3  N   UNL A   1      41.215  31.964  35.481  1.00  0.00    -0.305 N 
ATOM      4  C   UNL A   1      38.363  33.249  35.830  1.00  0.00     0.032 C 
ATOM      5  C   UNL A   1      39.443  33.252  36.677  1.00  0.00     0.128 C 
ATOM      6  C   UNL A   1      39.616  34.359  37.677  1.00  0.00     0.319 C 
ATOM      7  C   UNL A   1      40.684  32.416  36.631  1.00  0.00     0.234 C 
ATOM      8  O   UNL A   1      38.990  35.413  37.639  1.00  0.00    -0.250 OA
ATOM      9  N   UNL A   1      40.614  34.157  38.607  1.00  0.00    -0.229 N 
ATOM     10  N   UNL A   1      41.517  32.248  37.614  1.00  0.00    -0.236 N 
ATOM     11  C   UNL A   1      41.467  33.088  38.677  1.00  0.00     0.295 C 
ATOM     12  H   UNL A   1      40.725  34.855  39.292  1.00  0.00     0.268 HD
ATOM     13  H   UNL A   1      42.178  31.520  37.587  1.00  0.00     0.268 HD
ATOM     14  H   UNL A   1      41.637  31.076  35.433  1.00  0.00     0.256 HD
ATOM     15  S   UNL A   1      42.540  32.994  39.962  1.00  0.00    -0.005 S 
BRANCH   4  16
ATOM     16  C   UNL A   1      38.038  32.543  34.563  1.00  0.00    -0.003 A 
ATOM     17  C   UNL A   1      37.401  29.479  32.477  1.00  0.00     0.065 C 
ATOM     18  C   UNL A   1      37.460  30.801  33.162  1.00  0.00     0.020 A 
ATOM     19  C   UNL A   1      37.955  31.120  34.427  1.00  0.00     0.031 A 
ATOM     20  N   UNL A   1      36.947  31.983  32.624  1.00  0.00    -0.318 N 
ATOM     21  C   UNL A   1      37.767  33.003  33.263  1.00  0.00     0.027 A 
ATOM     22  C   UNL A   1      38.227  34.296  32.673  1.00  0.00     0.065 C 
BRANCH  20  23
ATOM     23  C   UNL A   1      35.949  32.044  31.445  1.00  0.00     0.046 A 
ATOM     24  C   UNL A   1      36.960  32.090  30.006  1.00  0.00     0.026 A 
ATOM     25  C   UNL A   1      34.451  33.166  31.522  1.00  0.00     0.036 A 
ATOM     26  C   UNL A   1      36.701  33.195  28.693  1.00  0.00     0.003 A 
ATOM     27  C   UNL A   1      34.227  34.491  30.071  1.00  0.00    -0.001 A 
ATOM     28  C   UNL A   1      35.432  34.372  28.707  1.00  0.00     0.010 A 
BRANCH  27  29
ATOM     29  C   UNL A   1      33.187  35.183  29.217  1.00  0.00     0.072 C 
ATOM     30  O   UNL A   1      32.528  34.589  28.374  1.00  0.00    -0.545 OA
ATOM     31  O   UNL A   1      32.898  36.432  29.515  1.00  0.00    -0.545 OA
ENDBRANCH  27  29
ENDBRANCH  20  23
ENDBRANCH   4  16
ENDBRANCH   2   3
ENDBRANCH   1   2
BRANCH   1  32
ATOM     32  C   UNL A   1      43.614  31.748  33.942  1.00  0.00     0.119 C 
BRANCH  32  33
ATOM     33  N   UNL A   1      43.213  30.063  33.346  1.00  0.00    -0.352 N 
ATOM     34  C   UNL A   1      42.381  29.584  31.587  1.00  0.00     0.251 C 
ATOM     35  H   UNL A   1      43.429  29.317  33.951  1.00  0.00     0.163 HD
ATOM     36  O   UNL A   1      41.906  28.489  31.234  1.00  0.00    -0.269 OA
BRANCH  34  37
ATOM     37  C   UNL A   1      42.260  31.025  30.198  1.00  0.00     0.039 A 
ATOM     38  C   UNL A   1      43.128  31.338  29.156  1.00  0.00     0.014 A 
ATOM     39  C   UNL A   1      41.635  32.505  30.377  1.00  0.00     0.014 A 
ATOM     40  C   UNL A   1      43.391  32.913  28.629  1.00  0.00     0.010 A 
ATOM     41  C   UNL A   1      41.907  34.035  29.877  1.00  0.00     0.010 A 
ATOM     42  C   UNL A   1      42.868  34.400  28.965  1.00  0.00    -0.014 A 
BRANCH  42  43
ATOM     43  C   UNL A   1      43.175  36.073  28.148  1.00  0.00     0.031 A 
ATOM     44  C   UNL A   1      44.571  35.984  28.547  1.00  0.00     0.074 A 
ATOM     45  C   UNL A   1      42.955  37.590  27.668  1.00  0.00     0.049 A 
ATOM     46  N   UNL A   1      44.670  36.209  29.815  1.00  0.00    -0.248 NA
ATOM     47  C   UNL A   1      45.609  35.124  28.001  1.00  0.00     0.031 C 
ATOM     48  C   UNL A   1      41.925  38.688  28.023  1.00  0.00     0.029 A 
ATOM     49  N   UNL A   1      43.827  38.694  26.777  1.00  0.00    -0.354 N 
ATOM     50  C   UNL A   1      45.890  35.761  30.242  1.00  0.00     0.074 A 
ATOM     51  C   UNL A   1      46.419  35.033  29.072  1.00  0.00     0.031 C 
ATOM     52  C   UNL A   1      42.034  39.924  27.362  1.00  0.00     0.029 A 
ATOM     53  C   UNL A   1      43.086  40.078  26.243  1.00  0.00     0.049 A 
ATOM     54  H   UNL A   1      44.775  38.527  26.570  1.00  0.00     0.167 HD
ATOM     55  C   UNL A   1      46.398  36.709  31.060  1.00  0.00     0.031 A 
ATOM     56  C   UNL A   1      43.509  41.493  25.753  1.00  0.00     0.031 A 
ATOM     57  C   UNL A   1      46.832  37.776  30.180  1.00  0.00     0.049 A 
ATOM     58  C   UNL A   1      44.823  41.790  26.304  1.00  0.00     0.074 A 
ATOM     59  C   UNL A   1      47.368  37.721  28.891  1.00  0.00     0.029 A 
ATOM     60  N   UNL A   1      46.219  38.992  30.292  1.00  0.00    -0.354 N 
ATOM     61  N   UNL A   1      45.062  42.403  27.407  1.00  0.00    -0.248 NA
ATOM     62  C   UNL A   1      45.968  41.294  25.558  1.00  0.00     0.031 C 
ATOM     63  C   UNL A   1      46.685  38.697  28.171  1.00  0.00     0.029 A 
ATOM     64  C   UNL A   1      46.325  39.654  29.095  1.00  0.00     0.049 A 
ATOM     65  H   UNL A   1      45.773  39.337  31.100  1.00  0.00     0.167 HD
ATOM     66  C   UNL A   1      46.095  41.622  27.825  1.00  0.00     0.074 A 
ATOM     67  C   UNL A   1      46.747  41.105  26.613  1.00  0.00     0.031 C 
ATOM     68  C   UNL A   1      45.895  41.001  29.011  1.00  0.00     0.031 A 
BRANCH  55  69
ATOM     69  C   UNL A   1      45.428  36.835  32.282  1.00  0.00    -0.014 A 
ATOM     70  C   UNL A   1      45.628  35.940  33.340  1.00  0.00     0.010 A 
ATOM     71  C   UNL A   1      44.213  37.594  32.318  1.00  0.00     0.010 A 
ATOM     72  C   UNL A   1      44.712  35.845  34.406  1.00  0.00     0.020 A 
ATOM     73  C   UNL A   1      43.273  37.479  33.367  1.00  0.00     0.020 A 
ATOM     74  C   UNL A   1      43.556  36.630  34.430  1.00  0.00     0.054 A 
BRANCH  74  75
ATOM     75  S   UNL A   1      42.499  36.564  35.913  1.00  0.00     0.124 S 
ATOM     76  O   UNL A   1      41.165  36.829  35.376  1.00  0.00    -0.237 OA
ATOM     77  O   UNL A   1      42.713  35.194  36.372  1.00  0.00    -0.237 OA
ATOM     78  O   UNL A   1      43.029  37.613  36.780  1.00  0.00    -0.744 OA
ENDBRANCH  74  75
ENDBRANCH  55  69
BRANCH  56  79
ATOM     79  C   UNL A   1      43.626  42.698  24.436  1.00  0.00    -0.014 A 
ATOM     80  C   UNL A   1      44.218  44.078  24.602  1.00  0.00     0.010 A 
ATOM     81  C   UNL A   1      43.351  42.487  23.083  1.00  0.00     0.010 A 
ATOM     82  C   UNL A   1      44.649  44.992  23.533  1.00  0.00     0.020 A 
ATOM     83  C   UNL A   1      43.758  43.411  22.010  1.00  0.00     0.020 A 
ATOM     84  C   UNL A   1      44.453  44.617  22.216  1.00  0.00     0.054 A 
BRANCH  84  85
ATOM     85  S   UNL A   1      45.202  45.564  20.780  1.00  0.00     0.124 S 
ATOM     86  O   UNL A   1      45.274  46.943  21.258  1.00  0.00    -0.237 OA
ATOM     87  O   UNL A   1      46.494  44.911  20.579  1.00  0.00    -0.237 OA
ATOM     88  O   UNL A   1      44.242  45.344  19.699  1.00  0.00    -0.744 OA
ENDBRANCH  84  85
ENDBRANCH  56  79
BRANCH  68  89
ATOM     89  C   UNL A   1      45.174  41.717  30.121  1.00  0.00    -0.014 A 
ATOM     90  C   UNL A   1      45.667  42.799  30.878  1.00  0.00     0.010 A 
ATOM     91  C   UNL A   1      43.884  41.244  30.409  1.00  0.00     0.010 A 
ATOM     92  C   UNL A   1      44.920  43.330  31.942  1.00  0.00     0.020 A 
ATOM     93  C   UNL A   1      43.118  41.795  31.429  1.00  0.00     0.020 A 
ATOM     94  C   UNL A   1      43.659  42.800  32.224  1.00  0.00     0.054 A 
BRANCH  94  95
ATOM     95  S   UNL A   1      42.760  43.355  33.699  1.00  0.00     0.124 S 
ATOM     96  O   UNL A   1      43.847  43.595  34.646  1.00  0.00    -0.237 OA
ATOM     97  O   UNL A   1      42.070  44.550  33.224  1.00  0.00    -0.237 OA
ATOM     98  O   UNL A   1      41.903  42.219  34.028  1.00  0.00    -0.744 OA
ENDBRANCH  94  95
ENDBRANCH  68  89
ENDBRANCH  42  43
ENDBRANCH  34  37
ENDBRANCH  32  33
ENDBRANCH   1  32
TORSDOF 15
ENDMDL
MODEL 2
REMARK VINA RESULT:     -11.6      9.344     17.569
REMARK SMILES Cc1cc(/C=C2/C(=O)NC(=S)[NH+]=C2NCCCNC(=O)c2ccc(-c3c4nc(c(-c5ccc(S(=O)(=O)[O-])cc5)c5ccc([nH]5)c(-c5ccc(S(=O)(=O)[O-])cc5)c5nc(c(-c6ccc(S(=O)(=O)[O-])cc6)c6ccc3[nH]6)C=C5)C=C4)cc2)c(C)n1-c1cccc(C(=O)[O-])c1
REMARK SMILES IDX 16 1 15 2 14 3 5 4 6 5 7 6 13 7 8 8 9 9 12 10 10 11 11 15
REMARK SMILES IDX 4 16 1 17 2 18 3 19 83 20 81 21 82 22 84 23 85 24 92 25
REMARK SMILES IDX 86 26 88 27 87 28 89 29 90 30 91 31 17 32 18 33 19 34 20 36
REMARK SMILES IDX 21 37 22 38 80 39 23 40 79 41 24 42 25 43 26 44 73 45 27 46
REMARK SMILES IDX 78 47 72 48 74 49 28 50 77 51 71 52 70 53 29 55 59 56 40 57
REMARK SMILES IDX 58 58 41 59 44 60 57 61 75 62 42 63 43 64 56 66 76 67 45 68
REMARK SMILES IDX 30 69 31 70 39 71 32 72 38 73 33 74 34 75 35 76 36 77 37 78
REMARK SMILES IDX 60 79 61 80 69 81 62 82 68 83 63 84 64 85 65 86 66 87 67 88
REMARK SMILES IDX 46 89 47 90 55 91 48 92 54 93 49 94 50 95 51 96 52 97 53 98
REMARK H PARENT 9 12 12 13 14 14 18 35 74 54 44 65
REMARK Flexibility Score: inf
ROOT
ATOM      1  C   UNL A   1      38.809  28.299  31.977  1.00  0.00     0.059 C 
ENDROOT
BRANCH   1   2
ATOM      2  C   UNL A   1      38.141  29.579  31.696  1.00  0.00     0.195 C 
BRANCH   2   3
ATOM      3  N   UNL A   1      38.298  30.448  32.804  1.00  0.00    -0.305 N 
ATOM      4  C   UNL A   1      39.941  31.977  30.598  1.00  0.00     0.032 C 
ATOM      5  C   UNL A   1      40.330  31.521  31.833  1.00  0.00     0.128 C 
ATOM      6  C   UNL A   1      41.771  31.186  32.095  1.00  0.00     0.319 C 
ATOM      7  C   UNL A   1      39.487  31.050  32.977  1.00  0.00     0.234 C 
ATOM      8  O   UNL A   1      42.609  31.053  31.209  1.00  0.00    -0.250 OA
ATOM      9  N   UNL A   1      42.083  30.936  33.414  1.00  0.00    -0.229 N 
ATOM     10  N   UNL A   1      39.887  30.923  34.206  1.00  0.00    -0.236 N 
ATOM     11  C   UNL A   1      41.217  30.924  34.475  1.00  0.00     0.295 C 
ATOM     12  H   UNL A   1      43.027  30.745  33.615  1.00  0.00     0.268 HD
ATOM     13  H   UNL A   1      39.234  30.827  34.935  1.00  0.00     0.268 HD
ATOM     14  H   UNL A   1      37.555  30.606  33.431  1.00  0.00     0.256 HD
ATOM     15  S   UNL A   1      41.833  30.702  36.018  1.00  0.00    -0.005 S 
BRANCH   4  16
ATOM     16  C   UNL A   1      38.635  32.096  29.898  1.00  0.00    -0.003 A 
ATOM     17  C   UNL A   1      35.872  30.836  27.679  1.00  0.00     0.065 C 
ATOM     18  C   UNL A   1      36.773  31.440  28.701  1.00  0.00     0.020 A 
ATOM     19  C   UNL A   1      38.076  31.086  29.051  1.00  0.00     0.031 A 
ATOM     20  N   UNL A   1      36.401  32.484  29.550  1.00  0.00    -0.318 N 
ATOM     21  C   UNL A   1      37.677  33.122  29.844  1.00  0.00     0.027 A 
ATOM     22  C   UNL A   1      37.932  34.578  30.062  1.00  0.00     0.065 C 
BRANCH  20  23
ATOM     23  C   UNL A   1      34.940  32.917  29.812  1.00  0.00     0.046 A 
ATOM     24  C   UNL A   1      34.524  33.937  28.440  1.00  0.00     0.026 A 
ATOM     25  C   UNL A   1      34.398  33.455  31.523  1.00  0.00     0.036 A 
ATOM     26  C   UNL A   1      33.726  35.470  28.599  1.00  0.00     0.003 A 
ATOM     27  C   UNL A   1      33.583  35.248  31.702  1.00  0.00    -0.001 A 
ATOM     28  C   UNL A   1      33.294  36.138  30.136  1.00  0.00     0.010 A 
BRANCH  27  29
ATOM     29  C   UNL A   1      32.517  36.021  32.447  1.00  0.00     0.072 C 
ATOM     30  O   UNL A   1      32.692  37.164  32.846  1.00  0.00    -0.545 OA
ATOM     31  O   UNL A   1      31.321  35.476  32.523  1.00  0.00    -0.545 OA
ENDBRANCH  27  29
ENDBRANCH  20  23
ENDBRANCH   4  16
ENDBRANCH   2   3
ENDBRANCH   1   2
BRANCH   1  32
ATOM     32  C   UNL A   1      39.361  27.348  30.764  1.00  0.00     0.119 C 
BRANCH  32  33
ATOM     33  N   UNL A   1      40.226  28.152  29.364  1.00  0.00    -0.352 N 
ATOM     34  C   UNL A   1      42.191  28.520  29.225  1.00  0.00     0.251 C 
ATOM     35  H   UNL A   1      39.668  28.432  28.602  1.00  0.00     0.163 HD
ATOM     36  O   UNL A   1      42.782  29.241  28.399  1.00  0.00    -0.269 OA
BRANCH  34  37
ATOM     37  C   UNL A   1      43.392  27.654  30.576  1.00  0.00     0.039 A 
ATOM     38  C   UNL A   1      44.323  26.631  30.420  1.00  0.00     0.014 A 
ATOM     39  C   UNL A   1      43.072  27.385  32.138  1.00  0.00     0.014 A 
ATOM     40  C   UNL A   1      44.627  25.485  31.612  1.00  0.00     0.010 A 
ATOM     41  C   UNL A   1      43.354  26.258  33.285  1.00  0.00     0.010 A 
ATOM     42  C   UNL A   1      44.144  25.147  33.112  1.00  0.00    -0.014 A 
BRANCH  42  43
ATOM     43  C   UNL A   1      44.719  23.873  34.379  1.00  0.00     0.031 A 
ATOM     44  C   UNL A   1      45.358  24.942  35.129  1.00  0.00     0.074 A 
ATOM     45  C   UNL A   1      45.279  22.504  35.008  1.00  0.00     0.049 A 
ATOM     46  N   UNL A   1      46.434  25.312  34.517  1.00  0.00    -0.248 NA
ATOM     47  C   UNL A   1      44.728  25.980  35.928  1.00  0.00     0.031 C 
ATOM     48  C   UNL A   1      45.927  21.234  34.407  1.00  0.00     0.029 A 
ATOM     49  N   UNL A   1      45.605  21.947  36.542  1.00  0.00    -0.354 N 
ATOM     50  C   UNL A   1      46.813  26.534  35.002  1.00  0.00     0.074 A 
ATOM     51  C   UNL A   1      45.672  26.936  35.848  1.00  0.00     0.031 C 
ATOM     52  C   UNL A   1      46.276  20.199  35.291  1.00  0.00     0.029 A 
ATOM     53  C   UNL A   1      45.887  20.331  36.780  1.00  0.00     0.049 A 
ATOM     54  H   UNL A   1      45.631  22.572  37.302  1.00  0.00     0.167 HD
ATOM     55  C   UNL A   1      48.149  26.487  35.197  1.00  0.00     0.031 A 
ATOM     56  C   UNL A   1      46.565  19.426  37.850  1.00  0.00     0.031 A 
ATOM     57  C   UNL A   1      48.330  25.689  36.394  1.00  0.00     0.049 A 
ATOM     58  C   UNL A   1      47.534  20.233  38.577  1.00  0.00     0.074 A 
ATOM     59  C   UNL A   1      47.535  25.585  37.538  1.00  0.00     0.029 A 
ATOM     60  N   UNL A   1      49.003  24.505  36.282  1.00  0.00    -0.354 N 
ATOM     61  N   UNL A   1      48.780  20.358  38.294  1.00  0.00    -0.248 NA
ATOM     62  C   UNL A   1      47.025  21.011  39.695  1.00  0.00     0.031 C 
ATOM     63  C   UNL A   1      47.443  24.219  37.794  1.00  0.00     0.029 A 
ATOM     64  C   UNL A   1      48.605  23.671  37.295  1.00  0.00     0.049 A 
ATOM     65  H   UNL A   1      49.667  24.286  35.588  1.00  0.00     0.167 HD
ATOM     66  C   UNL A   1      48.885  21.693  38.539  1.00  0.00     0.074 A 
ATOM     67  C   UNL A   1      47.886  22.010  39.569  1.00  0.00     0.031 C 
ATOM     68  C   UNL A   1      49.276  22.436  37.478  1.00  0.00     0.031 A 
BRANCH  55  69
ATOM     69  C   UNL A   1      48.813  26.249  33.801  1.00  0.00    -0.014 A 
ATOM     70  C   UNL A   1      48.684  27.277  32.858  1.00  0.00     0.010 A 
ATOM     71  C   UNL A   1      49.315  25.001  33.308  1.00  0.00     0.010 A 
ATOM     72  C   UNL A   1      49.086  27.101  31.520  1.00  0.00     0.020 A 
ATOM     73  C   UNL A   1      49.689  24.808  31.959  1.00  0.00     0.020 A 
ATOM     74  C   UNL A   1      49.609  25.882  31.081  1.00  0.00     0.054 A 
BRANCH  74  75
ATOM     75  S   UNL A   1      50.249  25.779  29.378  1.00  0.00     0.124 S 
ATOM     76  O   UNL A   1      50.122  24.357  29.066  1.00  0.00    -0.237 OA
ATOM     77  O   UNL A   1      49.322  26.650  28.658  1.00  0.00    -0.237 OA
ATOM     78  O   UNL A   1      51.623  26.263  29.480  1.00  0.00    -0.744 OA
ENDBRANCH  74  75
ENDBRANCH  55  69
BRANCH  56  79
ATOM     79  C   UNL A   1      46.429  18.176  39.122  1.00  0.00    -0.014 A 
ATOM     80  C   UNL A   1      47.543  17.816  40.077  1.00  0.00     0.010 A 
ATOM     81  C   UNL A   1      45.270  17.499  39.509  1.00  0.00     0.010 A 
ATOM     82  C   UNL A   1      47.425  17.061  41.333  1.00  0.00     0.020 A 
ATOM     83  C   UNL A   1      45.153  16.720  40.754  1.00  0.00     0.020 A 
ATOM     84  C   UNL A   1      46.190  16.550  41.690  1.00  0.00     0.054 A 
BRANCH  84  85
ATOM     85  S   UNL A   1      45.858  15.814  43.383  1.00  0.00     0.124 S 
ATOM     86  O   UNL A   1      44.452  15.420  43.336  1.00  0.00    -0.237 OA
ATOM     87  O   UNL A   1      46.808  14.706  43.464  1.00  0.00    -0.237 OA
ATOM     88  O   UNL A   1      46.150  16.922  44.292  1.00  0.00    -0.744 OA
ENDBRANCH  84  85
ENDBRANCH  56  79
BRANCH  68  89
ATOM     89  C   UNL A   1      50.309  21.901  36.525  1.00  0.00    -0.014 A 
ATOM     90  C   UNL A   1      51.681  21.718  36.794  1.00  0.00     0.010 A 
ATOM     91  C   UNL A   1      49.835  21.553  35.250  1.00  0.00     0.010 A 
ATOM     92  C   UNL A   1      52.557  21.279  35.788  1.00  0.00     0.020 A 
ATOM     93  C   UNL A   1      50.687  21.072  34.263  1.00  0.00     0.020 A 
ATOM     94  C   UNL A   1      52.051  20.988  34.519  1.00  0.00     0.054 A 
BRANCH  94  95
ATOM     95  S   UNL A   1      53.193  20.590  33.166  1.00  0.00     0.124 S 
ATOM     96  O   UNL A   1      54.340  21.439  33.475  1.00  0.00    -0.237 OA
ATOM     97  O   UNL A   1      53.411  19.157  33.339  1.00  0.00    -0.237 OA
ATOM     98  O   UNL A   1      52.453  20.976  31.967  1.00  0.00    -0.744 OA
ENDBRANCH  94  95
ENDBRANCH  68  89
ENDBRANCH  42  43
ENDBRANCH  34  37
ENDBRANCH  32  33
ENDBRANCH   1  32
TORSDOF 15
ENDMDL
MODEL 3
REMARK VINA RESULT:     -11.5      7.061     11.599
REMARK SMILES Cc1cc(/C=C2/C(=O)NC(=S)[NH+]=C2NCCCNC(=O)c2ccc(-c3c4nc(c(-c5ccc(S(=O)(=O)[O-])cc5)c5ccc([nH]5)c(-c5ccc(S(=O)(=O)[O-])cc5)c5nc(c(-c6ccc(S(=O)(=O)[O-])cc6)c6ccc3[nH]6)C=C5)C=C4)cc2)c(C)n1-c1cccc(C(=O)[O-])c1
REMARK SMILES IDX 16 1 15 2 14 3 5 4 6 5 7 6 13 7 8 8 9 9 12 10 10 11 11 15
REMARK SMILES IDX 4 16 1 17 2 18 3 19 83 20 81 21 82 22 84 23 85 24 92 25
REMARK SMILES IDX 86 26 88 27 87 28 89 29 90 30 91 31 17 32 18 33 19 34 20 36
REMARK SMILES IDX 21 37 22 38 80 39 23 40 79 41 24 42 25 43 26 44 73 45 27 46
REMARK SMILES IDX 78 47 72 48 74 49 28 50 77 51 71 52 70 53 29 55 59 56 40 57
REMARK SMILES IDX 58 58 41 59 44 60 57 61 75 62 42 63 43 64 56 66 76 67 45 68
REMARK SMILES IDX 30 69 31 70 39 71 32 72 38 73 33 74 34 75 35 76 36 77 37 78
REMARK SMILES IDX 60 79 61 80 69 81 62 82 68 83 63 84 64 85 65 86 66 87 67 88
REMARK SMILES IDX 46 89 47 90 55 91 48 92 54 93 49 94 50 95 51 96 52 97 53 98
REMARK H PARENT 9 12 12 13 14 14 18 35 74 54 44 65
REMARK Flexibility Score: inf
ROOT
ATOM      1  C   UNL A   1      40.221  30.512  34.582  1.00  0.00     0.059 C 
ENDROOT
BRANCH   1   2
ATOM      2  C   UNL A   1      41.150  31.498  34.007  1.00  0.00     0.195 C 
BRANCH   2   3
ATOM      3  N   UNL A   1      41.960  32.040  35.036  1.00  0.00    -0.305 N 
ATOM      4  C   UNL A   1      40.842  34.662  33.701  1.00  0.00     0.032 C 
ATOM      5  C   UNL A   1      42.138  34.254  33.900  1.00  0.00     0.128 C 
ATOM      6  C   UNL A   1      43.232  34.749  32.997  1.00  0.00     0.319 C 
ATOM      7  C   UNL A   1      42.662  33.156  34.772  1.00  0.00     0.234 C 
ATOM      8  O   UNL A   1      43.027  35.309  31.924  1.00  0.00    -0.250 OA
ATOM      9  N   UNL A   1      44.512  34.443  33.407  1.00  0.00    -0.229 N 
ATOM     10  N   UNL A   1      43.897  33.018  35.150  1.00  0.00    -0.236 N 
ATOM     11  C   UNL A   1      44.869  33.715  34.511  1.00  0.00     0.295 C 
ATOM     12  H   UNL A   1      45.247  34.785  32.848  1.00  0.00     0.268 HD
ATOM     13  H   UNL A   1      44.125  32.414  35.892  1.00  0.00     0.268 HD
ATOM     14  H   UNL A   1      42.008  31.610  35.920  1.00  0.00     0.256 HD
ATOM     15  S   UNL A   1      46.496  33.556  34.882  1.00  0.00    -0.005 S 
BRANCH   4  16
ATOM     16  C   UNL A   1      39.516  34.166  34.154  1.00  0.00    -0.003 A 
ATOM     17  C   UNL A   1      36.901  33.425  36.754  1.00  0.00     0.065 C 
ATOM     18  C   UNL A   1      37.734  33.790  35.574  1.00  0.00     0.020 A 
ATOM     19  C   UNL A   1      39.082  34.147  35.519  1.00  0.00     0.031 A 
ATOM     20  N   UNL A   1      37.242  33.886  34.271  1.00  0.00    -0.318 N 
ATOM     21  C   UNL A   1      38.424  33.612  33.465  1.00  0.00     0.027 A 
ATOM     22  C   UNL A   1      38.480  32.896  32.155  1.00  0.00     0.065 C 
BRANCH  20  23
ATOM     23  C   UNL A   1      35.742  33.988  33.910  1.00  0.00     0.046 A 
ATOM     24  C   UNL A   1      35.469  32.680  32.766  1.00  0.00     0.026 A 
ATOM     25  C   UNL A   1      34.954  35.653  33.570  1.00  0.00     0.036 A 
ATOM     26  C   UNL A   1      34.591  32.878  31.281  1.00  0.00     0.003 A 
ATOM     27  C   UNL A   1      34.046  35.895  31.829  1.00  0.00    -0.001 A 
ATOM     28  C   UNL A   1      33.930  34.401  30.790  1.00  0.00     0.010 A 
BRANCH  27  29
ATOM     29  C   UNL A   1      32.858  36.560  31.170  1.00  0.00     0.072 C 
ATOM     30  O   UNL A   1      31.725  36.482  31.624  1.00  0.00    -0.545 OA
ATOM     31  O   UNL A   1      33.105  37.366  30.159  1.00  0.00    -0.545 OA
ENDBRANCH  27  29
ENDBRANCH  20  23
ENDBRANCH   4  16
ENDBRANCH   2   3
ENDBRANCH   1   2
BRANCH   1  32
ATOM     32  C   UNL A   1      39.695  29.235  33.704  1.00  0.00     0.119 C 
BRANCH  32  33
ATOM     33  N   UNL A   1      37.916  29.158  33.275  1.00  0.00    -0.352 N 
ATOM     34  C   UNL A   1      37.110  29.447  31.463  1.00  0.00     0.251 C 
ATOM     35  H   UNL A   1      37.292  28.954  34.009  1.00  0.00     0.163 HD
ATOM     36  O   UNL A   1      35.911  29.610  31.172  1.00  0.00    -0.269 OA
BRANCH  34  37
ATOM     37  C   UNL A   1      38.358  29.506  29.894  1.00  0.00     0.039 A 
ATOM     38  C   UNL A   1      38.466  28.646  28.805  1.00  0.00     0.014 A 
ATOM     39  C   UNL A   1      39.889  30.024  29.883  1.00  0.00     0.014 A 
ATOM     40  C   UNL A   1      39.934  28.291  28.066  1.00  0.00     0.010 A 
ATOM     41  C   UNL A   1      41.315  29.661  29.177  1.00  0.00     0.010 A 
ATOM     42  C   UNL A   1      41.486  28.703  28.207  1.00  0.00    -0.014 A 
BRANCH  42  43
ATOM     43  C   UNL A   1      43.009  28.304  27.167  1.00  0.00     0.031 A 
ATOM     44  C   UNL A   1      42.933  26.926  27.627  1.00  0.00     0.074 A 
ATOM     45  C   UNL A   1      44.446  28.449  26.462  1.00  0.00     0.049 A 
ATOM     46  N   UNL A   1      43.339  26.860  28.852  1.00  0.00    -0.248 NA
ATOM     47  C   UNL A   1      41.968  25.906  27.253  1.00  0.00     0.031 C 
ATOM     48  C   UNL A   1      45.618  29.447  26.613  1.00  0.00     0.029 A 
ATOM     49  N   UNL A   1      45.376  27.506  25.454  1.00  0.00    -0.354 N 
ATOM     50  C   UNL A   1      42.918  25.673  29.386  1.00  0.00     0.074 A 
ATOM     51  C   UNL A   1      42.009  25.135  28.356  1.00  0.00     0.031 C 
ATOM     52  C   UNL A   1      46.738  29.268  25.784  1.00  0.00     0.029 A 
ATOM     53  C   UNL A   1      46.690  28.174  24.695  1.00  0.00     0.049 A 
ATOM     54  H   UNL A   1      45.148  26.559  25.309  1.00  0.00     0.167 HD
ATOM     55  C   UNL A   1      43.959  25.156  30.076  1.00  0.00     0.031 A 
ATOM     56  C   UNL A   1      48.003  27.681  24.020  1.00  0.00     0.031 A 
ATOM     57  C   UNL A   1      44.869  24.652  29.067  1.00  0.00     0.049 A 
ATOM     58  C   UNL A   1      48.333  26.375  24.571  1.00  0.00     0.074 A 
ATOM     59  C   UNL A   1      44.607  24.077  27.820  1.00  0.00     0.029 A 
ATOM     60  N   UNL A   1      46.108  25.221  28.976  1.00  0.00    -0.354 N 
ATOM     61  N   UNL A   1      49.093  26.149  25.581  1.00  0.00    -0.248 NA
ATOM     62  C   UNL A   1      47.694  25.226  23.950  1.00  0.00     0.031 C 
ATOM     63  C   UNL A   1      45.488  24.697  26.940  1.00  0.00     0.029 A 
ATOM     64  C   UNL A   1      46.583  25.050  27.700  1.00  0.00     0.049 A 
ATOM     65  H   UNL A   1      46.584  25.679  29.707  1.00  0.00     0.167 HD
ATOM     66  C   UNL A   1      48.348  25.161  26.148  1.00  0.00     0.074 A 
ATOM     67  C   UNL A   1      47.637  24.491  25.051  1.00  0.00     0.031 C 
ATOM     68  C   UNL A   1      47.917  25.424  27.403  1.00  0.00     0.031 A 
BRANCH  55  69
ATOM     69  C   UNL A   1      44.296  26.160  31.228  1.00  0.00    -0.014 A 
ATOM     70  C   UNL A   1      44.275  25.652  32.533  1.00  0.00     0.010 A 
ATOM     71  C   UNL A   1      44.374  27.586  31.108  1.00  0.00     0.010 A 
ATOM     72  C   UNL A   1      44.389  26.497  33.653  1.00  0.00     0.020 A 
ATOM     73  C   UNL A   1      44.454  28.442  32.228  1.00  0.00     0.020 A 
ATOM     74  C   UNL A   1      44.503  27.881  33.498  1.00  0.00     0.054 A 
BRANCH  74  75
ATOM     75  S   UNL A   1      44.800  28.894  34.984  1.00  0.00     0.124 S 
ATOM     76  O   UNL A   1      45.935  28.223  35.616  1.00  0.00    -0.237 OA
ATOM     77  O   UNL A   1      45.107  30.198  34.400  1.00  0.00    -0.237 OA
ATOM     78  O   UNL A   1      43.548  28.814  35.731  1.00  0.00    -0.744 OA
ENDBRANCH  74  75
ENDBRANCH  55  69
BRANCH  56  79
ATOM     79  C   UNL A   1      48.996  27.474  22.547  1.00  0.00    -0.014 A 
ATOM     80  C   UNL A   1      50.504  27.387  22.548  1.00  0.00     0.010 A 
ATOM     81  C   UNL A   1      48.532  27.207  21.256  1.00  0.00     0.010 A 
ATOM     82  C   UNL A   1      51.365  26.899  21.460  1.00  0.00     0.020 A 
ATOM     83  C   UNL A   1      49.393  26.742  20.155  1.00  0.00     0.020 A 
ATOM     84  C   UNL A   1      50.780  26.527  20.263  1.00  0.00     0.054 A 
BRANCH  84  85
ATOM     85  S   UNL A   1      51.733  25.640  18.912  1.00  0.00     0.124 S 
ATOM     86  O   UNL A   1      51.198  26.194  17.671  1.00  0.00    -0.237 OA
ATOM     87  O   UNL A   1      53.124  25.986  19.195  1.00  0.00    -0.237 OA
ATOM     88  O   UNL A   1      51.404  24.233  19.141  1.00  0.00    -0.744 OA
ENDBRANCH  84  85
ENDBRANCH  56  79
BRANCH  68  89
ATOM     89  C   UNL A   1      48.812  26.153  28.368  1.00  0.00    -0.014 A 
ATOM     90  C   UNL A   1      48.794  27.534  28.647  1.00  0.00     0.010 A 
ATOM     91  C   UNL A   1      49.747  25.354  29.048  1.00  0.00     0.010 A 
ATOM     92  C   UNL A   1      49.738  28.103  29.517  1.00  0.00     0.020 A 
ATOM     93  C   UNL A   1      50.654  25.903  29.947  1.00  0.00     0.020 A 
ATOM     94  C   UNL A   1      50.681  27.280  30.138  1.00  0.00     0.054 A 
BRANCH  94  95
ATOM     95  S   UNL A   1      52.011  28.021  31.123  1.00  0.00     0.124 S 
ATOM     96  O   UNL A   1      52.686  28.865  30.139  1.00  0.00    -0.237 OA
ATOM     97  O   UNL A   1      51.281  28.736  32.165  1.00  0.00    -0.237 OA
ATOM     98  O   UNL A   1      52.789  26.869  31.574  1.00  0.00    -0.744 OA
ENDBRANCH  94  95
ENDBRANCH  68  89
ENDBRANCH  42  43
ENDBRANCH  34  37
ENDBRANCH  32  33
ENDBRANCH   1  32
TORSDOF 15
ENDMDL
