MODEL 1
REMARK VINA RESULT:     -11.2      0.000      0.000
REMARK SMILES COc1ccc([C@@H](CC(=O)NCCCNC(=O)c2ccc(-c3c4nc(c(-c5ccc(S(=O)(=O)[O-])cc5)c5ccc([nH]5)c(-c5ccc(S(=O)(=O)[O-])cc5)c5nc(c(-c6ccc(S(=O)(=O)[O-])cc6)c6ccc3[nH]6)C=C5)C=C4)cc2)NC(=O)c2ccc(Cl)c([N+](=O)[O-])c2)cc1
REMARK SMILES IDX 12 1 11 2 9 3 10 4 8 6 7 7 6 8 3 9 4 10 92 11 5 12 91 13
REMARK SMILES IDX 2 14 1 15 78 16 79 17 80 19 81 20 82 21 90 22 83 23 86 24
REMARK SMILES IDX 84 25 85 26 87 27 88 28 89 29 13 30 14 31 15 32 16 33 17 35
REMARK SMILES IDX 18 36 19 37 77 38 20 39 76 40 21 41 22 42 23 43 70 44 24 45
REMARK SMILES IDX 75 46 69 47 71 48 25 49 74 50 68 51 67 52 26 54 56 55 37 56
REMARK SMILES IDX 55 57 38 58 41 59 54 60 72 61 39 62 40 63 53 65 73 66 42 67
REMARK SMILES IDX 27 68 28 69 36 70 29 71 35 72 30 73 31 74 32 75 33 76 34 77
REMARK SMILES IDX 57 78 58 79 66 80 59 81 65 82 60 83 61 84 62 85 63 86 64 87
REMARK SMILES IDX 43 88 44 89 52 90 45 91 51 92 46 93 47 94 48 95 49 96 50 97
REMARK H PARENT 11 5 78 18 15 34 71 53 41 64
REMARK Flexibility Score: inf
ROOT
ATOM      1  C   UNL A   1      38.430  22.676  26.148  1.00  0.00     0.117 C 
ENDROOT
BRANCH   1   2
ATOM      2  N   UNL A   1      37.639  22.221  25.012  1.00  0.00    -0.356 N 
ATOM      3  C   UNL A   1      36.436  22.663  24.553  1.00  0.00     0.222 C 
ATOM      4  O   UNL A   1      35.819  21.939  23.767  1.00  0.00    -0.275 OA
ATOM      5  H   UNL A   1      38.036  21.480  24.498  1.00  0.00     0.163 HD
BRANCH   3   6
ATOM      6  C   UNL A   1      35.896  24.027  24.929  1.00  0.00     0.129 C 
BRANCH   6   7
ATOM      7  C   UNL A   1      34.391  24.069  25.260  1.00  0.00     0.122 C 
BRANCH   7   8
ATOM      8  C   UNL A   1      33.779  25.450  25.075  1.00  0.00    -0.025 A 
ATOM      9  C   UNL A   1      32.989  28.124  24.714  1.00  0.00     0.118 A 
ATOM     10  C   UNL A   1      32.762  27.488  25.931  1.00  0.00     0.047 A 
ATOM     11  C   UNL A   1      33.538  27.419  23.647  1.00  0.00     0.047 A 
ATOM     12  C   UNL A   1      33.140  26.150  26.109  1.00  0.00     0.010 A 
ATOM     13  C   UNL A   1      33.916  26.085  23.825  1.00  0.00     0.010 A 
BRANCH   9  14
ATOM     14  O   UNL A   1      32.847  29.483  24.676  1.00  0.00    -0.497 OA
ATOM     15  C   UNL A   1      31.790  29.955  25.506  1.00  0.00     0.278 C 
ENDBRANCH   9  14
ENDBRANCH   7   8
BRANCH   7  16
ATOM     16  N   UNL A   1      34.087  23.456  26.554  1.00  0.00    -0.345 N 
ATOM     17  C   UNL A   1      33.370  22.324  26.840  1.00  0.00     0.252 C 
ATOM     18  H   UNL A   1      34.454  23.928  27.336  1.00  0.00     0.164 HD
ATOM     19  O   UNL A   1      33.013  22.060  27.981  1.00  0.00    -0.269 OA
BRANCH  17  20
ATOM     20  C   UNL A   1      33.045  21.383  25.752  1.00  0.00     0.046 A 
ATOM     21  C   UNL A   1      32.407  21.850  24.601  1.00  0.00     0.016 A 
ATOM     22  C   UNL A   1      33.361  20.030  25.887  1.00  0.00     0.101 A 
ATOM     23  C   UNL A   1      32.151  20.968  23.544  1.00  0.00     0.028 A 
ATOM     24  C   UNL A   1      33.120  19.166  24.813  1.00  0.00     0.288 A 
ATOM     25  C   UNL A   1      32.527  19.621  23.633  1.00  0.00     0.118 A 
ATOM     26  Cl  UNL A   1      32.278  18.634  22.240  1.00  0.00    -0.077 Cl
BRANCH  24  27
ATOM     27  N   UNL A   1      33.574  17.797  24.956  1.00  0.00     0.064 N 
ATOM     28  O   UNL A   1      34.586  17.452  24.336  1.00  0.00    -0.258 OA
ATOM     29  O   UNL A   1      32.866  17.049  25.648  1.00  0.00    -0.258 OA
ENDBRANCH  24  27
ENDBRANCH  17  20
ENDBRANCH   7  16
ENDBRANCH   6   7
ENDBRANCH   3   6
ENDBRANCH   1   2
BRANCH   1  30
ATOM     30  C   UNL A   1      39.499  21.647  26.499  1.00  0.00     0.042 C 
BRANCH  30  31
ATOM     31  C   UNL A   1      39.375  20.315  25.771  1.00  0.00     0.118 C 
BRANCH  31  32
ATOM     32  N   UNL A   1      40.496  19.437  26.054  1.00  0.00    -0.352 N 
ATOM     33  C   UNL A   1      41.820  19.700  26.315  1.00  0.00     0.251 C 
ATOM     34  H   UNL A   1      40.266  18.480  26.061  1.00  0.00     0.163 HD
ATOM     35  O   UNL A   1      42.606  18.754  26.263  1.00  0.00    -0.269 OA
BRANCH  33  36
ATOM     36  C   UNL A   1      42.344  21.057  26.645  1.00  0.00     0.039 A 
ATOM     37  C   UNL A   1      42.657  21.915  25.580  1.00  0.00     0.014 A 
ATOM     38  C   UNL A   1      42.656  21.467  27.943  1.00  0.00     0.014 A 
ATOM     39  C   UNL A   1      43.237  23.170  25.815  1.00  0.00     0.010 A 
ATOM     40  C   UNL A   1      43.166  22.752  28.183  1.00  0.00     0.010 A 
ATOM     41  C   UNL A   1      43.475  23.616  27.122  1.00  0.00    -0.014 A 
BRANCH  41  42
ATOM     42  C   UNL A   1      44.049  24.967  27.392  1.00  0.00     0.031 A 
ATOM     43  C   UNL A   1      43.173  26.101  27.864  1.00  0.00     0.074 A 
ATOM     44  C   UNL A   1      45.359  25.200  27.168  1.00  0.00     0.049 A 
ATOM     45  N   UNL A   1      43.484  27.358  28.063  1.00  0.00    -0.248 NA
ATOM     46  C   UNL A   1      41.762  25.784  28.136  1.00  0.00     0.031 C 
ATOM     47  C   UNL A   1      46.325  24.207  26.698  1.00  0.00     0.029 A 
ATOM     48  N   UNL A   1      46.103  26.350  27.294  1.00  0.00    -0.354 N 
ATOM     49  C   UNL A   1      42.308  27.986  28.458  1.00  0.00     0.074 A 
ATOM     50  C   UNL A   1      41.270  26.977  28.444  1.00  0.00     0.031 C 
ATOM     51  C   UNL A   1      47.533  24.782  26.593  1.00  0.00     0.029 A 
ATOM     52  C   UNL A   1      47.422  26.196  26.936  1.00  0.00     0.049 A 
ATOM     53  H   UNL A   1      45.726  27.202  27.610  1.00  0.00     0.167 HD
ATOM     54  C   UNL A   1      42.109  29.280  28.813  1.00  0.00     0.031 A 
ATOM     55  C   UNL A   1      48.427  27.091  26.866  1.00  0.00     0.031 A 
ATOM     56  C   UNL A   1      43.137  30.286  28.846  1.00  0.00     0.049 A 
ATOM     57  C   UNL A   1      48.175  28.529  27.226  1.00  0.00     0.074 A 
ATOM     58  C   UNL A   1      43.034  31.609  29.245  1.00  0.00     0.029 A 
ATOM     59  N   UNL A   1      44.455  30.089  28.463  1.00  0.00    -0.354 N 
ATOM     60  N   UNL A   1      47.065  29.089  27.639  1.00  0.00    -0.248 NA
ATOM     61  C   UNL A   1      49.312  29.454  27.109  1.00  0.00     0.031 C 
ATOM     62  C   UNL A   1      44.276  32.224  29.056  1.00  0.00     0.029 A 
ATOM     63  C   UNL A   1      45.167  31.272  28.589  1.00  0.00     0.049 A 
ATOM     64  H   UNL A   1      44.830  29.235  28.148  1.00  0.00     0.167 HD
ATOM     65  C   UNL A   1      47.373  30.429  27.848  1.00  0.00     0.074 A 
ATOM     66  C   UNL A   1      48.776  30.594  27.531  1.00  0.00     0.031 C 
ATOM     67  C   UNL A   1      46.562  31.431  28.267  1.00  0.00     0.031 A 
BRANCH  54  68
ATOM     68  C   UNL A   1      40.708  29.693  29.185  1.00  0.00    -0.014 A 
ATOM     69  C   UNL A   1      40.397  30.118  30.488  1.00  0.00     0.010 A 
ATOM     70  C   UNL A   1      39.701  29.707  28.202  1.00  0.00     0.010 A 
ATOM     71  C   UNL A   1      39.095  30.507  30.814  1.00  0.00     0.020 A 
ATOM     72  C   UNL A   1      38.403  30.119  28.517  1.00  0.00     0.020 A 
ATOM     73  C   UNL A   1      38.105  30.500  29.827  1.00  0.00     0.054 A 
BRANCH  73  74
ATOM     74  S   UNL A   1      36.425  31.024  30.273  1.00  0.00     0.124 S 
ATOM     75  O   UNL A   1      36.685  32.238  31.043  1.00  0.00    -0.237 OA
ATOM     76  O   UNL A   1      35.797  31.231  28.970  1.00  0.00    -0.237 OA
ATOM     77  O   UNL A   1      35.901  29.898  31.041  1.00  0.00    -0.744 OA
ENDBRANCH  73  74
ENDBRANCH  54  68
BRANCH  55  78
ATOM     78  C   UNL A   1      49.775  26.649  26.415  1.00  0.00    -0.014 A 
ATOM     79  C   UNL A   1      50.683  26.084  27.327  1.00  0.00     0.010 A 
ATOM     80  C   UNL A   1      50.149  26.775  25.065  1.00  0.00     0.010 A 
ATOM     81  C   UNL A   1      51.943  25.656  26.897  1.00  0.00     0.020 A 
ATOM     82  C   UNL A   1      51.398  26.326  24.627  1.00  0.00     0.020 A 
ATOM     83  C   UNL A   1      52.290  25.776  25.548  1.00  0.00     0.054 A 
BRANCH  83  84
ATOM     84  S   UNL A   1      53.901  25.148  24.998  1.00  0.00     0.124 S 
ATOM     85  O   UNL A   1      54.105  25.883  23.754  1.00  0.00    -0.237 OA
ATOM     86  O   UNL A   1      54.780  25.517  26.104  1.00  0.00    -0.237 OA
ATOM     87  O   UNL A   1      53.672  23.712  24.849  1.00  0.00    -0.744 OA
ENDBRANCH  83  84
ENDBRANCH  55  78
BRANCH  67  88
ATOM     88  C   UNL A   1      47.169  32.799  28.429  1.00  0.00    -0.014 A 
ATOM     89  C   UNL A   1      47.786  33.181  29.633  1.00  0.00     0.010 A 
ATOM     90  C   UNL A   1      47.185  33.689  27.338  1.00  0.00     0.010 A 
ATOM     91  C   UNL A   1      48.392  34.435  29.751  1.00  0.00     0.020 A 
ATOM     92  C   UNL A   1      47.809  34.935  27.445  1.00  0.00     0.020 A 
ATOM     93  C   UNL A   1      48.401  35.303  28.655  1.00  0.00     0.054 A 
BRANCH  93  94
ATOM     94  S   UNL A   1      49.249  36.900  28.812  1.00  0.00     0.124 S 
ATOM     95  O   UNL A   1      48.128  37.828  28.937  1.00  0.00    -0.237 OA
ATOM     96  O   UNL A   1      50.053  36.720  30.019  1.00  0.00    -0.237 OA
ATOM     97  O   UNL A   1      50.014  37.010  27.572  1.00  0.00    -0.744 OA
ENDBRANCH  93  94
ENDBRANCH  67  88
ENDBRANCH  41  42
ENDBRANCH  33  36
ENDBRANCH  31  32
ENDBRANCH  30  31
ENDBRANCH   1  30
TORSDOF 19
ENDMDL
MODEL 2
REMARK VINA RESULT:     -10.6      5.728     16.287
REMARK SMILES COc1ccc([C@@H](CC(=O)NCCCNC(=O)c2ccc(-c3c4nc(c(-c5ccc(S(=O)(=O)[O-])cc5)c5ccc([nH]5)c(-c5ccc(S(=O)(=O)[O-])cc5)c5nc(c(-c6ccc(S(=O)(=O)[O-])cc6)c6ccc3[nH]6)C=C5)C=C4)cc2)NC(=O)c2ccc(Cl)c([N+](=O)[O-])c2)cc1
REMARK SMILES IDX 12 1 11 2 9 3 10 4 8 6 7 7 6 8 3 9 4 10 92 11 5 12 91 13
REMARK SMILES IDX 2 14 1 15 78 16 79 17 80 19 81 20 82 21 90 22 83 23 86 24
REMARK SMILES IDX 84 25 85 26 87 27 88 28 89 29 13 30 14 31 15 32 16 33 17 35
REMARK SMILES IDX 18 36 19 37 77 38 20 39 76 40 21 41 22 42 23 43 70 44 24 45
REMARK SMILES IDX 75 46 69 47 71 48 25 49 74 50 68 51 67 52 26 54 56 55 37 56
REMARK SMILES IDX 55 57 38 58 41 59 54 60 72 61 39 62 40 63 53 65 73 66 42 67
REMARK SMILES IDX 27 68 28 69 36 70 29 71 35 72 30 73 31 74 32 75 33 76 34 77
REMARK SMILES IDX 57 78 58 79 66 80 59 81 65 82 60 83 61 84 62 85 63 86 64 87
REMARK SMILES IDX 43 88 44 89 52 90 45 91 51 92 46 93 47 94 48 95 49 96 50 97
REMARK H PARENT 11 5 78 18 15 34 71 53 41 64
REMARK Flexibility Score: inf
ROOT
ATOM      1  C   UNL A   1      46.069  40.385  26.090  1.00  0.00     0.117 C 
ENDROOT
BRANCH   1   2
ATOM      2  N   UNL A   1      45.743  41.224  27.235  1.00  0.00    -0.356 N 
ATOM      3  C   UNL A   1      44.530  41.612  27.716  1.00  0.00     0.222 C 
ATOM      4  O   UNL A   1      44.502  42.559  28.506  1.00  0.00    -0.275 OA
ATOM      5  H   UNL A   1      46.520  41.562  27.738  1.00  0.00     0.163 HD
BRANCH   3   6
ATOM      6  C   UNL A   1      43.260  40.870  27.357  1.00  0.00     0.129 C 
BRANCH   6   7
ATOM      7  C   UNL A   1      42.710  39.941  28.457  1.00  0.00     0.122 C 
BRANCH   7   8
ATOM      8  C   UNL A   1      42.796  38.466  28.090  1.00  0.00    -0.025 A 
ATOM      9  C   UNL A   1      43.310  35.803  27.348  1.00  0.00     0.118 A 
ATOM     10  C   UNL A   1      42.513  36.611  26.541  1.00  0.00     0.047 A 
ATOM     11  C   UNL A   1      43.794  36.285  28.561  1.00  0.00     0.047 A 
ATOM     12  C   UNL A   1      42.242  37.934  26.916  1.00  0.00     0.010 A 
ATOM     13  C   UNL A   1      43.525  37.605  28.934  1.00  0.00     0.010 A 
BRANCH   9  14
ATOM     14  O   UNL A   1      43.755  34.625  26.817  1.00  0.00    -0.497 OA
ATOM     15  C   UNL A   1      43.452  34.490  25.432  1.00  0.00     0.278 C 
ENDBRANCH   9  14
ENDBRANCH   7   8
BRANCH   7  16
ATOM     16  N   UNL A   1      41.386  40.356  28.926  1.00  0.00    -0.345 N 
ATOM     17  C   UNL A   1      41.016  40.912  30.123  1.00  0.00     0.252 C 
ATOM     18  H   UNL A   1      40.652  40.214  28.286  1.00  0.00     0.164 HD
ATOM     19  O   UNL A   1      39.842  40.999  30.456  1.00  0.00    -0.269 OA
BRANCH  17  20
ATOM     20  C   UNL A   1      42.057  41.448  31.020  1.00  0.00     0.046 A 
ATOM     21  C   UNL A   1      42.759  40.582  31.860  1.00  0.00     0.016 A 
ATOM     22  C   UNL A   1      42.320  42.819  31.037  1.00  0.00     0.101 A 
ATOM     23  C   UNL A   1      43.787  41.081  32.669  1.00  0.00     0.028 A 
ATOM     24  C   UNL A   1      43.366  43.300  31.833  1.00  0.00     0.288 A 
ATOM     25  C   UNL A   1      44.114  42.444  32.645  1.00  0.00     0.118 A 
ATOM     26  Cl  UNL A   1      45.467  42.952  33.587  1.00  0.00    -0.077 Cl
BRANCH  24  27
ATOM     27  N   UNL A   1      43.678  44.711  31.726  1.00  0.00     0.064 N 
ATOM     28  O   UNL A   1      43.166  45.485  32.543  1.00  0.00    -0.258 OA
ATOM     29  O   UNL A   1      44.395  45.048  30.770  1.00  0.00    -0.258 OA
ENDBRANCH  24  27
ENDBRANCH  17  20
ENDBRANCH   7  16
ENDBRANCH   6   7
ENDBRANCH   3   6
ENDBRANCH   1   2
BRANCH   1  30
ATOM     30  C   UNL A   1      47.162  39.386  26.455  1.00  0.00     0.042 C 
BRANCH  30  31
ATOM     31  C   UNL A   1      46.815  38.441  27.598  1.00  0.00     0.118 C 
BRANCH  31  32
ATOM     32  N   UNL A   1      47.952  38.207  28.470  1.00  0.00    -0.352 N 
ATOM     33  C   UNL A   1      48.341  37.101  29.188  1.00  0.00     0.251 C 
ATOM     34  H   UNL A   1      48.552  38.981  28.565  1.00  0.00     0.163 HD
ATOM     35  O   UNL A   1      49.206  37.261  30.050  1.00  0.00    -0.269 OA
BRANCH  33  36
ATOM     36  C   UNL A   1      47.772  35.738  28.980  1.00  0.00     0.039 A 
ATOM     37  C   UNL A   1      47.690  34.886  30.091  1.00  0.00     0.014 A 
ATOM     38  C   UNL A   1      47.439  35.226  27.724  1.00  0.00     0.014 A 
ATOM     39  C   UNL A   1      47.249  33.563  29.952  1.00  0.00     0.010 A 
ATOM     40  C   UNL A   1      46.926  33.926  27.596  1.00  0.00     0.010 A 
ATOM     41  C   UNL A   1      46.836  33.073  28.706  1.00  0.00    -0.014 A 
BRANCH  41  42
ATOM     42  C   UNL A   1      46.321  31.681  28.548  1.00  0.00     0.031 A 
ATOM     43  C   UNL A   1      47.196  30.591  27.980  1.00  0.00     0.074 A 
ATOM     44  C   UNL A   1      45.043  31.394  28.870  1.00  0.00     0.049 A 
ATOM     45  N   UNL A   1      46.888  29.350  27.691  1.00  0.00    -0.248 NA
ATOM     46  C   UNL A   1      48.595  30.943  27.686  1.00  0.00     0.031 C 
ATOM     47  C   UNL A   1      44.076  32.347  29.416  1.00  0.00     0.029 A 
ATOM     48  N   UNL A   1      44.332  30.221  28.774  1.00  0.00    -0.354 N 
ATOM     49  C   UNL A   1      48.042  28.782  27.161  1.00  0.00     0.074 A 
ATOM     50  C   UNL A   1      49.049  29.822  27.142  1.00  0.00     0.031 C 
ATOM     51  C   UNL A   1      42.908  31.719  29.623  1.00  0.00     0.029 A 
ATOM     52  C   UNL A   1      43.023  30.334  29.177  1.00  0.00     0.049 A 
ATOM     53  H   UNL A   1      44.724  29.380  28.447  1.00  0.00     0.167 HD
ATOM     54  C   UNL A   1      48.252  27.510  26.740  1.00  0.00     0.031 A 
ATOM     55  C   UNL A   1      42.016  29.437  29.171  1.00  0.00     0.031 A 
ATOM     56  C   UNL A   1      47.262  26.466  26.770  1.00  0.00     0.049 A 
ATOM     57  C   UNL A   1      42.260  28.044  28.663  1.00  0.00     0.074 A 
ATOM     58  C   UNL A   1      47.405  25.135  26.414  1.00  0.00     0.029 A 
ATOM     59  N   UNL A   1      45.946  26.629  27.175  1.00  0.00    -0.354 N 
ATOM     60  N   UNL A   1      43.371  27.518  28.208  1.00  0.00    -0.248 NA
ATOM     61  C   UNL A   1      41.114  27.123  28.667  1.00  0.00     0.031 C 
ATOM     62  C   UNL A   1      46.164  24.505  26.555  1.00  0.00     0.029 A 
ATOM     63  C   UNL A   1      45.260  25.431  27.048  1.00  0.00     0.049 A 
ATOM     64  H   UNL A   1      45.556  27.471  27.503  1.00  0.00     0.167 HD
ATOM     65  C   UNL A   1      43.063  26.201  27.888  1.00  0.00     0.074 A 
ATOM     66  C   UNL A   1      41.665  26.004  28.213  1.00  0.00     0.031 C 
ATOM     67  C   UNL A   1      43.869  25.242  27.369  1.00  0.00     0.031 A 
BRANCH  54  68
ATOM     68  C   UNL A   1      49.614  27.174  26.189  1.00  0.00    -0.014 A 
ATOM     69  C   UNL A   1      49.899  27.318  24.820  1.00  0.00     0.010 A 
ATOM     70  C   UNL A   1      50.637  26.761  27.061  1.00  0.00     0.010 A 
ATOM     71  C   UNL A   1      51.170  27.011  24.326  1.00  0.00     0.020 A 
ATOM     72  C   UNL A   1      51.917  26.478  26.576  1.00  0.00     0.020 A 
ATOM     73  C   UNL A   1      52.170  26.588  25.207  1.00  0.00     0.054 A 
BRANCH  73  74
ATOM     74  S   UNL A   1      53.816  26.211  24.543  1.00  0.00     0.124 S 
ATOM     75  O   UNL A   1      53.809  24.750  24.537  1.00  0.00    -0.237 OA
ATOM     76  O   UNL A   1      53.783  26.843  23.226  1.00  0.00    -0.237 OA
ATOM     77  O   UNL A   1      54.728  26.826  25.503  1.00  0.00    -0.744 OA
ENDBRANCH  73  74
ENDBRANCH  54  68
BRANCH  55  78
ATOM     78  C   UNL A   1      40.667  29.843  29.651  1.00  0.00    -0.014 A 
ATOM     79  C   UNL A   1      40.356  29.807  31.021  1.00  0.00     0.010 A 
ATOM     80  C   UNL A   1      39.692  30.284  28.739  1.00  0.00     0.010 A 
ATOM     81  C   UNL A   1      39.092  30.202  31.471  1.00  0.00     0.020 A 
ATOM     82  C   UNL A   1      38.436  30.705  29.186  1.00  0.00     0.020 A 
ATOM     83  C   UNL A   1      38.142  30.653  30.550  1.00  0.00     0.054 A 
BRANCH  83  84
ATOM     84  S   UNL A   1      36.534  31.231  31.160  1.00  0.00     0.124 S 
ATOM     85  O   UNL A   1      36.139  30.145  32.050  1.00  0.00    -0.237 OA
ATOM     86  O   UNL A   1      36.878  32.492  31.813  1.00  0.00    -0.237 OA
ATOM     87  O   UNL A   1      35.739  31.368  29.942  1.00  0.00    -0.744 OA
ENDBRANCH  83  84
ENDBRANCH  55  78
BRANCH  67  88
ATOM     88  C   UNL A   1      43.272  23.879  27.138  1.00  0.00    -0.014 A 
ATOM     89  C   UNL A   1      42.650  23.557  25.919  1.00  0.00     0.010 A 
ATOM     90  C   UNL A   1      43.398  22.886  28.128  1.00  0.00     0.010 A 
ATOM     91  C   UNL A   1      42.148  22.271  25.700  1.00  0.00     0.020 A 
ATOM     92  C   UNL A   1      42.917  21.593  27.904  1.00  0.00     0.020 A 
ATOM     93  C   UNL A   1      42.286  21.296  26.693  1.00  0.00     0.054 A 
BRANCH  93  94
ATOM     94  S   UNL A   1      41.682  19.618  26.361  1.00  0.00     0.124 S 
ATOM     95  O   UNL A   1      40.247  19.837  26.199  1.00  0.00    -0.237 OA
ATOM     96  O   UNL A   1      42.403  19.251  25.144  1.00  0.00    -0.237 OA
ATOM     97  O   UNL A   1      42.067  18.868  27.555  1.00  0.00    -0.744 OA
ENDBRANCH  93  94
ENDBRANCH  67  88
ENDBRANCH  41  42
ENDBRANCH  33  36
ENDBRANCH  31  32
ENDBRANCH  30  31
ENDBRANCH   1  30
TORSDOF 19
ENDMDL
MODEL 3
REMARK VINA RESULT:     -10.2      3.242      8.824
REMARK SMILES COc1ccc([C@@H](CC(=O)NCCCNC(=O)c2ccc(-c3c4nc(c(-c5ccc(S(=O)(=O)[O-])cc5)c5ccc([nH]5)c(-c5ccc(S(=O)(=O)[O-])cc5)c5nc(c(-c6ccc(S(=O)(=O)[O-])cc6)c6ccc3[nH]6)C=C5)C=C4)cc2)NC(=O)c2ccc(Cl)c([N+](=O)[O-])c2)cc1
REMARK SMILES IDX 12 1 11 2 9 3 10 4 8 6 7 7 6 8 3 9 4 10 92 11 5 12 91 13
REMARK SMILES IDX 2 14 1 15 78 16 79 17 80 19 81 20 82 21 90 22 83 23 86 24
REMARK SMILES IDX 84 25 85 26 87 27 88 28 89 29 13 30 14 31 15 32 16 33 17 35
REMARK SMILES IDX 18 36 19 37 77 38 20 39 76 40 21 41 22 42 23 43 70 44 24 45
REMARK SMILES IDX 75 46 69 47 71 48 25 49 74 50 68 51 67 52 26 54 56 55 37 56
REMARK SMILES IDX 55 57 38 58 41 59 54 60 72 61 39 62 40 63 53 65 73 66 42 67
REMARK SMILES IDX 27 68 28 69 36 70 29 71 35 72 30 73 31 74 32 75 33 76 34 77
REMARK SMILES IDX 57 78 58 79 66 80 59 81 65 82 60 83 61 84 62 85 63 86 64 87
REMARK SMILES IDX 43 88 44 89 52 90 45 91 51 92 46 93 47 94 48 95 49 96 50 97
REMARK H PARENT 11 5 78 18 15 34 71 53 41 64
REMARK Flexibility Score: inf
ROOT
ATOM      1  C   UNL A   1      39.380  22.426  26.846  1.00  0.00     0.117 C 
ENDROOT
BRANCH   1   2
ATOM      2  N   UNL A   1      38.807  22.406  25.507  1.00  0.00    -0.356 N 
ATOM      3  C   UNL A   1      37.553  22.732  25.088  1.00  0.00     0.222 C 
ATOM      4  O   UNL A   1      37.205  22.354  23.967  1.00  0.00    -0.275 OA
ATOM      5  H   UNL A   1      39.422  22.111  24.795  1.00  0.00     0.163 HD
BRANCH   3   6
ATOM      6  C   UNL A   1      36.634  23.589  25.932  1.00  0.00     0.129 C 
BRANCH   6   7
ATOM      7  C   UNL A   1      35.133  23.460  25.607  1.00  0.00     0.122 C 
BRANCH   7   8
ATOM      8  C   UNL A   1      34.599  24.624  24.785  1.00  0.00    -0.025 A 
ATOM      9  C   UNL A   1      33.292  26.710  23.425  1.00  0.00     0.118 A 
ATOM     10  C   UNL A   1      33.731  25.589  22.726  1.00  0.00     0.047 A 
ATOM     11  C   UNL A   1      33.563  26.838  24.785  1.00  0.00     0.047 A 
ATOM     12  C   UNL A   1      34.397  24.555  23.398  1.00  0.00     0.010 A 
ATOM     13  C   UNL A   1      34.225  25.806  25.455  1.00  0.00     0.010 A 
BRANCH   9  14
ATOM     14  O   UNL A   1      32.429  27.555  22.785  1.00  0.00    -0.497 OA
ATOM     15  C   UNL A   1      31.078  27.103  22.824  1.00  0.00     0.278 C 
ENDBRANCH   9  14
ENDBRANCH   7   8
BRANCH   7  16
ATOM     16  N   UNL A   1      34.329  23.156  26.792  1.00  0.00    -0.345 N 
ATOM     17  C   UNL A   1      33.249  22.324  26.929  1.00  0.00     0.252 C 
ATOM     18  H   UNL A   1      34.607  23.619  27.615  1.00  0.00     0.164 HD
ATOM     19  O   UNL A   1      32.544  22.343  27.929  1.00  0.00    -0.269 OA
BRANCH  17  20
ATOM     20  C   UNL A   1      32.944  21.358  25.856  1.00  0.00     0.046 A 
ATOM     21  C   UNL A   1      32.353  21.804  24.672  1.00  0.00     0.016 A 
ATOM     22  C   UNL A   1      33.231  20.005  26.039  1.00  0.00     0.101 A 
ATOM     23  C   UNL A   1      32.116  20.898  23.631  1.00  0.00     0.028 A 
ATOM     24  C   UNL A   1      33.010  19.116  24.981  1.00  0.00     0.288 A 
ATOM     25  C   UNL A   1      32.465  19.548  23.769  1.00  0.00     0.118 A 
ATOM     26  Cl  UNL A   1      32.245  18.526  22.396  1.00  0.00    -0.077 Cl
BRANCH  24  27
ATOM     27  N   UNL A   1      33.435  17.743  25.176  1.00  0.00     0.064 N 
ATOM     28  O   UNL A   1      34.505  17.387  24.670  1.00  0.00    -0.258 OA
ATOM     29  O   UNL A   1      32.650  17.004  25.790  1.00  0.00    -0.258 OA
ENDBRANCH  24  27
ENDBRANCH  17  20
ENDBRANCH   7  16
ENDBRANCH   6   7
ENDBRANCH   3   6
ENDBRANCH   1   2
BRANCH   1  30
ATOM     30  C   UNL A   1      39.941  23.807  27.165  1.00  0.00     0.042 C 
BRANCH  30  31
ATOM     31  C   UNL A   1      41.457  23.923  27.080  1.00  0.00     0.118 C 
BRANCH  31  32
ATOM     32  N   UNL A   1      42.111  23.299  28.217  1.00  0.00    -0.352 N 
ATOM     33  C   UNL A   1      43.391  23.408  28.708  1.00  0.00     0.251 C 
ATOM     34  H   UNL A   1      41.533  22.689  28.729  1.00  0.00     0.163 HD
ATOM     35  O   UNL A   1      43.754  22.568  29.532  1.00  0.00    -0.269 OA
BRANCH  33  36
ATOM     36  C   UNL A   1      44.348  24.473  28.291  1.00  0.00     0.039 A 
ATOM     37  C   UNL A   1      44.973  25.222  29.300  1.00  0.00     0.014 A 
ATOM     38  C   UNL A   1      44.556  24.845  26.961  1.00  0.00     0.014 A 
ATOM     39  C   UNL A   1      45.815  26.297  28.980  1.00  0.00     0.010 A 
ATOM     40  C   UNL A   1      45.457  25.871  26.639  1.00  0.00     0.010 A 
ATOM     41  C   UNL A   1      46.089  26.619  27.644  1.00  0.00    -0.014 A 
BRANCH  41  42
ATOM     42  C   UNL A   1      47.018  27.730  27.286  1.00  0.00     0.031 A 
ATOM     43  C   UNL A   1      48.484  27.467  27.042  1.00  0.00     0.074 A 
ATOM     44  C   UNL A   1      46.561  28.998  27.223  1.00  0.00     0.049 A 
ATOM     45  N   UNL A   1      49.449  28.321  26.809  1.00  0.00    -0.248 NA
ATOM     46  C   UNL A   1      48.924  26.063  27.079  1.00  0.00     0.031 C 
ATOM     47  C   UNL A   1      45.175  29.408  27.447  1.00  0.00     0.029 A 
ATOM     48  N   UNL A   1      47.216  30.179  26.963  1.00  0.00    -0.354 N 
ATOM     49  C   UNL A   1      50.611  27.565  26.695  1.00  0.00     0.074 A 
ATOM     50  C   UNL A   1      50.234  26.184  26.913  1.00  0.00     0.031 C 
ATOM     51  C   UNL A   1      45.078  30.738  27.298  1.00  0.00     0.029 A 
ATOM     52  C   UNL A   1      46.402  31.286  27.020  1.00  0.00     0.049 A 
ATOM     53  H   UNL A   1      48.177  30.227  26.756  1.00  0.00     0.167 HD
ATOM     54  C   UNL A   1      51.875  27.976  26.421  1.00  0.00     0.031 A 
ATOM     55  C   UNL A   1      46.685  32.598  26.888  1.00  0.00     0.031 A 
ATOM     56  C   UNL A   1      52.256  29.344  26.187  1.00  0.00     0.049 A 
ATOM     57  C   UNL A   1      48.099  33.034  26.624  1.00  0.00     0.074 A 
ATOM     58  C   UNL A   1      53.503  29.843  25.849  1.00  0.00     0.029 A 
ATOM     59  N   UNL A   1      51.401  30.432  26.267  1.00  0.00    -0.354 N 
ATOM     60  N   UNL A   1      49.172  32.297  26.477  1.00  0.00    -0.248 NA
ATOM     61  C   UNL A   1      48.339  34.481  26.510  1.00  0.00     0.031 C 
ATOM     62  C   UNL A   1      53.415  31.237  25.775  1.00  0.00     0.029 A 
ATOM     63  C   UNL A   1      52.101  31.603  26.015  1.00  0.00     0.049 A 
ATOM     64  H   UNL A   1      50.440  30.382  26.473  1.00  0.00     0.167 HD
ATOM     65  C   UNL A   1      50.212  33.188  26.236  1.00  0.00     0.074 A 
ATOM     66  C   UNL A   1      49.639  34.517  26.242  1.00  0.00     0.031 C 
ATOM     67  C   UNL A   1      51.526  32.924  26.028  1.00  0.00     0.031 A 
BRANCH  54  68
ATOM     68  C   UNL A   1      52.955  26.926  26.375  1.00  0.00    -0.014 A 
ATOM     69  C   UNL A   1      53.747  26.649  27.503  1.00  0.00     0.010 A 
ATOM     70  C   UNL A   1      53.142  26.170  25.204  1.00  0.00     0.010 A 
ATOM     71  C   UNL A   1      54.738  25.665  27.446  1.00  0.00     0.020 A 
ATOM     72  C   UNL A   1      54.115  25.167  25.151  1.00  0.00     0.020 A 
ATOM     73  C   UNL A   1      54.919  24.934  26.268  1.00  0.00     0.054 A 
BRANCH  73  74
ATOM     74  S   UNL A   1      56.203  23.651  26.226  1.00  0.00     0.124 S 
ATOM     75  O   UNL A   1      55.405  22.429  26.270  1.00  0.00    -0.237 OA
ATOM     76  O   UNL A   1      56.878  23.914  24.957  1.00  0.00    -0.237 OA
ATOM     77  O   UNL A   1      57.001  23.919  27.419  1.00  0.00    -0.744 OA
ENDBRANCH  73  74
ENDBRANCH  54  68
BRANCH  55  78
ATOM     78  C   UNL A   1      45.595  33.602  27.023  1.00  0.00    -0.014 A 
ATOM     79  C   UNL A   1      44.800  33.945  25.916  1.00  0.00     0.010 A 
ATOM     80  C   UNL A   1      45.336  34.206  28.266  1.00  0.00     0.010 A 
ATOM     81  C   UNL A   1      43.767  34.879  26.049  1.00  0.00     0.020 A 
ATOM     82  C   UNL A   1      44.288  35.120  28.410  1.00  0.00     0.020 A 
ATOM     83  C   UNL A   1      43.515  35.457  27.297  1.00  0.00     0.054 A 
BRANCH  83  84
ATOM     84  S   UNL A   1      42.124  36.610  27.466  1.00  0.00     0.124 S 
ATOM     85  O   UNL A   1      42.339  37.151  28.803  1.00  0.00    -0.237 OA
ATOM     86  O   UNL A   1      42.348  37.540  26.362  1.00  0.00    -0.237 OA
ATOM     87  O   UNL A   1      40.952  35.750  27.315  1.00  0.00    -0.744 OA
ENDBRANCH  83  84
ENDBRANCH  55  78
BRANCH  67  88
ATOM     88  C   UNL A   1      52.440  34.091  25.767  1.00  0.00    -0.014 A 
ATOM     89  C   UNL A   1      52.629  34.588  24.466  1.00  0.00     0.010 A 
ATOM     90  C   UNL A   1      53.063  34.743  26.848  1.00  0.00     0.010 A 
ATOM     91  C   UNL A   1      53.439  35.706  24.247  1.00  0.00     0.020 A 
ATOM     92  C   UNL A   1      53.857  35.874  26.635  1.00  0.00     0.020 A 
ATOM     93  C   UNL A   1      54.047  36.343  25.334  1.00  0.00     0.054 A 
BRANCH  93  94
ATOM     94  S   UNL A   1      55.044  37.829  25.031  1.00  0.00     0.124 S 
ATOM     95  O   UNL A   1      54.595  38.230  23.700  1.00  0.00    -0.237 OA
ATOM     96  O   UNL A   1      54.642  38.713  26.123  1.00  0.00    -0.237 OA
ATOM     97  O   UNL A   1      56.420  37.344  25.105  1.00  0.00    -0.744 OA
ENDBRANCH  93  94
ENDBRANCH  67  88
ENDBRANCH  41  42
ENDBRANCH  33  36
ENDBRANCH  31  32
ENDBRANCH  30  31
ENDBRANCH   1  30
TORSDOF 19
ENDMDL
