MODEL 1
REMARK VINA RESULT:     -10.6      0.000      0.000
REMARK SMILES CC(C)[C@@H](CCNC(=O)N1C[C@@H](C)[C@H](C)C1)CCC(=O)NCCCNC(=O)c1ccc(-c2c3nc(c(-c4ccc(S(=O)(=O)[O-])cc4)c4ccc([nH]4)c(-c4ccc(S(=O)(=O)[O-])cc4)c4nc(c(-c5ccc(S(=O)(=O)[O-])cc5)c5ccc2[nH]5)C=C4)C=C3)cc1
REMARK SMILES IDX 22 1 21 2 19 3 20 4 18 6 17 7 4 8 2 9 1 10 3 11 5 12 6 13
REMARK SMILES IDX 7 14 8 15 9 17 10 18 11 19 16 20 12 21 14 22 13 23 15 24
REMARK SMILES IDX 23 25 24 26 25 27 26 28 27 30 28 31 29 32 87 33 30 34 86 35
REMARK SMILES IDX 31 36 32 37 33 38 80 39 34 40 85 41 79 42 81 43 35 44 84 45
REMARK SMILES IDX 78 46 77 47 36 49 66 50 47 51 65 52 48 53 51 54 64 55 82 56
REMARK SMILES IDX 49 57 50 58 63 60 83 61 52 62 37 63 38 64 46 65 39 66 45 67
REMARK SMILES IDX 40 68 41 69 42 70 43 71 44 72 67 73 68 74 76 75 69 76 75 77
REMARK SMILES IDX 70 78 71 79 72 80 73 81 74 82 53 83 54 84 62 85 55 86 61 87
REMARK SMILES IDX 56 88 57 89 58 90 59 91 60 92
REMARK H PARENT 21 5 7 16 25 29 81 48 51 59
REMARK Flexibility Score: inf
ROOT
ATOM      1  C   UNL A   1      34.238  24.477  25.568  1.00  0.00     0.117 C 
ENDROOT
BRANCH   1   2
ATOM      2  N   UNL A   1      33.099  24.381  26.460  1.00  0.00    -0.356 N 
ATOM      3  C   UNL A   1      32.298  23.329  26.783  1.00  0.00     0.220 C 
ATOM      4  O   UNL A   1      31.340  23.556  27.526  1.00  0.00    -0.275 OA
ATOM      5  H   UNL A   1      32.863  25.226  26.910  1.00  0.00     0.163 HD
BRANCH   3   6
ATOM      6  C   UNL A   1      32.610  21.906  26.335  1.00  0.00     0.100 C 
BRANCH   6   7
ATOM      7  C   UNL A   1      31.804  21.330  25.154  1.00  0.00     0.014 C 
BRANCH   7   8
ATOM      8  C   UNL A   1      32.617  20.640  24.038  1.00  0.00    -0.006 C 
BRANCH   8   9
ATOM      9  C   UNL A   1      32.703  19.080  24.041  1.00  0.00    -0.014 C 
ATOM     10  C   UNL A   1      32.366  18.521  22.645  1.00  0.00     0.007 C 
ATOM     11  C   UNL A   1      34.029  18.463  24.486  1.00  0.00     0.007 C 
ENDBRANCH   8   9
BRANCH   8  12
ATOM     12  C   UNL A   1      32.282  21.220  22.636  1.00  0.00     0.025 C 
BRANCH  12  13
ATOM     13  C   UNL A   1      31.739  22.645  22.581  1.00  0.00     0.118 C 
BRANCH  13  14
ATOM     14  N   UNL A   1      32.800  23.619  22.471  1.00  0.00    -0.338 N 
ATOM     15  C   UNL A   1      32.675  24.944  22.203  1.00  0.00     0.317 C 
ATOM     16  H   UNL A   1      33.716  23.285  22.605  1.00  0.00     0.165 HD
ATOM     17  O   UNL A   1      33.575  25.483  21.559  1.00  0.00    -0.249 OA
ATOM     18  N   UNL A   1      31.577  25.612  22.658  1.00  0.00    -0.324 N 
ATOM     19  C   UNL A   1      31.240  26.931  22.170  1.00  0.00     0.125 C 
ATOM     20  C   UNL A   1      30.796  25.303  23.845  1.00  0.00     0.125 C 
ATOM     21  C   UNL A   1      30.868  27.708  23.427  1.00  0.00     0.010 C 
ATOM     22  C   UNL A   1      30.298  26.645  24.389  1.00  0.00     0.010 C 
ATOM     23  C   UNL A   1      29.867  28.818  23.137  1.00  0.00     0.010 C 
ATOM     24  C   UNL A   1      30.749  26.867  25.829  1.00  0.00     0.010 C 
ENDBRANCH  13  14
ENDBRANCH  12  13
ENDBRANCH   8  12
ENDBRANCH   7   8
ENDBRANCH   6   7
ENDBRANCH   3   6
ENDBRANCH   1   2
BRANCH   1  25
ATOM     25  C   UNL A   1      35.451  23.753  26.155  1.00  0.00     0.042 C 
BRANCH  25  26
ATOM     26  C   UNL A   1      36.733  24.005  25.393  1.00  0.00     0.118 C 
BRANCH  26  27
ATOM     27  N   UNL A   1      37.708  22.946  25.624  1.00  0.00    -0.352 N 
ATOM     28  C   UNL A   1      38.969  23.000  26.170  1.00  0.00     0.251 C 
ATOM     29  H   UNL A   1      37.418  22.048  25.344  1.00  0.00     0.163 HD
ATOM     30  O   UNL A   1      39.701  22.023  26.073  1.00  0.00    -0.269 OA
BRANCH  28  31
ATOM     31  C   UNL A   1      39.449  24.230  26.846  1.00  0.00     0.039 A 
ATOM     32  C   UNL A   1      40.168  25.174  26.107  1.00  0.00     0.014 A 
ATOM     33  C   UNL A   1      39.211  24.453  28.203  1.00  0.00     0.014 A 
ATOM     34  C   UNL A   1      40.593  26.356  26.717  1.00  0.00     0.010 A 
ATOM     35  C   UNL A   1      39.516  25.683  28.771  1.00  0.00     0.010 A 
ATOM     36  C   UNL A   1      40.238  26.637  28.046  1.00  0.00    -0.014 A 
BRANCH  36  37
ATOM     37  C   UNL A   1      40.642  27.901  28.713  1.00  0.00     0.031 A 
ATOM     38  C   UNL A   1      42.005  28.006  29.353  1.00  0.00     0.074 A 
ATOM     39  C   UNL A   1      39.765  28.920  28.807  1.00  0.00     0.049 A 
ATOM     40  N   UNL A   1      42.516  28.989  30.047  1.00  0.00    -0.248 NA
ATOM     41  C   UNL A   1      42.899  26.839  29.232  1.00  0.00     0.031 C 
ATOM     42  C   UNL A   1      38.394  28.912  28.284  1.00  0.00     0.029 A 
ATOM     43  N   UNL A   1      39.888  30.158  29.385  1.00  0.00    -0.354 N 
ATOM     44  C   UNL A   1      43.763  28.546  30.473  1.00  0.00     0.074 A 
ATOM     45  C   UNL A   1      43.916  27.189  30.006  1.00  0.00     0.031 C 
ATOM     46  C   UNL A   1      37.818  30.099  28.538  1.00  0.00     0.029 A 
ATOM     47  C   UNL A   1      38.755  30.933  29.282  1.00  0.00     0.049 A 
ATOM     48  H   UNL A   1      40.709  30.464  29.832  1.00  0.00     0.167 HD
ATOM     49  C   UNL A   1      44.706  29.217  31.173  1.00  0.00     0.031 A 
ATOM     50  C   UNL A   1      38.496  32.171  29.745  1.00  0.00     0.031 A 
ATOM     51  C   UNL A   1      44.565  30.584  31.593  1.00  0.00     0.049 A 
ATOM     52  C   UNL A   1      39.578  32.907  30.491  1.00  0.00     0.074 A 
ATOM     53  C   UNL A   1      45.500  31.389  32.220  1.00  0.00     0.029 A 
ATOM     54  N   UNL A   1      43.420  31.348  31.430  1.00  0.00    -0.354 N 
ATOM     55  N   UNL A   1      40.788  32.503  30.796  1.00  0.00    -0.248 NA
ATOM     56  C   UNL A   1      39.264  34.270  30.939  1.00  0.00     0.031 C 
ATOM     57  C   UNL A   1      44.896  32.620  32.496  1.00  0.00     0.029 A 
ATOM     58  C   UNL A   1      43.612  32.604  31.975  1.00  0.00     0.049 A 
ATOM     59  H   UNL A   1      42.593  31.040  30.992  1.00  0.00     0.167 HD
ATOM     60  C   UNL A   1      41.389  33.574  31.447  1.00  0.00     0.074 A 
ATOM     61  C   UNL A   1      40.418  34.649  31.471  1.00  0.00     0.031 C 
ATOM     62  C   UNL A   1      42.633  33.662  31.980  1.00  0.00     0.031 A 
BRANCH  49  63
ATOM     63  C   UNL A   1      45.977  28.491  31.532  1.00  0.00    -0.014 A 
ATOM     64  C   UNL A   1      47.109  28.535  30.699  1.00  0.00     0.010 A 
ATOM     65  C   UNL A   1      46.062  27.818  32.765  1.00  0.00     0.010 A 
ATOM     66  C   UNL A   1      48.294  27.899  31.080  1.00  0.00     0.020 A 
ATOM     67  C   UNL A   1      47.254  27.206  33.164  1.00  0.00     0.020 A 
ATOM     68  C   UNL A   1      48.360  27.243  32.314  1.00  0.00     0.054 A 
BRANCH  68  69
ATOM     69  S   UNL A   1      49.932  26.485  32.809  1.00  0.00     0.124 S 
ATOM     70  O   UNL A   1      49.506  25.577  33.870  1.00  0.00    -0.237 OA
ATOM     71  O   UNL A   1      50.379  25.845  31.576  1.00  0.00    -0.237 OA
ATOM     72  O   UNL A   1      50.741  27.620  33.248  1.00  0.00    -0.744 OA
ENDBRANCH  68  69
ENDBRANCH  49  63
BRANCH  50  73
ATOM     73  C   UNL A   1      37.159  32.792  29.526  1.00  0.00    -0.014 A 
ATOM     74  C   UNL A   1      36.904  33.574  28.386  1.00  0.00     0.010 A 
ATOM     75  C   UNL A   1      36.133  32.613  30.472  1.00  0.00     0.010 A 
ATOM     76  C   UNL A   1      35.661  34.197  28.216  1.00  0.00     0.020 A 
ATOM     77  C   UNL A   1      34.880  33.204  30.289  1.00  0.00     0.020 A 
ATOM     78  C   UNL A   1      34.659  34.009  29.170  1.00  0.00     0.054 A 
BRANCH  78  79
ATOM     79  S   UNL A   1      33.049  34.807  28.921  1.00  0.00     0.124 S 
ATOM     80  O   UNL A   1      32.397  33.892  27.991  1.00  0.00    -0.237 OA
ATOM     81  O   UNL A   1      32.499  34.837  30.274  1.00  0.00    -0.237 OA
ATOM     82  O   UNL A   1      33.400  36.116  28.372  1.00  0.00    -0.744 OA
ENDBRANCH  78  79
ENDBRANCH  50  73
BRANCH  62  83
ATOM     83  C   UNL A   1      43.034  34.976  32.593  1.00  0.00    -0.014 A 
ATOM     84  C   UNL A   1      43.784  35.922  31.875  1.00  0.00     0.010 A 
ATOM     85  C   UNL A   1      42.596  35.290  33.894  1.00  0.00     0.010 A 
ATOM     86  C   UNL A   1      44.125  37.143  32.461  1.00  0.00     0.020 A 
ATOM     87  C   UNL A   1      42.906  36.523  34.470  1.00  0.00     0.020 A 
ATOM     88  C   UNL A   1      43.682  37.436  33.755  1.00  0.00     0.054 A 
BRANCH  88  89
ATOM     89  S   UNL A   1      44.105  39.044  34.478  1.00  0.00     0.124 S 
ATOM     90  O   UNL A   1      44.087  38.749  35.907  1.00  0.00    -0.237 OA
ATOM     91  O   UNL A   1      45.422  39.314  33.908  1.00  0.00    -0.237 OA
ATOM     92  O   UNL A   1      43.038  39.926  34.010  1.00  0.00    -0.744 OA
ENDBRANCH  88  89
ENDBRANCH  62  83
ENDBRANCH  36  37
ENDBRANCH  28  31
ENDBRANCH  26  27
ENDBRANCH  25  26
ENDBRANCH   1  25
TORSDOF 19
ENDMDL
MODEL 2
REMARK VINA RESULT:     -10.3      2.020      2.586
REMARK SMILES CC(C)[C@@H](CCNC(=O)N1C[C@@H](C)[C@H](C)C1)CCC(=O)NCCCNC(=O)c1ccc(-c2c3nc(c(-c4ccc(S(=O)(=O)[O-])cc4)c4ccc([nH]4)c(-c4ccc(S(=O)(=O)[O-])cc4)c4nc(c(-c5ccc(S(=O)(=O)[O-])cc5)c5ccc2[nH]5)C=C4)C=C3)cc1
REMARK SMILES IDX 22 1 21 2 19 3 20 4 18 6 17 7 4 8 2 9 1 10 3 11 5 12 6 13
REMARK SMILES IDX 7 14 8 15 9 17 10 18 11 19 16 20 12 21 14 22 13 23 15 24
REMARK SMILES IDX 23 25 24 26 25 27 26 28 27 30 28 31 29 32 87 33 30 34 86 35
REMARK SMILES IDX 31 36 32 37 33 38 80 39 34 40 85 41 79 42 81 43 35 44 84 45
REMARK SMILES IDX 78 46 77 47 36 49 66 50 47 51 65 52 48 53 51 54 64 55 82 56
REMARK SMILES IDX 49 57 50 58 63 60 83 61 52 62 37 63 38 64 46 65 39 66 45 67
REMARK SMILES IDX 40 68 41 69 42 70 43 71 44 72 67 73 68 74 76 75 69 76 75 77
REMARK SMILES IDX 70 78 71 79 72 80 73 81 74 82 53 83 54 84 62 85 55 86 61 87
REMARK SMILES IDX 56 88 57 89 58 90 59 91 60 92
REMARK H PARENT 21 5 7 16 25 29 81 48 51 59
REMARK Flexibility Score: inf
ROOT
ATOM      1  C   UNL A   1      34.482  24.352  25.631  1.00  0.00     0.117 C 
ENDROOT
BRANCH   1   2
ATOM      2  N   UNL A   1      33.312  24.329  26.488  1.00  0.00    -0.356 N 
ATOM      3  C   UNL A   1      32.452  23.323  26.806  1.00  0.00     0.220 C 
ATOM      4  O   UNL A   1      31.483  23.611  27.514  1.00  0.00    -0.275 OA
ATOM      5  H   UNL A   1      33.103  25.193  26.914  1.00  0.00     0.163 HD
BRANCH   3   6
ATOM      6  C   UNL A   1      32.709  21.878  26.397  1.00  0.00     0.100 C 
BRANCH   6   7
ATOM      7  C   UNL A   1      31.880  21.301  25.233  1.00  0.00     0.014 C 
BRANCH   7   8
ATOM      8  C   UNL A   1      32.670  20.601  24.106  1.00  0.00    -0.006 C 
BRANCH   8   9
ATOM      9  C   UNL A   1      32.658  19.039  24.053  1.00  0.00    -0.014 C 
ATOM     10  C   UNL A   1      32.284  18.553  22.640  1.00  0.00     0.007 C 
ATOM     11  C   UNL A   1      33.943  18.326  24.471  1.00  0.00     0.007 C 
ENDBRANCH   8   9
BRANCH   8  12
ATOM     12  C   UNL A   1      32.398  21.250  22.721  1.00  0.00     0.025 C 
BRANCH  12  13
ATOM     13  C   UNL A   1      31.823  22.664  22.712  1.00  0.00     0.118 C 
BRANCH  13  14
ATOM     14  N   UNL A   1      32.848  23.658  22.495  1.00  0.00    -0.338 N 
ATOM     15  C   UNL A   1      32.670  24.973  22.210  1.00  0.00     0.317 C 
ATOM     16  H   UNL A   1      33.780  23.347  22.561  1.00  0.00     0.165 HD
ATOM     17  O   UNL A   1      33.502  25.517  21.484  1.00  0.00    -0.249 OA
ATOM     18  N   UNL A   1      31.597  25.628  22.739  1.00  0.00    -0.324 N 
ATOM     19  C   UNL A   1      31.190  26.927  22.253  1.00  0.00     0.125 C 
ATOM     20  C   UNL A   1      30.922  25.329  23.992  1.00  0.00     0.125 C 
ATOM     21  C   UNL A   1      30.903  27.725  23.519  1.00  0.00     0.010 C 
ATOM     22  C   UNL A   1      30.439  26.671  24.546  1.00  0.00     0.010 C 
ATOM     23  C   UNL A   1      29.856  28.805  23.288  1.00  0.00     0.010 C 
ATOM     24  C   UNL A   1      30.999  26.936  25.940  1.00  0.00     0.010 C 
ENDBRANCH  13  14
ENDBRANCH  12  13
ENDBRANCH   8  12
ENDBRANCH   7   8
ENDBRANCH   6   7
ENDBRANCH   3   6
ENDBRANCH   1   2
BRANCH   1  25
ATOM     25  C   UNL A   1      35.508  23.311  26.084  1.00  0.00     0.042 C 
BRANCH  25  26
ATOM     26  C   UNL A   1      36.929  23.656  25.700  1.00  0.00     0.118 C 
BRANCH  26  27
ATOM     27  N   UNL A   1      37.837  22.545  25.956  1.00  0.00    -0.352 N 
ATOM     28  C   UNL A   1      39.158  22.544  26.339  1.00  0.00     0.251 C 
ATOM     29  H   UNL A   1      37.441  21.652  25.836  1.00  0.00     0.163 HD
ATOM     30  O   UNL A   1      39.790  21.496  26.290  1.00  0.00    -0.269 OA
BRANCH  28  31
ATOM     31  C   UNL A   1      39.819  23.796  26.781  1.00  0.00     0.039 A 
ATOM     32  C   UNL A   1      40.072  24.799  25.841  1.00  0.00     0.014 A 
ATOM     33  C   UNL A   1      40.205  23.983  28.109  1.00  0.00     0.014 A 
ATOM     34  C   UNL A   1      40.658  26.000  26.247  1.00  0.00     0.010 A 
ATOM     35  C   UNL A   1      40.661  25.224  28.535  1.00  0.00     0.010 A 
ATOM     36  C   UNL A   1      40.923  26.237  27.605  1.00  0.00    -0.014 A 
BRANCH  36  37
ATOM     37  C   UNL A   1      41.510  27.518  28.075  1.00  0.00     0.031 A 
ATOM     38  C   UNL A   1      43.008  27.700  28.068  1.00  0.00     0.074 A 
ATOM     39  C   UNL A   1      40.709  28.480  28.574  1.00  0.00     0.049 A 
ATOM     40  N   UNL A   1      43.718  28.707  28.507  1.00  0.00    -0.248 NA
ATOM     41  C   UNL A   1      43.821  26.591  27.533  1.00  0.00     0.031 C 
ATOM     42  C   UNL A   1      39.249  28.393  28.693  1.00  0.00     0.029 A 
ATOM     43  N   UNL A   1      41.006  29.718  29.084  1.00  0.00    -0.354 N 
ATOM     44  C   UNL A   1      45.047  28.337  28.338  1.00  0.00     0.074 A 
ATOM     45  C   UNL A   1      45.053  26.996  27.805  1.00  0.00     0.031 C 
ATOM     46  C   UNL A   1      38.780  29.540  29.210  1.00  0.00     0.029 A 
ATOM     47  C   UNL A   1      39.902  30.423  29.506  1.00  0.00     0.049 A 
ATOM     48  H   UNL A   1      41.923  30.070  29.143  1.00  0.00     0.167 HD
ATOM     49  C   UNL A   1      46.165  29.058  28.585  1.00  0.00     0.031 A 
ATOM     50  C   UNL A   1      39.805  31.639  30.077  1.00  0.00     0.031 A 
ATOM     51  C   UNL A   1      46.149  30.411  29.072  1.00  0.00     0.049 A 
ATOM     52  C   UNL A   1      41.064  32.434  30.308  1.00  0.00     0.074 A 
ATOM     53  C   UNL A   1      47.220  31.266  29.261  1.00  0.00     0.029 A 
ATOM     54  N   UNL A   1      45.009  31.104  29.445  1.00  0.00    -0.354 N 
ATOM     55  N   UNL A   1      42.306  32.102  30.048  1.00  0.00    -0.248 NA
ATOM     56  C   UNL A   1      40.906  33.771  30.894  1.00  0.00     0.031 C 
ATOM     57  C   UNL A   1      46.733  32.455  29.812  1.00  0.00     0.029 A 
ATOM     58  C   UNL A   1      45.353  32.365  29.896  1.00  0.00     0.049 A 
ATOM     59  H   UNL A   1      44.091  30.751  29.396  1.00  0.00     0.167 HD
ATOM     60  C   UNL A   1      43.074  33.202  30.412  1.00  0.00     0.074 A 
ATOM     61  C   UNL A   1      42.155  34.215  30.889  1.00  0.00     0.031 C 
ATOM     62  C   UNL A   1      44.420  33.361  30.359  1.00  0.00     0.031 A 
BRANCH  49  63
ATOM     63  C   UNL A   1      47.502  28.408  28.336  1.00  0.00    -0.014 A 
ATOM     64  C   UNL A   1      48.181  27.714  29.352  1.00  0.00     0.010 A 
ATOM     65  C   UNL A   1      48.049  28.429  27.039  1.00  0.00     0.010 A 
ATOM     66  C   UNL A   1      49.394  27.073  29.083  1.00  0.00     0.020 A 
ATOM     67  C   UNL A   1      49.245  27.764  26.758  1.00  0.00     0.020 A 
ATOM     68  C   UNL A   1      49.915  27.097  27.786  1.00  0.00     0.054 A 
BRANCH  68  69
ATOM     69  S   UNL A   1      51.456  26.200  27.453  1.00  0.00     0.124 S 
ATOM     70  O   UNL A   1      52.160  26.328  28.726  1.00  0.00    -0.237 OA
ATOM     71  O   UNL A   1      50.980  24.858  27.130  1.00  0.00    -0.237 OA
ATOM     72  O   UNL A   1      52.050  26.933  26.337  1.00  0.00    -0.744 OA
ENDBRANCH  68  69
ENDBRANCH  49  63
BRANCH  50  73
ATOM     73  C   UNL A   1      38.475  32.179  30.477  1.00  0.00    -0.014 A 
ATOM     74  C   UNL A   1      37.696  32.923  29.574  1.00  0.00     0.010 A 
ATOM     75  C   UNL A   1      37.987  31.962  31.779  1.00  0.00     0.010 A 
ATOM     76  C   UNL A   1      36.472  33.471  29.976  1.00  0.00     0.020 A 
ATOM     77  C   UNL A   1      36.750  32.477  32.174  1.00  0.00     0.020 A 
ATOM     78  C   UNL A   1      36.009  33.246  31.275  1.00  0.00     0.054 A 
BRANCH  78  79
ATOM     79  S   UNL A   1      34.411  33.947  31.771  1.00  0.00     0.124 S 
ATOM     80  O   UNL A   1      33.800  32.833  32.489  1.00  0.00    -0.237 OA
ATOM     81  O   UNL A   1      34.808  35.090  32.589  1.00  0.00    -0.237 OA
ATOM     82  O   UNL A   1      33.781  34.293  30.497  1.00  0.00    -0.744 OA
ENDBRANCH  78  79
ENDBRANCH  50  73
BRANCH  62  83
ATOM     83  C   UNL A   1      44.978  34.692  30.784  1.00  0.00    -0.014 A 
ATOM     84  C   UNL A   1      45.109  35.756  29.876  1.00  0.00     0.010 A 
ATOM     85  C   UNL A   1      45.321  34.895  32.134  1.00  0.00     0.010 A 
ATOM     86  C   UNL A   1      45.611  36.988  30.302  1.00  0.00     0.020 A 
ATOM     87  C   UNL A   1      45.791  36.135  32.570  1.00  0.00     0.020 A 
ATOM     88  C   UNL A   1      45.947  37.169  31.647  1.00  0.00     0.054 A 
BRANCH  88  89
ATOM     89  S   UNL A   1      46.560  38.790  32.181  1.00  0.00     0.124 S 
ATOM     90  O   UNL A   1      45.791  39.699  31.335  1.00  0.00    -0.237 OA
ATOM     91  O   UNL A   1      46.217  38.810  33.600  1.00  0.00    -0.237 OA
ATOM     92  O   UNL A   1      47.991  38.732  31.892  1.00  0.00    -0.744 OA
ENDBRANCH  88  89
ENDBRANCH  62  83
ENDBRANCH  36  37
ENDBRANCH  28  31
ENDBRANCH  26  27
ENDBRANCH  25  26
ENDBRANCH   1  25
TORSDOF 19
ENDMDL
MODEL 3
REMARK VINA RESULT:      -9.9      1.312      2.592
REMARK SMILES CC(C)[C@@H](CCNC(=O)N1C[C@@H](C)[C@H](C)C1)CCC(=O)NCCCNC(=O)c1ccc(-c2c3nc(c(-c4ccc(S(=O)(=O)[O-])cc4)c4ccc([nH]4)c(-c4ccc(S(=O)(=O)[O-])cc4)c4nc(c(-c5ccc(S(=O)(=O)[O-])cc5)c5ccc2[nH]5)C=C4)C=C3)cc1
REMARK SMILES IDX 22 1 21 2 19 3 20 4 18 6 17 7 4 8 2 9 1 10 3 11 5 12 6 13
REMARK SMILES IDX 7 14 8 15 9 17 10 18 11 19 16 20 12 21 14 22 13 23 15 24
REMARK SMILES IDX 23 25 24 26 25 27 26 28 27 30 28 31 29 32 87 33 30 34 86 35
REMARK SMILES IDX 31 36 32 37 33 38 80 39 34 40 85 41 79 42 81 43 35 44 84 45
REMARK SMILES IDX 78 46 77 47 36 49 66 50 47 51 65 52 48 53 51 54 64 55 82 56
REMARK SMILES IDX 49 57 50 58 63 60 83 61 52 62 37 63 38 64 46 65 39 66 45 67
REMARK SMILES IDX 40 68 41 69 42 70 43 71 44 72 67 73 68 74 76 75 69 76 75 77
REMARK SMILES IDX 70 78 71 79 72 80 73 81 74 82 53 83 54 84 62 85 55 86 61 87
REMARK SMILES IDX 56 88 57 89 58 90 59 91 60 92
REMARK H PARENT 21 5 7 16 25 29 81 48 51 59
REMARK Flexibility Score: inf
ROOT
ATOM      1  C   UNL A   1      33.910  24.053  26.057  1.00  0.00     0.117 C 
ENDROOT
BRANCH   1   2
ATOM      2  N   UNL A   1      32.701  23.325  26.390  1.00  0.00    -0.356 N 
ATOM      3  C   UNL A   1      31.674  22.886  25.611  1.00  0.00     0.220 C 
ATOM      4  O   UNL A   1      30.722  22.349  26.182  1.00  0.00    -0.275 OA
ATOM      5  H   UNL A   1      32.606  23.110  27.347  1.00  0.00     0.163 HD
BRANCH   3   6
ATOM      6  C   UNL A   1      31.724  22.959  24.089  1.00  0.00     0.100 C 
BRANCH   6   7
ATOM      7  C   UNL A   1      30.598  23.725  23.369  1.00  0.00     0.014 C 
BRANCH   7   8
ATOM      8  C   UNL A   1      30.936  25.153  22.887  1.00  0.00    -0.006 C 
BRANCH   8   9
ATOM      9  C   UNL A   1      30.641  26.348  23.850  1.00  0.00    -0.014 C 
ATOM     10  C   UNL A   1      29.538  27.250  23.265  1.00  0.00     0.007 C 
ATOM     11  C   UNL A   1      30.247  25.995  25.285  1.00  0.00     0.007 C 
ENDBRANCH   8   9
BRANCH   8  12
ATOM     12  C   UNL A   1      32.352  25.228  22.254  1.00  0.00     0.025 C 
BRANCH  12  13
ATOM     13  C   UNL A   1      33.458  25.868  23.089  1.00  0.00     0.118 C 
BRANCH  13  14
ATOM     14  N   UNL A   1      33.797  27.188  22.611  1.00  0.00    -0.338 N 
ATOM     15  C   UNL A   1      33.298  28.373  23.045  1.00  0.00     0.317 C 
ATOM     16  H   UNL A   1      34.464  27.233  21.888  1.00  0.00     0.165 HD
ATOM     17  O   UNL A   1      33.179  29.279  22.220  1.00  0.00    -0.249 OA
ATOM     18  N   UNL A   1      32.960  28.509  24.359  1.00  0.00    -0.324 N 
ATOM     19  C   UNL A   1      32.166  29.624  24.824  1.00  0.00     0.125 C 
ATOM     20  C   UNL A   1      33.553  27.812  25.490  1.00  0.00     0.125 C 
ATOM     21  C   UNL A   1      32.868  30.076  26.099  1.00  0.00     0.010 C 
ATOM     22  C   UNL A   1      33.512  28.793  26.664  1.00  0.00     0.010 C 
ATOM     23  C   UNL A   1      31.903  30.720  27.084  1.00  0.00     0.010 C 
ATOM     24  C   UNL A   1      34.905  29.047  27.231  1.00  0.00     0.010 C 
ENDBRANCH  13  14
ENDBRANCH  12  13
ENDBRANCH   8  12
ENDBRANCH   7   8
ENDBRANCH   6   7
ENDBRANCH   3   6
ENDBRANCH   1   2
BRANCH   1  25
ATOM     25  C   UNL A   1      35.152  23.264  26.474  1.00  0.00     0.042 C 
BRANCH  25  26
ATOM     26  C   UNL A   1      36.452  23.938  26.096  1.00  0.00     0.118 C 
BRANCH  26  27
ATOM     27  N   UNL A   1      37.544  22.978  25.996  1.00  0.00    -0.352 N 
ATOM     28  C   UNL A   1      38.883  23.119  26.275  1.00  0.00     0.251 C 
ATOM     29  H   UNL A   1      37.280  22.084  25.679  1.00  0.00     0.163 HD
ATOM     30  O   UNL A   1      39.661  22.243  25.916  1.00  0.00    -0.269 OA
BRANCH  28  31
ATOM     31  C   UNL A   1      39.388  24.324  26.976  1.00  0.00     0.039 A 
ATOM     32  C   UNL A   1      40.131  25.266  26.258  1.00  0.00     0.014 A 
ATOM     33  C   UNL A   1      39.149  24.527  28.335  1.00  0.00     0.014 A 
ATOM     34  C   UNL A   1      40.580  26.427  26.892  1.00  0.00     0.010 A 
ATOM     35  C   UNL A   1      39.478  25.739  28.929  1.00  0.00     0.010 A 
ATOM     36  C   UNL A   1      40.225  26.690  28.225  1.00  0.00    -0.014 A 
BRANCH  36  37
ATOM     37  C   UNL A   1      40.654  27.932  28.917  1.00  0.00     0.031 A 
ATOM     38  C   UNL A   1      42.012  27.990  29.573  1.00  0.00     0.074 A 
ATOM     39  C   UNL A   1      39.802  28.972  29.020  1.00  0.00     0.049 A 
ATOM     40  N   UNL A   1      42.540  28.949  30.289  1.00  0.00    -0.248 NA
ATOM     41  C   UNL A   1      42.877  26.803  29.441  1.00  0.00     0.031 C 
ATOM     42  C   UNL A   1      38.437  29.008  28.483  1.00  0.00     0.029 A 
ATOM     43  N   UNL A   1      39.951  30.196  29.620  1.00  0.00    -0.354 N 
ATOM     44  C   UNL A   1      43.771  28.467  30.720  1.00  0.00     0.074 A 
ATOM     45  C   UNL A   1      43.894  27.113  30.231  1.00  0.00     0.031 C 
ATOM     46  C   UNL A   1      37.889  30.204  28.751  1.00  0.00     0.029 A 
ATOM     47  C   UNL A   1      38.839  31.001  29.519  1.00  0.00     0.049 A 
ATOM     48  H   UNL A   1      40.775  30.472  30.081  1.00  0.00     0.167 HD
ATOM     49  C   UNL A   1      44.724  29.101  31.441  1.00  0.00     0.031 A 
ATOM     50  C   UNL A   1      38.607  32.237  30.000  1.00  0.00     0.031 A 
ATOM     51  C   UNL A   1      44.613  30.464  31.883  1.00  0.00     0.049 A 
ATOM     52  C   UNL A   1      39.699  32.933  30.769  1.00  0.00     0.074 A 
ATOM     53  C   UNL A   1      45.561  31.234  32.533  1.00  0.00     0.029 A 
ATOM     54  N   UNL A   1      43.490  31.259  31.722  1.00  0.00    -0.354 N 
ATOM     55  N   UNL A   1      40.895  32.493  31.081  1.00  0.00    -0.248 NA
ATOM     56  C   UNL A   1      39.416  34.296  31.238  1.00  0.00     0.031 C 
ATOM     57  C   UNL A   1      44.986  32.474  32.824  1.00  0.00     0.029 A 
ATOM     58  C   UNL A   1      43.708  32.501  32.290  1.00  0.00     0.049 A 
ATOM     59  H   UNL A   1      42.660  30.981  31.270  1.00  0.00     0.167 HD
ATOM     60  C   UNL A   1      41.517  33.537  31.756  1.00  0.00     0.074 A 
ATOM     61  C   UNL A   1      40.574  34.635  31.788  1.00  0.00     0.031 C 
ATOM     62  C   UNL A   1      42.757  33.584  32.303  1.00  0.00     0.031 A 
BRANCH  49  63
ATOM     63  C   UNL A   1      45.972  28.336  31.801  1.00  0.00    -0.014 A 
ATOM     64  C   UNL A   1      46.017  27.490  32.923  1.00  0.00     0.010 A 
ATOM     65  C   UNL A   1      47.094  28.409  30.954  1.00  0.00     0.010 A 
ATOM     66  C   UNL A   1      47.168  26.750  33.206  1.00  0.00     0.020 A 
ATOM     67  C   UNL A   1      48.236  27.647  31.216  1.00  0.00     0.020 A 
ATOM     68  C   UNL A   1      48.269  26.829  32.346  1.00  0.00     0.054 A 
BRANCH  68  69
ATOM     69  S   UNL A   1      49.723  25.805  32.703  1.00  0.00     0.124 S 
ATOM     70  O   UNL A   1      49.416  25.300  34.038  1.00  0.00    -0.237 OA
ATOM     71  O   UNL A   1      49.684  24.813  31.632  1.00  0.00    -0.237 OA
ATOM     72  O   UNL A   1      50.836  26.748  32.635  1.00  0.00    -0.744 OA
ENDBRANCH  68  69
ENDBRANCH  49  63
BRANCH  50  73
ATOM     73  C   UNL A   1      37.289  32.896  29.778  1.00  0.00    -0.014 A 
ATOM     74  C   UNL A   1      36.272  32.826  30.746  1.00  0.00     0.010 A 
ATOM     75  C   UNL A   1      37.039  33.590  28.579  1.00  0.00     0.010 A 
ATOM     76  C   UNL A   1      35.020  33.403  30.505  1.00  0.00     0.020 A 
ATOM     77  C   UNL A   1      35.802  34.197  28.348  1.00  0.00     0.020 A 
ATOM     78  C   UNL A   1      34.793  34.083  29.306  1.00  0.00     0.054 A 
BRANCH  78  79
ATOM     79  S   UNL A   1      33.170  34.842  29.021  1.00  0.00     0.124 S 
ATOM     80  O   UNL A   1      33.536  36.169  28.538  1.00  0.00    -0.237 OA
ATOM     81  O   UNL A   1      32.573  33.948  28.032  1.00  0.00    -0.237 OA
ATOM     82  O   UNL A   1      32.541  34.806  30.340  1.00  0.00    -0.744 OA
ENDBRANCH  78  79
ENDBRANCH  50  73
BRANCH  62  83
ATOM     83  C   UNL A   1      43.184  34.877  32.943  1.00  0.00    -0.014 A 
ATOM     84  C   UNL A   1      43.002  35.110  34.316  1.00  0.00     0.010 A 
ATOM     85  C   UNL A   1      43.834  35.850  32.160  1.00  0.00     0.010 A 
ATOM     86  C   UNL A   1      43.427  36.311  34.889  1.00  0.00     0.020 A 
ATOM     87  C   UNL A   1      44.291  37.036  32.736  1.00  0.00     0.020 A 
ATOM     88  C   UNL A   1      44.070  37.266  34.095  1.00  0.00     0.054 A 
BRANCH  88  89
ATOM     89  S   UNL A   1      44.646  38.800  34.871  1.00  0.00     0.124 S 
ATOM     90  O   UNL A   1      43.840  39.807  34.188  1.00  0.00    -0.237 OA
ATOM     91  O   UNL A   1      44.325  38.585  36.279  1.00  0.00    -0.237 OA
ATOM     92  O   UNL A   1      46.074  38.829  34.562  1.00  0.00    -0.744 OA
ENDBRANCH  88  89
ENDBRANCH  62  83
ENDBRANCH  36  37
ENDBRANCH  28  31
ENDBRANCH  26  27
ENDBRANCH  25  26
ENDBRANCH   1  25
TORSDOF 19
ENDMDL
