MODEL 1
REMARK VINA RESULT:     -10.9      0.000      0.000
REMARK SMILES CC[C@](C)([NH2+]CC(=O)Nc1c(Cl)ccc(C)c1Cl)C(=O)NCCCNC(=O)c1ccc(-c2c3nc(c(-c4ccc(S(=O)(=O)[O-])cc4)c4ccc([nH]4)c(-c4ccc(S(=O)(=O)[O-])cc4)c4nc(c(-c5ccc(S(=O)(=O)[O-])cc5)c5ccc2[nH]5)C=C4)C=C3)cc1
REMARK SMILES IDX 22 1 21 2 19 3 20 4 3 6 4 7 2 8 1 9 5 10 6 13 7 14 8 15 9 16
REMARK SMILES IDX 10 18 11 19 17 20 12 21 13 22 15 23 18 24 14 25 16 26 23 27
REMARK SMILES IDX 24 28 25 29 26 30 27 32 28 33 29 34 87 35 30 36 86 37 31 38
REMARK SMILES IDX 32 39 33 40 80 41 34 42 85 43 79 44 81 45 35 46 84 47 78 48
REMARK SMILES IDX 77 49 36 51 66 52 47 53 65 54 48 55 51 56 64 57 82 58 49 59
REMARK SMILES IDX 50 60 63 62 83 63 52 64 37 65 38 66 46 67 39 68 45 69 40 70
REMARK SMILES IDX 41 71 42 72 43 73 44 74 67 75 68 76 76 77 69 78 75 79 70 80
REMARK SMILES IDX 71 81 72 82 73 83 74 84 53 85 54 86 62 87 55 88 61 89 56 90
REMARK SMILES IDX 57 91 58 92 59 93 60 94
REMARK H PARENT 21 5 5 11 5 12 9 17 25 31 81 50 51 61
REMARK Flexibility Score: inf
ROOT
ATOM      1  C   UNL A   1      31.781  30.035  25.496  1.00  0.00     0.118 C 
ENDROOT
BRANCH   1   2
ATOM      2  N   UNL A   1      31.039  29.844  24.229  1.00  0.00    -0.351 N 
ATOM      3  C   UNL A   1      30.106  28.969  23.704  1.00  0.00     0.281 C 
ATOM      4  O   UNL A   1      29.225  29.566  23.056  1.00  0.00    -0.268 OA
ATOM      5  H   UNL A   1      31.277  30.538  23.574  1.00  0.00     0.163 HD
BRANCH   3   6
ATOM      6  C   UNL A   1      30.202  27.357  23.592  1.00  0.00     0.172 C 
ATOM      7  C   UNL A   1      28.637  27.085  23.502  1.00  0.00     0.090 C 
BRANCH   6   8
ATOM      8  C   UNL A   1      30.542  26.244  24.677  1.00  0.00     0.075 C 
ATOM      9  C   UNL A   1      30.671  26.431  26.194  1.00  0.00     0.011 C 
ENDBRANCH   6   8
BRANCH   6  10
ATOM     10  N   UNL A   1      30.798  26.989  22.333  1.00  0.00    -0.326 N 
ATOM     11  H   UNL A   1      30.646  27.767  21.691  1.00  0.00     0.347 HD
ATOM     12  H   UNL A   1      30.344  26.106  22.097  1.00  0.00     0.347 HD
BRANCH  10  13
ATOM     13  C   UNL A   1      32.222  26.670  22.286  1.00  0.00     0.363 C 
BRANCH  13  14
ATOM     14  C   UNL A   1      32.865  25.384  21.694  1.00  0.00     0.279 C 
ATOM     15  O   UNL A   1      33.076  25.455  20.460  1.00  0.00    -0.268 OA
ATOM     16  N   UNL A   1      33.397  24.223  22.189  1.00  0.00    -0.319 N 
ATOM     17  H   UNL A   1      33.632  23.642  21.429  1.00  0.00     0.170 HD
BRANCH  16  18
ATOM     18  C   UNL A   1      33.738  23.538  23.400  1.00  0.00     0.079 A 
ATOM     19  C   UNL A   1      34.296  24.077  24.576  1.00  0.00     0.066 A 
ATOM     20  C   UNL A   1      33.165  22.256  23.589  1.00  0.00     0.069 A 
ATOM     21  Cl  UNL A   1      34.176  25.725  25.068  1.00  0.00    -0.082 Cl
ATOM     22  C   UNL A   1      34.691  23.267  25.654  1.00  0.00     0.023 A 
ATOM     23  C   UNL A   1      33.365  21.497  24.770  1.00  0.00    -0.030 A 
ATOM     24  Cl  UNL A   1      32.134  21.601  22.347  1.00  0.00    -0.082 Cl
ATOM     25  C   UNL A   1      34.239  21.969  25.746  1.00  0.00     0.006 A 
ATOM     26  C   UNL A   1      32.587  20.249  25.070  1.00  0.00     0.046 C 
ENDBRANCH  16  18
ENDBRANCH  13  14
ENDBRANCH  10  13
ENDBRANCH   6  10
ENDBRANCH   3   6
ENDBRANCH   1   2
BRANCH   1  27
ATOM     27  C   UNL A   1      32.945  29.071  25.739  1.00  0.00     0.042 C 
BRANCH  27  28
ATOM     28  C   UNL A   1      33.469  29.086  27.180  1.00  0.00     0.118 C 
BRANCH  28  29
ATOM     29  N   UNL A   1      33.521  30.405  27.812  1.00  0.00    -0.352 N 
ATOM     30  C   UNL A   1      34.556  31.041  28.470  1.00  0.00     0.251 C 
ATOM     31  H   UNL A   1      32.685  30.922  27.760  1.00  0.00     0.163 HD
ATOM     32  O   UNL A   1      34.374  32.157  28.960  1.00  0.00    -0.269 OA
BRANCH  30  33
ATOM     33  C   UNL A   1      35.869  30.377  28.633  1.00  0.00     0.039 A 
ATOM     34  C   UNL A   1      36.811  30.451  27.601  1.00  0.00     0.014 A 
ATOM     35  C   UNL A   1      36.192  29.716  29.817  1.00  0.00     0.014 A 
ATOM     36  C   UNL A   1      38.111  29.977  27.808  1.00  0.00     0.010 A 
ATOM     37  C   UNL A   1      37.510  29.345  30.062  1.00  0.00     0.010 A 
ATOM     38  C   UNL A   1      38.491  29.480  29.066  1.00  0.00    -0.014 A 
BRANCH  38  39
ATOM     39  C   UNL A   1      39.896  29.106  29.381  1.00  0.00     0.031 A 
ATOM     40  C   UNL A   1      40.826  30.124  29.992  1.00  0.00     0.074 A 
ATOM     41  C   UNL A   1      40.371  27.895  29.017  1.00  0.00     0.049 A 
ATOM     42  N   UNL A   1      42.114  30.047  30.201  1.00  0.00    -0.248 NA
ATOM     43  C   UNL A   1      40.233  31.415  30.380  1.00  0.00     0.031 C 
ATOM     44  C   UNL A   1      39.594  26.837  28.365  1.00  0.00     0.029 A 
ATOM     45  N   UNL A   1      41.629  27.355  29.129  1.00  0.00    -0.354 N 
ATOM     46  C   UNL A   1      42.490  31.288  30.705  1.00  0.00     0.074 A 
ATOM     47  C   UNL A   1      41.304  32.115  30.719  1.00  0.00     0.031 C 
ATOM     48  C   UNL A   1      40.382  25.768  28.166  1.00  0.00     0.029 A 
ATOM     49  C   UNL A   1      41.730  26.077  28.628  1.00  0.00     0.049 A 
ATOM     50  H   UNL A   1      42.387  27.837  29.530  1.00  0.00     0.167 HD
ATOM     51  C   UNL A   1      43.705  31.697  31.141  1.00  0.00     0.031 A 
ATOM     52  C   UNL A   1      42.791  25.249  28.540  1.00  0.00     0.031 A 
ATOM     53  C   UNL A   1      44.873  30.859  31.164  1.00  0.00     0.049 A 
ATOM     54  C   UNL A   1      44.126  25.717  29.050  1.00  0.00     0.074 A 
ATOM     55  C   UNL A   1      46.133  31.151  31.657  1.00  0.00     0.029 A 
ATOM     56  N   UNL A   1      44.922  29.560  30.679  1.00  0.00    -0.354 N 
ATOM     57  N   UNL A   1      44.445  26.873  29.581  1.00  0.00    -0.248 NA
ATOM     58  C   UNL A   1      45.244  24.767  28.954  1.00  0.00     0.031 C 
ATOM     59  C   UNL A   1      46.955  30.042  31.431  1.00  0.00     0.029 A 
ATOM     60  C   UNL A   1      46.195  29.043  30.844  1.00  0.00     0.049 A 
ATOM     61  H   UNL A   1      44.163  29.077  30.279  1.00  0.00     0.167 HD
ATOM     62  C   UNL A   1      45.794  26.782  29.902  1.00  0.00     0.074 A 
ATOM     63  C   UNL A   1      46.226  25.452  29.522  1.00  0.00     0.031 C 
ATOM     64  C   UNL A   1      46.605  27.716  30.457  1.00  0.00     0.031 A 
BRANCH  51  65
ATOM     65  C   UNL A   1      43.825  33.116  31.635  1.00  0.00    -0.014 A 
ATOM     66  C   UNL A   1      44.083  34.175  30.746  1.00  0.00     0.010 A 
ATOM     67  C   UNL A   1      43.654  33.397  33.003  1.00  0.00     0.010 A 
ATOM     68  C   UNL A   1      44.222  35.481  31.222  1.00  0.00     0.020 A 
ATOM     69  C   UNL A   1      43.761  34.707  33.479  1.00  0.00     0.020 A 
ATOM     70  C   UNL A   1      44.064  35.738  32.587  1.00  0.00     0.054 A 
BRANCH  70  71
ATOM     71  S   UNL A   1      44.236  37.446  33.174  1.00  0.00     0.124 S 
ATOM     72  O   UNL A   1      45.386  37.341  34.070  1.00  0.00    -0.237 OA
ATOM     73  O   UNL A   1      44.469  38.189  31.938  1.00  0.00    -0.237 OA
ATOM     74  O   UNL A   1      42.960  37.718  33.830  1.00  0.00    -0.744 OA
ENDBRANCH  70  71
ENDBRANCH  51  65
BRANCH  52  75
ATOM     75  C   UNL A   1      42.628  23.886  27.962  1.00  0.00    -0.014 A 
ATOM     76  C   UNL A   1      42.664  23.697  26.568  1.00  0.00     0.010 A 
ATOM     77  C   UNL A   1      42.451  22.767  28.797  1.00  0.00     0.010 A 
ATOM     78  C   UNL A   1      42.508  22.420  26.021  1.00  0.00     0.020 A 
ATOM     79  C   UNL A   1      42.322  21.485  28.254  1.00  0.00     0.020 A 
ATOM     80  C   UNL A   1      42.340  21.321  26.868  1.00  0.00     0.054 A 
BRANCH  80  81
ATOM     81  S   UNL A   1      42.194  19.666  26.137  1.00  0.00     0.124 S 
ATOM     82  O   UNL A   1      43.179  19.721  25.061  1.00  0.00    -0.237 OA
ATOM     83  O   UNL A   1      42.532  18.793  27.259  1.00  0.00    -0.237 OA
ATOM     84  O   UNL A   1      40.799  19.604  25.707  1.00  0.00    -0.744 OA
ENDBRANCH  80  81
ENDBRANCH  52  75
BRANCH  64  85
ATOM     85  C   UNL A   1      48.036  27.327  30.711  1.00  0.00    -0.014 A 
ATOM     86  C   UNL A   1      48.412  26.692  31.908  1.00  0.00     0.010 A 
ATOM     87  C   UNL A   1      49.003  27.543  29.713  1.00  0.00     0.010 A 
ATOM     88  C   UNL A   1      49.738  26.304  32.113  1.00  0.00     0.020 A 
ATOM     89  C   UNL A   1      50.324  27.131  29.903  1.00  0.00     0.020 A 
ATOM     90  C   UNL A   1      50.686  26.526  31.107  1.00  0.00     0.054 A 
BRANCH  90  91
ATOM     91  S   UNL A   1      52.389  25.964  31.376  1.00  0.00     0.124 S 
ATOM     92  O   UNL A   1      52.897  26.970  32.307  1.00  0.00    -0.237 OA
ATOM     93  O   UNL A   1      52.203  24.628  31.935  1.00  0.00    -0.237 OA
ATOM     94  O   UNL A   1      52.980  25.997  30.040  1.00  0.00    -0.744 OA
ENDBRANCH  90  91
ENDBRANCH  64  85
ENDBRANCH  38  39
ENDBRANCH  30  33
ENDBRANCH  28  29
ENDBRANCH  27  28
ENDBRANCH   1  27
TORSDOF 18
ENDMDL
MODEL 2
REMARK VINA RESULT:     -10.8      2.958      9.453
REMARK SMILES CC[C@](C)([NH2+]CC(=O)Nc1c(Cl)ccc(C)c1Cl)C(=O)NCCCNC(=O)c1ccc(-c2c3nc(c(-c4ccc(S(=O)(=O)[O-])cc4)c4ccc([nH]4)c(-c4ccc(S(=O)(=O)[O-])cc4)c4nc(c(-c5ccc(S(=O)(=O)[O-])cc5)c5ccc2[nH]5)C=C4)C=C3)cc1
REMARK SMILES IDX 22 1 21 2 19 3 20 4 3 6 4 7 2 8 1 9 5 10 6 13 7 14 8 15 9 16
REMARK SMILES IDX 10 18 11 19 17 20 12 21 13 22 15 23 18 24 14 25 16 26 23 27
REMARK SMILES IDX 24 28 25 29 26 30 27 32 28 33 29 34 87 35 30 36 86 37 31 38
REMARK SMILES IDX 32 39 33 40 80 41 34 42 85 43 79 44 81 45 35 46 84 47 78 48
REMARK SMILES IDX 77 49 36 51 66 52 47 53 65 54 48 55 51 56 64 57 82 58 49 59
REMARK SMILES IDX 50 60 63 62 83 63 52 64 37 65 38 66 46 67 39 68 45 69 40 70
REMARK SMILES IDX 41 71 42 72 43 73 44 74 67 75 68 76 76 77 69 78 75 79 70 80
REMARK SMILES IDX 71 81 72 82 73 83 74 84 53 85 54 86 62 87 55 88 61 89 56 90
REMARK SMILES IDX 57 91 58 92 59 93 60 94
REMARK H PARENT 21 5 5 11 5 12 9 17 25 31 81 50 51 61
REMARK Flexibility Score: inf
ROOT
ATOM      1  C   UNL A   1      35.797  22.014  26.419  1.00  0.00     0.118 C 
ENDROOT
BRANCH   1   2
ATOM      2  N   UNL A   1      34.883  20.926  26.000  1.00  0.00    -0.351 N 
ATOM      3  C   UNL A   1      34.002  20.661  24.969  1.00  0.00     0.281 C 
ATOM      4  O   UNL A   1      34.096  19.484  24.570  1.00  0.00    -0.268 OA
ATOM      5  H   UNL A   1      34.912  20.177  26.639  1.00  0.00     0.163 HD
BRANCH   3   6
ATOM      6  C   UNL A   1      32.749  21.557  24.472  1.00  0.00     0.172 C 
ATOM      7  C   UNL A   1      32.177  20.508  23.422  1.00  0.00     0.090 C 
BRANCH   6   8
ATOM      8  C   UNL A   1      32.677  22.843  23.537  1.00  0.00     0.075 C 
ATOM      9  C   UNL A   1      31.425  23.472  22.914  1.00  0.00     0.011 C 
ENDBRANCH   6   8
BRANCH   6  10
ATOM     10  N   UNL A   1      31.793  21.695  25.542  1.00  0.00    -0.326 N 
ATOM     11  H   UNL A   1      32.002  20.968  26.225  1.00  0.00     0.347 HD
ATOM     12  H   UNL A   1      30.890  21.633  25.070  1.00  0.00     0.347 HD
BRANCH  10  13
ATOM     13  C   UNL A   1      31.718  22.957  26.271  1.00  0.00     0.363 C 
BRANCH  13  14
ATOM     14  C   UNL A   1      30.436  23.793  26.547  1.00  0.00     0.279 C 
ATOM     15  O   UNL A   1      29.786  23.393  27.541  1.00  0.00    -0.268 OA
ATOM     16  N   UNL A   1      29.887  24.953  26.070  1.00  0.00    -0.319 N 
ATOM     17  H   UNL A   1      29.007  25.076  26.495  1.00  0.00     0.170 HD
BRANCH  16  18
ATOM     18  C   UNL A   1      30.115  26.055  25.183  1.00  0.00     0.079 A 
ATOM     19  C   UNL A   1      29.268  26.546  24.171  1.00  0.00     0.066 A 
ATOM     20  C   UNL A   1      31.135  26.967  25.552  1.00  0.00     0.069 A 
ATOM     21  Cl  UNL A   1      27.557  26.339  24.120  1.00  0.00    -0.082 Cl
ATOM     22  C   UNL A   1      29.669  27.567  23.291  1.00  0.00     0.023 A 
ATOM     23  C   UNL A   1      31.421  28.136  24.801  1.00  0.00    -0.030 A 
ATOM     24  Cl  UNL A   1      32.042  26.675  27.010  1.00  0.00    -0.082 Cl
ATOM     25  C   UNL A   1      30.756  28.354  23.597  1.00  0.00     0.006 A 
ATOM     26  C   UNL A   1      32.337  29.214  25.302  1.00  0.00     0.046 C 
ENDBRANCH  16  18
ENDBRANCH  13  14
ENDBRANCH  10  13
ENDBRANCH   6  10
ENDBRANCH   3   6
ENDBRANCH   1   2
BRANCH   1  27
ATOM     27  C   UNL A   1      35.859  23.227  25.489  1.00  0.00     0.042 C 
BRANCH  27  28
ATOM     28  C   UNL A   1      37.259  23.505  24.929  1.00  0.00     0.118 C 
BRANCH  28  29
ATOM     29  N   UNL A   1      38.324  22.649  25.455  1.00  0.00    -0.352 N 
ATOM     30  C   UNL A   1      39.340  22.933  26.346  1.00  0.00     0.251 C 
ATOM     31  H   UNL A   1      38.313  21.723  25.122  1.00  0.00     0.163 HD
ATOM     32  O   UNL A   1      40.159  22.059  26.637  1.00  0.00    -0.269 OA
BRANCH  30  33
ATOM     33  C   UNL A   1      39.484  24.290  26.922  1.00  0.00     0.039 A 
ATOM     34  C   UNL A   1      38.988  24.550  28.204  1.00  0.00     0.014 A 
ATOM     35  C   UNL A   1      40.144  25.296  26.219  1.00  0.00     0.014 A 
ATOM     36  C   UNL A   1      39.266  25.773  28.824  1.00  0.00     0.010 A 
ATOM     37  C   UNL A   1      40.514  26.465  26.875  1.00  0.00     0.010 A 
ATOM     38  C   UNL A   1      40.091  26.716  28.190  1.00  0.00    -0.014 A 
BRANCH  38  39
ATOM     39  C   UNL A   1      40.540  27.963  28.868  1.00  0.00     0.031 A 
ATOM     40  C   UNL A   1      41.903  28.019  29.511  1.00  0.00     0.074 A 
ATOM     41  C   UNL A   1      39.687  29.000  29.006  1.00  0.00     0.049 A 
ATOM     42  N   UNL A   1      42.419  28.947  30.274  1.00  0.00    -0.248 NA
ATOM     43  C   UNL A   1      42.784  26.858  29.301  1.00  0.00     0.031 C 
ATOM     44  C   UNL A   1      38.319  29.055  28.482  1.00  0.00     0.029 A 
ATOM     45  N   UNL A   1      39.841  30.207  29.645  1.00  0.00    -0.354 N 
ATOM     46  C   UNL A   1      43.663  28.464  30.665  1.00  0.00     0.074 A 
ATOM     47  C   UNL A   1      43.800  27.140  30.101  1.00  0.00     0.031 C 
ATOM     48  C   UNL A   1      37.774  30.242  28.792  1.00  0.00     0.029 A 
ATOM     49  C   UNL A   1      38.729  31.015  29.578  1.00  0.00     0.049 A 
ATOM     50  H   UNL A   1      40.669  30.469  30.108  1.00  0.00     0.167 HD
ATOM     51  C   UNL A   1      44.618  29.075  31.407  1.00  0.00     0.031 A 
ATOM     52  C   UNL A   1      38.498  32.237  30.098  1.00  0.00     0.031 A 
ATOM     53  C   UNL A   1      44.496  30.407  31.933  1.00  0.00     0.049 A 
ATOM     54  C   UNL A   1      39.581  32.905  30.901  1.00  0.00     0.074 A 
ATOM     55  C   UNL A   1      45.434  31.147  32.630  1.00  0.00     0.029 A 
ATOM     56  N   UNL A   1      43.366  31.203  31.811  1.00  0.00    -0.354 N 
ATOM     57  N   UNL A   1      40.775  32.456  31.206  1.00  0.00    -0.248 NA
ATOM     58  C   UNL A   1      39.288  34.247  31.424  1.00  0.00     0.031 C 
ATOM     59  C   UNL A   1      44.856  32.375  32.968  1.00  0.00     0.029 A 
ATOM     60  C   UNL A   1      43.577  32.419  32.437  1.00  0.00     0.049 A 
ATOM     61  H   UNL A   1      42.538  30.942  31.347  1.00  0.00     0.167 HD
ATOM     62  C   UNL A   1      41.383  33.468  31.939  1.00  0.00     0.074 A 
ATOM     63  C   UNL A   1      40.433  34.559  32.016  1.00  0.00     0.031 C 
ATOM     64  C   UNL A   1      42.616  33.492  32.502  1.00  0.00     0.031 A 
BRANCH  51  65
ATOM     65  C   UNL A   1      45.883  28.302  31.685  1.00  0.00    -0.014 A 
ATOM     66  C   UNL A   1      46.958  28.321  30.778  1.00  0.00     0.010 A 
ATOM     67  C   UNL A   1      46.007  27.567  32.877  1.00  0.00     0.010 A 
ATOM     68  C   UNL A   1      48.112  27.576  31.033  1.00  0.00     0.020 A 
ATOM     69  C   UNL A   1      47.172  26.845  33.151  1.00  0.00     0.020 A 
ATOM     70  C   UNL A   1      48.210  26.839  32.216  1.00  0.00     0.054 A 
BRANCH  70  71
ATOM     71  S   UNL A   1      49.726  25.892  32.526  1.00  0.00     0.124 S 
ATOM     72  O   UNL A   1      50.315  25.824  31.191  1.00  0.00    -0.237 OA
ATOM     73  O   UNL A   1      50.439  26.732  33.485  1.00  0.00    -0.237 OA
ATOM     74  O   UNL A   1      49.239  24.621  33.057  1.00  0.00    -0.744 OA
ENDBRANCH  70  71
ENDBRANCH  51  65
BRANCH  52  75
ATOM     75  C   UNL A   1      37.193  32.917  29.861  1.00  0.00    -0.014 A 
ATOM     76  C   UNL A   1      36.221  32.961  30.877  1.00  0.00     0.010 A 
ATOM     77  C   UNL A   1      36.918  33.534  28.627  1.00  0.00     0.010 A 
ATOM     78  C   UNL A   1      34.994  33.594  30.658  1.00  0.00     0.020 A 
ATOM     79  C   UNL A   1      35.703  34.190  28.413  1.00  0.00     0.020 A 
ATOM     80  C   UNL A   1      34.743  34.207  29.427  1.00  0.00     0.054 A 
BRANCH  80  81
ATOM     81  S   UNL A   1      33.164  35.069  29.184  1.00  0.00     0.124 S 
ATOM     82  O   UNL A   1      32.526  34.250  28.158  1.00  0.00    -0.237 OA
ATOM     83  O   UNL A   1      32.560  35.003  30.512  1.00  0.00    -0.237 OA
ATOM     84  O   UNL A   1      33.568  36.407  28.757  1.00  0.00    -0.744 OA
ENDBRANCH  80  81
ENDBRANCH  52  75
BRANCH  64  85
ATOM     85  C   UNL A   1      43.020  34.745  33.231  1.00  0.00    -0.014 A 
ATOM     86  C   UNL A   1      42.852  34.859  34.623  1.00  0.00     0.010 A 
ATOM     87  C   UNL A   1      43.633  35.794  32.523  1.00  0.00     0.010 A 
ATOM     88  C   UNL A   1      43.266  36.015  35.289  1.00  0.00     0.020 A 
ATOM     89  C   UNL A   1      44.073  36.940  33.190  1.00  0.00     0.020 A 
ATOM     90  C   UNL A   1      43.875  37.048  34.567  1.00  0.00     0.054 A 
BRANCH  90  91
ATOM     91  S   UNL A   1      44.452  38.515  35.464  1.00  0.00     0.124 S 
ATOM     92  O   UNL A   1      43.896  38.295  36.796  1.00  0.00    -0.237 OA
ATOM     93  O   UNL A   1      45.905  38.403  35.363  1.00  0.00    -0.237 OA
ATOM     94  O   UNL A   1      43.867  39.628  34.720  1.00  0.00    -0.744 OA
ENDBRANCH  90  91
ENDBRANCH  64  85
ENDBRANCH  38  39
ENDBRANCH  30  33
ENDBRANCH  28  29
ENDBRANCH  27  28
ENDBRANCH   1  27
TORSDOF 18
ENDMDL
MODEL 3
REMARK VINA RESULT:     -10.6      2.649      3.235
REMARK SMILES CC[C@](C)([NH2+]CC(=O)Nc1c(Cl)ccc(C)c1Cl)C(=O)NCCCNC(=O)c1ccc(-c2c3nc(c(-c4ccc(S(=O)(=O)[O-])cc4)c4ccc([nH]4)c(-c4ccc(S(=O)(=O)[O-])cc4)c4nc(c(-c5ccc(S(=O)(=O)[O-])cc5)c5ccc2[nH]5)C=C4)C=C3)cc1
REMARK SMILES IDX 22 1 21 2 19 3 20 4 3 6 4 7 2 8 1 9 5 10 6 13 7 14 8 15 9 16
REMARK SMILES IDX 10 18 11 19 17 20 12 21 13 22 15 23 18 24 14 25 16 26 23 27
REMARK SMILES IDX 24 28 25 29 26 30 27 32 28 33 29 34 87 35 30 36 86 37 31 38
REMARK SMILES IDX 32 39 33 40 80 41 34 42 85 43 79 44 81 45 35 46 84 47 78 48
REMARK SMILES IDX 77 49 36 51 66 52 47 53 65 54 48 55 51 56 64 57 82 58 49 59
REMARK SMILES IDX 50 60 63 62 83 63 52 64 37 65 38 66 46 67 39 68 45 69 40 70
REMARK SMILES IDX 41 71 42 72 43 73 44 74 67 75 68 76 76 77 69 78 75 79 70 80
REMARK SMILES IDX 71 81 72 82 73 83 74 84 53 85 54 86 62 87 55 88 61 89 56 90
REMARK SMILES IDX 57 91 58 92 59 93 60 94
REMARK H PARENT 21 5 5 11 5 12 9 17 25 31 81 50 51 61
REMARK Flexibility Score: inf
ROOT
ATOM      1  C   UNL A   1      33.461  29.427  26.145  1.00  0.00     0.118 C 
ENDROOT
BRANCH   1   2
ATOM      2  N   UNL A   1      32.195  28.659  26.126  1.00  0.00    -0.351 N 
ATOM      3  C   UNL A   1      31.495  27.849  25.251  1.00  0.00     0.281 C 
ATOM      4  O   UNL A   1      31.015  26.854  25.826  1.00  0.00    -0.268 OA
ATOM      5  H   UNL A   1      31.714  28.752  26.979  1.00  0.00     0.163 HD
BRANCH   3   6
ATOM      6  C   UNL A   1      31.013  28.190  23.744  1.00  0.00     0.172 C 
ATOM      7  C   UNL A   1      30.579  29.694  24.025  1.00  0.00     0.090 C 
BRANCH   6   8
ATOM      8  C   UNL A   1      29.720  27.753  22.926  1.00  0.00     0.075 C 
ATOM      9  C   UNL A   1      28.271  28.188  23.174  1.00  0.00     0.011 C 
ENDBRANCH   6   8
BRANCH   6  10
ATOM     10  N   UNL A   1      32.151  28.206  22.859  1.00  0.00    -0.326 N 
ATOM     11  H   UNL A   1      32.687  29.046  23.075  1.00  0.00     0.347 HD
ATOM     12  H   UNL A   1      31.736  28.155  21.928  1.00  0.00     0.347 HD
BRANCH  10  13
ATOM     13  C   UNL A   1      33.087  27.086  22.883  1.00  0.00     0.363 C 
BRANCH  13  14
ATOM     14  C   UNL A   1      33.064  25.838  21.955  1.00  0.00     0.279 C 
ATOM     15  O   UNL A   1      33.250  26.115  20.746  1.00  0.00    -0.268 OA
ATOM     16  N   UNL A   1      33.030  24.480  22.120  1.00  0.00    -0.319 N 
ATOM     17  H   UNL A   1      32.957  24.062  21.230  1.00  0.00     0.170 HD
BRANCH  16  18
ATOM     18  C   UNL A   1      33.060  23.439  23.104  1.00  0.00     0.079 A 
ATOM     19  C   UNL A   1      34.181  22.755  23.611  1.00  0.00     0.066 A 
ATOM     20  C   UNL A   1      31.902  23.290  23.907  1.00  0.00     0.069 A 
ATOM     21  Cl  UNL A   1      35.795  23.361  23.621  1.00  0.00    -0.082 Cl
ATOM     22  C   UNL A   1      34.056  21.668  24.495  1.00  0.00     0.023 A 
ATOM     23  C   UNL A   1      31.821  22.344  24.961  1.00  0.00    -0.030 A 
ATOM     24  Cl  UNL A   1      30.539  24.337  23.626  1.00  0.00    -0.082 Cl
ATOM     25  C   UNL A   1      32.870  21.451  25.160  1.00  0.00     0.006 A 
ATOM     26  C   UNL A   1      30.694  22.334  25.953  1.00  0.00     0.046 C 
ENDBRANCH  16  18
ENDBRANCH  13  14
ENDBRANCH  10  13
ENDBRANCH   6  10
ENDBRANCH   3   6
ENDBRANCH   1   2
BRANCH   1  27
ATOM     27  C   UNL A   1      34.334  29.242  27.389  1.00  0.00     0.042 C 
BRANCH  27  28
ATOM     28  C   UNL A   1      35.192  30.466  27.728  1.00  0.00     0.118 C 
BRANCH  28  29
ATOM     29  N   UNL A   1      35.254  30.811  29.150  1.00  0.00    -0.352 N 
ATOM     30  C   UNL A   1      36.256  30.599  30.078  1.00  0.00     0.251 C 
ATOM     31  H   UNL A   1      34.456  31.267  29.500  1.00  0.00     0.163 HD
ATOM     32  O   UNL A   1      36.089  30.950  31.247  1.00  0.00    -0.269 OA
BRANCH  30  33
ATOM     33  C   UNL A   1      37.511  29.914  29.692  1.00  0.00     0.039 A 
ATOM     34  C   UNL A   1      37.941  29.962  28.361  1.00  0.00     0.014 A 
ATOM     35  C   UNL A   1      38.287  29.259  30.646  1.00  0.00     0.014 A 
ATOM     36  C   UNL A   1      39.204  29.467  28.020  1.00  0.00     0.010 A 
ATOM     37  C   UNL A   1      39.584  28.868  30.329  1.00  0.00     0.010 A 
ATOM     38  C   UNL A   1      40.065  28.976  29.015  1.00  0.00    -0.014 A 
BRANCH  38  39
ATOM     39  C   UNL A   1      41.471  28.581  28.724  1.00  0.00     0.031 A 
ATOM     40  C   UNL A   1      42.560  29.624  28.727  1.00  0.00     0.074 A 
ATOM     41  C   UNL A   1      41.752  27.315  28.350  1.00  0.00     0.049 A 
ATOM     42  N   UNL A   1      43.809  29.515  28.355  1.00  0.00    -0.248 NA
ATOM     43  C   UNL A   1      42.181  30.978  29.165  1.00  0.00     0.031 C 
ATOM     44  C   UNL A   1      40.782  26.221  28.250  1.00  0.00     0.029 A 
ATOM     45  N   UNL A   1      42.938  26.736  27.967  1.00  0.00    -0.354 N 
ATOM     46  C   UNL A   1      44.351  30.791  28.477  1.00  0.00     0.074 A 
ATOM     47  C   UNL A   1      43.281  31.666  28.903  1.00  0.00     0.031 C 
ATOM     48  C   UNL A   1      41.416  25.101  27.866  1.00  0.00     0.029 A 
ATOM     49  C   UNL A   1      42.825  25.404  27.643  1.00  0.00     0.049 A 
ATOM     50  H   UNL A   1      43.789  27.230  27.927  1.00  0.00     0.167 HD
ATOM     51  C   UNL A   1      45.628  31.195  28.276  1.00  0.00     0.031 A 
ATOM     52  C   UNL A   1      43.750  24.524  27.206  1.00  0.00     0.031 A 
ATOM     53  C   UNL A   1      46.697  30.315  27.892  1.00  0.00     0.049 A 
ATOM     54  C   UNL A   1      45.166  24.991  27.011  1.00  0.00     0.074 A 
ATOM     55  C   UNL A   1      48.041  30.608  27.738  1.00  0.00     0.029 A 
ATOM     56  N   UNL A   1      46.546  28.965  27.609  1.00  0.00    -0.354 N 
ATOM     57  N   UNL A   1      45.671  26.188  27.193  1.00  0.00    -0.248 NA
ATOM     58  C   UNL A   1      46.140  23.988  26.558  1.00  0.00     0.031 C 
ATOM     59  C   UNL A   1      48.695  29.445  27.320  1.00  0.00     0.029 A 
ATOM     60  C   UNL A   1      47.768  28.416  27.263  1.00  0.00     0.049 A 
ATOM     61  H   UNL A   1      45.695  28.472  27.650  1.00  0.00     0.167 HD
ATOM     62  C   UNL A   1      47.024  26.077  26.896  1.00  0.00     0.074 A 
ATOM     63  C   UNL A   1      47.262  24.693  26.541  1.00  0.00     0.031 C 
ATOM     64  C   UNL A   1      47.983  27.035  26.911  1.00  0.00     0.031 A 
BRANCH  51  65
ATOM     65  C   UNL A   1      45.933  32.657  28.479  1.00  0.00    -0.014 A 
ATOM     66  C   UNL A   1      45.991  33.545  27.389  1.00  0.00     0.010 A 
ATOM     67  C   UNL A   1      46.143  33.156  29.778  1.00  0.00     0.010 A 
ATOM     68  C   UNL A   1      46.305  34.891  27.587  1.00  0.00     0.020 A 
ATOM     69  C   UNL A   1      46.427  34.509  29.984  1.00  0.00     0.020 A 
ATOM     70  C   UNL A   1      46.526  35.364  28.884  1.00  0.00     0.054 A 
BRANCH  70  71
ATOM     71  S   UNL A   1      46.919  37.120  29.113  1.00  0.00     0.124 S 
ATOM     72  O   UNL A   1      47.652  37.426  27.886  1.00  0.00    -0.237 OA
ATOM     73  O   UNL A   1      45.598  37.733  29.224  1.00  0.00    -0.237 OA
ATOM     74  O   UNL A   1      47.717  37.141  30.336  1.00  0.00    -0.744 OA
ENDBRANCH  70  71
ENDBRANCH  51  65
BRANCH  52  75
ATOM     75  C   UNL A   1      43.368  23.109  26.940  1.00  0.00    -0.014 A 
ATOM     76  C   UNL A   1      43.461  22.580  25.640  1.00  0.00     0.010 A 
ATOM     77  C   UNL A   1      42.923  22.277  27.985  1.00  0.00     0.010 A 
ATOM     78  C   UNL A   1      43.100  21.254  25.386  1.00  0.00     0.020 A 
ATOM     79  C   UNL A   1      42.586  20.942  27.739  1.00  0.00     0.020 A 
ATOM     80  C   UNL A   1      42.667  20.442  26.438  1.00  0.00     0.054 A 
BRANCH  80  81
ATOM     81  S   UNL A   1      42.256  18.708  26.093  1.00  0.00     0.124 S 
ATOM     82  O   UNL A   1      43.182  18.385  25.013  1.00  0.00    -0.237 OA
ATOM     83  O   UNL A   1      42.526  18.058  27.374  1.00  0.00    -0.237 OA
ATOM     84  O   UNL A   1      40.845  18.760  25.715  1.00  0.00    -0.744 OA
ENDBRANCH  80  81
ENDBRANCH  52  75
BRANCH  64  85
ATOM     85  C   UNL A   1      49.384  26.616  26.558  1.00  0.00    -0.014 A 
ATOM     86  C   UNL A   1      50.242  26.068  27.528  1.00  0.00     0.010 A 
ATOM     87  C   UNL A   1      49.825  26.714  25.226  1.00  0.00     0.010 A 
ATOM     88  C   UNL A   1      51.528  25.650  27.175  1.00  0.00     0.020 A 
ATOM     89  C   UNL A   1      51.100  26.272  24.865  1.00  0.00     0.020 A 
ATOM     90  C   UNL A   1      51.948  25.754  25.845  1.00  0.00     0.054 A 
BRANCH  90  91
ATOM     91  S   UNL A   1      53.602  25.155  25.403  1.00  0.00     0.124 S 
ATOM     92  O   UNL A   1      54.405  25.623  26.530  1.00  0.00    -0.237 OA
ATOM     93  O   UNL A   1      53.410  23.709  25.325  1.00  0.00    -0.237 OA
ATOM     94  O   UNL A   1      53.878  25.811  24.127  1.00  0.00    -0.744 OA
ENDBRANCH  90  91
ENDBRANCH  64  85
ENDBRANCH  38  39
ENDBRANCH  30  33
ENDBRANCH  28  29
ENDBRANCH  27  28
ENDBRANCH   1  27
TORSDOF 18
ENDMDL
