MODEL 1
REMARK VINA RESULT:     -11.4      0.000      0.000
REMARK SMILES Cc1ccc(Cl)c(Nc2ccccc2C(=O)NCC(=O)NCCCNC(=O)c2ccc(-c3c4nc(c(-c5ccc(S(=O)(=O)[O-])cc5)c5ccc([nH]5)c(-c5ccc(S(=O)(=O)[O-])cc5)c5nc(c(-c6ccc(S(=O)(=O)[O-])cc6)c6ccc3[nH]6)C=C5)C=C4)cc2)c1Cl
REMARK SMILES IDX 22 1 21 2 19 3 20 4 18 6 17 7 15 8 16 9 14 11 9 12 10 13
REMARK SMILES IDX 11 14 13 15 12 16 8 17 7 19 1 20 2 21 3 22 88 23 4 24 89 25
REMARK SMILES IDX 5 26 6 27 23 28 24 29 25 30 26 31 27 33 28 34 29 35 87 36
REMARK SMILES IDX 30 37 86 38 31 39 32 40 33 41 80 42 34 43 85 44 79 45 81 46
REMARK SMILES IDX 35 47 84 48 78 49 77 50 36 52 66 53 47 54 65 55 48 56 51 57
REMARK SMILES IDX 64 58 82 59 49 60 50 61 63 63 83 64 52 65 37 66 38 67 46 68
REMARK SMILES IDX 39 69 45 70 40 71 41 72 42 73 43 74 44 75 67 76 68 77 76 78
REMARK SMILES IDX 69 79 75 80 70 81 71 82 72 83 73 84 74 85 53 86 54 87 62 88
REMARK SMILES IDX 55 89 61 90 56 91 57 92 58 93 59 94 60 95
REMARK H PARENT 21 5 17 10 8 18 25 32 81 51 51 62
REMARK Flexibility Score: inf
ROOT
ATOM      1  C   UNL A   1      43.571  22.332  26.804  1.00  0.00     0.117 C 
ENDROOT
BRANCH   1   2
ATOM      2  N   UNL A   1      43.585  21.332  25.763  1.00  0.00    -0.355 N 
ATOM      3  C   UNL A   1      42.965  20.120  25.785  1.00  0.00     0.239 C 
ATOM      4  O   UNL A   1      43.183  19.333  24.860  1.00  0.00    -0.273 OA
ATOM      5  H   UNL A   1      44.098  21.549  24.951  1.00  0.00     0.163 HD
BRANCH   3   6
ATOM      6  C   UNL A   1      41.820  19.894  26.766  1.00  0.00     0.216 C 
BRANCH   6   7
ATOM      7  N   UNL A   1      40.494  19.442  26.410  1.00  0.00    -0.343 N 
ATOM      8  C   UNL A   1      39.454  20.099  25.790  1.00  0.00     0.253 C 
ATOM      9  O   UNL A   1      38.741  19.385  25.075  1.00  0.00    -0.269 OA
ATOM     10  H   UNL A   1      40.302  18.508  26.652  1.00  0.00     0.164 HD
BRANCH   8  11
ATOM     11  C   UNL A   1      38.978  21.500  26.081  1.00  0.00     0.063 A 
ATOM     12  C   UNL A   1      37.769  22.168  25.770  1.00  0.00     0.051 A 
ATOM     13  C   UNL A   1      37.668  23.548  26.094  1.00  0.00     0.027 A 
ATOM     14  C   UNL A   1      38.670  24.241  26.770  1.00  0.00     0.002 A 
ATOM     15  C   UNL A   1      39.976  22.234  26.781  1.00  0.00     0.016 A 
ATOM     16  C   UNL A   1      39.822  23.574  27.136  1.00  0.00     0.001 A 
BRANCH  12  17
ATOM     17  N   UNL A   1      36.557  21.624  25.290  1.00  0.00    -0.352 N 
ATOM     18  H   UNL A   1      36.572  20.641  25.219  1.00  0.00     0.167 HD
BRANCH  17  19
ATOM     19  C   UNL A   1      35.325  22.198  24.890  1.00  0.00     0.077 A 
ATOM     20  C   UNL A   1      31.597  21.978  25.717  1.00  0.00     0.046 C 
ATOM     21  C   UNL A   1      32.884  22.282  24.999  1.00  0.00    -0.030 A 
ATOM     22  C   UNL A   1      32.842  22.722  23.669  1.00  0.00     0.006 A 
ATOM     23  C   UNL A   1      34.130  22.067  25.620  1.00  0.00     0.069 A 
ATOM     24  C   UNL A   1      34.018  22.994  22.975  1.00  0.00     0.023 A 
ATOM     25  Cl  UNL A   1      34.171  21.744  27.329  1.00  0.00    -0.082 Cl
ATOM     26  C   UNL A   1      35.246  22.748  23.585  1.00  0.00     0.066 A 
ATOM     27  Cl  UNL A   1      36.681  22.993  22.639  1.00  0.00    -0.082 Cl
ENDBRANCH  17  19
ENDBRANCH  12  17
ENDBRANCH   8  11
ENDBRANCH   6   7
ENDBRANCH   3   6
ENDBRANCH   1   2
BRANCH   1  28
ATOM     28  C   UNL A   1      44.945  22.967  26.948  1.00  0.00     0.042 C 
BRANCH  28  29
ATOM     29  C   UNL A   1      44.862  24.484  26.953  1.00  0.00     0.118 C 
BRANCH  29  30
ATOM     30  N   UNL A   1      44.089  24.987  25.828  1.00  0.00    -0.352 N 
ATOM     31  C   UNL A   1      43.046  25.876  25.839  1.00  0.00     0.251 C 
ATOM     32  H   UNL A   1      44.348  24.643  24.942  1.00  0.00     0.163 HD
ATOM     33  O   UNL A   1      42.349  26.024  24.845  1.00  0.00    -0.269 OA
BRANCH  31  34
ATOM     34  C   UNL A   1      42.775  26.631  27.076  1.00  0.00     0.039 A 
ATOM     35  C   UNL A   1      43.352  27.890  27.241  1.00  0.00     0.014 A 
ATOM     36  C   UNL A   1      41.924  26.102  28.053  1.00  0.00     0.014 A 
ATOM     37  C   UNL A   1      43.041  28.640  28.374  1.00  0.00     0.010 A 
ATOM     38  C   UNL A   1      41.542  26.890  29.130  1.00  0.00     0.010 A 
ATOM     39  C   UNL A   1      42.113  28.156  29.312  1.00  0.00    -0.014 A 
BRANCH  39  40
ATOM     40  C   UNL A   1      41.744  28.954  30.505  1.00  0.00     0.031 A 
ATOM     41  C   UNL A   1      42.548  28.822  31.770  1.00  0.00     0.074 A 
ATOM     42  C   UNL A   1      40.663  29.756  30.461  1.00  0.00     0.049 A 
ATOM     43  N   UNL A   1      42.368  29.410  32.925  1.00  0.00    -0.248 NA
ATOM     44  C   UNL A   1      43.686  27.886  31.746  1.00  0.00     0.031 C 
ATOM     45  C   UNL A   1      39.780  29.928  29.304  1.00  0.00     0.029 A 
ATOM     46  N   UNL A   1      40.121  30.578  31.416  1.00  0.00    -0.354 N 
ATOM     47  C   UNL A   1      43.356  28.906  33.763  1.00  0.00     0.074 A 
ATOM     48  C   UNL A   1      44.093  27.920  33.006  1.00  0.00     0.031 C 
ATOM     49  C   UNL A   1      38.831  30.829  29.604  1.00  0.00     0.029 A 
ATOM     50  C   UNL A   1      39.010  31.264  30.986  1.00  0.00     0.049 A 
ATOM     51  H   UNL A   1      40.493  30.669  32.322  1.00  0.00     0.167 HD
ATOM     52  C   UNL A   1      43.639  29.250  35.041  1.00  0.00     0.031 A 
ATOM     53  C   UNL A   1      38.221  32.144  31.633  1.00  0.00     0.031 A 
ATOM     54  C   UNL A   1      42.906  30.241  35.782  1.00  0.00     0.049 A 
ATOM     55  C   UNL A   1      38.551  32.504  33.056  1.00  0.00     0.074 A 
ATOM     56  C   UNL A   1      43.144  30.706  37.063  1.00  0.00     0.029 A 
ATOM     57  N   UNL A   1      41.790  30.916  35.311  1.00  0.00    -0.354 N 
ATOM     58  N   UNL A   1      39.534  32.071  33.809  1.00  0.00    -0.248 NA
ATOM     59  C   UNL A   1      37.674  33.482  33.711  1.00  0.00     0.031 C 
ATOM     60  C   UNL A   1      42.137  31.620  37.388  1.00  0.00     0.029 A 
ATOM     61  C   UNL A   1      41.312  31.776  36.285  1.00  0.00     0.049 A 
ATOM     62  H   UNL A   1      41.397  30.803  34.415  1.00  0.00     0.167 HD
ATOM     63  C   UNL A   1      39.410  32.745  35.018  1.00  0.00     0.074 A 
ATOM     64  C   UNL A   1      38.268  33.629  34.888  1.00  0.00     0.031 C 
ATOM     65  C   UNL A   1      40.173  32.646  36.136  1.00  0.00     0.031 A 
BRANCH  52  66
ATOM     66  C   UNL A   1      44.787  28.546  35.716  1.00  0.00    -0.014 A 
ATOM     67  C   UNL A   1      44.589  27.352  36.435  1.00  0.00     0.010 A 
ATOM     68  C   UNL A   1      46.090  29.065  35.602  1.00  0.00     0.010 A 
ATOM     69  C   UNL A   1      45.663  26.715  37.061  1.00  0.00     0.020 A 
ATOM     70  C   UNL A   1      47.172  28.413  36.200  1.00  0.00     0.020 A 
ATOM     71  C   UNL A   1      46.948  27.250  36.940  1.00  0.00     0.054 A 
BRANCH  71  72
ATOM     72  S   UNL A   1      48.327  26.386  37.742  1.00  0.00     0.124 S 
ATOM     73  O   UNL A   1      47.744  25.074  38.011  1.00  0.00    -0.237 OA
ATOM     74  O   UNL A   1      49.362  26.414  36.713  1.00  0.00    -0.237 OA
ATOM     75  O   UNL A   1      48.605  27.198  38.924  1.00  0.00    -0.744 OA
ENDBRANCH  71  72
ENDBRANCH  52  66
BRANCH  53  76
ATOM     76  C   UNL A   1      37.058  32.755  30.934  1.00  0.00    -0.014 A 
ATOM     77  C   UNL A   1      37.238  33.844  30.063  1.00  0.00     0.010 A 
ATOM     78  C   UNL A   1      35.761  32.242  31.125  1.00  0.00     0.010 A 
ATOM     79  C   UNL A   1      36.142  34.422  29.414  1.00  0.00     0.020 A 
ATOM     80  C   UNL A   1      34.668  32.797  30.455  1.00  0.00     0.020 A 
ATOM     81  C   UNL A   1      34.864  33.892  29.613  1.00  0.00     0.054 A 
BRANCH  81  82
ATOM     82  S   UNL A   1      33.464  34.631  28.726  1.00  0.00     0.124 S 
ATOM     83  O   UNL A   1      32.540  34.933  29.814  1.00  0.00    -0.237 OA
ATOM     84  O   UNL A   1      34.079  35.789  28.078  1.00  0.00    -0.237 OA
ATOM     85  O   UNL A   1      33.037  33.571  27.816  1.00  0.00    -0.744 OA
ENDBRANCH  81  82
ENDBRANCH  53  76
BRANCH  65  86
ATOM     86  C   UNL A   1      39.821  33.540  37.296  1.00  0.00    -0.014 A 
ATOM     87  C   UNL A   1      38.966  33.105  38.323  1.00  0.00     0.010 A 
ATOM     88  C   UNL A   1      40.403  34.819  37.382  1.00  0.00     0.010 A 
ATOM     89  C   UNL A   1      38.672  33.947  39.399  1.00  0.00     0.020 A 
ATOM     90  C   UNL A   1      40.137  35.649  38.472  1.00  0.00     0.020 A 
ATOM     91  C   UNL A   1      39.260  35.213  39.467  1.00  0.00     0.054 A 
BRANCH  91  92
ATOM     92  S   UNL A   1      38.892  36.269  40.895  1.00  0.00     0.124 S 
ATOM     93  O   UNL A   1      40.174  36.292  41.594  1.00  0.00    -0.237 OA
ATOM     94  O   UNL A   1      38.495  37.528  40.267  1.00  0.00    -0.237 OA
ATOM     95  O   UNL A   1      37.818  35.558  41.585  1.00  0.00    -0.744 OA
ENDBRANCH  91  92
ENDBRANCH  65  86
ENDBRANCH  39  40
ENDBRANCH  31  34
ENDBRANCH  29  30
ENDBRANCH  28  29
ENDBRANCH   1  28
TORSDOF 17
ENDMDL
MODEL 2
REMARK VINA RESULT:     -11.3      2.408      4.228
REMARK SMILES Cc1ccc(Cl)c(Nc2ccccc2C(=O)NCC(=O)NCCCNC(=O)c2ccc(-c3c4nc(c(-c5ccc(S(=O)(=O)[O-])cc5)c5ccc([nH]5)c(-c5ccc(S(=O)(=O)[O-])cc5)c5nc(c(-c6ccc(S(=O)(=O)[O-])cc6)c6ccc3[nH]6)C=C5)C=C4)cc2)c1Cl
REMARK SMILES IDX 22 1 21 2 19 3 20 4 18 6 17 7 15 8 16 9 14 11 9 12 10 13
REMARK SMILES IDX 11 14 13 15 12 16 8 17 7 19 1 20 2 21 3 22 88 23 4 24 89 25
REMARK SMILES IDX 5 26 6 27 23 28 24 29 25 30 26 31 27 33 28 34 29 35 87 36
REMARK SMILES IDX 30 37 86 38 31 39 32 40 33 41 80 42 34 43 85 44 79 45 81 46
REMARK SMILES IDX 35 47 84 48 78 49 77 50 36 52 66 53 47 54 65 55 48 56 51 57
REMARK SMILES IDX 64 58 82 59 49 60 50 61 63 63 83 64 52 65 37 66 38 67 46 68
REMARK SMILES IDX 39 69 45 70 40 71 41 72 42 73 43 74 44 75 67 76 68 77 76 78
REMARK SMILES IDX 69 79 75 80 70 81 71 82 72 83 73 84 74 85 53 86 54 87 62 88
REMARK SMILES IDX 55 89 61 90 56 91 57 92 58 93 59 94 60 95
REMARK H PARENT 21 5 17 10 8 18 25 32 81 51 51 62
REMARK Flexibility Score: inf
ROOT
ATOM      1  C   UNL A   1      36.367  23.492  25.917  1.00  0.00     0.117 C 
ENDROOT
BRANCH   1   2
ATOM      2  N   UNL A   1      35.628  22.415  26.531  1.00  0.00    -0.355 N 
ATOM      3  C   UNL A   1      34.434  22.506  27.179  1.00  0.00     0.239 C 
ATOM      4  O   UNL A   1      34.001  21.505  27.755  1.00  0.00    -0.273 OA
ATOM      5  H   UNL A   1      36.031  21.518  26.476  1.00  0.00     0.163 HD
BRANCH   3   6
ATOM      6  C   UNL A   1      33.549  23.723  26.928  1.00  0.00     0.216 C 
BRANCH   6   7
ATOM      7  N   UNL A   1      32.125  23.682  26.689  1.00  0.00    -0.343 N 
ATOM      8  C   UNL A   1      31.349  22.766  26.014  1.00  0.00     0.253 C 
ATOM      9  O   UNL A   1      30.209  22.614  26.468  1.00  0.00    -0.269 OA
ATOM     10  H   UNL A   1      31.624  24.437  27.075  1.00  0.00     0.164 HD
BRANCH   8  11
ATOM     11  C   UNL A   1      31.664  22.135  24.680  1.00  0.00     0.063 A 
ATOM     12  C   UNL A   1      31.572  22.632  23.358  1.00  0.00     0.051 A 
ATOM     13  C   UNL A   1      31.846  21.736  22.288  1.00  0.00     0.027 A 
ATOM     14  C   UNL A   1      32.273  20.426  22.492  1.00  0.00     0.002 A 
ATOM     15  C   UNL A   1      32.114  20.796  24.852  1.00  0.00     0.016 A 
ATOM     16  C   UNL A   1      32.431  19.960  23.781  1.00  0.00     0.001 A 
BRANCH  12  17
ATOM     17  N   UNL A   1      31.372  23.962  22.926  1.00  0.00    -0.352 N 
ATOM     18  H   UNL A   1      30.793  24.030  22.131  1.00  0.00     0.167 HD
BRANCH  17  19
ATOM     19  C   UNL A   1      31.828  25.217  23.398  1.00  0.00     0.077 A 
ATOM     20  C   UNL A   1      30.584  28.810  23.815  1.00  0.00     0.046 C 
ATOM     21  C   UNL A   1      31.498  27.618  23.714  1.00  0.00    -0.030 A 
ATOM     22  C   UNL A   1      32.882  27.820  23.610  1.00  0.00     0.006 A 
ATOM     23  C   UNL A   1      30.981  26.310  23.656  1.00  0.00     0.069 A 
ATOM     24  C   UNL A   1      33.749  26.738  23.498  1.00  0.00     0.023 A 
ATOM     25  Cl  UNL A   1      29.298  26.055  24.013  1.00  0.00    -0.082 Cl
ATOM     26  C   UNL A   1      33.228  25.449  23.408  1.00  0.00     0.066 A 
ATOM     27  Cl  UNL A   1      34.343  24.143  23.153  1.00  0.00    -0.082 Cl
ENDBRANCH  17  19
ENDBRANCH  12  17
ENDBRANCH   8  11
ENDBRANCH   6   7
ENDBRANCH   3   6
ENDBRANCH   1   2
BRANCH   1  28
ATOM     28  C   UNL A   1      37.855  23.186  25.925  1.00  0.00     0.042 C 
BRANCH  28  29
ATOM     29  C   UNL A   1      38.658  24.326  26.530  1.00  0.00     0.118 C 
BRANCH  29  30
ATOM     30  N   UNL A   1      40.042  24.309  26.082  1.00  0.00    -0.352 N 
ATOM     31  C   UNL A   1      41.043  25.201  26.370  1.00  0.00     0.251 C 
ATOM     32  H   UNL A   1      40.293  23.560  25.495  1.00  0.00     0.163 HD
ATOM     33  O   UNL A   1      42.088  25.182  25.737  1.00  0.00    -0.269 OA
BRANCH  31  34
ATOM     34  C   UNL A   1      40.822  26.188  27.444  1.00  0.00     0.039 A 
ATOM     35  C   UNL A   1      39.937  25.878  28.477  1.00  0.00     0.014 A 
ATOM     36  C   UNL A   1      41.517  27.402  27.438  1.00  0.00     0.014 A 
ATOM     37  C   UNL A   1      39.782  26.775  29.531  1.00  0.00     0.010 A 
ATOM     38  C   UNL A   1      41.432  28.247  28.536  1.00  0.00     0.010 A 
ATOM     39  C   UNL A   1      40.548  27.952  29.582  1.00  0.00    -0.014 A 
BRANCH  39  40
ATOM     40  C   UNL A   1      40.419  28.901  30.713  1.00  0.00     0.031 A 
ATOM     41  C   UNL A   1      41.301  28.749  31.922  1.00  0.00     0.074 A 
ATOM     42  C   UNL A   1      39.477  29.864  30.669  1.00  0.00     0.049 A 
ATOM     43  N   UNL A   1      41.321  29.457  33.022  1.00  0.00    -0.248 NA
ATOM     44  C   UNL A   1      42.270  27.639  31.908  1.00  0.00     0.031 C 
ATOM     45  C   UNL A   1      38.533  30.078  29.569  1.00  0.00     0.029 A 
ATOM     46  N   UNL A   1      39.159  30.845  31.574  1.00  0.00    -0.354 N 
ATOM     47  C   UNL A   1      42.287  28.871  33.831  1.00  0.00     0.074 A 
ATOM     48  C   UNL A   1      42.790  27.715  33.124  1.00  0.00     0.031 C 
ATOM     49  C   UNL A   1      37.769  31.146  29.847  1.00  0.00     0.029 A 
ATOM     50  C   UNL A   1      38.137  31.665  31.161  1.00  0.00     0.049 A 
ATOM     51  H   UNL A   1      39.621  30.951  32.436  1.00  0.00     0.167 HD
ATOM     52  C   UNL A   1      42.735  29.274  35.043  1.00  0.00     0.031 A 
ATOM     53  C   UNL A   1      37.558  32.716  31.773  1.00  0.00     0.031 A 
ATOM     54  C   UNL A   1      42.236  30.433  35.733  1.00  0.00     0.049 A 
ATOM     55  C   UNL A   1      38.066  33.139  33.123  1.00  0.00     0.074 A 
ATOM     56  C   UNL A   1      42.659  30.962  36.940  1.00  0.00     0.029 A 
ATOM     57  N   UNL A   1      41.204  31.240  35.280  1.00  0.00    -0.354 N 
ATOM     58  N   UNL A   1      39.032  32.617  33.842  1.00  0.00    -0.248 NA
ATOM     59  C   UNL A   1      37.417  34.303  33.740  1.00  0.00     0.031 C 
ATOM     60  C   UNL A   1      41.842  32.055  37.244  1.00  0.00     0.029 A 
ATOM     61  C   UNL A   1      40.957  32.249  36.196  1.00  0.00     0.049 A 
ATOM     62  H   UNL A   1      40.719  31.115  34.432  1.00  0.00     0.167 HD
ATOM     63  C   UNL A   1      39.125  33.406  34.983  1.00  0.00     0.074 A 
ATOM     64  C   UNL A   1      38.130  34.451  34.849  1.00  0.00     0.031 C 
ATOM     65  C   UNL A   1      39.959  33.279  36.045  1.00  0.00     0.031 A 
BRANCH  52  66
ATOM     66  C   UNL A   1      43.813  28.451  35.698  1.00  0.00    -0.014 A 
ATOM     67  C   UNL A   1      45.176  28.721  35.471  1.00  0.00     0.010 A 
ATOM     68  C   UNL A   1      43.462  27.414  36.581  1.00  0.00     0.010 A 
ATOM     69  C   UNL A   1      46.164  27.944  36.081  1.00  0.00     0.020 A 
ATOM     70  C   UNL A   1      44.448  26.655  37.218  1.00  0.00     0.020 A 
ATOM     71  C   UNL A   1      45.793  26.915  36.950  1.00  0.00     0.054 A 
BRANCH  71  72
ATOM     72  S   UNL A   1      47.099  25.940  37.748  1.00  0.00     0.124 S 
ATOM     73  O   UNL A   1      47.037  26.423  39.125  1.00  0.00    -0.237 OA
ATOM     74  O   UNL A   1      46.644  24.568  37.542  1.00  0.00    -0.237 OA
ATOM     75  O   UNL A   1      48.306  26.310  37.012  1.00  0.00    -0.744 OA
ENDBRANCH  71  72
ENDBRANCH  52  66
BRANCH  53  76
ATOM     76  C   UNL A   1      36.448  33.448  31.104  1.00  0.00    -0.014 A 
ATOM     77  C   UNL A   1      36.595  33.923  29.789  1.00  0.00     0.010 A 
ATOM     78  C   UNL A   1      35.230  33.663  31.775  1.00  0.00     0.010 A 
ATOM     79  C   UNL A   1      35.553  34.618  29.166  1.00  0.00     0.020 A 
ATOM     80  C   UNL A   1      34.176  34.330  31.145  1.00  0.00     0.020 A 
ATOM     81  C   UNL A   1      34.349  34.815  29.848  1.00  0.00     0.054 A 
BRANCH  81  82
ATOM     82  S   UNL A   1      32.997  35.681  29.002  1.00  0.00     0.124 S 
ATOM     83  O   UNL A   1      32.415  34.617  28.191  1.00  0.00    -0.237 OA
ATOM     84  O   UNL A   1      32.176  36.146  30.119  1.00  0.00    -0.237 OA
ATOM     85  O   UNL A   1      33.679  36.736  28.258  1.00  0.00    -0.744 OA
ENDBRANCH  81  82
ENDBRANCH  53  76
BRANCH  65  86
ATOM     86  C   UNL A   1      39.859  34.317  37.131  1.00  0.00    -0.014 A 
ATOM     87  C   UNL A   1      40.541  35.543  37.039  1.00  0.00     0.010 A 
ATOM     88  C   UNL A   1      39.022  34.079  38.238  1.00  0.00     0.010 A 
ATOM     89  C   UNL A   1      40.415  36.498  38.051  1.00  0.00     0.020 A 
ATOM     90  C   UNL A   1      38.869  35.045  39.234  1.00  0.00     0.020 A 
ATOM     91  C   UNL A   1      39.579  36.242  39.142  1.00  0.00     0.054 A 
BRANCH  91  92
ATOM     92  S   UNL A   1      39.402  37.516  40.421  1.00  0.00     0.124 S 
ATOM     93  O   UNL A   1      40.670  38.232  40.314  1.00  0.00    -0.237 OA
ATOM     94  O   UNL A   1      38.223  38.255  39.976  1.00  0.00    -0.237 OA
ATOM     95  O   UNL A   1      39.221  36.748  41.652  1.00  0.00    -0.744 OA
ENDBRANCH  91  92
ENDBRANCH  65  86
ENDBRANCH  39  40
ENDBRANCH  31  34
ENDBRANCH  29  30
ENDBRANCH  28  29
ENDBRANCH   1  28
TORSDOF 17
ENDMDL
MODEL 3
REMARK VINA RESULT:     -11.3      6.133     12.258
REMARK SMILES Cc1ccc(Cl)c(Nc2ccccc2C(=O)NCC(=O)NCCCNC(=O)c2ccc(-c3c4nc(c(-c5ccc(S(=O)(=O)[O-])cc5)c5ccc([nH]5)c(-c5ccc(S(=O)(=O)[O-])cc5)c5nc(c(-c6ccc(S(=O)(=O)[O-])cc6)c6ccc3[nH]6)C=C5)C=C4)cc2)c1Cl
REMARK SMILES IDX 22 1 21 2 19 3 20 4 18 6 17 7 15 8 16 9 14 11 9 12 10 13
REMARK SMILES IDX 11 14 13 15 12 16 8 17 7 19 1 20 2 21 3 22 88 23 4 24 89 25
REMARK SMILES IDX 5 26 6 27 23 28 24 29 25 30 26 31 27 33 28 34 29 35 87 36
REMARK SMILES IDX 30 37 86 38 31 39 32 40 33 41 80 42 34 43 85 44 79 45 81 46
REMARK SMILES IDX 35 47 84 48 78 49 77 50 36 52 66 53 47 54 65 55 48 56 51 57
REMARK SMILES IDX 64 58 82 59 49 60 50 61 63 63 83 64 52 65 37 66 38 67 46 68
REMARK SMILES IDX 39 69 45 70 40 71 41 72 42 73 43 74 44 75 67 76 68 77 76 78
REMARK SMILES IDX 69 79 75 80 70 81 71 82 72 83 73 84 74 85 53 86 54 87 62 88
REMARK SMILES IDX 55 89 61 90 56 91 57 92 58 93 59 94 60 95
REMARK H PARENT 21 5 17 10 8 18 25 32 81 51 51 62
REMARK Flexibility Score: inf
ROOT
ATOM      1  C   UNL A   1      34.460  32.370  28.225  1.00  0.00     0.117 C 
ENDROOT
BRANCH   1   2
ATOM      2  N   UNL A   1      34.995  31.237  27.509  1.00  0.00    -0.355 N 
ATOM      3  C   UNL A   1      34.299  30.171  27.027  1.00  0.00     0.239 C 
ATOM      4  O   UNL A   1      34.932  29.226  26.547  1.00  0.00    -0.273 OA
ATOM      5  H   UNL A   1      35.967  31.234  27.353  1.00  0.00     0.163 HD
BRANCH   3   6
ATOM      6  C   UNL A   1      32.793  30.301  26.826  1.00  0.00     0.216 C 
BRANCH   6   7
ATOM      7  N   UNL A   1      31.809  29.334  27.256  1.00  0.00    -0.343 N 
ATOM      8  C   UNL A   1      31.456  28.111  26.730  1.00  0.00     0.253 C 
ATOM      9  O   UNL A   1      31.099  27.270  27.563  1.00  0.00    -0.269 OA
ATOM     10  H   UNL A   1      31.305  29.594  28.061  1.00  0.00     0.164 HD
BRANCH   8  11
ATOM     11  C   UNL A   1      31.240  27.792  25.271  1.00  0.00     0.063 A 
ATOM     12  C   UNL A   1      31.295  26.571  24.556  1.00  0.00     0.051 A 
ATOM     13  C   UNL A   1      31.148  26.619  23.143  1.00  0.00     0.027 A 
ATOM     14  C   UNL A   1      30.875  27.798  22.452  1.00  0.00     0.002 A 
ATOM     15  C   UNL A   1      30.949  28.975  24.536  1.00  0.00     0.016 A 
ATOM     16  C   UNL A   1      30.752  28.979  23.155  1.00  0.00     0.001 A 
BRANCH  12  17
ATOM     17  N   UNL A   1      31.343  25.253  25.061  1.00  0.00    -0.352 N 
ATOM     18  H   UNL A   1      30.565  24.707  24.800  1.00  0.00     0.167 HD
BRANCH  17  19
ATOM     19  C   UNL A   1      32.279  24.553  25.862  1.00  0.00     0.077 A 
ATOM     20  C   UNL A   1      36.004  23.690  25.925  1.00  0.00     0.046 C 
ATOM     21  C   UNL A   1      34.530  23.671  26.224  1.00  0.00    -0.030 A 
ATOM     22  C   UNL A   1      33.992  22.610  26.966  1.00  0.00     0.006 A 
ATOM     23  C   UNL A   1      33.673  24.666  25.715  1.00  0.00     0.069 A 
ATOM     24  C   UNL A   1      32.630  22.558  27.244  1.00  0.00     0.023 A 
ATOM     25  Cl  UNL A   1      34.371  26.088  24.996  1.00  0.00    -0.082 Cl
ATOM     26  C   UNL A   1      31.784  23.527  26.709  1.00  0.00     0.066 A 
ATOM     27  Cl  UNL A   1      30.079  23.354  26.987  1.00  0.00    -0.082 Cl
ENDBRANCH  17  19
ENDBRANCH  12  17
ENDBRANCH   8  11
ENDBRANCH   6   7
ENDBRANCH   3   6
ENDBRANCH   1   2
BRANCH   1  28
ATOM     28  C   UNL A   1      35.502  33.471  28.332  1.00  0.00     0.042 C 
BRANCH  28  29
ATOM     29  C   UNL A   1      36.609  33.100  29.305  1.00  0.00     0.118 C 
BRANCH  29  30
ATOM     30  N   UNL A   1      36.141  32.177  30.328  1.00  0.00    -0.352 N 
ATOM     31  C   UNL A   1      36.691  30.982  30.714  1.00  0.00     0.251 C 
ATOM     32  H   UNL A   1      35.323  32.446  30.806  1.00  0.00     0.163 HD
ATOM     33  O   UNL A   1      36.059  30.212  31.423  1.00  0.00    -0.269 OA
BRANCH  31  34
ATOM     34  C   UNL A   1      38.046  30.643  30.242  1.00  0.00     0.039 A 
ATOM     35  C   UNL A   1      39.086  30.562  31.168  1.00  0.00     0.014 A 
ATOM     36  C   UNL A   1      38.274  30.374  28.888  1.00  0.00     0.014 A 
ATOM     37  C   UNL A   1      40.352  30.169  30.739  1.00  0.00     0.010 A 
ATOM     38  C   UNL A   1      39.510  29.892  28.482  1.00  0.00     0.010 A 
ATOM     39  C   UNL A   1      40.566  29.805  29.399  1.00  0.00    -0.014 A 
BRANCH  39  40
ATOM     40  C   UNL A   1      41.898  29.353  28.932  1.00  0.00     0.031 A 
ATOM     41  C   UNL A   1      43.036  30.334  28.856  1.00  0.00     0.074 A 
ATOM     42  C   UNL A   1      42.066  28.077  28.534  1.00  0.00     0.049 A 
ATOM     43  N   UNL A   1      44.264  30.141  28.448  1.00  0.00    -0.248 NA
ATOM     44  C   UNL A   1      42.753  31.721  29.265  1.00  0.00     0.031 C 
ATOM     45  C   UNL A   1      41.021  27.049  28.519  1.00  0.00     0.029 A 
ATOM     46  N   UNL A   1      43.178  27.426  28.065  1.00  0.00    -0.354 N 
ATOM     47  C   UNL A   1      44.890  31.378  28.536  1.00  0.00     0.074 A 
ATOM     48  C   UNL A   1      43.895  32.328  28.978  1.00  0.00     0.031 C 
ATOM     49  C   UNL A   1      41.552  25.889  28.100  1.00  0.00     0.029 A 
ATOM     50  C   UNL A   1      42.960  26.101  27.775  1.00  0.00     0.049 A 
ATOM     51  H   UNL A   1      44.050  27.867  27.948  1.00  0.00     0.167 HD
ATOM     52  C   UNL A   1      46.185  31.691  28.295  1.00  0.00     0.031 A 
ATOM     53  C   UNL A   1      43.799  25.160  27.299  1.00  0.00     0.031 A 
ATOM     54  C   UNL A   1      47.171  30.735  27.867  1.00  0.00     0.049 A 
ATOM     55  C   UNL A   1      45.230  25.534  27.030  1.00  0.00     0.074 A 
ATOM     56  C   UNL A   1      48.522  30.935  27.649  1.00  0.00     0.029 A 
ATOM     57  N   UNL A   1      46.912  29.402  27.589  1.00  0.00    -0.354 N 
ATOM     58  N   UNL A   1      45.824  26.694  27.189  1.00  0.00    -0.248 NA
ATOM     59  C   UNL A   1      46.110  24.470  26.531  1.00  0.00     0.031 C 
ATOM     60  C   UNL A   1      49.069  29.735  27.182  1.00  0.00     0.029 A 
ATOM     61  C   UNL A   1      48.073  28.772  27.176  1.00  0.00     0.049 A 
ATOM     62  H   UNL A   1      46.033  28.967  27.675  1.00  0.00     0.167 HD
ATOM     63  C   UNL A   1      47.153  26.491  26.837  1.00  0.00     0.074 A 
ATOM     64  C   UNL A   1      47.279  25.094  26.475  1.00  0.00     0.031 C 
ATOM     65  C   UNL A   1      48.178  27.379  26.817  1.00  0.00     0.031 A 
BRANCH  52  66
ATOM     66  C   UNL A   1      46.604  33.125  28.486  1.00  0.00    -0.014 A 
ATOM     67  C   UNL A   1      47.015  33.604  29.745  1.00  0.00     0.010 A 
ATOM     68  C   UNL A   1      46.621  34.001  27.385  1.00  0.00     0.010 A 
ATOM     69  C   UNL A   1      47.393  34.939  29.907  1.00  0.00     0.020 A 
ATOM     70  C   UNL A   1      47.030  35.329  27.537  1.00  0.00     0.020 A 
ATOM     71  C   UNL A   1      47.398  35.794  28.801  1.00  0.00     0.054 A 
BRANCH  71  72
ATOM     72  S   UNL A   1      47.920  37.515  29.037  1.00  0.00     0.124 S 
ATOM     73  O   UNL A   1      49.335  37.451  28.684  1.00  0.00    -0.237 OA
ATOM     74  O   UNL A   1      47.070  38.238  28.096  1.00  0.00    -0.237 OA
ATOM     75  O   UNL A   1      47.641  37.771  30.448  1.00  0.00    -0.744 OA
ENDBRANCH  71  72
ENDBRANCH  52  66
BRANCH  53  76
ATOM     76  C   UNL A   1      43.308  23.775  27.064  1.00  0.00    -0.014 A 
ATOM     77  C   UNL A   1      43.222  22.857  28.126  1.00  0.00     0.010 A 
ATOM     78  C   UNL A   1      42.909  23.368  25.777  1.00  0.00     0.010 A 
ATOM     79  C   UNL A   1      42.769  21.553  27.901  1.00  0.00     0.020 A 
ATOM     80  C   UNL A   1      42.427  22.075  25.555  1.00  0.00     0.020 A 
ATOM     81  C   UNL A   1      42.372  21.172  26.616  1.00  0.00     0.054 A 
BRANCH  81  82
ATOM     82  S   UNL A   1      41.746  19.488  26.359  1.00  0.00     0.124 S 
ATOM     83  O   UNL A   1      42.154  18.821  27.591  1.00  0.00    -0.237 OA
ATOM     84  O   UNL A   1      40.309  19.708  26.203  1.00  0.00    -0.237 OA
ATOM     85  O   UNL A   1      42.436  19.048  25.149  1.00  0.00    -0.744 OA
ENDBRANCH  81  82
ENDBRANCH  53  76
BRANCH  65  86
ATOM     86  C   UNL A   1      49.536  26.860  26.425  1.00  0.00    -0.014 A 
ATOM     87  C   UNL A   1      50.359  26.190  27.347  1.00  0.00     0.010 A 
ATOM     88  C   UNL A   1      49.970  27.000  25.093  1.00  0.00     0.010 A 
ATOM     89  C   UNL A   1      51.606  25.700  26.953  1.00  0.00     0.020 A 
ATOM     90  C   UNL A   1      51.202  26.483  24.689  1.00  0.00     0.020 A 
ATOM     91  C   UNL A   1      52.019  25.849  25.626  1.00  0.00     0.054 A 
BRANCH  91  92
ATOM     92  S   UNL A   1      53.626  25.167  25.131  1.00  0.00     0.124 S 
ATOM     93  O   UNL A   1      53.756  25.657  23.762  1.00  0.00    -0.237 OA
ATOM     94  O   UNL A   1      54.539  25.765  26.103  1.00  0.00    -0.237 OA
ATOM     95  O   UNL A   1      53.444  23.723  25.263  1.00  0.00    -0.744 OA
ENDBRANCH  91  92
ENDBRANCH  65  86
ENDBRANCH  39  40
ENDBRANCH  31  34
ENDBRANCH  29  30
ENDBRANCH  28  29
ENDBRANCH   1  28
TORSDOF 17
ENDMDL
