MODEL 1
REMARK VINA RESULT:      -9.8      0.000      0.000
REMARK SMILES CN(C)c1ccc(CNc2cc(C(=O)NCCCNC(=O)c3ccc(-c4c5nc(c(-c6ccc(S(=O)(=O)[O-])cc6)c6ccc([nH]6)c(-c6ccc(S(=O)(=O)[O-])cc6)c6nc(c(-c7ccc(S(=O)(=O)[O-])cc7)c7ccc4[nH]7)C=C6)C=C5)cc3)[nH]n2)cc1
REMARK SMILES IDX 16 1 15 2 13 3 14 4 12 6 10 7 11 8 83 9 82 10 9 12 8 14 7 15
REMARK SMILES IDX 4 16 5 17 85 18 6 19 84 20 2 21 1 22 3 23 17 24 18 25 19 26
REMARK SMILES IDX 20 27 21 29 22 30 23 31 81 32 24 33 80 34 25 35 26 36 27 37
REMARK SMILES IDX 74 38 28 39 79 40 73 41 75 42 29 43 78 44 72 45 71 46 30 48
REMARK SMILES IDX 60 49 41 50 59 51 42 52 45 53 58 54 76 55 43 56 44 57 57 59
REMARK SMILES IDX 77 60 46 61 31 62 32 63 40 64 33 65 39 66 34 67 35 68 36 69
REMARK SMILES IDX 37 70 38 71 61 72 62 73 70 74 63 75 69 76 64 77 65 78 66 79
REMARK SMILES IDX 67 80 68 81 47 82 48 83 56 84 49 85 55 86 50 87 51 88 52 89
REMARK SMILES IDX 53 90 54 91
REMARK H PARENT 15 5 82 11 9 13 19 28 75 47 45 58
REMARK Flexibility Score: inf
ROOT
ATOM      1  C   UNL A   1      33.944  35.190  28.562  1.00  0.00     0.118 C 
ENDROOT
BRANCH   1   2
ATOM      2  N   UNL A   1      33.027  35.815  29.497  1.00  0.00    -0.351 N 
ATOM      3  C   UNL A   1      33.074  35.946  30.858  1.00  0.00     0.269 C 
ATOM      4  O   UNL A   1      32.185  36.615  31.384  1.00  0.00    -0.268 OA
ATOM      5  H   UNL A   1      32.231  36.214  29.077  1.00  0.00     0.163 HD
BRANCH   3   6
ATOM      6  C   UNL A   1      34.136  35.379  31.641  1.00  0.00     0.125 A 
ATOM      7  C   UNL A   1      35.858  34.353  32.610  1.00  0.00     0.148 A 
ATOM      8  C   UNL A   1      34.835  34.189  31.654  1.00  0.00     0.082 A 
ATOM      9  N   UNL A   1      35.727  35.495  33.274  1.00  0.00    -0.157 NA
ATOM     10  N   UNL A   1      34.677  36.086  32.685  1.00  0.00    -0.271 N 
ATOM     11  H   UNL A   1      34.323  36.957  32.977  1.00  0.00     0.190 HD
BRANCH   7  12
ATOM     12  N   UNL A   1      36.860  33.488  32.828  1.00  0.00    -0.365 N 
ATOM     13  H   UNL A   1      37.499  33.318  32.099  1.00  0.00     0.162 HD
BRANCH  12  14
ATOM     14  C   UNL A   1      37.045  32.790  34.085  1.00  0.00     0.150 C 
BRANCH  14  15
ATOM     15  C   UNL A   1      38.222  31.848  33.984  1.00  0.00    -0.029 A 
ATOM     16  C   UNL A   1      40.450  30.082  33.746  1.00  0.00     0.036 A 
ATOM     17  C   UNL A   1      39.179  29.731  33.268  1.00  0.00     0.026 A 
ATOM     18  C   UNL A   1      40.561  31.324  34.388  1.00  0.00     0.026 A 
ATOM     19  C   UNL A   1      38.081  30.586  33.396  1.00  0.00     0.008 A 
ATOM     20  C   UNL A   1      39.471  32.201  34.499  1.00  0.00     0.008 A 
BRANCH  16  21
ATOM     21  N   UNL A   1      41.537  29.235  33.573  1.00  0.00    -0.378 N 
ATOM     22  C   UNL A   1      41.384  27.953  32.907  1.00  0.00     0.143 C 
ATOM     23  C   UNL A   1      42.741  29.486  34.351  1.00  0.00     0.143 C 
ENDBRANCH  16  21
ENDBRANCH  14  15
ENDBRANCH  12  14
ENDBRANCH   7  12
ENDBRANCH   3   6
ENDBRANCH   1   2
BRANCH   1  24
ATOM     24  C   UNL A   1      33.404  33.859  28.048  1.00  0.00     0.042 C 
BRANCH  24  25
ATOM     25  C   UNL A   1      34.316  32.680  28.384  1.00  0.00     0.118 C 
BRANCH  25  26
ATOM     26  N   UNL A   1      33.687  31.401  28.068  1.00  0.00    -0.352 N 
ATOM     27  C   UNL A   1      34.243  30.169  27.837  1.00  0.00     0.251 C 
ATOM     28  H   UNL A   1      32.705  31.428  28.012  1.00  0.00     0.163 HD
ATOM     29  O   UNL A   1      33.549  29.284  27.342  1.00  0.00    -0.269 OA
BRANCH  27  30
ATOM     30  C   UNL A   1      35.656  29.904  28.175  1.00  0.00     0.039 A 
ATOM     31  C   UNL A   1      35.985  29.566  29.490  1.00  0.00     0.014 A 
ATOM     32  C   UNL A   1      36.662  30.035  27.214  1.00  0.00     0.014 A 
ATOM     33  C   UNL A   1      37.315  29.308  29.827  1.00  0.00     0.010 A 
ATOM     34  C   UNL A   1      37.974  29.698  27.531  1.00  0.00     0.010 A 
ATOM     35  C   UNL A   1      38.317  29.341  28.843  1.00  0.00    -0.014 A 
BRANCH  35  36
ATOM     36  C   UNL A   1      39.726  29.008  29.168  1.00  0.00     0.031 A 
ATOM     37  C   UNL A   1      40.620  30.036  29.811  1.00  0.00     0.074 A 
ATOM     38  C   UNL A   1      40.217  27.799  28.830  1.00  0.00     0.049 A 
ATOM     39  N   UNL A   1      41.888  29.947  30.119  1.00  0.00    -0.248 NA
ATOM     40  C   UNL A   1      40.017  31.342  30.125  1.00  0.00     0.031 C 
ATOM     41  C   UNL A   1      39.461  26.732  28.169  1.00  0.00     0.029 A 
ATOM     42  N   UNL A   1      41.471  27.264  28.992  1.00  0.00    -0.354 N 
ATOM     43  C   UNL A   1      42.238  31.185  30.646  1.00  0.00     0.074 A 
ATOM     44  C   UNL A   1      41.064  32.025  30.565  1.00  0.00     0.031 C 
ATOM     45  C   UNL A   1      40.256  25.663  28.011  1.00  0.00     0.029 A 
ATOM     46  C   UNL A   1      41.588  25.980  28.512  1.00  0.00     0.049 A 
ATOM     47  H   UNL A   1      42.215  27.753  29.411  1.00  0.00     0.167 HD
ATOM     48  C   UNL A   1      43.423  31.581  31.168  1.00  0.00     0.031 A 
ATOM     49  C   UNL A   1      42.651  25.153  28.472  1.00  0.00     0.031 A 
ATOM     50  C   UNL A   1      44.587  30.738  31.250  1.00  0.00     0.049 A 
ATOM     51  C   UNL A   1      43.963  25.623  29.041  1.00  0.00     0.074 A 
ATOM     52  C   UNL A   1      45.820  31.026  31.808  1.00  0.00     0.029 A 
ATOM     53  N   UNL A   1      44.664  29.444  30.756  1.00  0.00    -0.354 N 
ATOM     54  N   UNL A   1      44.255  26.776  29.596  1.00  0.00    -0.248 NA
ATOM     55  C   UNL A   1      45.084  24.675  28.990  1.00  0.00     0.031 C 
ATOM     56  C   UNL A   1      46.662  29.929  31.596  1.00  0.00     0.029 A 
ATOM     57  C   UNL A   1      45.932  28.930  30.972  1.00  0.00     0.049 A 
ATOM     58  H   UNL A   1      43.927  28.962  30.317  1.00  0.00     0.167 HD
ATOM     59  C   UNL A   1      45.585  26.679  29.989  1.00  0.00     0.074 A 
ATOM     60  C   UNL A   1      46.033  25.351  29.622  1.00  0.00     0.031 C 
ATOM     61  C   UNL A   1      46.364  27.606  30.600  1.00  0.00     0.031 A 
BRANCH  48  62
ATOM     62  C   UNL A   1      43.524  32.995  31.684  1.00  0.00    -0.014 A 
ATOM     63  C   UNL A   1      44.024  34.032  30.876  1.00  0.00     0.010 A 
ATOM     64  C   UNL A   1      43.073  33.299  32.981  1.00  0.00     0.010 A 
ATOM     65  C   UNL A   1      44.111  35.337  31.369  1.00  0.00     0.020 A 
ATOM     66  C   UNL A   1      43.129  34.610  33.468  1.00  0.00     0.020 A 
ATOM     67  C   UNL A   1      43.665  35.617  32.663  1.00  0.00     0.054 A 
BRANCH  67  68
ATOM     68  S   UNL A   1      43.768  37.324  33.267  1.00  0.00     0.124 S 
ATOM     69  O   UNL A   1      45.114  37.360  33.836  1.00  0.00    -0.237 OA
ATOM     70  O   UNL A   1      43.581  38.106  32.048  1.00  0.00    -0.237 OA
ATOM     71  O   UNL A   1      42.681  37.417  34.237  1.00  0.00    -0.744 OA
ENDBRANCH  67  68
ENDBRANCH  48  62
BRANCH  49  72
ATOM     72  C   UNL A   1      42.513  23.793  27.883  1.00  0.00    -0.014 A 
ATOM     73  C   UNL A   1      42.624  23.599  26.494  1.00  0.00     0.010 A 
ATOM     74  C   UNL A   1      42.281  22.679  28.710  1.00  0.00     0.010 A 
ATOM     75  C   UNL A   1      42.486  22.321  25.943  1.00  0.00     0.020 A 
ATOM     76  C   UNL A   1      42.174  21.395  28.166  1.00  0.00     0.020 A 
ATOM     77  C   UNL A   1      42.265  21.227  26.784  1.00  0.00     0.054 A 
BRANCH  77  78
ATOM     78  S   UNL A   1      42.138  19.573  26.050  1.00  0.00     0.124 S 
ATOM     79  O   UNL A   1      40.721  19.501  25.707  1.00  0.00    -0.237 OA
ATOM     80  O   UNL A   1      43.059  19.659  24.920  1.00  0.00    -0.237 OA
ATOM     81  O   UNL A   1      42.569  18.686  27.128  1.00  0.00    -0.744 OA
ENDBRANCH  77  78
ENDBRANCH  49  72
BRANCH  61  82
ATOM     82  C   UNL A   1      47.773  27.204  30.952  1.00  0.00    -0.014 A 
ATOM     83  C   UNL A   1      48.070  26.548  32.160  1.00  0.00     0.010 A 
ATOM     84  C   UNL A   1      48.809  27.443  30.030  1.00  0.00     0.010 A 
ATOM     85  C   UNL A   1      49.383  26.171  32.454  1.00  0.00     0.020 A 
ATOM     86  C   UNL A   1      50.117  27.038  30.306  1.00  0.00     0.020 A 
ATOM     87  C   UNL A   1      50.398  26.417  31.525  1.00  0.00     0.054 A 
BRANCH  87  88
ATOM     88  S   UNL A   1      52.086  25.881  31.913  1.00  0.00     0.124 S 
ATOM     89  O   UNL A   1      52.441  26.768  33.018  1.00  0.00    -0.237 OA
ATOM     90  O   UNL A   1      51.900  24.477  32.270  1.00  0.00    -0.237 OA
ATOM     91  O   UNL A   1      52.819  26.110  30.671  1.00  0.00    -0.744 OA
ENDBRANCH  87  88
ENDBRANCH  61  82
ENDBRANCH  35  36
ENDBRANCH  27  30
ENDBRANCH  25  26
ENDBRANCH  24  25
ENDBRANCH   1  24
TORSDOF 17
ENDMDL
MODEL 2
REMARK VINA RESULT:      -9.6      3.033     11.537
REMARK SMILES CN(C)c1ccc(CNc2cc(C(=O)NCCCNC(=O)c3ccc(-c4c5nc(c(-c6ccc(S(=O)(=O)[O-])cc6)c6ccc([nH]6)c(-c6ccc(S(=O)(=O)[O-])cc6)c6nc(c(-c7ccc(S(=O)(=O)[O-])cc7)c7ccc4[nH]7)C=C6)C=C5)cc3)[nH]n2)cc1
REMARK SMILES IDX 16 1 15 2 13 3 14 4 12 6 10 7 11 8 83 9 82 10 9 12 8 14 7 15
REMARK SMILES IDX 4 16 5 17 85 18 6 19 84 20 2 21 1 22 3 23 17 24 18 25 19 26
REMARK SMILES IDX 20 27 21 29 22 30 23 31 81 32 24 33 80 34 25 35 26 36 27 37
REMARK SMILES IDX 74 38 28 39 79 40 73 41 75 42 29 43 78 44 72 45 71 46 30 48
REMARK SMILES IDX 60 49 41 50 59 51 42 52 45 53 58 54 76 55 43 56 44 57 57 59
REMARK SMILES IDX 77 60 46 61 31 62 32 63 40 64 33 65 39 66 34 67 35 68 36 69
REMARK SMILES IDX 37 70 38 71 61 72 62 73 70 74 63 75 69 76 64 77 65 78 66 79
REMARK SMILES IDX 67 80 68 81 47 82 48 83 56 84 49 85 55 86 50 87 51 88 52 89
REMARK SMILES IDX 53 90 54 91
REMARK H PARENT 15 5 82 11 9 13 19 28 75 47 45 58
REMARK Flexibility Score: inf
ROOT
ATOM      1  C   UNL A   1      42.187  19.822  27.265  1.00  0.00     0.118 C 
ENDROOT
BRANCH   1   2
ATOM      2  N   UNL A   1      42.799  19.042  26.206  1.00  0.00    -0.351 N 
ATOM      3  C   UNL A   1      43.781  19.353  25.305  1.00  0.00     0.269 C 
ATOM      4  O   UNL A   1      44.168  18.447  24.568  1.00  0.00    -0.268 OA
ATOM      5  H   UNL A   1      42.444  18.127  26.120  1.00  0.00     0.163 HD
BRANCH   3   6
ATOM      6  C   UNL A   1      44.376  20.659  25.250  1.00  0.00     0.125 A 
ATOM      7  C   UNL A   1      45.025  22.788  25.190  1.00  0.00     0.148 A 
ATOM      8  C   UNL A   1      43.996  21.907  24.800  1.00  0.00     0.082 A 
ATOM      9  N   UNL A   1      46.058  22.133  25.705  1.00  0.00    -0.157 NA
ATOM     10  N   UNL A   1      45.652  20.855  25.716  1.00  0.00    -0.271 N 
ATOM     11  H   UNL A   1      46.222  20.118  26.033  1.00  0.00     0.190 HD
BRANCH   7  12
ATOM     12  N   UNL A   1      44.982  24.124  25.082  1.00  0.00    -0.365 N 
ATOM     13  H   UNL A   1      45.796  24.597  24.789  1.00  0.00     0.162 HD
BRANCH  12  14
ATOM     14  C   UNL A   1      43.798  24.906  25.378  1.00  0.00     0.150 C 
BRANCH  14  15
ATOM     15  C   UNL A   1      44.196  26.271  25.891  1.00  0.00    -0.029 A 
ATOM     16  C   UNL A   1      44.916  28.842  26.896  1.00  0.00     0.036 A 
ATOM     17  C   UNL A   1      43.726  28.639  26.181  1.00  0.00     0.026 A 
ATOM     18  C   UNL A   1      45.756  27.729  27.051  1.00  0.00     0.026 A 
ATOM     19  C   UNL A   1      43.377  27.385  25.673  1.00  0.00     0.008 A 
ATOM     20  C   UNL A   1      45.402  26.461  26.568  1.00  0.00     0.008 A 
BRANCH  16  21
ATOM     21  N   UNL A   1      45.226  30.088  27.427  1.00  0.00    -0.378 N 
ATOM     22  C   UNL A   1      46.553  30.363  27.951  1.00  0.00     0.143 C 
ATOM     23  C   UNL A   1      44.135  30.991  27.758  1.00  0.00     0.143 C 
ENDBRANCH  16  21
ENDBRANCH  14  15
ENDBRANCH  12  14
ENDBRANCH   7  12
ENDBRANCH   3   6
ENDBRANCH   1   2
BRANCH   1  24
ATOM     24  C   UNL A   1      40.784  20.285  26.887  1.00  0.00     0.042 C 
BRANCH  24  25
ATOM     25  C   UNL A   1      40.732  21.761  26.495  1.00  0.00     0.118 C 
BRANCH  25  26
ATOM     26  N   UNL A   1      39.448  22.119  25.901  1.00  0.00    -0.352 N 
ATOM     27  C   UNL A   1      38.641  23.208  26.114  1.00  0.00     0.251 C 
ATOM     28  H   UNL A   1      39.105  21.475  25.240  1.00  0.00     0.163 HD
ATOM     29  O   UNL A   1      37.487  23.187  25.695  1.00  0.00    -0.269 OA
BRANCH  27  30
ATOM     30  C   UNL A   1      39.148  24.391  26.838  1.00  0.00     0.039 A 
ATOM     31  C   UNL A   1      40.039  25.250  26.190  1.00  0.00     0.014 A 
ATOM     32  C   UNL A   1      38.788  24.631  28.167  1.00  0.00     0.014 A 
ATOM     33  C   UNL A   1      40.526  26.376  26.856  1.00  0.00     0.010 A 
ATOM     34  C   UNL A   1      39.208  25.795  28.801  1.00  0.00     0.010 A 
ATOM     35  C   UNL A   1      40.089  26.675  28.158  1.00  0.00    -0.014 A 
BRANCH  35  36
ATOM     36  C   UNL A   1      40.545  27.901  28.859  1.00  0.00     0.031 A 
ATOM     37  C   UNL A   1      41.916  27.954  29.480  1.00  0.00     0.074 A 
ATOM     38  C   UNL A   1      39.702  28.944  28.989  1.00  0.00     0.049 A 
ATOM     39  N   UNL A   1      42.468  28.914  30.177  1.00  0.00    -0.248 NA
ATOM     40  C   UNL A   1      42.769  26.765  29.319  1.00  0.00     0.031 C 
ATOM     41  C   UNL A   1      38.334  28.998  28.464  1.00  0.00     0.029 A 
ATOM     42  N   UNL A   1      39.868  30.159  29.605  1.00  0.00    -0.354 N 
ATOM     43  C   UNL A   1      43.721  28.440  30.549  1.00  0.00     0.074 A 
ATOM     44  C   UNL A   1      43.826  27.087  30.049  1.00  0.00     0.031 C 
ATOM     45  C   UNL A   1      37.799  30.194  28.754  1.00  0.00     0.029 A 
ATOM     46  C   UNL A   1      38.762  30.974  29.524  1.00  0.00     0.049 A 
ATOM     47  H   UNL A   1      40.699  30.423  30.062  1.00  0.00     0.167 HD
ATOM     48  C   UNL A   1      44.703  29.078  31.229  1.00  0.00     0.031 A 
ATOM     49  C   UNL A   1      38.543  32.206  30.021  1.00  0.00     0.031 A 
ATOM     50  C   UNL A   1      44.593  30.427  31.720  1.00  0.00     0.049 A 
ATOM     51  C   UNL A   1      39.642  32.889  30.791  1.00  0.00     0.074 A 
ATOM     52  C   UNL A   1      45.549  31.184  32.375  1.00  0.00     0.029 A 
ATOM     53  N   UNL A   1      43.459  31.219  31.615  1.00  0.00    -0.354 N 
ATOM     54  N   UNL A   1      40.845  32.448  31.075  1.00  0.00    -0.248 NA
ATOM     55  C   UNL A   1      39.359  34.240  31.293  1.00  0.00     0.031 C 
ATOM     56  C   UNL A   1      44.972  32.411  32.721  1.00  0.00     0.029 A 
ATOM     57  C   UNL A   1      43.682  32.446  32.218  1.00  0.00     0.049 A 
ATOM     58  H   UNL A   1      42.620  30.949  31.178  1.00  0.00     0.167 HD
ATOM     59  C   UNL A   1      41.473  33.481  31.763  1.00  0.00     0.074 A 
ATOM     60  C   UNL A   1      40.522  34.572  31.836  1.00  0.00     0.031 C 
ATOM     61  C   UNL A   1      42.724  33.522  32.284  1.00  0.00     0.031 A 
BRANCH  48  62
ATOM     62  C   UNL A   1      45.980  28.321  31.491  1.00  0.00    -0.014 A 
ATOM     63  C   UNL A   1      46.333  27.913  32.791  1.00  0.00     0.010 A 
ATOM     64  C   UNL A   1      46.821  27.976  30.417  1.00  0.00     0.010 A 
ATOM     65  C   UNL A   1      47.521  27.213  33.017  1.00  0.00     0.020 A 
ATOM     66  C   UNL A   1      47.995  27.247  30.635  1.00  0.00     0.020 A 
ATOM     67  C   UNL A   1      48.345  26.886  31.937  1.00  0.00     0.054 A 
BRANCH  67  68
ATOM     68  S   UNL A   1      49.869  25.955  32.258  1.00  0.00     0.124 S 
ATOM     69  O   UNL A   1      50.832  27.028  32.494  1.00  0.00    -0.237 OA
ATOM     70  O   UNL A   1      49.516  25.160  33.431  1.00  0.00    -0.237 OA
ATOM     71  O   UNL A   1      50.076  25.192  31.031  1.00  0.00    -0.744 OA
ENDBRANCH  67  68
ENDBRANCH  48  62
BRANCH  49  72
ATOM     72  C   UNL A   1      37.233  32.878  29.795  1.00  0.00    -0.014 A 
ATOM     73  C   UNL A   1      36.980  33.566  28.596  1.00  0.00     0.010 A 
ATOM     74  C   UNL A   1      36.227  32.823  30.777  1.00  0.00     0.010 A 
ATOM     75  C   UNL A   1      35.751  34.204  28.390  1.00  0.00     0.020 A 
ATOM     76  C   UNL A   1      34.986  33.432  30.562  1.00  0.00     0.020 A 
ATOM     77  C   UNL A   1      34.762  34.128  29.374  1.00  0.00     0.054 A 
BRANCH  77  78
ATOM     78  S   UNL A   1      33.160  34.922  29.063  1.00  0.00     0.124 S 
ATOM     79  O   UNL A   1      32.544  34.003  28.112  1.00  0.00    -0.237 OA
ATOM     80  O   UNL A   1      32.560  34.952  30.395  1.00  0.00    -0.237 OA
ATOM     81  O   UNL A   1      33.526  36.231  28.525  1.00  0.00    -0.744 OA
ENDBRANCH  77  78
ENDBRANCH  49  72
BRANCH  61  82
ATOM     82  C   UNL A   1      43.158  34.805  32.945  1.00  0.00    -0.014 A 
ATOM     83  C   UNL A   1      43.810  35.820  32.223  1.00  0.00     0.010 A 
ATOM     84  C   UNL A   1      42.856  35.016  34.304  1.00  0.00     0.010 A 
ATOM     85  C   UNL A   1      44.186  37.007  32.857  1.00  0.00     0.020 A 
ATOM     86  C   UNL A   1      43.201  36.215  34.932  1.00  0.00     0.020 A 
ATOM     87  C   UNL A   1      43.878  37.198  34.207  1.00  0.00     0.054 A 
BRANCH  87  88
ATOM     88  S   UNL A   1      44.340  38.765  34.996  1.00  0.00     0.124 S 
ATOM     89  O   UNL A   1      45.713  38.945  34.532  1.00  0.00    -0.237 OA
ATOM     90  O   UNL A   1      43.362  39.699  34.444  1.00  0.00    -0.237 OA
ATOM     91  O   UNL A   1      44.196  38.491  36.423  1.00  0.00    -0.744 OA
ENDBRANCH  87  88
ENDBRANCH  61  82
ENDBRANCH  35  36
ENDBRANCH  27  30
ENDBRANCH  25  26
ENDBRANCH  24  25
ENDBRANCH   1  24
TORSDOF 17
ENDMDL
MODEL 3
REMARK VINA RESULT:      -9.4      4.097     12.569
REMARK SMILES CN(C)c1ccc(CNc2cc(C(=O)NCCCNC(=O)c3ccc(-c4c5nc(c(-c6ccc(S(=O)(=O)[O-])cc6)c6ccc([nH]6)c(-c6ccc(S(=O)(=O)[O-])cc6)c6nc(c(-c7ccc(S(=O)(=O)[O-])cc7)c7ccc4[nH]7)C=C6)C=C5)cc3)[nH]n2)cc1
REMARK SMILES IDX 16 1 15 2 13 3 14 4 12 6 10 7 11 8 83 9 82 10 9 12 8 14 7 15
REMARK SMILES IDX 4 16 5 17 85 18 6 19 84 20 2 21 1 22 3 23 17 24 18 25 19 26
REMARK SMILES IDX 20 27 21 29 22 30 23 31 81 32 24 33 80 34 25 35 26 36 27 37
REMARK SMILES IDX 74 38 28 39 79 40 73 41 75 42 29 43 78 44 72 45 71 46 30 48
REMARK SMILES IDX 60 49 41 50 59 51 42 52 45 53 58 54 76 55 43 56 44 57 57 59
REMARK SMILES IDX 77 60 46 61 31 62 32 63 40 64 33 65 39 66 34 67 35 68 36 69
REMARK SMILES IDX 37 70 38 71 61 72 62 73 70 74 63 75 69 76 64 77 65 78 66 79
REMARK SMILES IDX 67 80 68 81 47 82 48 83 56 84 49 85 55 86 50 87 51 88 52 89
REMARK SMILES IDX 53 90 54 91
REMARK H PARENT 15 5 82 11 9 13 19 28 75 47 45 58
REMARK Flexibility Score: inf
ROOT
ATOM      1  C   UNL A   1      40.671  20.649  26.416  1.00  0.00     0.118 C 
ENDROOT
BRANCH   1   2
ATOM      2  N   UNL A   1      41.234  19.330  26.633  1.00  0.00    -0.351 N 
ATOM      3  C   UNL A   1      42.423  18.778  26.239  1.00  0.00     0.269 C 
ATOM      4  O   UNL A   1      42.676  17.647  26.652  1.00  0.00    -0.268 OA
ATOM      5  H   UNL A   1      40.659  18.725  27.156  1.00  0.00     0.163 HD
BRANCH   3   6
ATOM      6  C   UNL A   1      43.363  19.498  25.426  1.00  0.00     0.125 A 
ATOM      7  C   UNL A   1      44.908  20.741  24.414  1.00  0.00     0.148 A 
ATOM      8  C   UNL A   1      43.976  20.734  25.472  1.00  0.00     0.082 A 
ATOM      9  N   UNL A   1      44.789  19.662  23.651  1.00  0.00    -0.157 NA
ATOM     10  N   UNL A   1      43.844  18.938  24.269  1.00  0.00    -0.271 N 
ATOM     11  H   UNL A   1      43.522  18.075  23.922  1.00  0.00     0.190 HD
BRANCH   7  12
ATOM     12  N   UNL A   1      45.824  21.697  24.196  1.00  0.00    -0.365 N 
ATOM     13  H   UNL A   1      46.777  21.459  24.273  1.00  0.00     0.162 HD
BRANCH  12  14
ATOM     14  C   UNL A   1      45.478  23.062  23.855  1.00  0.00     0.150 C 
BRANCH  14  15
ATOM     15  C   UNL A   1      45.610  23.948  25.072  1.00  0.00    -0.029 A 
ATOM     16  C   UNL A   1      45.821  25.598  27.390  1.00  0.00     0.036 A 
ATOM     17  C   UNL A   1      44.872  25.854  26.390  1.00  0.00     0.026 A 
ATOM     18  C   UNL A   1      46.692  24.520  27.172  1.00  0.00     0.026 A 
ATOM     19  C   UNL A   1      44.775  25.057  25.245  1.00  0.00     0.008 A 
ATOM     20  C   UNL A   1      46.586  23.699  26.039  1.00  0.00     0.008 A 
BRANCH  16  21
ATOM     21  N   UNL A   1      45.875  26.377  28.539  1.00  0.00    -0.378 N 
ATOM     22  C   UNL A   1      45.194  25.961  29.752  1.00  0.00     0.143 C 
ATOM     23  C   UNL A   1      46.329  27.754  28.421  1.00  0.00     0.143 C 
ENDBRANCH  16  21
ENDBRANCH  14  15
ENDBRANCH  12  14
ENDBRANCH   7  12
ENDBRANCH   3   6
ENDBRANCH   1   2
BRANCH   1  24
ATOM     24  C   UNL A   1      40.935  21.576  27.598  1.00  0.00     0.042 C 
BRANCH  24  25
ATOM     25  C   UNL A   1      40.259  22.938  27.447  1.00  0.00     0.118 C 
BRANCH  25  26
ATOM     26  N   UNL A   1      40.800  23.690  26.320  1.00  0.00    -0.352 N 
ATOM     27  C   UNL A   1      40.983  25.039  26.155  1.00  0.00     0.251 C 
ATOM     28  H   UNL A   1      41.080  23.140  25.553  1.00  0.00     0.163 HD
ATOM     29  O   UNL A   1      41.221  25.479  25.033  1.00  0.00    -0.269 OA
BRANCH  27  30
ATOM     30  C   UNL A   1      40.895  25.958  27.309  1.00  0.00     0.039 A 
ATOM     31  C   UNL A   1      41.811  27.009  27.407  1.00  0.00     0.014 A 
ATOM     32  C   UNL A   1      39.948  25.759  28.317  1.00  0.00     0.014 A 
ATOM     33  C   UNL A   1      41.741  27.890  28.488  1.00  0.00     0.010 A 
ATOM     34  C   UNL A   1      39.828  26.685  29.349  1.00  0.00     0.010 A 
ATOM     35  C   UNL A   1      40.729  27.754  29.452  1.00  0.00    -0.014 A 
BRANCH  35  36
ATOM     36  C   UNL A   1      40.599  28.718  30.573  1.00  0.00     0.031 A 
ATOM     37  C   UNL A   1      41.469  28.582  31.794  1.00  0.00     0.074 A 
ATOM     38  C   UNL A   1      39.656  29.679  30.516  1.00  0.00     0.049 A 
ATOM     39  N   UNL A   1      41.463  29.293  32.892  1.00  0.00    -0.248 NA
ATOM     40  C   UNL A   1      42.457  27.491  31.793  1.00  0.00     0.031 C 
ATOM     41  C   UNL A   1      38.725  29.888  29.403  1.00  0.00     0.029 A 
ATOM     42  N   UNL A   1      39.319  30.658  31.416  1.00  0.00    -0.354 N 
ATOM     43  C   UNL A   1      42.430  28.727  33.716  1.00  0.00     0.074 A 
ATOM     44  C   UNL A   1      42.964  27.581  33.013  1.00  0.00     0.031 C 
ATOM     45  C   UNL A   1      37.947  30.947  29.673  1.00  0.00     0.029 A 
ATOM     46  C   UNL A   1      38.286  31.463  30.995  1.00  0.00     0.049 A 
ATOM     47  H   UNL A   1      39.773  30.773  32.282  1.00  0.00     0.167 HD
ATOM     48  C   UNL A   1      42.850  29.134  34.937  1.00  0.00     0.031 A 
ATOM     49  C   UNL A   1      37.674  32.496  31.606  1.00  0.00     0.031 A 
ATOM     50  C   UNL A   1      42.318  30.279  35.628  1.00  0.00     0.049 A 
ATOM     51  C   UNL A   1      38.145  32.919  32.972  1.00  0.00     0.074 A 
ATOM     52  C   UNL A   1      42.710  30.808  36.846  1.00  0.00     0.029 A 
ATOM     53  N   UNL A   1      41.276  31.070  35.166  1.00  0.00    -0.354 N 
ATOM     54  N   UNL A   1      39.107  32.411  33.705  1.00  0.00    -0.248 NA
ATOM     55  C   UNL A   1      37.457  34.062  33.585  1.00  0.00     0.031 C 
ATOM     56  C   UNL A   1      41.864  31.880  37.149  1.00  0.00     0.029 A 
ATOM     57  C   UNL A   1      40.993  32.065  36.088  1.00  0.00     0.049 A 
ATOM     58  H   UNL A   1      40.806  30.943  34.311  1.00  0.00     0.167 HD
ATOM     59  C   UNL A   1      39.160  33.193  34.853  1.00  0.00     0.074 A 
ATOM     60  C   UNL A   1      38.145  34.217  34.707  1.00  0.00     0.031 C 
ATOM     61  C   UNL A   1      39.978  33.076  35.929  1.00  0.00     0.031 A 
BRANCH  48  62
ATOM     62  C   UNL A   1      43.934  28.330  35.610  1.00  0.00    -0.014 A 
ATOM     63  C   UNL A   1      45.293  28.650  35.436  1.00  0.00     0.010 A 
ATOM     64  C   UNL A   1      43.588  27.266  36.462  1.00  0.00     0.010 A 
ATOM     65  C   UNL A   1      46.286  27.894  36.066  1.00  0.00     0.020 A 
ATOM     66  C   UNL A   1      44.577  26.527  37.120  1.00  0.00     0.020 A 
ATOM     67  C   UNL A   1      45.921  26.836  36.903  1.00  0.00     0.054 A 
BRANCH  67  68
ATOM     68  S   UNL A   1      47.231  25.889  37.727  1.00  0.00     0.124 S 
ATOM     69  O   UNL A   1      48.410  26.273  36.954  1.00  0.00    -0.237 OA
ATOM     70  O   UNL A   1      47.183  26.401  39.094  1.00  0.00    -0.237 OA
ATOM     71  O   UNL A   1      46.808  24.501  37.569  1.00  0.00    -0.744 OA
ENDBRANCH  67  68
ENDBRANCH  48  62
BRANCH  49  72
ATOM     72  C   UNL A   1      36.557  33.208  30.925  1.00  0.00    -0.014 A 
ATOM     73  C   UNL A   1      35.262  33.198  31.473  1.00  0.00     0.010 A 
ATOM     74  C   UNL A   1      36.787  33.911  29.729  1.00  0.00     0.010 A 
ATOM     75  C   UNL A   1      34.213  33.861  30.827  1.00  0.00     0.020 A 
ATOM     76  C   UNL A   1      35.748  34.601  29.096  1.00  0.00     0.020 A 
ATOM     77  C   UNL A   1      34.466  34.561  29.643  1.00  0.00     0.054 A 
BRANCH  77  78
ATOM     78  S   UNL A   1      33.099  35.453  28.850  1.00  0.00     0.124 S 
ATOM     79  O   UNL A   1      33.808  36.458  28.063  1.00  0.00    -0.237 OA
ATOM     80  O   UNL A   1      32.439  34.399  28.084  1.00  0.00    -0.237 OA
ATOM     81  O   UNL A   1      32.327  35.968  29.978  1.00  0.00    -0.744 OA
ENDBRANCH  77  78
ENDBRANCH  49  72
BRANCH  61  82
ATOM     82  C   UNL A   1      39.839  34.107  37.020  1.00  0.00    -0.014 A 
ATOM     83  C   UNL A   1      40.444  35.372  36.916  1.00  0.00     0.010 A 
ATOM     84  C   UNL A   1      39.045  33.817  38.146  1.00  0.00     0.010 A 
ATOM     85  C   UNL A   1      40.285  36.315  37.935  1.00  0.00     0.020 A 
ATOM     86  C   UNL A   1      38.857  34.770  39.149  1.00  0.00     0.020 A 
ATOM     87  C   UNL A   1      39.492  36.009  39.045  1.00  0.00     0.054 A 
BRANCH  87  88
ATOM     88  S   UNL A   1      39.269  37.266  40.333  1.00  0.00     0.124 S 
ATOM     89  O   UNL A   1      38.524  38.301  39.623  1.00  0.00    -0.237 OA
ATOM     90  O   UNL A   1      38.519  36.542  41.357  1.00  0.00    -0.237 OA
ATOM     91  O   UNL A   1      40.635  37.626  40.707  1.00  0.00    -0.744 OA
ENDBRANCH  87  88
ENDBRANCH  61  82
ENDBRANCH  35  36
ENDBRANCH  27  30
ENDBRANCH  25  26
ENDBRANCH  24  25
ENDBRANCH   1  24
TORSDOF 17
ENDMDL
