MODEL 1
REMARK VINA RESULT:     -11.6      0.000      0.000
REMARK SMILES C[NH2+][C@@]1(C(=O)NCCCNC(=O)c2ccc(-c3c4nc(c(-c5ccc(S(=O)(=O)[O-])cc5)c5ccc([nH]5)c(-c5ccc(S(=O)(=O)[O-])cc5)c5nc(c(-c6ccc(S(=O)(=O)[O-])cc6)c6ccc3[nH]6)C=C5)C=C4)cc2)CC[C@H]([NH+]2CC[NH+](C)CC2)C1
REMARK SMILES IDX 9 1 8 2 7 3 6 4 4 5 5 6 3 8 73 9 83 10 74 11 75 12 2 13 1 14
REMARK SMILES IDX 76 17 77 18 82 19 78 21 81 22 79 23 80 24 10 26 11 27 12 29
REMARK SMILES IDX 13 30 14 31 72 32 15 33 71 34 16 35 17 36 18 37 65 38 19 39
REMARK SMILES IDX 70 40 64 41 66 42 20 43 69 44 63 45 62 46 21 48 51 49 32 50
REMARK SMILES IDX 50 51 33 52 36 53 49 54 67 55 34 56 35 57 48 59 68 60 37 61
REMARK SMILES IDX 22 62 23 63 31 64 24 65 30 66 25 67 26 68 27 69 28 70 29 71
REMARK SMILES IDX 52 72 53 73 61 74 54 75 60 76 55 77 56 78 57 79 58 80 59 81
REMARK SMILES IDX 38 82 39 83 47 84 40 85 46 86 41 87 42 88 43 89 44 90 45 91
REMARK H PARENT 6 7 2 15 2 16 76 20 79 25 10 28 66 47 36 58
REMARK Flexibility Score: inf
ROOT
ATOM      1  C   UNL A   1      34.377  28.337  26.655  1.00  0.00     0.118 C 
ENDROOT
BRANCH   1   2
ATOM      2  C   UNL A   1      33.036  27.544  26.031  1.00  0.00     0.042 C 
BRANCH   2   3
ATOM      3  C   UNL A   1      31.528  26.188  26.669  1.00  0.00     0.118 C 
BRANCH   3   4
ATOM      4  N   UNL A   1      31.334  24.626  26.498  1.00  0.00    -0.351 N 
ATOM      5  C   UNL A   1      31.079  23.710  25.534  1.00  0.00     0.281 C 
ATOM      6  O   UNL A   1      30.766  22.604  26.000  1.00  0.00    -0.268 OA
ATOM      7  H   UNL A   1      31.428  24.178  27.371  1.00  0.00     0.163 HD
BRANCH   5   8
ATOM      8  C   UNL A   1      31.152  23.989  24.004  1.00  0.00     0.181 C 
ATOM      9  C   UNL A   1      31.198  22.680  23.199  1.00  0.00     0.085 C 
ATOM     10  C   UNL A   1      32.448  24.729  23.611  1.00  0.00     0.144 C 
ATOM     11  C   UNL A   1      32.597  22.621  22.591  1.00  0.00     0.072 C 
ATOM     12  C   UNL A   1      33.480  23.628  23.368  1.00  0.00     0.191 C 
BRANCH   8  13
ATOM     13  N   UNL A   1      30.001  24.847  23.586  1.00  0.00    -0.336 N 
ATOM     14  C   UNL A   1      30.339  26.226  23.246  1.00  0.00     0.331 C 
ATOM     15  H   UNL A   1      29.569  24.418  22.768  1.00  0.00     0.346 HD
ATOM     16  H   UNL A   1      29.382  24.900  24.396  1.00  0.00     0.346 HD
ENDBRANCH   8  13
BRANCH  12  17
ATOM     17  N   UNL A   1      34.202  23.149  24.552  1.00  0.00    -0.323 N 
ATOM     18  C   UNL A   1      35.223  24.418  25.417  1.00  0.00     0.324 C 
ATOM     19  C   UNL A   1      34.675  21.351  24.703  1.00  0.00     0.324 C 
ATOM     20  H   UNL A   1      33.417  23.022  25.190  1.00  0.00     0.348 HD
ATOM     21  C   UNL A   1      37.025  23.956  26.035  1.00  0.00     0.324 C 
ATOM     22  C   UNL A   1      36.489  20.884  25.347  1.00  0.00     0.324 C 
ATOM     23  N   UNL A   1      37.533  22.187  26.151  1.00  0.00    -0.328 N 
ATOM     24  C   UNL A   1      38.964  22.017  25.917  1.00  0.00     0.333 C 
ATOM     25  H   UNL A   1      37.322  21.978  27.126  1.00  0.00     0.348 HD
ENDBRANCH  12  17
ENDBRANCH   5   8
ENDBRANCH   3   4
ENDBRANCH   2   3
ENDBRANCH   1   2
BRANCH   1  26
ATOM     26  N   UNL A   1      34.121  29.682  27.160  1.00  0.00    -0.352 N 
ATOM     27  C   UNL A   1      34.814  30.488  28.008  1.00  0.00     0.251 C 
ATOM     28  H   UNL A   1      33.287  30.082  26.822  1.00  0.00     0.163 HD
ATOM     29  O   UNL A   1      34.299  31.478  28.516  1.00  0.00    -0.269 OA
BRANCH  27  30
ATOM     30  C   UNL A   1      36.186  30.104  28.345  1.00  0.00     0.039 A 
ATOM     31  C   UNL A   1      36.438  29.561  29.605  1.00  0.00     0.014 A 
ATOM     32  C   UNL A   1      37.193  30.232  27.386  1.00  0.00     0.014 A 
ATOM     33  C   UNL A   1      37.718  29.115  29.901  1.00  0.00     0.010 A 
ATOM     34  C   UNL A   1      38.447  29.718  27.655  1.00  0.00     0.010 A 
ATOM     35  C   UNL A   1      38.721  29.180  28.921  1.00  0.00    -0.014 A 
BRANCH  35  36
ATOM     36  C   UNL A   1      40.100  28.757  29.225  1.00  0.00     0.031 A 
ATOM     37  C   UNL A   1      41.014  29.726  29.916  1.00  0.00     0.074 A 
ATOM     38  C   UNL A   1      40.520  27.543  28.828  1.00  0.00     0.049 A 
ATOM     39  N   UNL A   1      42.277  29.595  30.216  1.00  0.00    -0.248 NA
ATOM     40  C   UNL A   1      40.440  31.033  30.286  1.00  0.00     0.031 C 
ATOM     41  C   UNL A   1      39.708  26.556  28.111  1.00  0.00     0.029 A 
ATOM     42  N   UNL A   1      41.736  26.933  28.973  1.00  0.00    -0.354 N 
ATOM     43  C   UNL A   1      42.654  30.808  30.777  1.00  0.00     0.074 A 
ATOM     44  C   UNL A   1      41.506  31.683  30.726  1.00  0.00     0.031 C 
ATOM     45  C   UNL A   1      40.442  25.450  27.906  1.00  0.00     0.029 A 
ATOM     46  C   UNL A   1      41.779  25.664  28.447  1.00  0.00     0.049 A 
ATOM     47  H   UNL A   1      42.506  27.362  29.412  1.00  0.00     0.167 HD
ATOM     48  C   UNL A   1      43.849  31.151  31.311  1.00  0.00     0.031 A 
ATOM     49  C   UNL A   1      42.792  24.779  28.412  1.00  0.00     0.031 A 
ATOM     50  C   UNL A   1      44.965  30.251  31.380  1.00  0.00     0.049 A 
ATOM     51  C   UNL A   1      44.099  25.168  29.045  1.00  0.00     0.074 A 
ATOM     52  C   UNL A   1      46.208  30.456  31.949  1.00  0.00     0.029 A 
ATOM     53  N   UNL A   1      44.963  28.960  30.866  1.00  0.00    -0.354 N 
ATOM     54  N   UNL A   1      44.427  26.301  29.624  1.00  0.00    -0.248 NA
ATOM     55  C   UNL A   1      45.167  24.162  29.035  1.00  0.00     0.031 C 
ATOM     56  C   UNL A   1      46.971  29.301  31.746  1.00  0.00     0.029 A 
ATOM     57  C   UNL A   1      46.187  28.360  31.094  1.00  0.00     0.049 A 
ATOM     58  H   UNL A   1      44.204  28.536  30.406  1.00  0.00     0.167 HD
ATOM     59  C   UNL A   1      45.733  26.136  30.067  1.00  0.00     0.074 A 
ATOM     60  C   UNL A   1      46.127  24.787  29.703  1.00  0.00     0.031 C 
ATOM     61  C   UNL A   1      46.538  27.014  30.713  1.00  0.00     0.031 A 
BRANCH  48  62
ATOM     62  C   UNL A   1      43.992  32.550  31.850  1.00  0.00    -0.014 A 
ATOM     63  C   UNL A   1      43.690  32.847  33.192  1.00  0.00     0.010 A 
ATOM     64  C   UNL A   1      44.430  33.584  31.005  1.00  0.00     0.010 A 
ATOM     65  C   UNL A   1      43.774  34.160  33.665  1.00  0.00     0.020 A 
ATOM     66  C   UNL A   1      44.545  34.894  31.481  1.00  0.00     0.020 A 
ATOM     67  C   UNL A   1      44.196  35.176  32.803  1.00  0.00     0.054 A 
BRANCH  67  68
ATOM     68  S   UNL A   1      44.307  36.869  33.445  1.00  0.00     0.124 S 
ATOM     69  O   UNL A   1      44.151  36.659  34.881  1.00  0.00    -0.237 OA
ATOM     70  O   UNL A   1      45.638  37.289  33.013  1.00  0.00    -0.237 OA
ATOM     71  O   UNL A   1      43.198  37.561  32.791  1.00  0.00    -0.744 OA
ENDBRANCH  67  68
ENDBRANCH  48  62
BRANCH  49  72
ATOM     72  C   UNL A   1      42.589  23.441  27.795  1.00  0.00    -0.014 A 
ATOM     73  C   UNL A   1      42.956  23.212  26.457  1.00  0.00     0.010 A 
ATOM     74  C   UNL A   1      42.067  22.376  28.550  1.00  0.00     0.010 A 
ATOM     75  C   UNL A   1      42.791  21.948  25.882  1.00  0.00     0.020 A 
ATOM     76  C   UNL A   1      41.923  21.104  27.987  1.00  0.00     0.020 A 
ATOM     77  C   UNL A   1      42.278  20.901  26.652  1.00  0.00     0.054 A 
BRANCH  77  78
ATOM     78  S   UNL A   1      42.131  19.254  25.903  1.00  0.00     0.124 S 
ATOM     79  O   UNL A   1      42.673  18.395  26.950  1.00  0.00    -0.237 OA
ATOM     80  O   UNL A   1      40.693  19.139  25.670  1.00  0.00    -0.237 OA
ATOM     81  O   UNL A   1      42.943  19.357  24.691  1.00  0.00    -0.744 OA
ENDBRANCH  77  78
ENDBRANCH  49  72
BRANCH  61  82
ATOM     82  C   UNL A   1      47.912  26.533  31.086  1.00  0.00    -0.014 A 
ATOM     83  C   UNL A   1      48.997  26.694  30.208  1.00  0.00     0.010 A 
ATOM     84  C   UNL A   1      48.127  25.971  32.358  1.00  0.00     0.010 A 
ATOM     85  C   UNL A   1      50.273  26.273  30.586  1.00  0.00     0.020 A 
ATOM     86  C   UNL A   1      49.406  25.575  32.748  1.00  0.00     0.020 A 
ATOM     87  C   UNL A   1      50.469  25.716  31.854  1.00  0.00     0.054 A 
BRANCH  87  88
ATOM     88  S   UNL A   1      52.144  25.222  32.339  1.00  0.00     0.124 S 
ATOM     89  O   UNL A   1      52.950  25.777  31.256  1.00  0.00    -0.237 OA
ATOM     90  O   UNL A   1      52.307  25.868  33.640  1.00  0.00    -0.237 OA
ATOM     91  O   UNL A   1      52.075  23.763  32.382  1.00  0.00    -0.744 OA
ENDBRANCH  87  88
ENDBRANCH  61  82
ENDBRANCH  35  36
ENDBRANCH  27  30
ENDBRANCH   1  26
TORSDOF 15
ENDMDL
MODEL 2
REMARK VINA RESULT:     -11.4      4.466     10.451
REMARK SMILES C[NH2+][C@@]1(C(=O)NCCCNC(=O)c2ccc(-c3c4nc(c(-c5ccc(S(=O)(=O)[O-])cc5)c5ccc([nH]5)c(-c5ccc(S(=O)(=O)[O-])cc5)c5nc(c(-c6ccc(S(=O)(=O)[O-])cc6)c6ccc3[nH]6)C=C5)C=C4)cc2)CC[C@H]([NH+]2CC[NH+](C)CC2)C1
REMARK SMILES IDX 9 1 8 2 7 3 6 4 4 5 5 6 3 8 73 9 83 10 74 11 75 12 2 13 1 14
REMARK SMILES IDX 76 17 77 18 82 19 78 21 81 22 79 23 80 24 10 26 11 27 12 29
REMARK SMILES IDX 13 30 14 31 72 32 15 33 71 34 16 35 17 36 18 37 65 38 19 39
REMARK SMILES IDX 70 40 64 41 66 42 20 43 69 44 63 45 62 46 21 48 51 49 32 50
REMARK SMILES IDX 50 51 33 52 36 53 49 54 67 55 34 56 35 57 48 59 68 60 37 61
REMARK SMILES IDX 22 62 23 63 31 64 24 65 30 66 25 67 26 68 27 69 28 70 29 71
REMARK SMILES IDX 52 72 53 73 61 74 54 75 60 76 55 77 56 78 57 79 58 80 59 81
REMARK SMILES IDX 38 82 39 83 47 84 40 85 46 86 41 87 42 88 43 89 44 90 45 91
REMARK H PARENT 6 7 2 15 2 16 76 20 79 25 10 28 66 47 36 58
REMARK Flexibility Score: inf
ROOT
ATOM      1  C   UNL A   1      38.751  23.970  26.876  1.00  0.00     0.118 C 
ENDROOT
BRANCH   1   2
ATOM      2  C   UNL A   1      37.341  23.864  25.972  1.00  0.00     0.042 C 
BRANCH   2   3
ATOM      3  C   UNL A   1      36.696  23.145  24.077  1.00  0.00     0.118 C 
BRANCH   3   4
ATOM      4  N   UNL A   1      35.470  23.505  23.143  1.00  0.00    -0.351 N 
ATOM      5  C   UNL A   1      34.161  23.198  22.982  1.00  0.00     0.281 C 
ATOM      6  O   UNL A   1      33.711  23.589  21.895  1.00  0.00    -0.268 OA
ATOM      7  H   UNL A   1      35.747  24.161  22.462  1.00  0.00     0.163 HD
BRANCH   5   8
ATOM      8  C   UNL A   1      33.295  22.430  24.025  1.00  0.00     0.181 C 
ATOM      9  C   UNL A   1      31.812  22.424  23.622  1.00  0.00     0.085 C 
ATOM     10  C   UNL A   1      33.316  23.112  25.410  1.00  0.00     0.144 C 
ATOM     11  C   UNL A   1      31.103  23.300  24.653  1.00  0.00     0.072 C 
ATOM     12  C   UNL A   1      32.189  24.143  25.366  1.00  0.00     0.191 C 
BRANCH   8  13
ATOM     13  N   UNL A   1      33.820  21.041  24.199  1.00  0.00    -0.336 N 
ATOM     14  C   UNL A   1      34.378  20.744  25.515  1.00  0.00     0.331 C 
ATOM     15  H   UNL A   1      33.053  20.391  24.029  1.00  0.00     0.346 HD
ATOM     16  H   UNL A   1      34.591  20.947  23.538  1.00  0.00     0.346 HD
ENDBRANCH   8  13
BRANCH  12  17
ATOM     17  N   UNL A   1      32.534  25.452  24.800  1.00  0.00    -0.323 N 
ATOM     18  C   UNL A   1      33.905  26.342  25.657  1.00  0.00     0.324 C 
ATOM     19  C   UNL A   1      31.258  26.441  23.867  1.00  0.00     0.324 C 
ATOM     20  H   UNL A   1      32.973  25.150  23.931  1.00  0.00     0.348 HD
ATOM     21  C   UNL A   1      33.739  28.262  26.015  1.00  0.00     0.324 C 
ATOM     22  C   UNL A   1      31.104  28.385  24.214  1.00  0.00     0.324 C 
ATOM     23  N   UNL A   1      32.454  29.253  25.138  1.00  0.00    -0.328 N 
ATOM     24  C   UNL A   1      31.983  30.370  25.953  1.00  0.00     0.333 C 
ATOM     25  H   UNL A   1      32.983  29.614  24.344  1.00  0.00     0.348 HD
ENDBRANCH  12  17
ENDBRANCH   5   8
ENDBRANCH   3   4
ENDBRANCH   2   3
ENDBRANCH   1   2
BRANCH   1  26
ATOM     26  N   UNL A   1      39.947  24.321  26.118  1.00  0.00    -0.352 N 
ATOM     27  C   UNL A   1      40.750  25.418  26.133  1.00  0.00     0.251 C 
ATOM     28  H   UNL A   1      40.226  23.632  25.473  1.00  0.00     0.163 HD
ATOM     29  O   UNL A   1      41.553  25.638  25.233  1.00  0.00    -0.269 OA
BRANCH  27  30
ATOM     30  C   UNL A   1      40.588  26.367  27.237  1.00  0.00     0.039 A 
ATOM     31  C   UNL A   1      39.792  25.998  28.322  1.00  0.00     0.014 A 
ATOM     32  C   UNL A   1      41.272  27.583  27.208  1.00  0.00     0.014 A 
ATOM     33  C   UNL A   1      39.702  26.854  29.411  1.00  0.00     0.010 A 
ATOM     34  C   UNL A   1      41.243  28.398  28.324  1.00  0.00     0.010 A 
ATOM     35  C   UNL A   1      40.439  28.049  29.419  1.00  0.00    -0.014 A 
BRANCH  35  36
ATOM     36  C   UNL A   1      40.324  28.997  30.541  1.00  0.00     0.031 A 
ATOM     37  C   UNL A   1      41.236  28.830  31.721  1.00  0.00     0.074 A 
ATOM     38  C   UNL A   1      39.375  29.949  30.506  1.00  0.00     0.049 A 
ATOM     39  N   UNL A   1      41.263  29.499  32.841  1.00  0.00    -0.248 NA
ATOM     40  C   UNL A   1      42.224  27.738  31.648  1.00  0.00     0.031 C 
ATOM     41  C   UNL A   1      38.418  30.153  29.415  1.00  0.00     0.029 A 
ATOM     42  N   UNL A   1      39.059  30.923  31.413  1.00  0.00    -0.354 N 
ATOM     43  C   UNL A   1      42.245  28.891  33.614  1.00  0.00     0.074 A 
ATOM     44  C   UNL A   1      42.750  27.766  32.862  1.00  0.00     0.031 C 
ATOM     45  C   UNL A   1      37.642  31.210  29.705  1.00  0.00     0.029 A 
ATOM     46  C   UNL A   1      38.025  31.733  31.011  1.00  0.00     0.049 A 
ATOM     47  H   UNL A   1      39.528  31.032  32.272  1.00  0.00     0.167 HD
ATOM     48  C   UNL A   1      42.699  29.257  34.834  1.00  0.00     0.031 A 
ATOM     49  C   UNL A   1      37.458  32.781  31.635  1.00  0.00     0.031 A 
ATOM     50  C   UNL A   1      42.202  30.400  35.546  1.00  0.00     0.049 A 
ATOM     51  C   UNL A   1      38.004  33.193  32.974  1.00  0.00     0.074 A 
ATOM     52  C   UNL A   1      42.620  30.912  36.760  1.00  0.00     0.029 A 
ATOM     53  N   UNL A   1      41.175  31.219  35.094  1.00  0.00    -0.354 N 
ATOM     54  N   UNL A   1      38.973  32.642  33.671  1.00  0.00    -0.248 NA
ATOM     55  C   UNL A   1      37.397  34.370  33.605  1.00  0.00     0.031 C 
ATOM     56  C   UNL A   1      41.819  32.019  37.060  1.00  0.00     0.029 A 
ATOM     57  C   UNL A   1      40.936  32.226  36.010  1.00  0.00     0.049 A 
ATOM     58  H   UNL A   1      40.688  31.099  34.247  1.00  0.00     0.167 HD
ATOM     59  C   UNL A   1      39.105  33.420  34.815  1.00  0.00     0.074 A 
ATOM     60  C   UNL A   1      38.129  34.489  34.704  1.00  0.00     0.031 C 
ATOM     61  C   UNL A   1      39.952  33.270  35.862  1.00  0.00     0.031 A 
BRANCH  48  62
ATOM     62  C   UNL A   1      43.776  28.408  35.456  1.00  0.00    -0.014 A 
ATOM     63  C   UNL A   1      45.138  28.663  35.208  1.00  0.00     0.010 A 
ATOM     64  C   UNL A   1      43.425  27.338  36.298  1.00  0.00     0.010 A 
ATOM     65  C   UNL A   1      46.125  27.834  35.748  1.00  0.00     0.020 A 
ATOM     66  C   UNL A   1      44.411  26.524  36.865  1.00  0.00     0.020 A 
ATOM     67  C   UNL A   1      45.754  26.765  36.569  1.00  0.00     0.054 A 
BRANCH  67  68
ATOM     68  S   UNL A   1      47.055  25.712  37.266  1.00  0.00     0.124 S 
ATOM     69  O   UNL A   1      46.401  24.406  37.299  1.00  0.00    -0.237 OA
ATOM     70  O   UNL A   1      48.135  25.848  36.291  1.00  0.00    -0.237 OA
ATOM     71  O   UNL A   1      47.322  26.309  38.573  1.00  0.00    -0.744 OA
ENDBRANCH  67  68
ENDBRANCH  48  62
BRANCH  49  72
ATOM     72  C   UNL A   1      36.346  33.523  30.982  1.00  0.00    -0.014 A 
ATOM     73  C   UNL A   1      35.101  33.648  31.622  1.00  0.00     0.010 A 
ATOM     74  C   UNL A   1      36.538  34.146  29.735  1.00  0.00     0.010 A 
ATOM     75  C   UNL A   1      34.063  34.367  31.021  1.00  0.00     0.020 A 
ATOM     76  C   UNL A   1      35.511  34.888  29.142  1.00  0.00     0.020 A 
ATOM     77  C   UNL A   1      34.276  34.985  29.786  1.00  0.00     0.054 A 
BRANCH  77  78
ATOM     78  S   UNL A   1      32.934  35.966  29.055  1.00  0.00     0.124 S 
ATOM     79  O   UNL A   1      32.276  34.987  28.197  1.00  0.00    -0.237 OA
ATOM     80  O   UNL A   1      32.177  36.391  30.229  1.00  0.00    -0.237 OA
ATOM     81  O   UNL A   1      33.638  37.040  28.357  1.00  0.00    -0.744 OA
ENDBRANCH  77  78
ENDBRANCH  49  72
BRANCH  61  82
ATOM     82  C   UNL A   1      39.874  34.297  36.956  1.00  0.00    -0.014 A 
ATOM     83  C   UNL A   1      40.562  35.517  36.852  1.00  0.00     0.010 A 
ATOM     84  C   UNL A   1      39.049  34.060  38.070  1.00  0.00     0.010 A 
ATOM     85  C   UNL A   1      40.449  36.475  37.861  1.00  0.00     0.020 A 
ATOM     86  C   UNL A   1      38.913  35.026  39.068  1.00  0.00     0.020 A 
ATOM     87  C   UNL A   1      39.625  36.222  38.963  1.00  0.00     0.054 A 
BRANCH  87  88
ATOM     88  S   UNL A   1      39.457  37.500  40.237  1.00  0.00     0.124 S 
ATOM     89  O   UNL A   1      38.893  36.745  41.352  1.00  0.00    -0.237 OA
ATOM     90  O   UNL A   1      40.833  37.957  40.418  1.00  0.00    -0.237 OA
ATOM     91  O   UNL A   1      38.559  38.479  39.628  1.00  0.00    -0.744 OA
ENDBRANCH  87  88
ENDBRANCH  61  82
ENDBRANCH  35  36
ENDBRANCH  27  30
ENDBRANCH   1  26
TORSDOF 15
ENDMDL
MODEL 3
REMARK VINA RESULT:     -11.4      3.318      4.285
REMARK SMILES C[NH2+][C@@]1(C(=O)NCCCNC(=O)c2ccc(-c3c4nc(c(-c5ccc(S(=O)(=O)[O-])cc5)c5ccc([nH]5)c(-c5ccc(S(=O)(=O)[O-])cc5)c5nc(c(-c6ccc(S(=O)(=O)[O-])cc6)c6ccc3[nH]6)C=C5)C=C4)cc2)CC[C@H]([NH+]2CC[NH+](C)CC2)C1
REMARK SMILES IDX 9 1 8 2 7 3 6 4 4 5 5 6 3 8 73 9 83 10 74 11 75 12 2 13 1 14
REMARK SMILES IDX 76 17 77 18 82 19 78 21 81 22 79 23 80 24 10 26 11 27 12 29
REMARK SMILES IDX 13 30 14 31 72 32 15 33 71 34 16 35 17 36 18 37 65 38 19 39
REMARK SMILES IDX 70 40 64 41 66 42 20 43 69 44 63 45 62 46 21 48 51 49 32 50
REMARK SMILES IDX 50 51 33 52 36 53 49 54 67 55 34 56 35 57 48 59 68 60 37 61
REMARK SMILES IDX 22 62 23 63 31 64 24 65 30 66 25 67 26 68 27 69 28 70 29 71
REMARK SMILES IDX 52 72 53 73 61 74 54 75 60 76 55 77 56 78 57 79 58 80 59 81
REMARK SMILES IDX 38 82 39 83 47 84 40 85 46 86 41 87 42 88 43 89 44 90 45 91
REMARK H PARENT 6 7 2 15 2 16 76 20 79 25 10 28 66 47 36 58
REMARK Flexibility Score: inf
ROOT
ATOM      1  C   UNL A   1      35.628  29.501  28.145  1.00  0.00     0.118 C 
ENDROOT
BRANCH   1   2
ATOM      2  C   UNL A   1      34.107  29.479  27.434  1.00  0.00     0.042 C 
BRANCH   2   3
ATOM      3  C   UNL A   1      33.213  29.838  25.539  1.00  0.00     0.118 C 
BRANCH   3   4
ATOM      4  N   UNL A   1      33.583  29.394  24.065  1.00  0.00    -0.351 N 
ATOM      5  C   UNL A   1      33.012  28.829  22.975  1.00  0.00     0.281 C 
ATOM      6  O   UNL A   1      33.848  28.459  22.138  1.00  0.00    -0.268 OA
ATOM      7  H   UNL A   1      34.531  29.592  23.883  1.00  0.00     0.163 HD
BRANCH   5   8
ATOM      8  C   UNL A   1      31.479  28.641  22.774  1.00  0.00     0.181 C 
ATOM      9  C   UNL A   1      30.755  28.481  24.121  1.00  0.00     0.085 C 
ATOM     10  C   UNL A   1      31.149  27.345  22.003  1.00  0.00     0.144 C 
ATOM     11  C   UNL A   1      30.264  27.036  24.155  1.00  0.00     0.072 C 
ATOM     12  C   UNL A   1      31.051  26.257  23.072  1.00  0.00     0.191 C 
BRANCH   8  13
ATOM     13  N   UNL A   1      30.923  29.786  21.988  1.00  0.00    -0.336 N 
ATOM     14  C   UNL A   1      29.466  29.864  21.941  1.00  0.00     0.331 C 
ATOM     15  H   UNL A   1      31.272  30.650  22.401  1.00  0.00     0.346 HD
ATOM     16  H   UNL A   1      31.229  29.639  21.025  1.00  0.00     0.346 HD
ENDBRANCH   8  13
BRANCH  12  17
ATOM     17  N   UNL A   1      32.313  25.617  23.458  1.00  0.00    -0.323 N 
ATOM     18  C   UNL A   1      32.731  24.078  22.529  1.00  0.00     0.324 C 
ATOM     19  C   UNL A   1      33.002  25.852  25.175  1.00  0.00     0.324 C 
ATOM     20  H   UNL A   1      32.971  26.294  23.073  1.00  0.00     0.348 HD
ATOM     21  C   UNL A   1      33.432  22.524  23.495  1.00  0.00     0.324 C 
ATOM     22  C   UNL A   1      33.730  24.284  26.143  1.00  0.00     0.324 C 
ATOM     23  N   UNL A   1      34.078  22.721  25.211  1.00  0.00    -0.328 N 
ATOM     24  C   UNL A   1      33.885  21.510  26.005  1.00  0.00     0.333 C 
ATOM     25  H   UNL A   1      35.074  22.858  25.039  1.00  0.00     0.348 HD
ENDBRANCH  12  17
ENDBRANCH   5   8
ENDBRANCH   3   4
ENDBRANCH   2   3
ENDBRANCH   1   2
BRANCH   1  26
ATOM     26  N   UNL A   1      35.684  30.121  29.465  1.00  0.00    -0.352 N 
ATOM     27  C   UNL A   1      36.680  30.222  30.386  1.00  0.00     0.251 C 
ATOM     28  H   UNL A   1      34.841  30.546  29.741  1.00  0.00     0.163 HD
ATOM     29  O   UNL A   1      36.451  30.550  31.544  1.00  0.00    -0.269 OA
BRANCH  27  30
ATOM     30  C   UNL A   1      38.037  29.870  29.964  1.00  0.00     0.039 A 
ATOM     31  C   UNL A   1      38.904  29.311  30.903  1.00  0.00     0.014 A 
ATOM     32  C   UNL A   1      38.412  30.045  28.630  1.00  0.00     0.014 A 
ATOM     33  C   UNL A   1      40.163  28.895  30.491  1.00  0.00     0.010 A 
ATOM     34  C   UNL A   1      39.635  29.560  28.206  1.00  0.00     0.010 A 
ATOM     35  C   UNL A   1      40.525  29.006  29.139  1.00  0.00    -0.014 A 
BRANCH  35  36
ATOM     36  C   UNL A   1      41.871  28.616  28.685  1.00  0.00     0.031 A 
ATOM     37  C   UNL A   1      42.944  29.665  28.631  1.00  0.00     0.074 A 
ATOM     38  C   UNL A   1      42.091  27.353  28.279  1.00  0.00     0.049 A 
ATOM     39  N   UNL A   1      44.172  29.564  28.201  1.00  0.00    -0.248 NA
ATOM     40  C   UNL A   1      42.575  31.017  29.088  1.00  0.00     0.031 C 
ATOM     41  C   UNL A   1      41.090  26.283  28.256  1.00  0.00     0.029 A 
ATOM     42  N   UNL A   1      43.227  26.757  27.806  1.00  0.00    -0.354 N 
ATOM     43  C   UNL A   1      44.708  30.841  28.304  1.00  0.00     0.074 A 
ATOM     44  C   UNL A   1      43.660  31.712  28.784  1.00  0.00     0.031 C 
ATOM     45  C   UNL A   1      41.668  25.151  27.823  1.00  0.00     0.029 A 
ATOM     46  C   UNL A   1      43.065  25.426  27.506  1.00  0.00     0.049 A 
ATOM     47  H   UNL A   1      44.080  27.236  27.691  1.00  0.00     0.167 HD
ATOM     48  C   UNL A   1      45.973  31.244  28.045  1.00  0.00     0.031 A 
ATOM     49  C   UNL A   1      43.953  24.534  27.032  1.00  0.00     0.031 A 
ATOM     50  C   UNL A   1      47.006  30.351  27.601  1.00  0.00     0.049 A 
ATOM     51  C   UNL A   1      45.363  24.996  26.787  1.00  0.00     0.074 A 
ATOM     52  C   UNL A   1      48.340  30.622  27.362  1.00  0.00     0.029 A 
ATOM     53  N   UNL A   1      46.814  29.000  27.339  1.00  0.00    -0.354 N 
ATOM     54  N   UNL A   1      45.874  26.196  26.943  1.00  0.00    -0.248 NA
ATOM     55  C   UNL A   1      46.320  23.986  26.318  1.00  0.00     0.031 C 
ATOM     56  C   UNL A   1      48.947  29.442  26.919  1.00  0.00     0.029 A 
ATOM     57  C   UNL A   1      48.002  28.426  26.930  1.00  0.00     0.049 A 
ATOM     58  H   UNL A   1      45.958  28.523  27.431  1.00  0.00     0.167 HD
ATOM     59  C   UNL A   1      47.218  26.082  26.610  1.00  0.00     0.074 A 
ATOM     60  C   UNL A   1      47.442  24.690  26.263  1.00  0.00     0.031 C 
ATOM     61  C   UNL A   1      48.182  27.035  26.591  1.00  0.00     0.031 A 
BRANCH  48  62
ATOM     62  C   UNL A   1      46.289  32.704  28.236  1.00  0.00    -0.014 A 
ATOM     63  C   UNL A   1      46.170  33.619  27.172  1.00  0.00     0.010 A 
ATOM     64  C   UNL A   1      46.712  33.170  29.492  1.00  0.00     0.010 A 
ATOM     65  C   UNL A   1      46.519  34.961  27.349  1.00  0.00     0.020 A 
ATOM     66  C   UNL A   1      47.033  34.518  29.681  1.00  0.00     0.020 A 
ATOM     67  C   UNL A   1      46.954  35.400  28.602  1.00  0.00     0.054 A 
BRANCH  67  68
ATOM     68  S   UNL A   1      47.389  37.149  28.806  1.00  0.00     0.124 S 
ATOM     69  O   UNL A   1      48.052  37.446  27.539  1.00  0.00    -0.237 OA
ATOM     70  O   UNL A   1      46.087  37.784  28.997  1.00  0.00    -0.237 OA
ATOM     71  O   UNL A   1      48.259  37.155  29.981  1.00  0.00    -0.744 OA
ENDBRANCH  67  68
ENDBRANCH  48  62
BRANCH  49  72
ATOM     72  C   UNL A   1      43.540  23.124  26.802  1.00  0.00    -0.014 A 
ATOM     73  C   UNL A   1      43.770  22.509  25.558  1.00  0.00     0.010 A 
ATOM     74  C   UNL A   1      42.954  22.372  27.835  1.00  0.00     0.010 A 
ATOM     75  C   UNL A   1      43.406  21.176  25.347  1.00  0.00     0.020 A 
ATOM     76  C   UNL A   1      42.612  21.030  27.637  1.00  0.00     0.020 A 
ATOM     77  C   UNL A   1      42.832  20.443  26.390  1.00  0.00     0.054 A 
BRANCH  77  78
ATOM     78  S   UNL A   1      42.426  18.696  26.112  1.00  0.00     0.124 S 
ATOM     79  O   UNL A   1      41.029  18.772  25.699  1.00  0.00    -0.237 OA
ATOM     80  O   UNL A   1      43.375  18.312  25.071  1.00  0.00    -0.237 OA
ATOM     81  O   UNL A   1      42.663  18.080  27.416  1.00  0.00    -0.744 OA
ENDBRANCH  77  78
ENDBRANCH  49  72
BRANCH  61  82
ATOM     82  C   UNL A   1      49.566  26.597  26.204  1.00  0.00    -0.014 A 
ATOM     83  C   UNL A   1      50.045  26.788  24.897  1.00  0.00     0.010 A 
ATOM     84  C   UNL A   1      50.416  26.047  27.180  1.00  0.00     0.010 A 
ATOM     85  C   UNL A   1      51.346  26.408  24.565  1.00  0.00     0.020 A 
ATOM     86  C   UNL A   1      51.726  25.691  26.857  1.00  0.00     0.020 A 
ATOM     87  C   UNL A   1      52.179  25.862  25.548  1.00  0.00     0.054 A 
BRANCH  87  88
ATOM     88  S   UNL A   1      53.879  25.421  25.103  1.00  0.00     0.124 S 
ATOM     89  O   UNL A   1      54.027  26.061  23.799  1.00  0.00    -0.237 OA
ATOM     90  O   UNL A   1      54.659  26.013  26.187  1.00  0.00    -0.237 OA
ATOM     91  O   UNL A   1      53.863  23.960  25.083  1.00  0.00    -0.744 OA
ENDBRANCH  87  88
ENDBRANCH  61  82
ENDBRANCH  35  36
ENDBRANCH  27  30
ENDBRANCH   1  26
TORSDOF 15
ENDMDL
