MODEL 1
REMARK VINA RESULT:      -9.9      0.000      0.000
REMARK SMILES C[C@H](C(=O)NCCCNC(=O)c1ccc(-c2c3nc(c(-c4ccc(S(=O)(=O)[O-])cc4)c4ccc([nH]4)c(-c4ccc(S(=O)(=O)[O-])cc4)c4nc(c(-c5ccc(S(=O)(=O)[O-])cc5)c5ccc2[nH]5)C=C4)C=C3)cc1)[C@H](C)c1ccoc1
REMARK SMILES IDX 7 1 6 2 5 3 3 4 4 5 2 7 1 8 72 9 73 10 74 11 75 12 78 13
REMARK SMILES IDX 76 14 77 15 8 16 9 17 10 18 11 20 12 21 13 22 71 23 14 24
REMARK SMILES IDX 70 25 15 26 16 27 17 28 64 29 18 30 69 31 63 32 65 33 19 34
REMARK SMILES IDX 68 35 62 36 61 37 20 39 50 40 31 41 49 42 32 43 35 44 48 45
REMARK SMILES IDX 66 46 33 47 34 48 47 50 67 51 36 52 21 53 22 54 30 55 23 56
REMARK SMILES IDX 29 57 24 58 25 59 26 60 27 61 28 62 51 63 52 64 60 65 53 66
REMARK SMILES IDX 59 67 54 68 55 69 56 70 57 71 58 72 37 73 38 74 46 75 39 76
REMARK SMILES IDX 45 77 40 78 41 79 42 80 43 81 44 82
REMARK H PARENT 5 6 9 19 65 38 35 49
REMARK Flexibility Score: inf
ROOT
ATOM      1  C   UNL A   1      33.777  28.179  25.753  1.00  0.00     0.042 C 
ENDROOT
BRANCH   1   2
ATOM      2  C   UNL A   1      33.113  26.899  25.263  1.00  0.00     0.117 C 
BRANCH   2   3
ATOM      3  N   UNL A   1      33.690  26.383  24.032  1.00  0.00    -0.356 N 
ATOM      4  C   UNL A   1      33.548  25.150  23.450  1.00  0.00     0.223 C 
ATOM      5  O   UNL A   1      34.049  24.970  22.342  1.00  0.00    -0.275 OA
ATOM      6  H   UNL A   1      34.268  27.012  23.543  1.00  0.00     0.163 HD
BRANCH   4   7
ATOM      7  C   UNL A   1      32.742  24.085  24.187  1.00  0.00     0.082 C 
ATOM      8  C   UNL A   1      31.959  23.255  23.161  1.00  0.00     0.019 C 
BRANCH   7   9
ATOM      9  C   UNL A   1      33.546  23.224  25.204  1.00  0.00     0.031 C 
ATOM     10  C   UNL A   1      33.192  23.496  26.672  1.00  0.00     0.014 C 
BRANCH   9  11
ATOM     11  C   UNL A   1      35.038  23.177  25.003  1.00  0.00    -0.006 A 
ATOM     12  C   UNL A   1      36.052  23.950  25.637  1.00  0.00     0.046 A 
ATOM     13  C   UNL A   1      35.713  22.340  24.134  1.00  0.00     0.198 A 
ATOM     14  C   UNL A   1      37.248  23.553  25.085  1.00  0.00     0.195 A 
ATOM     15  O   UNL A   1      37.049  22.569  24.173  1.00  0.00    -0.472 OA
ENDBRANCH   9  11
ENDBRANCH   7   9
ENDBRANCH   4   7
ENDBRANCH   2   3
ENDBRANCH   1   2
BRANCH   1  16
ATOM     16  C   UNL A   1      33.575  28.463  27.237  1.00  0.00     0.118 C 
BRANCH  16  17
ATOM     17  N   UNL A   1      33.553  29.888  27.546  1.00  0.00    -0.352 N 
ATOM     18  C   UNL A   1      34.510  30.685  28.124  1.00  0.00     0.251 C 
ATOM     19  H   UNL A   1      32.720  30.352  27.302  1.00  0.00     0.163 HD
ATOM     20  O   UNL A   1      34.226  31.836  28.447  1.00  0.00    -0.269 OA
BRANCH  18  21
ATOM     21  C   UNL A   1      35.869  30.159  28.376  1.00  0.00     0.039 A 
ATOM     22  C   UNL A   1      36.801  30.151  27.333  1.00  0.00     0.014 A 
ATOM     23  C   UNL A   1      36.219  29.662  29.632  1.00  0.00     0.014 A 
ATOM     24  C   UNL A   1      38.107  29.716  27.572  1.00  0.00     0.010 A 
ATOM     25  C   UNL A   1      37.536  29.300  29.889  1.00  0.00     0.010 A 
ATOM     26  C   UNL A   1      38.494  29.322  28.862  1.00  0.00    -0.014 A 
BRANCH  26  27
ATOM     27  C   UNL A   1      39.885  28.914  29.182  1.00  0.00     0.031 A 
ATOM     28  C   UNL A   1      40.849  29.930  29.727  1.00  0.00     0.074 A 
ATOM     29  C   UNL A   1      40.312  27.675  28.872  1.00  0.00     0.049 A 
ATOM     30  N   UNL A   1      42.144  29.839  29.889  1.00  0.00    -0.248 NA
ATOM     31  C   UNL A   1      40.283  31.235  30.105  1.00  0.00     0.031 C 
ATOM     32  C   UNL A   1      39.482  26.605  28.315  1.00  0.00     0.029 A 
ATOM     33  N   UNL A   1      41.564  27.117  28.953  1.00  0.00    -0.354 N 
ATOM     34  C   UNL A   1      42.553  31.086  30.348  1.00  0.00     0.074 A 
ATOM     35  C   UNL A   1      41.374  31.924  30.404  1.00  0.00     0.031 C 
ATOM     36  C   UNL A   1      40.246  25.521  28.105  1.00  0.00     0.029 A 
ATOM     37  C   UNL A   1      41.627  25.833  28.466  1.00  0.00     0.049 A 
ATOM     38  H   UNL A   1      42.343  27.592  29.325  1.00  0.00     0.167 HD
ATOM     39  C   UNL A   1      43.796  31.493  30.699  1.00  0.00     0.031 A 
ATOM     40  C   UNL A   1      42.678  25.006  28.302  1.00  0.00     0.031 A 
ATOM     41  C   UNL A   1      44.960  30.651  30.654  1.00  0.00     0.049 A 
ATOM     42  C   UNL A   1      44.050  25.472  28.703  1.00  0.00     0.074 A 
ATOM     43  C   UNL A   1      46.256  30.952  31.035  1.00  0.00     0.029 A 
ATOM     44  N   UNL A   1      44.969  29.341  30.201  1.00  0.00    -0.354 N 
ATOM     45  N   UNL A   1      44.415  26.641  29.174  1.00  0.00    -0.248 NA
ATOM     46  C   UNL A   1      45.150  24.508  28.563  1.00  0.00     0.031 C 
ATOM     47  C   UNL A   1      47.057  29.835  30.774  1.00  0.00     0.029 A 
ATOM     48  C   UNL A   1      46.250  28.821  30.282  1.00  0.00     0.049 A 
ATOM     49  H   UNL A   1      44.181  28.851  29.872  1.00  0.00     0.167 HD
ATOM     50  C   UNL A   1      45.781  26.543  29.416  1.00  0.00     0.074 A 
ATOM     51  C   UNL A   1      46.177  25.201  29.039  1.00  0.00     0.031 C 
ATOM     52  C   UNL A   1      46.626  27.478  29.913  1.00  0.00     0.031 A 
BRANCH  39  53
ATOM     53  C   UNL A   1      43.950  32.926  31.138  1.00  0.00    -0.014 A 
ATOM     54  C   UNL A   1      43.540  33.346  32.417  1.00  0.00     0.010 A 
ATOM     55  C   UNL A   1      44.504  33.870  30.254  1.00  0.00     0.010 A 
ATOM     56  C   UNL A   1      43.613  34.695  32.776  1.00  0.00     0.020 A 
ATOM     57  C   UNL A   1      44.609  35.214  30.621  1.00  0.00     0.020 A 
ATOM     58  C   UNL A   1      44.136  35.622  31.870  1.00  0.00     0.054 A 
BRANCH  58  59
ATOM     59  S   UNL A   1      44.194  37.371  32.349  1.00  0.00     0.124 S 
ATOM     60  O   UNL A   1      43.759  38.031  31.121  1.00  0.00    -0.237 OA
ATOM     61  O   UNL A   1      43.252  37.432  33.463  1.00  0.00    -0.237 OA
ATOM     62  O   UNL A   1      45.594  37.583  32.708  1.00  0.00    -0.744 OA
ENDBRANCH  58  59
ENDBRANCH  39  53
BRANCH  40  63
ATOM     63  C   UNL A   1      42.456  23.648  27.740  1.00  0.00    -0.014 A 
ATOM     64  C   UNL A   1      42.534  23.431  26.354  1.00  0.00     0.010 A 
ATOM     65  C   UNL A   1      42.233  22.551  28.594  1.00  0.00     0.010 A 
ATOM     66  C   UNL A   1      42.396  22.142  25.830  1.00  0.00     0.020 A 
ATOM     67  C   UNL A   1      42.118  21.258  28.075  1.00  0.00     0.020 A 
ATOM     68  C   UNL A   1      42.198  21.062  26.696  1.00  0.00     0.054 A 
BRANCH  68  69
ATOM     69  S   UNL A   1      42.120  19.388  26.001  1.00  0.00     0.124 S 
ATOM     70  O   UNL A   1      43.007  19.495  24.847  1.00  0.00    -0.237 OA
ATOM     71  O   UNL A   1      42.613  18.565  27.103  1.00  0.00    -0.237 OA
ATOM     72  O   UNL A   1      40.704  19.212  25.690  1.00  0.00    -0.744 OA
ENDBRANCH  68  69
ENDBRANCH  40  63
BRANCH  52  73
ATOM     73  C   UNL A   1      48.060  27.082  30.134  1.00  0.00    -0.014 A 
ATOM     74  C   UNL A   1      49.050  27.356  29.175  1.00  0.00     0.010 A 
ATOM     75  C   UNL A   1      48.434  26.516  31.368  1.00  0.00     0.010 A 
ATOM     76  C   UNL A   1      50.392  27.064  29.446  1.00  0.00     0.020 A 
ATOM     77  C   UNL A   1      49.774  26.245  31.649  1.00  0.00     0.020 A 
ATOM     78  C   UNL A   1      50.745  26.515  30.683  1.00  0.00     0.054 A 
BRANCH  78  79
ATOM     79  S   UNL A   1      52.499  26.224  31.043  1.00  0.00     0.124 S 
ATOM     80  O   UNL A   1      53.069  26.106  29.704  1.00  0.00    -0.237 OA
ATOM     81  O   UNL A   1      52.878  27.425  31.784  1.00  0.00    -0.237 OA
ATOM     82  O   UNL A   1      52.491  24.993  31.829  1.00  0.00    -0.744 OA
ENDBRANCH  78  79
ENDBRANCH  52  73
ENDBRANCH  26  27
ENDBRANCH  18  21
ENDBRANCH  16  17
ENDBRANCH   1  16
TORSDOF 15
ENDMDL
MODEL 2
REMARK VINA RESULT:      -9.9      3.526     10.496
REMARK SMILES C[C@H](C(=O)NCCCNC(=O)c1ccc(-c2c3nc(c(-c4ccc(S(=O)(=O)[O-])cc4)c4ccc([nH]4)c(-c4ccc(S(=O)(=O)[O-])cc4)c4nc(c(-c5ccc(S(=O)(=O)[O-])cc5)c5ccc2[nH]5)C=C4)C=C3)cc1)[C@H](C)c1ccoc1
REMARK SMILES IDX 7 1 6 2 5 3 3 4 4 5 2 7 1 8 72 9 73 10 74 11 75 12 78 13
REMARK SMILES IDX 76 14 77 15 8 16 9 17 10 18 11 20 12 21 13 22 71 23 14 24
REMARK SMILES IDX 70 25 15 26 16 27 17 28 64 29 18 30 69 31 63 32 65 33 19 34
REMARK SMILES IDX 68 35 62 36 61 37 20 39 50 40 31 41 49 42 32 43 35 44 48 45
REMARK SMILES IDX 66 46 33 47 34 48 47 50 67 51 36 52 21 53 22 54 30 55 23 56
REMARK SMILES IDX 29 57 24 58 25 59 26 60 27 61 28 62 51 63 52 64 60 65 53 66
REMARK SMILES IDX 59 67 54 68 55 69 56 70 57 71 58 72 37 73 38 74 46 75 39 76
REMARK SMILES IDX 45 77 40 78 41 79 42 80 43 81 44 82
REMARK H PARENT 5 6 9 19 65 38 35 49
REMARK Flexibility Score: inf
ROOT
ATOM      1  C   UNL A   1      41.732  21.667  26.115  1.00  0.00     0.042 C 
ENDROOT
BRANCH   1   2
ATOM      2  C   UNL A   1      42.817  22.048  27.114  1.00  0.00     0.117 C 
BRANCH   2   3
ATOM      3  N   UNL A   1      44.157  22.022  26.550  1.00  0.00    -0.356 N 
ATOM      4  C   UNL A   1      45.156  22.957  26.626  1.00  0.00     0.223 C 
ATOM      5  O   UNL A   1      46.256  22.672  26.157  1.00  0.00    -0.275 OA
ATOM      6  H   UNL A   1      44.381  21.212  26.037  1.00  0.00     0.163 HD
BRANCH   4   7
ATOM      7  C   UNL A   1      44.861  24.281  27.325  1.00  0.00     0.082 C 
ATOM      8  C   UNL A   1      46.053  24.646  28.221  1.00  0.00     0.019 C 
BRANCH   7   9
ATOM      9  C   UNL A   1      44.402  25.440  26.394  1.00  0.00     0.031 C 
ATOM     10  C   UNL A   1      43.752  24.972  25.086  1.00  0.00     0.014 C 
BRANCH   9  11
ATOM     11  C   UNL A   1      45.409  26.531  26.143  1.00  0.00    -0.006 A 
ATOM     12  C   UNL A   1      46.368  26.642  25.095  1.00  0.00     0.046 A 
ATOM     13  C   UNL A   1      45.587  27.665  26.914  1.00  0.00     0.198 A 
ATOM     14  C   UNL A   1      47.070  27.801  25.329  1.00  0.00     0.195 A 
ATOM     15  O   UNL A   1      46.595  28.432  26.432  1.00  0.00    -0.472 OA
ENDBRANCH   9  11
ENDBRANCH   7   9
ENDBRANCH   4   7
ENDBRANCH   2   3
ENDBRANCH   1   2
BRANCH   1  16
ATOM     16  C   UNL A   1      40.355  21.453  26.734  1.00  0.00     0.118 C 
BRANCH  16  17
ATOM     17  N   UNL A   1      39.269  21.934  25.887  1.00  0.00    -0.352 N 
ATOM     18  C   UNL A   1      38.659  23.162  25.841  1.00  0.00     0.251 C 
ATOM     19  H   UNL A   1      38.918  21.272  25.249  1.00  0.00     0.163 HD
ATOM     20  O   UNL A   1      37.645  23.311  25.162  1.00  0.00    -0.269 OA
BRANCH  18  21
ATOM     21  C   UNL A   1      39.202  24.297  26.619  1.00  0.00     0.039 A 
ATOM     22  C   UNL A   1      40.081  25.190  25.998  1.00  0.00     0.014 A 
ATOM     23  C   UNL A   1      38.856  24.471  27.960  1.00  0.00     0.014 A 
ATOM     24  C   UNL A   1      40.552  26.302  26.700  1.00  0.00     0.010 A 
ATOM     25  C   UNL A   1      39.266  25.616  28.634  1.00  0.00     0.010 A 
ATOM     26  C   UNL A   1      40.118  26.543  28.012  1.00  0.00    -0.014 A 
BRANCH  26  27
ATOM     27  C   UNL A   1      40.538  27.743  28.779  1.00  0.00     0.031 A 
ATOM     28  C   UNL A   1      41.833  27.720  29.542  1.00  0.00     0.074 A 
ATOM     29  C   UNL A   1      39.707  28.797  28.889  1.00  0.00     0.049 A 
ATOM     30  N   UNL A   1      42.290  28.573  30.422  1.00  0.00    -0.248 NA
ATOM     31  C   UNL A   1      42.713  26.563  29.308  1.00  0.00     0.031 C 
ATOM     32  C   UNL A   1      38.411  28.930  28.221  1.00  0.00     0.029 A 
ATOM     33  N   UNL A   1      39.817  29.945  29.634  1.00  0.00    -0.354 N 
ATOM     34  C   UNL A   1      43.490  28.036  30.876  1.00  0.00     0.074 A 
ATOM     35  C   UNL A   1      43.669  26.769  30.200  1.00  0.00     0.031 C 
ATOM     36  C   UNL A   1      37.848  30.093  28.584  1.00  0.00     0.029 A 
ATOM     37  C   UNL A   1      38.717  30.765  29.548  1.00  0.00     0.049 A 
ATOM     38  H   UNL A   1      40.609  30.161  30.178  1.00  0.00     0.167 HD
ATOM     39  C   UNL A   1      44.366  28.556  31.769  1.00  0.00     0.031 A 
ATOM     40  C   UNL A   1      38.424  31.914  30.188  1.00  0.00     0.031 A 
ATOM     41  C   UNL A   1      44.188  29.822  32.426  1.00  0.00     0.049 A 
ATOM     42  C   UNL A   1      39.411  32.480  31.170  1.00  0.00     0.074 A 
ATOM     43  C   UNL A   1      45.040  30.461  33.309  1.00  0.00     0.029 A 
ATOM     44  N   UNL A   1      43.081  30.643  32.270  1.00  0.00    -0.354 N 
ATOM     45  N   UNL A   1      40.560  31.980  31.559  1.00  0.00    -0.248 NA
ATOM     46  C   UNL A   1      39.070  33.767  31.792  1.00  0.00     0.031 C 
ATOM     47  C   UNL A   1      44.430  31.651  33.719  1.00  0.00     0.029 A 
ATOM     48  C   UNL A   1      43.222  31.779  33.050  1.00  0.00     0.049 A 
ATOM     49  H   UNL A   1      42.310  30.449  31.691  1.00  0.00     0.167 HD
ATOM     50  C   UNL A   1      41.095  32.907  32.448  1.00  0.00     0.074 A 
ATOM     51  C   UNL A   1      40.144  33.997  32.539  1.00  0.00     0.031 C 
ATOM     52  C   UNL A   1      42.270  32.861  33.120  1.00  0.00     0.031 A 
BRANCH  39  53
ATOM     53  C   UNL A   1      45.582  27.730  32.097  1.00  0.00    -0.014 A 
ATOM     54  C   UNL A   1      45.581  26.823  33.173  1.00  0.00     0.010 A 
ATOM     55  C   UNL A   1      46.749  27.869  31.322  1.00  0.00     0.010 A 
ATOM     56  C   UNL A   1      46.744  26.127  33.513  1.00  0.00     0.020 A 
ATOM     57  C   UNL A   1      47.904  27.151  31.639  1.00  0.00     0.020 A 
ATOM     58  C   UNL A   1      47.903  26.306  32.751  1.00  0.00     0.054 A 
BRANCH  58  59
ATOM     59  S   UNL A   1      49.407  25.412  33.229  1.00  0.00     0.124 S 
ATOM     60  O   UNL A   1      50.080  26.394  34.075  1.00  0.00    -0.237 OA
ATOM     61  O   UNL A   1      48.880  24.241  33.924  1.00  0.00    -0.237 OA
ATOM     62  O   UNL A   1      50.063  25.134  31.954  1.00  0.00    -0.744 OA
ENDBRANCH  58  59
ENDBRANCH  39  53
BRANCH  40  63
ATOM     63  C   UNL A   1      37.139  32.602  29.899  1.00  0.00    -0.014 A 
ATOM     64  C   UNL A   1      36.042  32.452  30.765  1.00  0.00     0.010 A 
ATOM     65  C   UNL A   1      37.025  33.466  28.792  1.00  0.00     0.010 A 
ATOM     66  C   UNL A   1      34.856  33.155  30.533  1.00  0.00     0.020 A 
ATOM     67  C   UNL A   1      35.848  34.187  28.572  1.00  0.00     0.020 A 
ATOM     68  C   UNL A   1      34.770  34.026  29.443  1.00  0.00     0.054 A 
BRANCH  68  69
ATOM     69  S   UNL A   1      33.256  35.000  29.219  1.00  0.00     0.124 S 
ATOM     70  O   UNL A   1      33.785  36.290  28.785  1.00  0.00    -0.237 OA
ATOM     71  O   UNL A   1      32.536  34.237  28.203  1.00  0.00    -0.237 OA
ATOM     72  O   UNL A   1      32.643  34.988  30.545  1.00  0.00    -0.744 OA
ENDBRANCH  68  69
ENDBRANCH  40  63
BRANCH  52  73
ATOM     73  C   UNL A   1      42.635  34.041  33.978  1.00  0.00    -0.014 A 
ATOM     74  C   UNL A   1      42.324  34.072  35.348  1.00  0.00     0.010 A 
ATOM     75  C   UNL A   1      43.391  35.089  33.419  1.00  0.00     0.010 A 
ATOM     76  C   UNL A   1      42.759  35.137  36.144  1.00  0.00     0.020 A 
ATOM     77  C   UNL A   1      43.845  36.142  34.216  1.00  0.00     0.020 A 
ATOM     78  C   UNL A   1      43.521  36.162  35.574  1.00  0.00     0.054 A 
BRANCH  78  79
ATOM     79  S   UNL A   1      44.144  37.489  36.643  1.00  0.00     0.124 S 
ATOM     80  O   UNL A   1      45.432  36.953  37.074  1.00  0.00    -0.237 OA
ATOM     81  O   UNL A   1      44.210  38.630  35.733  1.00  0.00    -0.237 OA
ATOM     82  O   UNL A   1      43.130  37.594  37.690  1.00  0.00    -0.744 OA
ENDBRANCH  78  79
ENDBRANCH  52  73
ENDBRANCH  26  27
ENDBRANCH  18  21
ENDBRANCH  16  17
ENDBRANCH   1  16
TORSDOF 15
ENDMDL
MODEL 3
REMARK VINA RESULT:      -9.8      2.777      9.546
REMARK SMILES C[C@H](C(=O)NCCCNC(=O)c1ccc(-c2c3nc(c(-c4ccc(S(=O)(=O)[O-])cc4)c4ccc([nH]4)c(-c4ccc(S(=O)(=O)[O-])cc4)c4nc(c(-c5ccc(S(=O)(=O)[O-])cc5)c5ccc2[nH]5)C=C4)C=C3)cc1)[C@H](C)c1ccoc1
REMARK SMILES IDX 7 1 6 2 5 3 3 4 4 5 2 7 1 8 72 9 73 10 74 11 75 12 78 13
REMARK SMILES IDX 76 14 77 15 8 16 9 17 10 18 11 20 12 21 13 22 71 23 14 24
REMARK SMILES IDX 70 25 15 26 16 27 17 28 64 29 18 30 69 31 63 32 65 33 19 34
REMARK SMILES IDX 68 35 62 36 61 37 20 39 50 40 31 41 49 42 32 43 35 44 48 45
REMARK SMILES IDX 66 46 33 47 34 48 47 50 67 51 36 52 21 53 22 54 30 55 23 56
REMARK SMILES IDX 29 57 24 58 25 59 26 60 27 61 28 62 51 63 52 64 60 65 53 66
REMARK SMILES IDX 59 67 54 68 55 69 56 70 57 71 58 72 37 73 38 74 46 75 39 76
REMARK SMILES IDX 45 77 40 78 41 79 42 80 43 81 44 82
REMARK H PARENT 5 6 9 19 65 38 35 49
REMARK Flexibility Score: inf
ROOT
ATOM      1  C   UNL A   1      35.565  23.675  25.735  1.00  0.00     0.042 C 
ENDROOT
BRANCH   1   2
ATOM      2  C   UNL A   1      34.682  24.886  25.464  1.00  0.00     0.117 C 
BRANCH   2   3
ATOM      3  N   UNL A   1      34.167  24.934  24.105  1.00  0.00    -0.356 N 
ATOM      4  C   UNL A   1      33.562  25.966  23.436  1.00  0.00     0.223 C 
ATOM      5  O   UNL A   1      33.301  25.811  22.244  1.00  0.00    -0.275 OA
ATOM      6  H   UNL A   1      34.267  24.102  23.588  1.00  0.00     0.163 HD
BRANCH   4   7
ATOM      7  C   UNL A   1      33.285  27.262  24.192  1.00  0.00     0.082 C 
ATOM      8  C   UNL A   1      33.862  28.437  23.392  1.00  0.00     0.019 C 
BRANCH   7   9
ATOM      9  C   UNL A   1      31.809  27.473  24.636  1.00  0.00     0.031 C 
ATOM     10  C   UNL A   1      31.097  26.188  25.077  1.00  0.00     0.014 C 
BRANCH   9  11
ATOM     11  C   UNL A   1      30.944  28.283  23.706  1.00  0.00    -0.006 A 
ATOM     12  C   UNL A   1      30.456  29.612  23.865  1.00  0.00     0.046 A 
ATOM     13  C   UNL A   1      30.453  27.864  22.483  1.00  0.00     0.198 A 
ATOM     14  C   UNL A   1      29.685  29.881  22.758  1.00  0.00     0.195 A 
ATOM     15  O   UNL A   1      29.684  28.823  21.910  1.00  0.00    -0.472 OA
ENDBRANCH   9  11
ENDBRANCH   7   9
ENDBRANCH   4   7
ENDBRANCH   2   3
ENDBRANCH   1   2
BRANCH   1  16
ATOM     16  C   UNL A   1      36.892  23.685  24.985  1.00  0.00     0.118 C 
BRANCH  16  17
ATOM     17  N   UNL A   1      37.832  22.684  25.478  1.00  0.00    -0.352 N 
ATOM     18  C   UNL A   1      38.981  22.834  26.215  1.00  0.00     0.251 C 
ATOM     19  H   UNL A   1      37.608  21.755  25.244  1.00  0.00     0.163 HD
ATOM     20  O   UNL A   1      39.720  21.868  26.388  1.00  0.00    -0.269 OA
BRANCH  18  21
ATOM     21  C   UNL A   1      39.338  24.152  26.781  1.00  0.00     0.039 A 
ATOM     22  C   UNL A   1      38.929  24.470  28.080  1.00  0.00     0.014 A 
ATOM     23  C   UNL A   1      40.064  25.077  26.029  1.00  0.00     0.014 A 
ATOM     24  C   UNL A   1      39.314  25.685  28.653  1.00  0.00     0.010 A 
ATOM     25  C   UNL A   1      40.508  26.253  26.624  1.00  0.00     0.010 A 
ATOM     26  C   UNL A   1      40.138  26.570  27.941  1.00  0.00    -0.014 A 
BRANCH  26  27
ATOM     27  C   UNL A   1      40.627  27.843  28.527  1.00  0.00     0.031 A 
ATOM     28  C   UNL A   1      42.019  27.912  29.091  1.00  0.00     0.074 A 
ATOM     29  C   UNL A   1      39.789  28.888  28.664  1.00  0.00     0.049 A 
ATOM     30  N   UNL A   1      42.573  28.851  29.814  1.00  0.00    -0.248 NA
ATOM     31  C   UNL A   1      42.890  26.754  28.834  1.00  0.00     0.031 C 
ATOM     32  C   UNL A   1      38.407  28.936  28.184  1.00  0.00     0.029 A 
ATOM     33  N   UNL A   1      39.971  30.102  29.280  1.00  0.00    -0.354 N 
ATOM     34  C   UNL A   1      43.841  28.379  30.134  1.00  0.00     0.074 A 
ATOM     35  C   UNL A   1      43.959  27.058  29.555  1.00  0.00     0.031 C 
ATOM     36  C   UNL A   1      37.867  30.119  28.521  1.00  0.00     0.029 A 
ATOM     37  C   UNL A   1      38.845  30.891  29.283  1.00  0.00     0.049 A 
ATOM     38  H   UNL A   1      40.826  30.381  29.680  1.00  0.00     0.167 HD
ATOM     39  C   UNL A   1      44.821  28.994  30.839  1.00  0.00     0.031 A 
ATOM     40  C   UNL A   1      38.614  32.089  29.854  1.00  0.00     0.031 A 
ATOM     41  C   UNL A   1      44.701  30.312  31.399  1.00  0.00     0.049 A 
ATOM     42  C   UNL A   1      39.715  32.761  30.627  1.00  0.00     0.074 A 
ATOM     43  C   UNL A   1      45.653  31.045  32.087  1.00  0.00     0.029 A 
ATOM     44  N   UNL A   1      43.559  31.097  31.335  1.00  0.00    -0.354 N 
ATOM     45  N   UNL A   1      40.922  32.319  30.886  1.00  0.00    -0.248 NA
ATOM     46  C   UNL A   1      39.428  34.094  31.174  1.00  0.00     0.031 C 
ATOM     47  C   UNL A   1      45.072  32.257  32.474  1.00  0.00     0.029 A 
ATOM     48  C   UNL A   1      43.777  32.302  31.981  1.00  0.00     0.049 A 
ATOM     49  H   UNL A   1      42.719  30.836  30.894  1.00  0.00     0.167 HD
ATOM     50  C   UNL A   1      41.552  33.333  31.600  1.00  0.00     0.074 A 
ATOM     51  C   UNL A   1      40.591  34.410  31.732  1.00  0.00     0.031 C 
ATOM     52  C   UNL A   1      42.813  33.369  32.093  1.00  0.00     0.031 A 
BRANCH  39  53
ATOM     53  C   UNL A   1      46.096  28.222  31.056  1.00  0.00    -0.014 A 
ATOM     54  C   UNL A   1      47.218  28.417  30.229  1.00  0.00     0.010 A 
ATOM     55  C   UNL A   1      46.171  27.280  32.098  1.00  0.00     0.010 A 
ATOM     56  C   UNL A   1      48.363  27.634  30.394  1.00  0.00     0.020 A 
ATOM     57  C   UNL A   1      47.326  26.516  32.286  1.00  0.00     0.020 A 
ATOM     58  C   UNL A   1      48.404  26.678  31.414  1.00  0.00     0.054 A 
BRANCH  58  59
ATOM     59  S   UNL A   1      49.891  25.654  31.589  1.00  0.00     0.124 S 
ATOM     60  O   UNL A   1      49.524  24.786  32.705  1.00  0.00    -0.237 OA
ATOM     61  O   UNL A   1      49.987  24.999  30.288  1.00  0.00    -0.237 OA
ATOM     62  O   UNL A   1      50.946  26.624  31.875  1.00  0.00    -0.744 OA
ENDBRANCH  58  59
ENDBRANCH  39  53
BRANCH  40  63
ATOM     63  C   UNL A   1      37.280  32.726  29.697  1.00  0.00    -0.014 A 
ATOM     64  C   UNL A   1      36.335  32.663  30.736  1.00  0.00     0.010 A 
ATOM     65  C   UNL A   1      36.971  33.457  28.534  1.00  0.00     0.010 A 
ATOM     66  C   UNL A   1      35.108  33.322  30.618  1.00  0.00     0.020 A 
ATOM     67  C   UNL A   1      35.754  34.136  28.423  1.00  0.00     0.020 A 
ATOM     68  C   UNL A   1      34.829  34.062  29.465  1.00  0.00     0.054 A 
BRANCH  68  69
ATOM     69  S   UNL A   1      33.271  34.988  29.377  1.00  0.00     0.124 S 
ATOM     70  O   UNL A   1      32.508  34.209  28.405  1.00  0.00    -0.237 OA
ATOM     71  O   UNL A   1      32.789  34.928  30.754  1.00  0.00    -0.237 OA
ATOM     72  O   UNL A   1      33.687  36.315  28.930  1.00  0.00    -0.744 OA
ENDBRANCH  68  69
ENDBRANCH  40  63
BRANCH  52  73
ATOM     73  C   UNL A   1      43.262  34.630  32.780  1.00  0.00    -0.014 A 
ATOM     74  C   UNL A   1      43.807  35.703  32.054  1.00  0.00     0.010 A 
ATOM     75  C   UNL A   1      43.041  34.776  34.162  1.00  0.00     0.010 A 
ATOM     76  C   UNL A   1      44.128  36.900  32.703  1.00  0.00     0.020 A 
ATOM     77  C   UNL A   1      43.339  35.977  34.808  1.00  0.00     0.020 A 
ATOM     78  C   UNL A   1      43.887  37.031  34.075  1.00  0.00     0.054 A 
BRANCH  78  79
ATOM     79  S   UNL A   1      44.234  38.621  34.877  1.00  0.00     0.124 S 
ATOM     80  O   UNL A   1      45.659  38.791  34.613  1.00  0.00    -0.237 OA
ATOM     81  O   UNL A   1      43.348  39.539  34.165  1.00  0.00    -0.237 OA
ATOM     82  O   UNL A   1      43.881  38.386  36.275  1.00  0.00    -0.744 OA
ENDBRANCH  78  79
ENDBRANCH  52  73
ENDBRANCH  26  27
ENDBRANCH  18  21
ENDBRANCH  16  17
ENDBRANCH   1  16
TORSDOF 15
ENDMDL
