MODEL 1
REMARK VINA RESULT:     -12.4      0.000      0.000
REMARK SMILES C[C@@H](Oc1ccc(-c2ccccc2)cc1)C(=O)N1CCC[C@H](C(=O)NCCCNC(=O)c2ccc(-c3c4nc(c(-c5ccc(S(=O)(=O)[O-])cc5)c5ccc([nH]5)c(-c5ccc(S(=O)(=O)[O-])cc5)c5nc(c(-c6ccc(S(=O)(=O)[O-])cc6)c6ccc3[nH]6)C=C5)C=C4)cc2)C1
REMARK SMILES IDX 26 1 25 2 23 3 24 4 22 6 18 7 19 8 92 9 20 10 21 11 16 12
REMARK SMILES IDX 17 13 2 14 1 15 3 16 4 17 5 18 15 19 6 20 14 21 7 22 8 23
REMARK SMILES IDX 9 24 13 25 10 26 12 27 11 28 27 29 28 30 29 31 30 32 31 34
REMARK SMILES IDX 32 35 33 36 91 37 34 38 90 39 35 40 36 41 37 42 84 43 38 44
REMARK SMILES IDX 89 45 83 46 85 47 39 48 88 49 82 50 81 51 40 53 70 54 51 55
REMARK SMILES IDX 69 56 52 57 55 58 68 59 86 60 53 61 54 62 67 64 87 65 56 66
REMARK SMILES IDX 41 67 42 68 50 69 43 70 49 71 44 72 45 73 46 74 47 75 48 76
REMARK SMILES IDX 71 77 72 78 80 79 73 80 79 81 74 82 75 83 76 84 77 85 78 86
REMARK SMILES IDX 57 87 58 88 66 89 59 90 65 91 60 92 61 93 62 94 63 95 64 96
REMARK H PARENT 25 5 29 33 85 52 55 63
REMARK Flexibility Score: inf
ROOT
ATOM      1  C   UNL A   1      38.541  21.938  25.770  1.00  0.00     0.117 C 
ENDROOT
BRANCH   1   2
ATOM      2  N   UNL A   1      37.328  22.552  26.262  1.00  0.00    -0.356 N 
ATOM      3  C   UNL A   1      36.030  22.387  25.904  1.00  0.00     0.224 C 
ATOM      4  O   UNL A   1      35.193  22.900  26.660  1.00  0.00    -0.275 OA
ATOM      5  H   UNL A   1      37.470  23.207  26.983  1.00  0.00     0.163 HD
BRANCH   3   6
ATOM      6  C   UNL A   1      35.541  21.628  24.661  1.00  0.00     0.098 C 
ATOM      7  N   UNL A   1      33.055  21.587  24.512  1.00  0.00    -0.339 N 
ATOM      8  C   UNL A   1      33.009  20.126  24.472  1.00  0.00     0.119 C 
ATOM      9  C   UNL A   1      34.279  22.187  24.001  1.00  0.00     0.133 C 
ATOM     10  C   UNL A   1      34.224  19.451  25.103  1.00  0.00     0.022 C 
ATOM     11  C   UNL A   1      35.559  20.103  24.765  1.00  0.00     0.017 C 
BRANCH   7  12
ATOM     12  C   UNL A   1      31.948  22.283  25.000  1.00  0.00     0.263 C 
ATOM     13  O   UNL A   1      31.216  21.777  25.859  1.00  0.00    -0.271 OA
BRANCH  12  14
ATOM     14  C   UNL A   1      31.564  23.651  24.411  1.00  0.00     0.259 C 
ATOM     15  C   UNL A   1      30.518  23.657  23.302  1.00  0.00     0.064 C 
BRANCH  14  16
ATOM     16  O   UNL A   1      31.129  24.398  25.555  1.00  0.00    -0.481 OA
BRANCH  16  17
ATOM     17  C   UNL A   1      31.778  25.587  25.696  1.00  0.00     0.120 A 
ATOM     18  C   UNL A   1      33.167  25.663  25.675  1.00  0.00     0.047 A 
ATOM     19  C   UNL A   1      31.008  26.688  26.038  1.00  0.00     0.047 A 
ATOM     20  C   UNL A   1      33.795  26.862  26.038  1.00  0.00     0.012 A 
ATOM     21  C   UNL A   1      31.633  27.878  26.386  1.00  0.00     0.012 A 
ATOM     22  C   UNL A   1      33.035  27.976  26.435  1.00  0.00    -0.018 A 
BRANCH  22  23
ATOM     23  C   UNL A   1      33.650  29.197  26.976  1.00  0.00    -0.018 A 
ATOM     24  C   UNL A   1      35.028  29.303  27.211  1.00  0.00     0.009 A 
ATOM     25  C   UNL A   1      32.843  30.318  27.250  1.00  0.00     0.009 A 
ATOM     26  C   UNL A   1      35.580  30.500  27.677  1.00  0.00     0.001 A 
ATOM     27  C   UNL A   1      33.392  31.514  27.712  1.00  0.00     0.001 A 
ATOM     28  C   UNL A   1      34.764  31.606  27.920  1.00  0.00     0.000 A 
ENDBRANCH  22  23
ENDBRANCH  16  17
ENDBRANCH  14  16
ENDBRANCH  12  14
ENDBRANCH   7  12
ENDBRANCH   3   6
ENDBRANCH   1   2
BRANCH   1  29
ATOM     29  C   UNL A   1      39.690  21.945  26.761  1.00  0.00     0.042 C 
BRANCH  29  30
ATOM     30  C   UNL A   1      40.088  23.340  27.204  1.00  0.00     0.118 C 
BRANCH  30  31
ATOM     31  N   UNL A   1      40.719  24.113  26.136  1.00  0.00    -0.352 N 
ATOM     32  C   UNL A   1      41.121  25.427  26.095  1.00  0.00     0.251 C 
ATOM     33  H   UNL A   1      40.885  23.607  25.308  1.00  0.00     0.163 HD
ATOM     34  O   UNL A   1      41.519  25.904  25.034  1.00  0.00    -0.269 OA
BRANCH  32  35
ATOM     35  C   UNL A   1      41.050  26.274  27.304  1.00  0.00     0.039 A 
ATOM     36  C   UNL A   1      42.025  27.255  27.508  1.00  0.00     0.014 A 
ATOM     37  C   UNL A   1      40.023  26.113  28.234  1.00  0.00     0.014 A 
ATOM     38  C   UNL A   1      41.921  28.120  28.600  1.00  0.00     0.010 A 
ATOM     39  C   UNL A   1      39.851  27.049  29.245  1.00  0.00     0.010 A 
ATOM     40  C   UNL A   1      40.808  28.053  29.452  1.00  0.00    -0.014 A 
BRANCH  40  41
ATOM     41  C   UNL A   1      40.627  28.993  30.587  1.00  0.00     0.031 A 
ATOM     42  C   UNL A   1      41.482  28.843  31.821  1.00  0.00     0.074 A 
ATOM     43  C   UNL A   1      39.647  29.919  30.546  1.00  0.00     0.049 A 
ATOM     44  N   UNL A   1      41.412  29.488  32.956  1.00  0.00    -0.248 NA
ATOM     45  C   UNL A   1      42.526  27.804  31.790  1.00  0.00     0.031 C 
ATOM     46  C   UNL A   1      38.721  30.130  29.430  1.00  0.00     0.029 A 
ATOM     47  N   UNL A   1      39.263  30.856  31.473  1.00  0.00    -0.354 N 
ATOM     48  C   UNL A   1      42.368  28.906  33.782  1.00  0.00     0.074 A 
ATOM     49  C   UNL A   1      42.970  27.823  33.037  1.00  0.00     0.031 C 
ATOM     50  C   UNL A   1      37.904  31.156  29.722  1.00  0.00     0.029 A 
ATOM     51  C   UNL A   1      38.215  31.646  31.060  1.00  0.00     0.049 A 
ATOM     52  H   UNL A   1      39.696  30.953  32.352  1.00  0.00     0.167 HD
ATOM     53  C   UNL A   1      42.730  29.254  35.039  1.00  0.00     0.031 A 
ATOM     54  C   UNL A   1      37.576  32.649  31.691  1.00  0.00     0.031 A 
ATOM     55  C   UNL A   1      42.165  30.365  35.753  1.00  0.00     0.049 A 
ATOM     56  C   UNL A   1      38.017  33.036  33.077  1.00  0.00     0.074 A 
ATOM     57  C   UNL A   1      42.524  30.862  36.993  1.00  0.00     0.029 A 
ATOM     58  N   UNL A   1      41.128  31.158  35.286  1.00  0.00    -0.354 N 
ATOM     59  N   UNL A   1      38.974  32.520  33.811  1.00  0.00    -0.248 NA
ATOM     60  C   UNL A   1      37.299  34.146  33.716  1.00  0.00     0.031 C 
ATOM     61  C   UNL A   1      41.670  31.927  37.298  1.00  0.00     0.029 A 
ATOM     62  C   UNL A   1      40.818  32.128  36.223  1.00  0.00     0.049 A 
ATOM     63  H   UNL A   1      40.679  31.049  34.417  1.00  0.00     0.167 HD
ATOM     64  C   UNL A   1      38.994  33.265  34.984  1.00  0.00     0.074 A 
ATOM     65  C   UNL A   1      37.962  34.274  34.856  1.00  0.00     0.031 C 
ATOM     66  C   UNL A   1      39.793  33.128  36.071  1.00  0.00     0.031 A 
BRANCH  53  67
ATOM     67  C   UNL A   1      43.789  28.428  35.720  1.00  0.00    -0.014 A 
ATOM     68  C   UNL A   1      45.153  28.752  35.607  1.00  0.00     0.010 A 
ATOM     69  C   UNL A   1      43.409  27.336  36.521  1.00  0.00     0.010 A 
ATOM     70  C   UNL A   1      46.121  27.976  36.252  1.00  0.00     0.020 A 
ATOM     71  C   UNL A   1      44.372  26.576  37.193  1.00  0.00     0.020 A 
ATOM     72  C   UNL A   1      45.722  26.892  37.041  1.00  0.00     0.054 A 
BRANCH  72  73
ATOM     73  S   UNL A   1      46.998  25.926  37.896  1.00  0.00     0.124 S 
ATOM     74  O   UNL A   1      47.139  26.657  39.152  1.00  0.00    -0.237 OA
ATOM     75  O   UNL A   1      46.383  24.605  38.003  1.00  0.00    -0.237 OA
ATOM     76  O   UNL A   1      48.149  26.002  36.999  1.00  0.00    -0.744 OA
ENDBRANCH  72  73
ENDBRANCH  53  67
BRANCH  54  77
ATOM     77  C   UNL A   1      36.468  33.381  31.014  1.00  0.00    -0.014 A 
ATOM     78  C   UNL A   1      36.727  34.160  29.872  1.00  0.00     0.010 A 
ATOM     79  C   UNL A   1      35.153  33.309  31.507  1.00  0.00     0.010 A 
ATOM     80  C   UNL A   1      35.699  34.879  29.256  1.00  0.00     0.020 A 
ATOM     81  C   UNL A   1      34.117  34.004  30.877  1.00  0.00     0.020 A 
ATOM     82  C   UNL A   1      34.400  34.798  29.763  1.00  0.00     0.054 A 
BRANCH  82  83
ATOM     83  S   UNL A   1      33.076  35.717  28.930  1.00  0.00     0.124 S 
ATOM     84  O   UNL A   1      32.416  34.667  28.161  1.00  0.00    -0.237 OA
ATOM     85  O   UNL A   1      32.312  36.259  30.051  1.00  0.00    -0.237 OA
ATOM     86  O   UNL A   1      33.798  36.713  28.139  1.00  0.00    -0.744 OA
ENDBRANCH  82  83
ENDBRANCH  54  77
BRANCH  66  87
ATOM     87  C   UNL A   1      39.616  34.117  37.189  1.00  0.00    -0.014 A 
ATOM     88  C   UNL A   1      39.014  33.745  38.403  1.00  0.00     0.010 A 
ATOM     89  C   UNL A   1      40.116  35.424  37.041  1.00  0.00     0.010 A 
ATOM     90  C   UNL A   1      38.889  34.672  39.440  1.00  0.00     0.020 A 
ATOM     91  C   UNL A   1      40.018  36.345  38.086  1.00  0.00     0.020 A 
ATOM     92  C   UNL A   1      39.392  35.967  39.275  1.00  0.00     0.054 A 
BRANCH  92  93
ATOM     93  S   UNL A   1      39.260  37.138  40.652  1.00  0.00     0.124 S 
ATOM     94  O   UNL A   1      38.393  38.171  40.090  1.00  0.00    -0.237 OA
ATOM     95  O   UNL A   1      38.664  36.324  41.710  1.00  0.00    -0.237 OA
ATOM     96  O   UNL A   1      40.641  37.547  40.893  1.00  0.00    -0.744 OA
ENDBRANCH  92  93
ENDBRANCH  66  87
ENDBRANCH  40  41
ENDBRANCH  32  35
ENDBRANCH  30  31
ENDBRANCH  29  30
ENDBRANCH   1  29
TORSDOF 18
ENDMDL
MODEL 2
REMARK VINA RESULT:     -12.0      6.565     12.231
REMARK SMILES C[C@@H](Oc1ccc(-c2ccccc2)cc1)C(=O)N1CCC[C@H](C(=O)NCCCNC(=O)c2ccc(-c3c4nc(c(-c5ccc(S(=O)(=O)[O-])cc5)c5ccc([nH]5)c(-c5ccc(S(=O)(=O)[O-])cc5)c5nc(c(-c6ccc(S(=O)(=O)[O-])cc6)c6ccc3[nH]6)C=C5)C=C4)cc2)C1
REMARK SMILES IDX 26 1 25 2 23 3 24 4 22 6 18 7 19 8 92 9 20 10 21 11 16 12
REMARK SMILES IDX 17 13 2 14 1 15 3 16 4 17 5 18 15 19 6 20 14 21 7 22 8 23
REMARK SMILES IDX 9 24 13 25 10 26 12 27 11 28 27 29 28 30 29 31 30 32 31 34
REMARK SMILES IDX 32 35 33 36 91 37 34 38 90 39 35 40 36 41 37 42 84 43 38 44
REMARK SMILES IDX 89 45 83 46 85 47 39 48 88 49 82 50 81 51 40 53 70 54 51 55
REMARK SMILES IDX 69 56 52 57 55 58 68 59 86 60 53 61 54 62 67 64 87 65 56 66
REMARK SMILES IDX 41 67 42 68 50 69 43 70 49 71 44 72 45 73 46 74 47 75 48 76
REMARK SMILES IDX 71 77 72 78 80 79 73 80 79 81 74 82 75 83 76 84 77 85 78 86
REMARK SMILES IDX 57 87 58 88 66 89 59 90 65 91 60 92 61 93 62 94 63 95 64 96
REMARK H PARENT 25 5 29 33 85 52 55 63
REMARK Flexibility Score: inf
ROOT
ATOM      1  C   UNL A   1      33.743  30.002  27.060  1.00  0.00     0.117 C 
ENDROOT
BRANCH   1   2
ATOM      2  N   UNL A   1      33.950  29.648  25.674  1.00  0.00    -0.356 N 
ATOM      3  C   UNL A   1      33.077  29.292  24.698  1.00  0.00     0.224 C 
ATOM      4  O   UNL A   1      33.537  29.256  23.549  1.00  0.00    -0.275 OA
ATOM      5  H   UNL A   1      34.891  29.667  25.388  1.00  0.00     0.163 HD
BRANCH   3   6
ATOM      6  C   UNL A   1      31.597  28.943  24.916  1.00  0.00     0.098 C 
ATOM      7  N   UNL A   1      30.849  27.089  23.430  1.00  0.00    -0.339 N 
ATOM      8  C   UNL A   1      29.775  27.893  22.847  1.00  0.00     0.119 C 
ATOM      9  C   UNL A   1      31.243  27.460  24.781  1.00  0.00     0.133 C 
ATOM     10  C   UNL A   1      30.015  29.398  22.925  1.00  0.00     0.022 C 
ATOM     11  C   UNL A   1      30.589  29.881  24.253  1.00  0.00     0.017 C 
BRANCH   7  12
ATOM     12  C   UNL A   1      31.387  26.041  22.682  1.00  0.00     0.263 C 
ATOM     13  O   UNL A   1      31.486  26.131  21.452  1.00  0.00    -0.271 OA
BRANCH  12  14
ATOM     14  C   UNL A   1      31.780  24.718  23.362  1.00  0.00     0.259 C 
ATOM     15  C   UNL A   1      30.741  23.602  23.354  1.00  0.00     0.064 C 
BRANCH  14  16
ATOM     16  O   UNL A   1      32.979  24.332  22.676  1.00  0.00    -0.481 OA
BRANCH  16  17
ATOM     17  C   UNL A   1      33.968  23.924  23.519  1.00  0.00     0.120 A 
ATOM     18  C   UNL A   1      34.109  24.469  24.791  1.00  0.00     0.047 A 
ATOM     19  C   UNL A   1      34.933  23.078  22.994  1.00  0.00     0.047 A 
ATOM     20  C   UNL A   1      35.260  24.183  25.537  1.00  0.00     0.012 A 
ATOM     21  C   UNL A   1      36.068  22.788  23.740  1.00  0.00     0.012 A 
ATOM     22  C   UNL A   1      36.273  23.367  25.006  1.00  0.00    -0.018 A 
BRANCH  22  23
ATOM     23  C   UNL A   1      37.564  23.171  25.682  1.00  0.00    -0.018 A 
ATOM     24  C   UNL A   1      38.161  24.170  26.464  1.00  0.00     0.009 A 
ATOM     25  C   UNL A   1      38.225  21.933  25.571  1.00  0.00     0.009 A 
ATOM     26  C   UNL A   1      39.364  23.925  27.134  1.00  0.00     0.001 A 
ATOM     27  C   UNL A   1      39.423  21.686  26.241  1.00  0.00     0.001 A 
ATOM     28  C   UNL A   1      39.990  22.683  27.028  1.00  0.00     0.000 A 
ENDBRANCH  22  23
ENDBRANCH  16  17
ENDBRANCH  14  16
ENDBRANCH  12  14
ENDBRANCH   7  12
ENDBRANCH   3   6
ENDBRANCH   1   2
BRANCH   1  29
ATOM     29  C   UNL A   1      34.892  30.770  27.686  1.00  0.00     0.042 C 
BRANCH  29  30
ATOM     30  C   UNL A   1      36.035  29.878  28.131  1.00  0.00     0.118 C 
BRANCH  30  31
ATOM     31  N   UNL A   1      36.053  29.662  29.576  1.00  0.00    -0.352 N 
ATOM     32  C   UNL A   1      37.049  29.197  30.403  1.00  0.00     0.251 C 
ATOM     33  H   UNL A   1      35.211  29.887  30.034  1.00  0.00     0.163 HD
ATOM     34  O   UNL A   1      36.797  28.974  31.585  1.00  0.00    -0.269 OA
BRANCH  32  35
ATOM     35  C   UNL A   1      38.405  28.938  29.876  1.00  0.00     0.039 A 
ATOM     36  C   UNL A   1      38.739  29.393  28.597  1.00  0.00     0.014 A 
ATOM     37  C   UNL A   1      39.353  28.256  30.639  1.00  0.00     0.014 A 
ATOM     38  C   UNL A   1      40.042  29.232  28.122  1.00  0.00     0.010 A 
ATOM     39  C   UNL A   1      40.675  28.208  30.219  1.00  0.00     0.010 A 
ATOM     40  C   UNL A   1      41.033  28.678  28.947  1.00  0.00    -0.014 A 
BRANCH  40  41
ATOM     41  C   UNL A   1      42.444  28.546  28.504  1.00  0.00     0.031 A 
ATOM     42  C   UNL A   1      43.382  29.720  28.646  1.00  0.00     0.074 A 
ATOM     43  C   UNL A   1      42.858  27.413  27.901  1.00  0.00     0.049 A 
ATOM     44  N   UNL A   1      44.614  29.846  28.227  1.00  0.00    -0.248 NA
ATOM     45  C   UNL A   1      42.851  30.924  29.310  1.00  0.00     0.031 C 
ATOM     46  C   UNL A   1      42.033  26.227  27.658  1.00  0.00     0.029 A 
ATOM     47  N   UNL A   1      44.081  27.076  27.375  1.00  0.00    -0.354 N 
ATOM     48  C   UNL A   1      44.987  31.150  28.538  1.00  0.00     0.074 A 
ATOM     49  C   UNL A   1      43.836  31.791  29.133  1.00  0.00     0.031 C 
ATOM     50  C   UNL A   1      42.782  25.281  27.068  1.00  0.00     0.029 A 
ATOM     51  C   UNL A   1      44.125  25.805  26.849  1.00  0.00     0.049 A 
ATOM     52  H   UNL A   1      44.853  27.686  27.374  1.00  0.00     0.167 HD
ATOM     53  C   UNL A   1      46.186  31.754  28.365  1.00  0.00     0.031 A 
ATOM     54  C   UNL A   1      45.134  25.141  26.254  1.00  0.00     0.031 A 
ATOM     55  C   UNL A   1      47.340  31.095  27.822  1.00  0.00     0.049 A 
ATOM     56  C   UNL A   1      46.465  25.825  26.100  1.00  0.00     0.074 A 
ATOM     57  C   UNL A   1      48.627  31.585  27.689  1.00  0.00     0.029 A 
ATOM     58  N   UNL A   1      47.351  29.798  27.330  1.00  0.00    -0.354 N 
ATOM     59  N   UNL A   1      46.818  27.034  26.469  1.00  0.00    -0.248 NA
ATOM     60  C   UNL A   1      47.538  25.053  25.459  1.00  0.00     0.031 C 
ATOM     61  C   UNL A   1      49.406  30.601  27.071  1.00  0.00     0.029 A 
ATOM     62  C   UNL A   1      48.616  29.479  26.871  1.00  0.00     0.049 A 
ATOM     63  H   UNL A   1      46.573  29.194  27.310  1.00  0.00     0.167 HD
ATOM     64  C   UNL A   1      48.162  27.154  26.133  1.00  0.00     0.074 A 
ATOM     65  C   UNL A   1      48.560  25.892  25.544  1.00  0.00     0.031 C 
ATOM     66  C   UNL A   1      48.993  28.213  26.298  1.00  0.00     0.031 A 
BRANCH  53  67
ATOM     67  C   UNL A   1      46.309  33.199  28.771  1.00  0.00    -0.014 A 
ATOM     68  C   UNL A   1      46.010  34.238  27.872  1.00  0.00     0.010 A 
ATOM     69  C   UNL A   1      46.689  33.522  30.087  1.00  0.00     0.010 A 
ATOM     70  C   UNL A   1      46.125  35.574  28.269  1.00  0.00     0.020 A 
ATOM     71  C   UNL A   1      46.775  34.855  30.498  1.00  0.00     0.020 A 
ATOM     72  C   UNL A   1      46.507  35.873  29.581  1.00  0.00     0.054 A 
BRANCH  72  73
ATOM     73  S   UNL A   1      46.611  37.614  30.078  1.00  0.00     0.124 S 
ATOM     74  O   UNL A   1      45.588  38.230  29.237  1.00  0.00    -0.237 OA
ATOM     75  O   UNL A   1      46.303  37.560  31.505  1.00  0.00    -0.237 OA
ATOM     76  O   UNL A   1      47.987  37.985  29.755  1.00  0.00    -0.744 OA
ENDBRANCH  72  73
ENDBRANCH  53  67
BRANCH  54  77
ATOM     77  C   UNL A   1      44.939  23.741  25.781  1.00  0.00    -0.014 A 
ATOM     78  C   UNL A   1      45.528  22.670  26.477  1.00  0.00     0.010 A 
ATOM     79  C   UNL A   1      44.172  23.470  24.634  1.00  0.00     0.010 A 
ATOM     80  C   UNL A   1      45.381  21.358  26.016  1.00  0.00     0.020 A 
ATOM     81  C   UNL A   1      43.999  22.157  24.186  1.00  0.00     0.020 A 
ATOM     82  C   UNL A   1      44.619  21.110  24.872  1.00  0.00     0.054 A 
BRANCH  82  83
ATOM     83  S   UNL A   1      44.418  19.397  24.309  1.00  0.00     0.124 S 
ATOM     84  O   UNL A   1      45.520  18.723  24.988  1.00  0.00    -0.237 OA
ATOM     85  O   UNL A   1      43.078  19.062  24.785  1.00  0.00    -0.237 OA
ATOM     86  O   UNL A   1      44.546  19.499  22.856  1.00  0.00    -0.744 OA
ENDBRANCH  82  83
ENDBRANCH  54  77
BRANCH  66  87
ATOM     87  C   UNL A   1      50.426  28.040  25.876  1.00  0.00    -0.014 A 
ATOM     88  C   UNL A   1      51.435  27.767  26.816  1.00  0.00     0.010 A 
ATOM     89  C   UNL A   1      50.755  28.092  24.509  1.00  0.00     0.010 A 
ATOM     90  C   UNL A   1      52.754  27.579  26.398  1.00  0.00     0.020 A 
ATOM     91  C   UNL A   1      52.067  27.876  24.086  1.00  0.00     0.020 A 
ATOM     92  C   UNL A   1      53.062  27.634  25.035  1.00  0.00     0.054 A 
BRANCH  92  93
ATOM     93  S   UNL A   1      54.772  27.339  24.513  1.00  0.00     0.124 S 
ATOM     94  O   UNL A   1      55.271  26.474  25.579  1.00  0.00    -0.237 OA
ATOM     95  O   UNL A   1      54.604  26.698  23.210  1.00  0.00    -0.237 OA
ATOM     96  O   UNL A   1      55.358  28.677  24.471  1.00  0.00    -0.744 OA
ENDBRANCH  92  93
ENDBRANCH  66  87
ENDBRANCH  40  41
ENDBRANCH  32  35
ENDBRANCH  30  31
ENDBRANCH  29  30
ENDBRANCH   1  29
TORSDOF 18
ENDMDL
MODEL 3
REMARK VINA RESULT:     -11.4      1.639      2.338
REMARK SMILES C[C@@H](Oc1ccc(-c2ccccc2)cc1)C(=O)N1CCC[C@H](C(=O)NCCCNC(=O)c2ccc(-c3c4nc(c(-c5ccc(S(=O)(=O)[O-])cc5)c5ccc([nH]5)c(-c5ccc(S(=O)(=O)[O-])cc5)c5nc(c(-c6ccc(S(=O)(=O)[O-])cc6)c6ccc3[nH]6)C=C5)C=C4)cc2)C1
REMARK SMILES IDX 26 1 25 2 23 3 24 4 22 6 18 7 19 8 92 9 20 10 21 11 16 12
REMARK SMILES IDX 17 13 2 14 1 15 3 16 4 17 5 18 15 19 6 20 14 21 7 22 8 23
REMARK SMILES IDX 9 24 13 25 10 26 12 27 11 28 27 29 28 30 29 31 30 32 31 34
REMARK SMILES IDX 32 35 33 36 91 37 34 38 90 39 35 40 36 41 37 42 84 43 38 44
REMARK SMILES IDX 89 45 83 46 85 47 39 48 88 49 82 50 81 51 40 53 70 54 51 55
REMARK SMILES IDX 69 56 52 57 55 58 68 59 86 60 53 61 54 62 67 64 87 65 56 66
REMARK SMILES IDX 41 67 42 68 50 69 43 70 49 71 44 72 45 73 46 74 47 75 48 76
REMARK SMILES IDX 71 77 72 78 80 79 73 80 79 81 74 82 75 83 76 84 77 85 78 86
REMARK SMILES IDX 57 87 58 88 66 89 59 90 65 91 60 92 61 93 62 94 63 95 64 96
REMARK H PARENT 25 5 29 33 85 52 55 63
REMARK Flexibility Score: inf
ROOT
ATOM      1  C   UNL A   1      38.496  22.106  25.760  1.00  0.00     0.117 C 
ENDROOT
BRANCH   1   2
ATOM      2  N   UNL A   1      37.265  22.446  26.438  1.00  0.00    -0.356 N 
ATOM      3  C   UNL A   1      35.971  22.161  26.146  1.00  0.00     0.224 C 
ATOM      4  O   UNL A   1      35.149  22.411  27.038  1.00  0.00    -0.275 OA
ATOM      5  H   UNL A   1      37.387  22.982  27.254  1.00  0.00     0.163 HD
BRANCH   3   6
ATOM      6  C   UNL A   1      35.471  21.562  24.822  1.00  0.00     0.098 C 
ATOM      7  N   UNL A   1      33.037  21.968  24.478  1.00  0.00    -0.339 N 
ATOM      8  C   UNL A   1      32.745  20.541  24.340  1.00  0.00     0.119 C 
ATOM      9  C   UNL A   1      34.386  22.367  24.104  1.00  0.00     0.133 C 
ATOM     10  C   UNL A   1      33.766  19.632  25.019  1.00  0.00     0.022 C 
ATOM     11  C   UNL A   1      35.218  20.055  24.829  1.00  0.00     0.017 C 
BRANCH   7  12
ATOM     12  C   UNL A   1      32.027  22.822  24.922  1.00  0.00     0.263 C 
ATOM     13  O   UNL A   1      30.955  22.366  25.339  1.00  0.00    -0.271 OA
BRANCH  12  14
ATOM     14  C   UNL A   1      32.190  24.348  24.814  1.00  0.00     0.259 C 
ATOM     15  C   UNL A   1      33.485  24.944  25.355  1.00  0.00     0.064 C 
BRANCH  14  16
ATOM     16  O   UNL A   1      32.034  24.603  23.411  1.00  0.00    -0.481 OA
BRANCH  16  17
ATOM     17  C   UNL A   1      31.301  25.721  23.150  1.00  0.00     0.120 A 
ATOM     18  C   UNL A   1      31.843  26.800  22.457  1.00  0.00     0.047 A 
ATOM     19  C   UNL A   1      30.057  25.815  23.755  1.00  0.00     0.047 A 
ATOM     20  C   UNL A   1      31.134  28.006  22.400  1.00  0.00     0.012 A 
ATOM     21  C   UNL A   1      29.352  27.009  23.687  1.00  0.00     0.012 A 
ATOM     22  C   UNL A   1      29.893  28.138  23.046  1.00  0.00    -0.018 A 
BRANCH  22  23
ATOM     23  C   UNL A   1      29.191  29.426  23.150  1.00  0.00    -0.018 A 
ATOM     24  C   UNL A   1      29.755  30.539  23.789  1.00  0.00     0.009 A 
ATOM     25  C   UNL A   1      27.917  29.572  22.569  1.00  0.00     0.009 A 
ATOM     26  C   UNL A   1      29.077  31.761  23.819  1.00  0.00     0.001 A 
ATOM     27  C   UNL A   1      27.240  30.790  22.596  1.00  0.00     0.001 A 
ATOM     28  C   UNL A   1      27.825  31.888  23.218  1.00  0.00     0.000 A 
ENDBRANCH  22  23
ENDBRANCH  16  17
ENDBRANCH  14  16
ENDBRANCH  12  14
ENDBRANCH   7  12
ENDBRANCH   3   6
ENDBRANCH   1   2
BRANCH   1  29
ATOM     29  C   UNL A   1      39.707  22.024  26.670  1.00  0.00     0.042 C 
BRANCH  29  30
ATOM     30  C   UNL A   1      40.193  23.382  27.141  1.00  0.00     0.118 C 
BRANCH  30  31
ATOM     31  N   UNL A   1      40.767  24.182  26.061  1.00  0.00    -0.352 N 
ATOM     32  C   UNL A   1      41.127  25.507  26.019  1.00  0.00     0.251 C 
ATOM     33  H   UNL A   1      40.922  23.688  25.223  1.00  0.00     0.163 HD
ATOM     34  O   UNL A   1      41.477  26.005  24.950  1.00  0.00    -0.269 OA
BRANCH  32  35
ATOM     35  C   UNL A   1      41.069  26.342  27.237  1.00  0.00     0.039 A 
ATOM     36  C   UNL A   1      42.066  27.297  27.459  1.00  0.00     0.014 A 
ATOM     37  C   UNL A   1      40.031  26.197  28.158  1.00  0.00     0.014 A 
ATOM     38  C   UNL A   1      41.975  28.152  28.560  1.00  0.00     0.010 A 
ATOM     39  C   UNL A   1      39.875  27.125  29.178  1.00  0.00     0.010 A 
ATOM     40  C   UNL A   1      40.855  28.103  29.404  1.00  0.00    -0.014 A 
BRANCH  40  41
ATOM     41  C   UNL A   1      40.689  29.034  30.548  1.00  0.00     0.031 A 
ATOM     42  C   UNL A   1      41.559  28.874  31.770  1.00  0.00     0.074 A 
ATOM     43  C   UNL A   1      39.709  29.961  30.527  1.00  0.00     0.049 A 
ATOM     44  N   UNL A   1      41.504  29.511  32.911  1.00  0.00    -0.248 NA
ATOM     45  C   UNL A   1      42.602  27.834  31.718  1.00  0.00     0.031 C 
ATOM     46  C   UNL A   1      38.769  30.181  29.424  1.00  0.00     0.029 A 
ATOM     47  N   UNL A   1      39.337  30.891  31.466  1.00  0.00    -0.354 N 
ATOM     48  C   UNL A   1      42.470  28.921  33.719  1.00  0.00     0.074 A 
ATOM     49  C   UNL A   1      43.061  27.844  32.959  1.00  0.00     0.031 C 
ATOM     50  C   UNL A   1      37.956  31.205  29.734  1.00  0.00     0.029 A 
ATOM     51  C   UNL A   1      38.285  31.684  31.072  1.00  0.00     0.049 A 
ATOM     52  H   UNL A   1      39.781  30.981  32.339  1.00  0.00     0.167 HD
ATOM     53  C   UNL A   1      42.848  29.260  34.974  1.00  0.00     0.031 A 
ATOM     54  C   UNL A   1      37.654  32.683  31.718  1.00  0.00     0.031 A 
ATOM     55  C   UNL A   1      42.293  30.366  35.704  1.00  0.00     0.049 A 
ATOM     56  C   UNL A   1      38.113  33.060  33.101  1.00  0.00     0.074 A 
ATOM     57  C   UNL A   1      42.668  30.853  36.943  1.00  0.00     0.029 A 
ATOM     58  N   UNL A   1      41.250  31.163  35.256  1.00  0.00    -0.354 N 
ATOM     59  N   UNL A   1      39.080  32.537  33.819  1.00  0.00    -0.248 NA
ATOM     60  C   UNL A   1      37.404  34.165  33.758  1.00  0.00     0.031 C 
ATOM     61  C   UNL A   1      41.819  31.916  37.268  1.00  0.00     0.029 A 
ATOM     62  C   UNL A   1      40.953  32.125  36.205  1.00  0.00     0.049 A 
ATOM     63  H   UNL A   1      40.791  31.061  34.392  1.00  0.00     0.167 HD
ATOM     64  C   UNL A   1      39.114  33.273  34.998  1.00  0.00     0.074 A 
ATOM     65  C   UNL A   1      38.082  34.283  34.891  1.00  0.00     0.031 C 
ATOM     66  C   UNL A   1      39.928  33.128  36.073  1.00  0.00     0.031 A 
BRANCH  53  67
ATOM     67  C   UNL A   1      43.915  28.428  35.635  1.00  0.00    -0.014 A 
ATOM     68  C   UNL A   1      45.278  28.746  35.499  1.00  0.00     0.010 A 
ATOM     69  C   UNL A   1      43.545  27.336  36.442  1.00  0.00     0.010 A 
ATOM     70  C   UNL A   1      46.254  27.965  36.127  1.00  0.00     0.020 A 
ATOM     71  C   UNL A   1      44.515  26.571  37.096  1.00  0.00     0.020 A 
ATOM     72  C   UNL A   1      45.865  26.881  36.921  1.00  0.00     0.054 A 
BRANCH  72  73
ATOM     73  S   UNL A   1      47.151  25.908  37.751  1.00  0.00     0.124 S 
ATOM     74  O   UNL A   1      47.541  26.795  38.844  1.00  0.00    -0.237 OA
ATOM     75  O   UNL A   1      46.433  24.700  38.149  1.00  0.00    -0.237 OA
ATOM     76  O   UNL A   1      48.162  25.715  36.715  1.00  0.00    -0.744 OA
ENDBRANCH  72  73
ENDBRANCH  53  67
BRANCH  54  77
ATOM     77  C   UNL A   1      36.539  33.420  31.061  1.00  0.00    -0.014 A 
ATOM     78  C   UNL A   1      35.392  33.773  31.795  1.00  0.00     0.010 A 
ATOM     79  C   UNL A   1      36.611  33.769  29.700  1.00  0.00     0.010 A 
ATOM     80  C   UNL A   1      34.326  34.430  31.174  1.00  0.00     0.020 A 
ATOM     81  C   UNL A   1      35.559  34.452  29.082  1.00  0.00     0.020 A 
ATOM     82  C   UNL A   1      34.415  34.764  29.821  1.00  0.00     0.054 A 
BRANCH  82  83
ATOM     83  S   UNL A   1      33.031  35.643  29.043  1.00  0.00     0.124 S 
ATOM     84  O   UNL A   1      32.228  36.027  30.199  1.00  0.00    -0.237 OA
ATOM     85  O   UNL A   1      33.703  36.736  28.345  1.00  0.00    -0.237 OA
ATOM     86  O   UNL A   1      32.433  34.632  28.171  1.00  0.00    -0.744 OA
ENDBRANCH  82  83
ENDBRANCH  54  77
BRANCH  66  87
ATOM     87  C   UNL A   1      39.765  34.108  37.201  1.00  0.00    -0.014 A 
ATOM     88  C   UNL A   1      40.160  35.450  37.064  1.00  0.00     0.010 A 
ATOM     89  C   UNL A   1      39.152  33.690  38.397  1.00  0.00     0.010 A 
ATOM     90  C   UNL A   1      39.970  36.351  38.114  1.00  0.00     0.020 A 
ATOM     91  C   UNL A   1      38.935  34.595  39.437  1.00  0.00     0.020 A 
ATOM     92  C   UNL A   1      39.359  35.917  39.295  1.00  0.00     0.054 A 
BRANCH  92  93
ATOM     93  S   UNL A   1      39.080  37.116  40.626  1.00  0.00     0.124 S 
ATOM     94  O   UNL A   1      38.143  36.400  41.488  1.00  0.00    -0.237 OA
ATOM     95  O   UNL A   1      40.422  37.303  41.175  1.00  0.00    -0.237 OA
ATOM     96  O   UNL A   1      38.529  38.279  39.936  1.00  0.00    -0.744 OA
ENDBRANCH  92  93
ENDBRANCH  66  87
ENDBRANCH  40  41
ENDBRANCH  32  35
ENDBRANCH  30  31
ENDBRANCH  29  30
ENDBRANCH   1  29
TORSDOF 18
ENDMDL
