MODEL 1
REMARK VINA RESULT:     -11.8      0.000      0.000
REMARK SMILES Cc1c(Cl)ccc2c1C=C(C(=O)NCCCNC(=O)c1ccc(-c3c4nc(c(-c5ccc(S(=O)(=O)[O-])cc5)c5ccc([nH]5)c(-c5ccc(S(=O)(=O)[O-])cc5)c5nc(c(-c6ccc(S(=O)(=O)[O-])cc6)c6ccc3[nH]6)C=C5)C=C4)cc1)[C@@H](C(F)(F)F)O2
REMARK SMILES IDX 16 1 15 2 14 3 13 4 11 5 12 6 10 8 1 9 2 10 3 11 8 12 4 13
REMARK SMILES IDX 5 14 7 15 9 16 6 17 85 18 80 19 81 20 82 21 83 22 84 23
REMARK SMILES IDX 17 24 18 25 19 27 20 28 21 29 79 30 22 31 78 32 23 33 24 34
REMARK SMILES IDX 25 35 72 36 26 37 77 38 71 39 73 40 27 41 76 42 70 43 69 44
REMARK SMILES IDX 28 46 58 47 39 48 57 49 40 50 43 51 56 52 74 53 41 54 42 55
REMARK SMILES IDX 55 57 75 58 44 59 29 60 30 61 38 62 31 63 37 64 32 65 33 66
REMARK SMILES IDX 34 67 35 68 36 69 59 70 60 71 68 72 61 73 67 74 62 75 63 76
REMARK SMILES IDX 64 77 65 78 66 79 45 80 46 81 54 82 47 83 53 84 48 85 49 86
REMARK SMILES IDX 50 87 51 88 52 89
REMARK H PARENT 13 7 17 26 73 45 43 56
REMARK Flexibility Score: inf
ROOT
ATOM      1  C   UNL A   1      36.284  23.694  25.968  1.00  0.00     0.118 C 
ENDROOT
BRANCH   1   2
ATOM      2  C   UNL A   1      35.023  23.266  26.711  1.00  0.00     0.042 C 
BRANCH   2   3
ATOM      3  C   UNL A   1      33.790  23.317  25.820  1.00  0.00     0.118 C 
BRANCH   3   4
ATOM      4  N   UNL A   1      34.142  23.567  24.428  1.00  0.00    -0.352 N 
ATOM      5  C   UNL A   1      33.892  24.510  23.492  1.00  0.00     0.251 C 
ATOM      6  O   UNL A   1      34.405  24.296  22.388  1.00  0.00    -0.270 OA
ATOM      7  H   UNL A   1      34.719  22.855  24.072  1.00  0.00     0.163 HD
BRANCH   5   8
ATOM      8  C   UNL A   1      33.088  25.749  23.705  1.00  0.00     0.067 C 
ATOM      9  C   UNL A   1      34.512  28.563  26.732  1.00  0.00     0.047 C 
ATOM     10  C   UNL A   1      33.294  28.791  25.872  1.00  0.00    -0.021 A 
ATOM     11  C   UNL A   1      32.529  29.965  26.057  1.00  0.00     0.044 A 
ATOM     12  C   UNL A   1      32.903  27.891  24.851  1.00  0.00     0.022 A 
ATOM     13  Cl  UNL A   1      32.948  31.151  27.249  1.00  0.00    -0.084 Cl
ATOM     14  C   UNL A   1      31.403  30.230  25.276  1.00  0.00     0.024 A 
ATOM     15  C   UNL A   1      31.759  28.173  24.089  1.00  0.00     0.128 A 
ATOM     16  C   UNL A   1      33.646  26.673  24.510  1.00  0.00     0.026 C 
ATOM     17  C   UNL A   1      31.019  29.334  24.289  1.00  0.00     0.048 A 
ATOM     18  O   UNL A   1      31.316  27.369  23.076  1.00  0.00    -0.475 OA
ATOM     19  C   UNL A   1      31.728  25.979  23.123  1.00  0.00     0.314 C 
BRANCH  19  20
ATOM     20  C   UNL A   1      30.630  25.144  23.808  1.00  0.00     0.429 C 
ATOM     21  F   UNL A   1      30.591  23.891  23.290  1.00  0.00    -0.167 F 
ATOM     22  F   UNL A   1      30.836  25.001  25.138  1.00  0.00    -0.167 F 
ATOM     23  F   UNL A   1      29.398  25.681  23.661  1.00  0.00    -0.167 F 
ENDBRANCH  19  20
ENDBRANCH   5   8
ENDBRANCH   3   4
ENDBRANCH   2   3
ENDBRANCH   1   2
BRANCH   1  24
ATOM     24  N   UNL A   1      37.329  22.678  26.060  1.00  0.00    -0.352 N 
ATOM     25  C   UNL A   1      38.670  22.832  26.303  1.00  0.00     0.251 C 
ATOM     26  H   UNL A   1      37.027  21.750  25.930  1.00  0.00     0.163 HD
ATOM     27  O   UNL A   1      39.452  21.918  26.045  1.00  0.00    -0.269 OA
BRANCH  25  28
ATOM     28  C   UNL A   1      39.165  24.098  26.874  1.00  0.00     0.039 A 
ATOM     29  C   UNL A   1      39.896  24.980  26.075  1.00  0.00     0.014 A 
ATOM     30  C   UNL A   1      38.913  24.398  28.216  1.00  0.00     0.014 A 
ATOM     31  C   UNL A   1      40.327  26.194  26.611  1.00  0.00     0.010 A 
ATOM     32  C   UNL A   1      39.276  25.636  28.726  1.00  0.00     0.010 A 
ATOM     33  C   UNL A   1      40.000  26.537  27.933  1.00  0.00    -0.014 A 
BRANCH  33  34
ATOM     34  C   UNL A   1      40.453  27.812  28.534  1.00  0.00     0.031 A 
ATOM     35  C   UNL A   1      41.869  27.932  29.024  1.00  0.00     0.074 A 
ATOM     36  C   UNL A   1      39.585  28.829  28.688  1.00  0.00     0.049 A 
ATOM     37  N   UNL A   1      42.444  28.934  29.634  1.00  0.00    -0.248 NA
ATOM     38  C   UNL A   1      42.749  26.767  28.819  1.00  0.00     0.031 C 
ATOM     39  C   UNL A   1      38.179  28.813  28.277  1.00  0.00     0.029 A 
ATOM     40  N   UNL A   1      39.758  30.075  29.235  1.00  0.00    -0.354 N 
ATOM     41  C   UNL A   1      43.744  28.518  29.894  1.00  0.00     0.074 A 
ATOM     42  C   UNL A   1      43.860  27.157  29.424  1.00  0.00     0.031 C 
ATOM     43  C   UNL A   1      37.626  30.005  28.559  1.00  0.00     0.029 A 
ATOM     44  C   UNL A   1      38.627  30.855  29.198  1.00  0.00     0.049 A 
ATOM     45  H   UNL A   1      40.612  30.381  29.617  1.00  0.00     0.167 HD
ATOM     46  C   UNL A   1      44.756  29.218  30.452  1.00  0.00     0.031 A 
ATOM     47  C   UNL A   1      38.421  32.115  29.629  1.00  0.00     0.031 A 
ATOM     48  C   UNL A   1      44.643  30.579  30.893  1.00  0.00     0.049 A 
ATOM     49  C   UNL A   1      39.558  32.869  30.259  1.00  0.00     0.074 A 
ATOM     50  C   UNL A   1      45.627  31.392  31.426  1.00  0.00     0.029 A 
ATOM     51  N   UNL A   1      43.479  31.329  30.845  1.00  0.00    -0.354 N 
ATOM     52  N   UNL A   1      40.790  32.471  30.465  1.00  0.00    -0.248 NA
ATOM     53  C   UNL A   1      39.283  34.241  30.708  1.00  0.00     0.031 C 
ATOM     54  C   UNL A   1      45.047  32.625  31.735  1.00  0.00     0.029 A 
ATOM     55  C   UNL A   1      43.714  32.593  31.353  1.00  0.00     0.049 A 
ATOM     56  H   UNL A   1      42.614  31.010  30.500  1.00  0.00     0.167 HD
ATOM     57  C   UNL A   1      41.443  33.548  31.051  1.00  0.00     0.074 A 
ATOM     58  C   UNL A   1      40.472  34.617  31.163  1.00  0.00     0.031 C 
ATOM     59  C   UNL A   1      42.732  33.642  31.456  1.00  0.00     0.031 A 
BRANCH  46  60
ATOM     60  C   UNL A   1      46.084  28.529  30.597  1.00  0.00    -0.014 A 
ATOM     61  C   UNL A   1      46.379  27.777  31.748  1.00  0.00     0.010 A 
ATOM     62  C   UNL A   1      47.021  28.583  29.550  1.00  0.00     0.010 A 
ATOM     63  C   UNL A   1      47.597  27.105  31.858  1.00  0.00     0.020 A 
ATOM     64  C   UNL A   1      48.233  27.894  29.648  1.00  0.00     0.020 A 
ATOM     65  C   UNL A   1      48.515  27.162  30.803  1.00  0.00     0.054 A 
BRANCH  65  66
ATOM     66  S   UNL A   1      50.072  26.250  30.967  1.00  0.00     0.124 S 
ATOM     67  O   UNL A   1      50.233  25.678  29.633  1.00  0.00    -0.237 OA
ATOM     68  O   UNL A   1      51.019  27.306  31.317  1.00  0.00    -0.237 OA
ATOM     69  O   UNL A   1      49.799  25.281  32.027  1.00  0.00    -0.744 OA
ENDBRANCH  65  66
ENDBRANCH  46  60
BRANCH  47  70
ATOM     70  C   UNL A   1      37.087  32.744  29.441  1.00  0.00    -0.014 A 
ATOM     71  C   UNL A   1      36.238  32.940  30.544  1.00  0.00     0.010 A 
ATOM     72  C   UNL A   1      36.685  33.202  28.174  1.00  0.00     0.010 A 
ATOM     73  C   UNL A   1      35.012  33.592  30.384  1.00  0.00     0.020 A 
ATOM     74  C   UNL A   1      35.467  33.869  28.014  1.00  0.00     0.020 A 
ATOM     75  C   UNL A   1      34.640  34.063  29.122  1.00  0.00     0.054 A 
BRANCH  75  76
ATOM     76  S   UNL A   1      33.074  34.966  28.962  1.00  0.00     0.124 S 
ATOM     77  O   UNL A   1      33.516  36.270  28.480  1.00  0.00    -0.237 OA
ATOM     78  O   UNL A   1      32.346  34.147  27.996  1.00  0.00    -0.237 OA
ATOM     79  O   UNL A   1      32.529  34.953  30.318  1.00  0.00    -0.744 OA
ENDBRANCH  75  76
ENDBRANCH  47  70
BRANCH  59  80
ATOM     80  C   UNL A   1      43.192  34.943  32.049  1.00  0.00    -0.014 A 
ATOM     81  C   UNL A   1      43.833  35.906  31.253  1.00  0.00     0.010 A 
ATOM     82  C   UNL A   1      42.853  35.257  33.378  1.00  0.00     0.010 A 
ATOM     83  C   UNL A   1      44.122  37.168  31.776  1.00  0.00     0.020 A 
ATOM     84  C   UNL A   1      43.123  36.523  33.898  1.00  0.00     0.020 A 
ATOM     85  C   UNL A   1      43.753  37.473  33.091  1.00  0.00     0.054 A 
BRANCH  85  86
ATOM     86  S   UNL A   1      44.069  39.148  33.710  1.00  0.00     0.124 S 
ATOM     87  O   UNL A   1      42.745  39.762  33.626  1.00  0.00    -0.237 OA
ATOM     88  O   UNL A   1      44.559  38.896  35.063  1.00  0.00    -0.237 OA
ATOM     89  O   UNL A   1      45.060  39.682  32.779  1.00  0.00    -0.744 OA
ENDBRANCH  85  86
ENDBRANCH  59  80
ENDBRANCH  33  34
ENDBRANCH  25  28
ENDBRANCH   1  24
TORSDOF 14
ENDMDL
MODEL 2
REMARK VINA RESULT:     -11.7      2.990      9.300
REMARK SMILES Cc1c(Cl)ccc2c1C=C(C(=O)NCCCNC(=O)c1ccc(-c3c4nc(c(-c5ccc(S(=O)(=O)[O-])cc5)c5ccc([nH]5)c(-c5ccc(S(=O)(=O)[O-])cc5)c5nc(c(-c6ccc(S(=O)(=O)[O-])cc6)c6ccc3[nH]6)C=C5)C=C4)cc1)[C@@H](C(F)(F)F)O2
REMARK SMILES IDX 16 1 15 2 14 3 13 4 11 5 12 6 10 8 1 9 2 10 3 11 8 12 4 13
REMARK SMILES IDX 5 14 7 15 9 16 6 17 85 18 80 19 81 20 82 21 83 22 84 23
REMARK SMILES IDX 17 24 18 25 19 27 20 28 21 29 79 30 22 31 78 32 23 33 24 34
REMARK SMILES IDX 25 35 72 36 26 37 77 38 71 39 73 40 27 41 76 42 70 43 69 44
REMARK SMILES IDX 28 46 58 47 39 48 57 49 40 50 43 51 56 52 74 53 41 54 42 55
REMARK SMILES IDX 55 57 75 58 44 59 29 60 30 61 38 62 31 63 37 64 32 65 33 66
REMARK SMILES IDX 34 67 35 68 36 69 59 70 60 71 68 72 61 73 67 74 62 75 63 76
REMARK SMILES IDX 64 77 65 78 66 79 45 80 46 81 54 82 47 83 53 84 48 85 49 86
REMARK SMILES IDX 50 87 51 88 52 89
REMARK H PARENT 13 7 17 26 73 45 43 56
REMARK Flexibility Score: inf
ROOT
ATOM      1  C   UNL A   1      34.175  28.368  26.304  1.00  0.00     0.118 C 
ENDROOT
BRANCH   1   2
ATOM      2  C   UNL A   1      33.949  28.335  24.796  1.00  0.00     0.042 C 
BRANCH   2   3
ATOM      3  C   UNL A   1      33.157  27.109  24.364  1.00  0.00     0.118 C 
BRANCH   3   4
ATOM      4  N   UNL A   1      32.319  26.602  25.443  1.00  0.00    -0.352 N 
ATOM      5  C   UNL A   1      32.088  25.417  26.051  1.00  0.00     0.251 C 
ATOM      6  O   UNL A   1      31.241  25.451  26.951  1.00  0.00    -0.270 OA
ATOM      7  H   UNL A   1      31.773  27.318  25.838  1.00  0.00     0.163 HD
BRANCH   5   8
ATOM      8  C   UNL A   1      32.776  24.132  25.733  1.00  0.00     0.067 C 
ATOM      9  C   UNL A   1      37.128  24.039  26.135  1.00  0.00     0.047 C 
ATOM     10  C   UNL A   1      36.291  22.849  25.740  1.00  0.00    -0.021 A 
ATOM     11  C   UNL A   1      36.929  21.623  25.445  1.00  0.00     0.044 A 
ATOM     12  C   UNL A   1      34.876  22.897  25.689  1.00  0.00     0.022 A 
ATOM     13  Cl  UNL A   1      38.651  21.448  25.520  1.00  0.00    -0.084 Cl
ATOM     14  C   UNL A   1      36.197  20.489  25.090  1.00  0.00     0.024 A 
ATOM     15  C   UNL A   1      34.163  21.746  25.316  1.00  0.00     0.128 A 
ATOM     16  C   UNL A   1      34.087  24.083  26.037  1.00  0.00     0.026 C 
ATOM     17  C   UNL A   1      34.813  20.550  25.027  1.00  0.00     0.048 A 
ATOM     18  O   UNL A   1      32.799  21.696  25.253  1.00  0.00    -0.475 OA
ATOM     19  C   UNL A   1      32.111  22.961  25.079  1.00  0.00     0.314 C 
BRANCH  19  20
ATOM     20  C   UNL A   1      31.831  23.187  23.581  1.00  0.00     0.429 C 
ATOM     21  F   UNL A   1      32.725  24.062  23.056  1.00  0.00    -0.167 F 
ATOM     22  F   UNL A   1      31.938  22.050  22.852  1.00  0.00    -0.167 F 
ATOM     23  F   UNL A   1      30.595  23.683  23.350  1.00  0.00    -0.167 F 
ENDBRANCH  19  20
ENDBRANCH   5   8
ENDBRANCH   3   4
ENDBRANCH   2   3
ENDBRANCH   1   2
BRANCH   1  24
ATOM     24  N   UNL A   1      33.888  29.689  26.856  1.00  0.00    -0.352 N 
ATOM     25  C   UNL A   1      34.572  30.397  27.812  1.00  0.00     0.251 C 
ATOM     26  H   UNL A   1      33.090  30.135  26.491  1.00  0.00     0.163 HD
ATOM     27  O   UNL A   1      34.032  31.345  28.380  1.00  0.00    -0.269 OA
BRANCH  25  28
ATOM     28  C   UNL A   1      35.954  30.012  28.151  1.00  0.00     0.039 A 
ATOM     29  C   UNL A   1      36.237  29.486  29.413  1.00  0.00     0.014 A 
ATOM     30  C   UNL A   1      36.973  30.195  27.212  1.00  0.00     0.014 A 
ATOM     31  C   UNL A   1      37.541  29.089  29.713  1.00  0.00     0.010 A 
ATOM     32  C   UNL A   1      38.252  29.730  27.483  1.00  0.00     0.010 A 
ATOM     33  C   UNL A   1      38.550  29.189  28.742  1.00  0.00    -0.014 A 
BRANCH  33  34
ATOM     34  C   UNL A   1      39.945  28.786  29.033  1.00  0.00     0.031 A 
ATOM     35  C   UNL A   1      40.870  29.767  29.698  1.00  0.00     0.074 A 
ATOM     36  C   UNL A   1      40.388  27.573  28.654  1.00  0.00     0.049 A 
ATOM     37  N   UNL A   1      42.139  29.636  29.982  1.00  0.00    -0.248 NA
ATOM     38  C   UNL A   1      40.301  31.074  30.073  1.00  0.00     0.031 C 
ATOM     39  C   UNL A   1      39.587  26.552  27.975  1.00  0.00     0.029 A 
ATOM     40  N   UNL A   1      41.625  26.995  28.784  1.00  0.00    -0.354 N 
ATOM     41  C   UNL A   1      42.519  30.842  30.558  1.00  0.00     0.074 A 
ATOM     42  C   UNL A   1      41.365  31.711  30.537  1.00  0.00     0.031 C 
ATOM     43  C   UNL A   1      40.345  25.460  27.776  1.00  0.00     0.029 A 
ATOM     44  C   UNL A   1      41.691  25.717  28.283  1.00  0.00     0.049 A 
ATOM     45  H   UNL A   1      42.392  27.452  29.197  1.00  0.00     0.167 HD
ATOM     46  C   UNL A   1      43.717  31.183  31.081  1.00  0.00     0.031 A 
ATOM     47  C   UNL A   1      42.720  24.848  28.240  1.00  0.00     0.031 A 
ATOM     48  C   UNL A   1      44.853  30.307  31.124  1.00  0.00     0.049 A 
ATOM     49  C   UNL A   1      44.047  25.255  28.815  1.00  0.00     0.074 A 
ATOM     50  C   UNL A   1      46.098  30.543  31.679  1.00  0.00     0.029 A 
ATOM     51  N   UNL A   1      44.880  29.024  30.599  1.00  0.00    -0.354 N 
ATOM     52  N   UNL A   1      44.379  26.387  29.387  1.00  0.00    -0.248 NA
ATOM     53  C   UNL A   1      45.136  24.270  28.746  1.00  0.00     0.031 C 
ATOM     54  C   UNL A   1      46.891  29.415  31.456  1.00  0.00     0.029 A 
ATOM     55  C   UNL A   1      46.126  28.461  30.802  1.00  0.00     0.049 A 
ATOM     56  H   UNL A   1      44.125  28.582  30.149  1.00  0.00     0.167 HD
ATOM     57  C   UNL A   1      45.709  26.246  29.763  1.00  0.00     0.074 A 
ATOM     58  C   UNL A   1      46.121  24.917  29.358  1.00  0.00     0.031 C 
ATOM     59  C   UNL A   1      46.514  27.136  30.390  1.00  0.00     0.031 A 
BRANCH  46  60
ATOM     60  C   UNL A   1      43.855  32.559  31.670  1.00  0.00    -0.014 A 
ATOM     61  C   UNL A   1      43.562  32.790  33.026  1.00  0.00     0.010 A 
ATOM     62  C   UNL A   1      44.339  33.616  30.879  1.00  0.00     0.010 A 
ATOM     63  C   UNL A   1      43.733  34.061  33.576  1.00  0.00     0.020 A 
ATOM     64  C   UNL A   1      44.532  34.885  31.433  1.00  0.00     0.020 A 
ATOM     65  C   UNL A   1      44.223  35.100  32.778  1.00  0.00     0.054 A 
BRANCH  65  66
ATOM     66  S   UNL A   1      44.464  36.728  33.536  1.00  0.00     0.124 S 
ATOM     67  O   UNL A   1      45.910  36.903  33.432  1.00  0.00    -0.237 OA
ATOM     68  O   UNL A   1      43.663  37.596  32.676  1.00  0.00    -0.237 OA
ATOM     69  O   UNL A   1      43.957  36.559  34.896  1.00  0.00    -0.744 OA
ENDBRANCH  65  66
ENDBRANCH  46  60
BRANCH  47  70
ATOM     70  C   UNL A   1      42.512  23.496  27.657  1.00  0.00    -0.014 A 
ATOM     71  C   UNL A   1      43.016  23.193  26.380  1.00  0.00     0.010 A 
ATOM     72  C   UNL A   1      41.865  22.490  28.396  1.00  0.00     0.010 A 
ATOM     73  C   UNL A   1      42.883  21.905  25.855  1.00  0.00     0.020 A 
ATOM     74  C   UNL A   1      41.746  21.196  27.881  1.00  0.00     0.020 A 
ATOM     75  C   UNL A   1      42.260  20.911  26.615  1.00  0.00     0.054 A 
BRANCH  75  76
ATOM     76  S   UNL A   1      42.165  19.231  25.934  1.00  0.00     0.124 S 
ATOM     77  O   UNL A   1      42.726  18.427  27.014  1.00  0.00    -0.237 OA
ATOM     78  O   UNL A   1      40.731  19.074  25.707  1.00  0.00    -0.237 OA
ATOM     79  O   UNL A   1      42.979  19.305  24.722  1.00  0.00    -0.744 OA
ENDBRANCH  75  76
ENDBRANCH  47  70
BRANCH  59  80
ATOM     80  C   UNL A   1      47.922  26.717  30.700  1.00  0.00    -0.014 A 
ATOM     81  C   UNL A   1      48.985  27.104  29.867  1.00  0.00     0.010 A 
ATOM     82  C   UNL A   1      48.198  26.052  31.910  1.00  0.00     0.010 A 
ATOM     83  C   UNL A   1      50.302  26.838  30.242  1.00  0.00     0.020 A 
ATOM     84  C   UNL A   1      49.515  25.801  32.296  1.00  0.00     0.020 A 
ATOM     85  C   UNL A   1      50.560  26.199  31.461  1.00  0.00     0.054 A 
BRANCH  85  86
ATOM     86  S   UNL A   1      52.286  25.944  31.955  1.00  0.00     0.124 S 
ATOM     87  O   UNL A   1      52.236  24.625  32.580  1.00  0.00    -0.237 OA
ATOM     88  O   UNL A   1      52.991  26.008  30.677  1.00  0.00    -0.237 OA
ATOM     89  O   UNL A   1      52.555  27.053  32.868  1.00  0.00    -0.744 OA
ENDBRANCH  85  86
ENDBRANCH  59  80
ENDBRANCH  33  34
ENDBRANCH  25  28
ENDBRANCH   1  24
TORSDOF 14
ENDMDL
MODEL 3
REMARK VINA RESULT:     -11.5      3.985      9.264
REMARK SMILES Cc1c(Cl)ccc2c1C=C(C(=O)NCCCNC(=O)c1ccc(-c3c4nc(c(-c5ccc(S(=O)(=O)[O-])cc5)c5ccc([nH]5)c(-c5ccc(S(=O)(=O)[O-])cc5)c5nc(c(-c6ccc(S(=O)(=O)[O-])cc6)c6ccc3[nH]6)C=C5)C=C4)cc1)[C@@H](C(F)(F)F)O2
REMARK SMILES IDX 16 1 15 2 14 3 13 4 11 5 12 6 10 8 1 9 2 10 3 11 8 12 4 13
REMARK SMILES IDX 5 14 7 15 9 16 6 17 85 18 80 19 81 20 82 21 83 22 84 23
REMARK SMILES IDX 17 24 18 25 19 27 20 28 21 29 79 30 22 31 78 32 23 33 24 34
REMARK SMILES IDX 25 35 72 36 26 37 77 38 71 39 73 40 27 41 76 42 70 43 69 44
REMARK SMILES IDX 28 46 58 47 39 48 57 49 40 50 43 51 56 52 74 53 41 54 42 55
REMARK SMILES IDX 55 57 75 58 44 59 29 60 30 61 38 62 31 63 37 64 32 65 33 66
REMARK SMILES IDX 34 67 35 68 36 69 59 70 60 71 68 72 61 73 67 74 62 75 63 76
REMARK SMILES IDX 64 77 65 78 66 79 45 80 46 81 54 82 47 83 53 84 48 85 49 86
REMARK SMILES IDX 50 87 51 88 52 89
REMARK H PARENT 13 7 17 26 73 45 43 56
REMARK Flexibility Score: inf
ROOT
ATOM      1  C   UNL A   1      39.297  23.878  26.860  1.00  0.00     0.118 C 
ENDROOT
BRANCH   1   2
ATOM      2  C   UNL A   1      37.967  23.744  26.124  1.00  0.00     0.042 C 
BRANCH   2   3
ATOM      3  C   UNL A   1      37.702  22.312  25.682  1.00  0.00     0.118 C 
BRANCH   3   4
ATOM      4  N   UNL A   1      36.389  21.850  26.110  1.00  0.00    -0.352 N 
ATOM      5  C   UNL A   1      35.095  22.128  25.832  1.00  0.00     0.251 C 
ATOM      6  O   UNL A   1      34.271  21.472  26.478  1.00  0.00    -0.270 OA
ATOM      7  H   UNL A   1      36.463  21.141  26.788  1.00  0.00     0.163 HD
BRANCH   5   8
ATOM      8  C   UNL A   1      34.622  23.119  24.822  1.00  0.00     0.067 C 
ATOM      9  C   UNL A   1      33.712  27.151  26.245  1.00  0.00     0.047 C 
ATOM     10  C   UNL A   1      33.617  26.723  24.802  1.00  0.00    -0.021 A 
ATOM     11  C   UNL A   1      33.179  27.654  23.833  1.00  0.00     0.044 A 
ATOM     12  C   UNL A   1      33.989  25.428  24.366  1.00  0.00     0.022 A 
ATOM     13  Cl  UNL A   1      32.742  29.276  24.256  1.00  0.00    -0.084 Cl
ATOM     14  C   UNL A   1      33.090  27.311  22.483  1.00  0.00     0.024 A 
ATOM     15  C   UNL A   1      33.877  25.103  23.005  1.00  0.00     0.128 A 
ATOM     16  C   UNL A   1      34.523  24.390  25.254  1.00  0.00     0.026 C 
ATOM     17  C   UNL A   1      33.441  26.035  22.069  1.00  0.00     0.048 A 
ATOM     18  O   UNL A   1      34.224  23.884  22.494  1.00  0.00    -0.475 OA
ATOM     19  C   UNL A   1      34.228  22.769  23.420  1.00  0.00     0.314 C 
BRANCH  19  20
ATOM     20  C   UNL A   1      32.876  22.035  23.340  1.00  0.00     0.429 C 
ATOM     21  F   UNL A   1      32.370  22.102  22.084  1.00  0.00    -0.167 F 
ATOM     22  F   UNL A   1      32.977  20.719  23.642  1.00  0.00    -0.167 F 
ATOM     23  F   UNL A   1      31.950  22.556  24.177  1.00  0.00    -0.167 F 
ENDBRANCH  19  20
ENDBRANCH   5   8
ENDBRANCH   3   4
ENDBRANCH   2   3
ENDBRANCH   1   2
BRANCH   1  24
ATOM     24  N   UNL A   1      40.331  24.437  25.994  1.00  0.00    -0.352 N 
ATOM     25  C   UNL A   1      40.901  25.685  26.018  1.00  0.00     0.251 C 
ATOM     26  H   UNL A   1      40.668  23.832  25.295  1.00  0.00     0.163 HD
ATOM     27  O   UNL A   1      41.526  26.095  25.040  1.00  0.00    -0.269 OA
BRANCH  25  28
ATOM     28  C   UNL A   1      40.759  26.526  27.219  1.00  0.00     0.039 A 
ATOM     29  C   UNL A   1      39.880  26.142  28.235  1.00  0.00     0.014 A 
ATOM     30  C   UNL A   1      41.491  27.712  27.325  1.00  0.00     0.014 A 
ATOM     31  C   UNL A   1      39.779  26.925  29.386  1.00  0.00     0.010 A 
ATOM     32  C   UNL A   1      41.448  28.447  28.501  1.00  0.00     0.010 A 
ATOM     33  C   UNL A   1      40.579  28.069  29.534  1.00  0.00    -0.014 A 
BRANCH  33  34
ATOM     34  C   UNL A   1      40.487  28.925  30.738  1.00  0.00     0.031 A 
ATOM     35  C   UNL A   1      39.457  30.018  30.786  1.00  0.00     0.074 A 
ATOM     36  C   UNL A   1      41.357  28.756  31.752  1.00  0.00     0.049 A 
ATOM     37  N   UNL A   1      39.253  30.914  31.716  1.00  0.00    -0.248 NA
ATOM     38  C   UNL A   1      38.550  30.134  29.630  1.00  0.00     0.031 C 
ATOM     39  C   UNL A   1      42.417  27.746  31.800  1.00  0.00     0.029 A 
ATOM     40  N   UNL A   1      41.488  29.433  32.937  1.00  0.00    -0.354 N 
ATOM     41  C   UNL A   1      38.207  31.702  31.254  1.00  0.00     0.074 A 
ATOM     42  C   UNL A   1      37.851  31.215  29.941  1.00  0.00     0.031 C 
ATOM     43  C   UNL A   1      43.070  27.851  32.969  1.00  0.00     0.029 A 
ATOM     44  C   UNL A   1      42.497  28.953  33.737  1.00  0.00     0.049 A 
ATOM     45  H   UNL A   1      40.913  30.190  33.190  1.00  0.00     0.167 HD
ATOM     46  C   UNL A   1      37.582  32.723  31.880  1.00  0.00     0.031 A 
ATOM     47  C   UNL A   1      42.911  29.355  34.955  1.00  0.00     0.031 A 
ATOM     48  C   UNL A   1      37.922  33.186  33.195  1.00  0.00     0.049 A 
ATOM     49  C   UNL A   1      42.211  30.502  35.626  1.00  0.00     0.074 A 
ATOM     50  C   UNL A   1      37.315  34.183  33.937  1.00  0.00     0.029 A 
ATOM     51  N   UNL A   1      38.954  32.678  33.967  1.00  0.00    -0.354 N 
ATOM     52  N   UNL A   1      41.200  31.213  35.188  1.00  0.00    -0.248 NA
ATOM     53  C   UNL A   1      42.699  30.899  36.954  1.00  0.00     0.031 C 
ATOM     54  C   UNL A   1      38.004  34.304  35.146  1.00  0.00     0.029 A 
ATOM     55  C   UNL A   1      39.013  33.352  35.173  1.00  0.00     0.049 A 
ATOM     56  H   UNL A   1      39.556  31.948  33.698  1.00  0.00     0.167 HD
ATOM     57  C   UNL A   1      40.918  32.130  36.193  1.00  0.00     0.074 A 
ATOM     58  C   UNL A   1      41.861  31.882  37.264  1.00  0.00     0.031 C 
ATOM     59  C   UNL A   1      39.961  33.088  36.225  1.00  0.00     0.031 A 
BRANCH  46  60
ATOM     60  C   UNL A   1      36.450  33.398  31.157  1.00  0.00    -0.014 A 
ATOM     61  C   UNL A   1      35.220  33.618  31.800  1.00  0.00     0.010 A 
ATOM     62  C   UNL A   1      36.637  33.869  29.845  1.00  0.00     0.010 A 
ATOM     63  C   UNL A   1      34.187  34.283  31.137  1.00  0.00     0.020 A 
ATOM     64  C   UNL A   1      35.612  34.553  29.186  1.00  0.00     0.020 A 
ATOM     65  C   UNL A   1      34.392  34.753  29.835  1.00  0.00     0.054 A 
BRANCH  65  66
ATOM     66  S   UNL A   1      33.040  35.641  29.018  1.00  0.00     0.124 S 
ATOM     67  O   UNL A   1      32.278  36.150  30.155  1.00  0.00    -0.237 OA
ATOM     68  O   UNL A   1      33.754  36.649  28.237  1.00  0.00    -0.237 OA
ATOM     69  O   UNL A   1      32.367  34.608  28.234  1.00  0.00    -0.744 OA
ENDBRANCH  65  66
ENDBRANCH  46  60
BRANCH  47  70
ATOM     70  C   UNL A   1      44.027  28.634  35.623  1.00  0.00    -0.014 A 
ATOM     71  C   UNL A   1      45.353  29.063  35.441  1.00  0.00     0.010 A 
ATOM     72  C   UNL A   1      43.767  27.557  36.488  1.00  0.00     0.010 A 
ATOM     73  C   UNL A   1      46.400  28.432  36.119  1.00  0.00     0.020 A 
ATOM     74  C   UNL A   1      44.809  26.935  37.181  1.00  0.00     0.020 A 
ATOM     75  C   UNL A   1      46.119  27.380  36.995  1.00  0.00     0.054 A 
BRANCH  75  76
ATOM     76  S   UNL A   1      47.492  26.627  37.912  1.00  0.00     0.124 S 
ATOM     77  O   UNL A   1      47.387  27.278  39.214  1.00  0.00    -0.237 OA
ATOM     78  O   UNL A   1      47.140  25.211  37.883  1.00  0.00    -0.237 OA
ATOM     79  O   UNL A   1      48.670  26.988  37.127  1.00  0.00    -0.744 OA
ENDBRANCH  75  76
ENDBRANCH  47  70
BRANCH  59  80
ATOM     80  C   UNL A   1      39.859  33.942  37.456  1.00  0.00    -0.014 A 
ATOM     81  C   UNL A   1      40.460  35.211  37.500  1.00  0.00     0.010 A 
ATOM     82  C   UNL A   1      39.038  33.528  38.522  1.00  0.00     0.010 A 
ATOM     83  C   UNL A   1      40.236  36.056  38.588  1.00  0.00     0.020 A 
ATOM     84  C   UNL A   1      38.796  34.378  39.602  1.00  0.00     0.020 A 
ATOM     85  C   UNL A   1      39.394  35.639  39.626  1.00  0.00     0.054 A 
BRANCH  85  86
ATOM     86  S   UNL A   1      39.059  36.795  40.982  1.00  0.00     0.124 S 
ATOM     87  O   UNL A   1      40.394  37.021  41.532  1.00  0.00    -0.237 OA
ATOM     88  O   UNL A   1      38.466  37.933  40.285  1.00  0.00    -0.237 OA
ATOM     89  O   UNL A   1      38.147  36.056  41.853  1.00  0.00    -0.744 OA
ENDBRANCH  85  86
ENDBRANCH  59  80
ENDBRANCH  33  34
ENDBRANCH  25  28
ENDBRANCH   1  24
TORSDOF 14
ENDMDL
